MODEL 1
REMARK VINA RESULT:    -6.353      0.000      0.000
REMARK INTER + INTRA:          -7.290
REMARK INTER:                  -7.653
REMARK INTRA:                   0.363
REMARK UNBOUND:                 0.363
REMARK SMILES O=c1c(O)c(-c2ccc(O)c(O)c2)oc2cc(O)cc(O)c12
REMARK SMILES IDX 5 1 3 2 2 3 1 4 22 5 20 6 19 7 17 8 16 9 15 10 14 11 6 12
REMARK SMILES IDX 7 13 8 14 9 15 13 16 11 17 10 18 12 20 4 22 21 24 18 26
REMARK H PARENT 10 19 12 21 4 23 21 25 18 27
REMARK Flexibility Score: inf
ROOT
ATOM      1  C   UNL     1      24.899  14.464  31.857  1.00  0.00     0.180 A 
ATOM      2  C   UNL     1      26.259  14.265  31.561  1.00  0.00     0.208 A 
ATOM      3  C   UNL     1      27.209  14.423  32.584  1.00  0.00     0.238 A 
ATOM      4  O   UNL     1      28.418  14.191  32.325  1.00  0.00    -0.285 OA
ATOM      5  C   UNL     1      26.788  14.794  33.884  1.00  0.00     0.111 A 
ATOM      6  C   UNL     1      27.668  15.021  34.984  1.00  0.00     0.134 A 
ATOM      7  C   UNL     1      27.133  15.256  36.258  1.00  0.00     0.093 A 
ATOM      8  C   UNL     1      25.757  15.336  36.457  1.00  0.00     0.123 A 
ATOM      9  C   UNL     1      24.889  15.175  35.376  1.00  0.00     0.094 A 
ATOM     10  C   UNL     1      25.391  14.904  34.101  1.00  0.00     0.146 A 
ATOM     11  O   UNL     1      24.531  14.747  33.101  1.00  0.00    -0.452 OA
ENDROOT
BRANCH   1  12
ATOM     12  C   UNL     1      23.843  14.340  30.827  1.00  0.00     0.025 A 
ATOM     13  C   UNL     1      24.146  14.407  29.456  1.00  0.00     0.016 A 
ATOM     14  C   UNL     1      23.129  14.311  28.502  1.00  0.00     0.051 A 
ATOM     15  C   UNL     1      21.797  14.163  28.900  1.00  0.00     0.157 A 
ATOM     16  C   UNL     1      22.502  14.212  31.224  1.00  0.00     0.062 A 
ATOM     17  C   UNL     1      21.479  14.116  30.268  1.00  0.00     0.158 A 
BRANCH  15  18
ATOM     18  O   UNL     1      20.804  14.069  27.925  1.00  0.00    -0.504 OA
ATOM     19  H   UNL     1      20.516  14.868  27.373  1.00  0.00     0.293 HD
ENDBRANCH  15  18
BRANCH  17  20
ATOM     20  O   UNL     1      20.153  13.975  30.673  1.00  0.00    -0.504 OA
ATOM     21  H   UNL     1      19.906  13.853  31.648  1.00  0.00     0.293 HD
ENDBRANCH  17  20
ENDBRANCH   1  12
BRANCH   2  22
ATOM     22  O   UNL     1      26.649  13.879  30.276  1.00  0.00    -0.502 OA
ATOM     23  H   UNL     1      25.997  13.498  29.600  1.00  0.00     0.293 HD
ENDBRANCH   2  22
BRANCH   6  24
ATOM     24  O   UNL     1      29.062  15.053  34.878  1.00  0.00    -0.507 OA
ATOM     25  H   UNL     1      29.689  15.315  35.624  1.00  0.00     0.293 HD
ENDBRANCH   6  24
BRANCH   8  26
ATOM     26  O   UNL     1      25.260  15.587  37.735  1.00  0.00    -0.508 OA
ATOM     27  H   UNL     1      25.863  15.575  38.549  1.00  0.00     0.293 HD
ENDBRANCH   8  26
TORSDOF 6
ENDMDL
MODEL 2
REMARK VINA RESULT:    -6.199      2.055      6.562
REMARK INTER + INTRA:          -7.104
REMARK INTER:                  -6.923
REMARK INTRA:                  -0.181
REMARK UNBOUND:                 0.363
REMARK SMILES O=c1c(O)c(-c2ccc(O)c(O)c2)oc2cc(O)cc(O)c12
REMARK SMILES IDX 5 1 3 2 2 3 1 4 22 5 20 6 19 7 17 8 16 9 15 10 14 11 6 12
REMARK SMILES IDX 7 13 8 14 9 15 13 16 11 17 10 18 12 20 4 22 21 24 18 26
REMARK H PARENT 10 19 12 21 4 23 21 25 18 27
REMARK Flexibility Score: inf
ROOT
ATOM      1  C   UNL     1      25.224  14.740  31.927  1.00  0.00     0.180 A 
ATOM      2  C   UNL     1      25.173  14.780  30.523  1.00  0.00     0.208 A 
ATOM      3  C   UNL     1      23.941  14.576  29.880  1.00  0.00     0.238 A 
ATOM      4  O   UNL     1      23.893  14.667  28.626  1.00  0.00    -0.285 OA
ATOM      5  C   UNL     1      22.780  14.320  30.648  1.00  0.00     0.111 A 
ATOM      6  C   UNL     1      21.488  14.059  30.099  1.00  0.00     0.134 A 
ATOM      7  C   UNL     1      20.385  13.948  30.956  1.00  0.00     0.093 A 
ATOM      8  C   UNL     1      20.536  14.023  32.339  1.00  0.00     0.123 A 
ATOM      9  C   UNL     1      21.805  14.218  32.888  1.00  0.00     0.094 A 
ATOM     10  C   UNL     1      22.919  14.368  32.059  1.00  0.00     0.146 A 
ATOM     11  O   UNL     1      24.106  14.562  32.621  1.00  0.00    -0.452 OA
ENDROOT
BRANCH   1  12
ATOM     12  C   UNL     1      26.489  14.921  32.675  1.00  0.00     0.025 A 
ATOM     13  C   UNL     1      27.050  13.875  33.429  1.00  0.00     0.016 A 
ATOM     14  C   UNL     1      28.232  14.076  34.146  1.00  0.00     0.051 A 
ATOM     15  C   UNL     1      28.863  15.323  34.134  1.00  0.00     0.157 A 
ATOM     16  C   UNL     1      27.114  16.179  32.682  1.00  0.00     0.062 A 
ATOM     17  C   UNL     1      28.301  16.383  33.402  1.00  0.00     0.158 A 
BRANCH  15  18
ATOM     18  O   UNL     1      30.042  15.493  34.859  1.00  0.00    -0.504 OA
ATOM     19  H   UNL     1      30.762  16.145  34.571  1.00  0.00     0.293 HD
ENDBRANCH  15  18
BRANCH  17  20
ATOM     20  O   UNL     1      28.921  17.631  33.391  1.00  0.00    -0.504 OA
ATOM     21  H   UNL     1      28.504  18.427  32.923  1.00  0.00     0.293 HD
ENDBRANCH  17  20
ENDBRANCH   1  12
BRANCH   2  22
ATOM     22  O   UNL     1      26.328  15.056  29.786  1.00  0.00    -0.502 OA
ATOM     23  H   UNL     1      26.982  14.333  29.509  1.00  0.00     0.293 HD
ENDBRANCH   2  22
BRANCH   6  24
ATOM     24  O   UNL     1      21.241  13.875  28.736  1.00  0.00    -0.507 OA
ATOM     25  H   UNL     1      21.951  13.694  28.043  1.00  0.00     0.293 HD
ENDBRANCH   6  24
BRANCH   8  26
ATOM     26  O   UNL     1      19.419  13.892  33.161  1.00  0.00    -0.508 OA
ATOM     27  H   UNL     1      19.162  14.612  33.825  1.00  0.00     0.293 HD
ENDBRANCH   8  26
TORSDOF 6
ENDMDL
MODEL 3
REMARK VINA RESULT:    -6.108      1.272      6.617
REMARK INTER + INTRA:          -6.994
REMARK INTER:                  -7.224
REMARK INTRA:                   0.230
REMARK UNBOUND:                 0.363
REMARK SMILES O=c1c(O)c(-c2ccc(O)c(O)c2)oc2cc(O)cc(O)c12
REMARK SMILES IDX 5 1 3 2 2 3 1 4 22 5 20 6 19 7 17 8 16 9 15 10 14 11 6 12
REMARK SMILES IDX 7 13 8 14 9 15 13 16 11 17 10 18 12 20 4 22 21 24 18 26
REMARK H PARENT 10 19 12 21 4 23 21 25 18 27
REMARK Flexibility Score: inf
ROOT
ATOM      1  C   UNL     1      24.873  14.617  32.832  1.00  0.00     0.180 A 
ATOM      2  C   UNL     1      25.560  14.684  31.607  1.00  0.00     0.208 A 
ATOM      3  C   UNL     1      24.840  14.521  30.412  1.00  0.00     0.238 A 
ATOM      4  O   UNL     1      25.452  14.636  29.318  1.00  0.00    -0.285 OA
ATOM      5  C   UNL     1      23.446  14.276  30.458  1.00  0.00     0.111 A 
ATOM      6  C   UNL     1      22.625  14.056  29.311  1.00  0.00     0.134 A 
ATOM      7  C   UNL     1      21.237  13.955  29.466  1.00  0.00     0.093 A 
ATOM      8  C   UNL     1      20.648  14.000  30.728  1.00  0.00     0.123 A 
ATOM      9  C   UNL     1      21.448  14.155  31.861  1.00  0.00     0.094 A 
ATOM     10  C   UNL     1      22.832  14.295  31.736  1.00  0.00     0.146 A 
ATOM     11  O   UNL     1      23.556  14.452  32.838  1.00  0.00    -0.452 OA
ENDROOT
BRANCH   1  12
ATOM     12  C   UNL     1      25.567  14.754  34.132  1.00  0.00     0.025 A 
ATOM     13  C   UNL     1      26.897  14.330  34.301  1.00  0.00     0.016 A 
ATOM     14  C   UNL     1      27.523  14.448  35.544  1.00  0.00     0.051 A 
ATOM     15  C   UNL     1      26.831  14.975  36.638  1.00  0.00     0.157 A 
ATOM     16  C   UNL     1      24.868  15.263  35.238  1.00  0.00     0.062 A 
ATOM     17  C   UNL     1      25.495  15.382  36.487  1.00  0.00     0.158 A 
BRANCH  15  18
ATOM     18  O   UNL     1      27.484  15.080  37.867  1.00  0.00    -0.504 OA
ATOM     19  H   UNL     1      27.496  14.320  38.536  1.00  0.00     0.293 HD
ENDBRANCH  15  18
BRANCH  17  20
ATOM     20  O   UNL     1      24.796  15.902  37.576  1.00  0.00    -0.504 OA
ATOM     21  H   UNL     1      24.789  15.435  38.474  1.00  0.00     0.293 HD
ENDBRANCH  17  20
ENDBRANCH   1  12
BRANCH   2  22
ATOM     22  O   UNL     1      26.933  14.947  31.584  1.00  0.00    -0.502 OA
ATOM     23  H   UNL     1      27.387  15.529  32.279  1.00  0.00     0.293 HD
ENDBRANCH   2  22
BRANCH   6  24
ATOM     24  O   UNL     1      23.121  13.904  28.013  1.00  0.00    -0.507 OA
ATOM     25  H   UNL     1      23.683  13.126  27.701  1.00  0.00     0.293 HD
ENDBRANCH   6  24
BRANCH   8  26
ATOM     26  O   UNL     1      19.265  13.879  30.846  1.00  0.00    -0.508 OA
ATOM     27  H   UNL     1      18.634  14.510  30.365  1.00  0.00     0.293 HD
ENDBRANCH   8  26
TORSDOF 6
ENDMDL
MODEL 4
REMARK VINA RESULT:    -5.979      3.101      5.115
REMARK INTER + INTRA:          -6.839
REMARK INTER:                  -6.742
REMARK INTRA:                  -0.096
REMARK UNBOUND:                 0.363
REMARK SMILES O=c1c(O)c(-c2ccc(O)c(O)c2)oc2cc(O)cc(O)c12
REMARK SMILES IDX 5 1 3 2 2 3 1 4 22 5 20 6 19 7 17 8 16 9 15 10 14 11 6 12
REMARK SMILES IDX 7 13 8 14 9 15 13 16 11 17 10 18 12 20 4 22 21 24 18 26
REMARK H PARENT 10 19 12 21 4 23 21 25 18 27
REMARK Flexibility Score: inf
ROOT
ATOM      1  C   UNL     1      26.971  16.103  32.093  1.00  0.00     0.180 A 
ATOM      2  C   UNL     1      25.661  15.629  31.904  1.00  0.00     0.208 A 
ATOM      3  C   UNL     1      24.954  15.124  33.008  1.00  0.00     0.238 A 
ATOM      4  O   UNL     1      23.763  14.751  32.843  1.00  0.00    -0.285 OA
ATOM      5  C   UNL     1      25.572  15.084  34.281  1.00  0.00     0.111 A 
ATOM      6  C   UNL     1      24.963  14.555  35.459  1.00  0.00     0.134 A 
ATOM      7  C   UNL     1      25.616  14.686  36.691  1.00  0.00     0.093 A 
ATOM      8  C   UNL     1      26.881  15.266  36.778  1.00  0.00     0.123 A 
ATOM      9  C   UNL     1      27.510  15.732  35.623  1.00  0.00     0.094 A 
ATOM     10  C   UNL     1      26.869  15.648  34.385  1.00  0.00     0.146 A 
ATOM     11  O   UNL     1      27.498  16.112  33.312  1.00  0.00    -0.452 OA
ENDROOT
BRANCH   1  12
ATOM     12  C   UNL     1      27.787  16.627  30.975  1.00  0.00     0.025 A 
ATOM     13  C   UNL     1      29.027  16.053  30.641  1.00  0.00     0.016 A 
ATOM     14  C   UNL     1      29.791  16.580  29.597  1.00  0.00     0.051 A 
ATOM     15  C   UNL     1      29.340  17.693  28.881  1.00  0.00     0.157 A 
ATOM     16  C   UNL     1      27.347  17.758  30.268  1.00  0.00     0.062 A 
ATOM     17  C   UNL     1      28.113  18.289  29.219  1.00  0.00     0.158 A 
BRANCH  15  18
ATOM     18  O   UNL     1      30.125  18.196  27.844  1.00  0.00    -0.504 OA
ATOM     19  H   UNL     1      29.719  18.565  26.992  1.00  0.00     0.293 HD
ENDBRANCH  15  18
BRANCH  17  20
ATOM     20  O   UNL     1      27.660  19.403  28.515  1.00  0.00    -0.504 OA
ATOM     21  H   UNL     1      28.215  20.247  28.443  1.00  0.00     0.293 HD
ENDBRANCH  17  20
ENDBRANCH   1  12
BRANCH   2  22
ATOM     22  O   UNL     1      25.064  15.698  30.643  1.00  0.00    -0.502 OA
ATOM     23  H   UNL     1      24.843  16.578  30.193  1.00  0.00     0.293 HD
ENDBRANCH   2  22
BRANCH   6  24
ATOM     24  O   UNL     1      23.742  13.875  35.470  1.00  0.00    -0.507 OA
ATOM     25  H   UNL     1      23.134  13.774  34.671  1.00  0.00     0.293 HD
ENDBRANCH   6  24
BRANCH   8  26
ATOM     26  O   UNL     1      27.508  15.365  38.018  1.00  0.00    -0.508 OA
ATOM     27  H   UNL     1      28.339  15.930  38.148  1.00  0.00     0.293 HD
ENDBRANCH   8  26
TORSDOF 6
ENDMDL
MODEL 5
REMARK VINA RESULT:    -5.866      2.840      6.875
REMARK INTER + INTRA:          -6.703
REMARK INTER:                  -6.376
REMARK INTRA:                  -0.327
REMARK UNBOUND:                 0.363
REMARK SMILES O=c1c(O)c(-c2ccc(O)c(O)c2)oc2cc(O)cc(O)c12
REMARK SMILES IDX 5 1 3 2 2 3 1 4 22 5 20 6 19 7 17 8 16 9 15 10 14 11 6 12
REMARK SMILES IDX 7 13 8 14 9 15 13 16 11 17 10 18 12 20 4 22 21 24 18 26
REMARK H PARENT 10 19 12 21 4 23 21 25 18 27
REMARK Flexibility Score: inf
ROOT
ATOM      1  C   UNL     1      25.076  15.724  30.509  1.00  0.00     0.180 A 
ATOM      2  C   UNL     1      24.698  15.378  31.818  1.00  0.00     0.208 A 
ATOM      3  C   UNL     1      23.424  14.828  32.037  1.00  0.00     0.238 A 
ATOM      4  O   UNL     1      23.112  14.470  33.202  1.00  0.00    -0.285 OA
ATOM      5  C   UNL     1      22.539  14.646  30.946  1.00  0.00     0.111 A 
ATOM      6  C   UNL     1      21.211  14.135  31.058  1.00  0.00     0.134 A 
ATOM      7  C   UNL     1      20.472  13.875  29.897  1.00  0.00     0.093 A 
ATOM      8  C   UNL     1      20.986  14.168  28.635  1.00  0.00     0.123 A 
ATOM      9  C   UNL     1      22.261  14.724  28.518  1.00  0.00     0.094 A 
ATOM     10  C   UNL     1      23.036  14.961  29.655  1.00  0.00     0.146 A 
ATOM     11  O   UNL     1      24.248  15.481  29.500  1.00  0.00    -0.452 OA
ENDROOT
BRANCH   1  12
ATOM     12  C   UNL     1      26.391  16.331  30.204  1.00  0.00     0.025 A 
ATOM     13  C   UNL     1      26.560  17.726  30.156  1.00  0.00     0.016 A 
ATOM     14  C   UNL     1      27.805  18.276  29.842  1.00  0.00     0.051 A 
ATOM     15  C   UNL     1      28.894  17.447  29.558  1.00  0.00     0.157 A 
ATOM     16  C   UNL     1      27.481  15.501  29.897  1.00  0.00     0.062 A 
ATOM     17  C   UNL     1      28.732  16.051  29.582  1.00  0.00     0.158 A 
BRANCH  15  18
ATOM     18  O   UNL     1      30.125  18.026  29.249  1.00  0.00    -0.504 OA
ATOM     19  H   UNL     1      30.914  17.983  29.883  1.00  0.00     0.293 HD
ENDBRANCH  15  18
BRANCH  17  20
ATOM     20  O   UNL     1      29.812  15.218  29.293  1.00  0.00    -0.504 OA
ATOM     21  H   UNL     1      29.685  14.229  29.113  1.00  0.00     0.293 HD
ENDBRANCH  17  20
ENDBRANCH   1  12
BRANCH   2  22
ATOM     22  O   UNL     1      25.595  15.546  32.877  1.00  0.00    -0.502 OA
ATOM     23  H   UNL     1      26.172  16.373  32.974  1.00  0.00     0.293 HD
ENDBRANCH   2  22
BRANCH   6  24
ATOM     24  O   UNL     1      20.567  13.893  32.275  1.00  0.00    -0.507 OA
ATOM     25  H   UNL     1      20.351  12.977  32.638  1.00  0.00     0.293 HD
ENDBRANCH   6  24
BRANCH   8  26
ATOM     26  O   UNL     1      20.216  13.911  27.503  1.00  0.00    -0.508 OA
ATOM     27  H   UNL     1      20.057  12.966  27.173  1.00  0.00     0.293 HD
ENDBRANCH   8  26
TORSDOF 6
ENDMDL
MODEL 6
REMARK VINA RESULT:    -5.727      1.338      1.390
REMARK INTER + INTRA:          -6.535
REMARK INTER:                  -6.877
REMARK INTRA:                   0.342
REMARK UNBOUND:                 0.363
REMARK SMILES O=c1c(O)c(-c2ccc(O)c(O)c2)oc2cc(O)cc(O)c12
REMARK SMILES IDX 5 1 3 2 2 3 1 4 22 5 20 6 19 7 17 8 16 9 15 10 14 11 6 12
REMARK SMILES IDX 7 13 8 14 9 15 13 16 11 17 10 18 12 20 4 22 21 24 18 26
REMARK H PARENT 10 19 12 21 4 23 21 25 18 27
REMARK Flexibility Score: inf
ROOT
ATOM      1  C   UNL     1      24.773  15.117  31.417  1.00  0.00     0.180 A 
ATOM      2  C   UNL     1      25.873  15.792  30.861  1.00  0.00     0.208 A 
ATOM      3  C   UNL     1      26.966  16.109  31.685  1.00  0.00     0.238 A 
ATOM      4  O   UNL     1      27.970  16.664  31.169  1.00  0.00    -0.285 OA
ATOM      5  C   UNL     1      26.937  15.760  33.057  1.00  0.00     0.111 A 
ATOM      6  C   UNL     1      27.971  16.067  33.991  1.00  0.00     0.134 A 
ATOM      7  C   UNL     1      27.896  15.560  35.295  1.00  0.00     0.093 A 
ATOM      8  C   UNL     1      26.796  14.813  35.715  1.00  0.00     0.123 A 
ATOM      9  C   UNL     1      25.752  14.558  34.825  1.00  0.00     0.094 A 
ATOM     10  C   UNL     1      25.814  15.020  33.509  1.00  0.00     0.146 A 
ATOM     11  O   UNL     1      24.804  14.747  32.691  1.00  0.00    -0.452 OA
ENDROOT
BRANCH   1  12
ATOM     12  C   UNL     1      23.575  14.772  30.618  1.00  0.00     0.025 A 
ATOM     13  C   UNL     1      23.644  14.622  29.222  1.00  0.00     0.016 A 
ATOM     14  C   UNL     1      22.496  14.321  28.486  1.00  0.00     0.051 A 
ATOM     15  C   UNL     1      21.262  14.178  29.127  1.00  0.00     0.157 A 
ATOM     16  C   UNL     1      22.330  14.649  31.257  1.00  0.00     0.062 A 
ATOM     17  C   UNL     1      21.176  14.346  30.520  1.00  0.00     0.158 A 
BRANCH  15  18
ATOM     18  O   UNL     1      20.133  13.875  28.366  1.00  0.00    -0.504 OA
ATOM     19  H   UNL     1      19.583  13.040  28.527  1.00  0.00     0.293 HD
ENDBRANCH  15  18
BRANCH  17  20
ATOM     20  O   UNL     1      19.948  14.211  31.165  1.00  0.00    -0.504 OA
ATOM     21  H   UNL     1      19.072  14.293  30.662  1.00  0.00     0.293 HD
ENDBRANCH  17  20
ENDBRANCH   1  12
BRANCH   2  22
ATOM     22  O   UNL     1      25.890  16.108  29.499  1.00  0.00    -0.502 OA
ATOM     23  H   UNL     1      26.542  15.683  28.850  1.00  0.00     0.293 HD
ENDBRANCH   2  22
BRANCH   6  24
ATOM     24  O   UNL     1      29.070  16.882  33.702  1.00  0.00    -0.507 OA
ATOM     25  H   UNL     1      29.989  16.541  33.460  1.00  0.00     0.293 HD
ENDBRANCH   6  24
BRANCH   8  26
ATOM     26  O   UNL     1      26.747  14.338  37.023  1.00  0.00    -0.508 OA
ATOM     27  H   UNL     1      26.286  14.860  37.760  1.00  0.00     0.293 HD
ENDBRANCH   8  26
TORSDOF 6
ENDMDL
MODEL 7
REMARK VINA RESULT:    -5.660      2.307      3.655
REMARK INTER + INTRA:          -6.455
REMARK INTER:                  -6.592
REMARK INTRA:                   0.138
REMARK UNBOUND:                 0.363
REMARK SMILES O=c1c(O)c(-c2ccc(O)c(O)c2)oc2cc(O)cc(O)c12
REMARK SMILES IDX 5 1 3 2 2 3 1 4 22 5 20 6 19 7 17 8 16 9 15 10 14 11 6 12
REMARK SMILES IDX 7 13 8 14 9 15 13 16 11 17 10 18 12 20 4 22 21 24 18 26
REMARK H PARENT 10 19 12 21 4 23 21 25 18 27
REMARK Flexibility Score: inf
ROOT
ATOM      1  C   UNL     1      24.771  15.273  31.130  1.00  0.00     0.180 A 
ATOM      2  C   UNL     1      25.231  14.805  32.374  1.00  0.00     0.208 A 
ATOM      3  C   UNL     1      26.505  15.194  32.819  1.00  0.00     0.238 A 
ATOM      4  O   UNL     1      26.888  14.815  33.957  1.00  0.00    -0.285 OA
ATOM      5  C   UNL     1      27.309  16.032  32.009  1.00  0.00     0.111 A 
ATOM      6  C   UNL     1      28.630  16.454  32.344  1.00  0.00     0.134 A 
ATOM      7  C   UNL     1      29.283  17.389  31.529  1.00  0.00     0.093 A 
ATOM      8  C   UNL     1      28.690  17.864  30.361  1.00  0.00     0.123 A 
ATOM      9  C   UNL     1      27.422  17.411  29.993  1.00  0.00     0.094 A 
ATOM     10  C   UNL     1      26.731  16.507  30.804  1.00  0.00     0.146 A 
ATOM     11  O   UNL     1      25.523  16.109  30.424  1.00  0.00    -0.452 OA
ENDROOT
BRANCH   1  12
ATOM     12  C   UNL     1      23.452  14.886  30.583  1.00  0.00     0.025 A 
ATOM     13  C   UNL     1      23.289  14.559  29.225  1.00  0.00     0.016 A 
ATOM     14  C   UNL     1      22.029  14.221  28.725  1.00  0.00     0.051 A 
ATOM     15  C   UNL     1      20.912  14.218  29.566  1.00  0.00     0.157 A 
ATOM     16  C   UNL     1      22.324  14.904  31.420  1.00  0.00     0.062 A 
ATOM     17  C   UNL     1      21.058  14.565  30.920  1.00  0.00     0.158 A 
BRANCH  15  18
ATOM     18  O   UNL     1      19.667  13.876  29.038  1.00  0.00    -0.504 OA
ATOM     19  H   UNL     1      18.880  13.636  29.630  1.00  0.00     0.293 HD
ENDBRANCH  15  18
BRANCH  17  20
ATOM     20  O   UNL     1      19.948  14.570  31.763  1.00  0.00    -0.504 OA
ATOM     21  H   UNL     1      19.885  15.200  32.554  1.00  0.00     0.293 HD
ENDBRANCH  17  20
ENDBRANCH   1  12
BRANCH   2  22
ATOM     22  O   UNL     1      24.412  13.996  33.166  1.00  0.00    -0.502 OA
ATOM     23  H   UNL     1      23.832  13.262  32.777  1.00  0.00     0.293 HD
ENDBRANCH   2  22
BRANCH   6  24
ATOM     24  O   UNL     1      29.352  15.972  33.440  1.00  0.00    -0.507 OA
ATOM     25  H   UNL     1      29.999  15.199  33.405  1.00  0.00     0.293 HD
ENDBRANCH   6  24
BRANCH   8  26
ATOM     26  O   UNL     1      29.374  18.781  29.566  1.00  0.00    -0.508 OA
ATOM     27  H   UNL     1      29.407  18.688  28.557  1.00  0.00     0.293 HD
ENDBRANCH   8  26
TORSDOF 6
ENDMDL
MODEL 8
REMARK VINA RESULT:    -4.666     14.399     16.759
REMARK INTER + INTRA:          -5.257
REMARK INTER:                  -5.044
REMARK INTRA:                  -0.213
REMARK UNBOUND:                 0.363
REMARK SMILES O=c1c(O)c(-c2ccc(O)c(O)c2)oc2cc(O)cc(O)c12
REMARK SMILES IDX 5 1 3 2 2 3 1 4 22 5 20 6 19 7 17 8 16 9 15 10 14 11 6 12
REMARK SMILES IDX 7 13 8 14 9 15 13 16 11 17 10 18 12 20 4 22 21 24 18 26
REMARK H PARENT 10 19 12 21 4 23 21 25 18 27
REMARK Flexibility Score: inf
ROOT
ATOM      1  C   UNL     1      11.946  21.739  38.620  1.00  0.00     0.180 A 
ATOM      2  C   UNL     1      10.994  21.452  37.626  1.00  0.00     0.208 A 
ATOM      3  C   UNL     1      10.767  20.114  37.266  1.00  0.00     0.238 A 
ATOM      4  O   UNL     1       9.875  19.861  36.414  1.00  0.00    -0.285 OA
ATOM      5  C   UNL     1      11.504  19.081  37.893  1.00  0.00     0.111 A 
ATOM      6  C   UNL     1      11.384  17.694  37.578  1.00  0.00     0.134 A 
ATOM      7  C   UNL     1      12.068  16.748  38.353  1.00  0.00     0.093 A 
ATOM      8  C   UNL     1      12.916  17.142  39.386  1.00  0.00     0.123 A 
ATOM      9  C   UNL     1      13.087  18.499  39.663  1.00  0.00     0.094 A 
ATOM     10  C   UNL     1      12.391  19.464  38.932  1.00  0.00     0.146 A 
ATOM     11  O   UNL     1      12.574  20.744  39.235  1.00  0.00    -0.452 OA
ENDROOT
BRANCH   1  12
ATOM     12  C   UNL     1      12.258  23.125  39.035  1.00  0.00     0.025 A 
ATOM     13  C   UNL     1      11.332  23.901  39.753  1.00  0.00     0.016 A 
ATOM     14  C   UNL     1      11.639  25.216  40.113  1.00  0.00     0.051 A 
ATOM     15  C   UNL     1      12.866  25.779  39.751  1.00  0.00     0.157 A 
ATOM     16  C   UNL     1      13.481  23.701  38.654  1.00  0.00     0.062 A 
ATOM     17  C   UNL     1      13.792  25.021  39.014  1.00  0.00     0.158 A 
BRANCH  15  18
ATOM     18  O   UNL     1      13.145  27.094  40.125  1.00  0.00    -0.504 OA
ATOM     19  H   UNL     1      13.883  27.633  39.687  1.00  0.00     0.293 HD
ENDBRANCH  15  18
BRANCH  17  20
ATOM     20  O   UNL     1      15.015  25.579  38.644  1.00  0.00    -0.504 OA
ATOM     21  H   UNL     1      15.824  25.532  39.251  1.00  0.00     0.293 HD
ENDBRANCH  17  20
ENDBRANCH   1  12
BRANCH   2  22
ATOM     22  O   UNL     1      10.262  22.486  37.035  1.00  0.00    -0.502 OA
ATOM     23  H   UNL     1      10.105  22.539  36.035  1.00  0.00     0.293 HD
ENDBRANCH   2  22
BRANCH   6  24
ATOM     24  O   UNL     1      10.634  17.198  36.507  1.00  0.00    -0.507 OA
ATOM     25  H   UNL     1       9.985  16.428  36.569  1.00  0.00     0.293 HD
ENDBRANCH   6  24
BRANCH   8  26
ATOM     26  O   UNL     1      13.593  16.174  40.125  1.00  0.00    -0.508 OA
ATOM     27  H   UNL     1      13.289  15.908  41.054  1.00  0.00     0.293 HD
ENDBRANCH   8  26
TORSDOF 6
ENDMDL
