MODEL 1
REMARK VINA RESULT:    -4.365      0.000      0.000
REMARK INTER + INTRA:          -4.365
REMARK INTER:                  -4.365
REMARK INTRA:                   0.000
REMARK UNBOUND:                 0.000
REMARK SMILES CC1(C)[C@@H]2CC[C@@]1(C)C(=O)C2
REMARK SMILES IDX 1 1 2 2 4 3 5 4 6 5 7 6 9 7 10 8 11 9 8 10 3 11
REMARK H PARENT
REMARK Flexibility Score: inf
ROOT
ATOM      1  C   UNL     1     -21.966  20.992  -0.249  1.00  0.00     0.012 C 
ATOM      2  C   UNL     1     -21.002  22.195  -0.477  1.00  0.00    -0.020 C 
ATOM      3  C   UNL     1     -20.251  22.149  -1.829  1.00  0.00     0.003 C 
ATOM      4  C   UNL     1     -19.372  20.875  -1.689  1.00  0.00     0.005 C 
ATOM      5  C   UNL     1     -18.978  20.889  -0.190  1.00  0.00     0.015 C 
ATOM      6  C   UNL     1     -19.689  22.159   0.336  1.00  0.00     0.032 C 
ATOM      7  C   UNL     1     -18.940  23.307  -0.293  1.00  0.00     0.139 C 
ATOM      8  O   UNL     1     -18.124  24.023   0.267  1.00  0.00    -0.299 OA
ATOM      9  C   UNL     1     -19.282  23.361  -1.750  1.00  0.00     0.080 C 
ATOM     10  C   UNL     1     -19.827  22.232   1.861  1.00  0.00     0.020 C 
ATOM     11  C   UNL     1     -21.854  23.488  -0.278  1.00  0.00     0.012 C 
ENDROOT
TORSDOF 0
ENDMDL
MODEL 2
REMARK VINA RESULT:    -4.272     18.683     20.122
REMARK INTER + INTRA:          -4.272
REMARK INTER:                  -4.272
REMARK INTRA:                   0.000
REMARK UNBOUND:                 0.000
REMARK SMILES CC1(C)[C@@H]2CC[C@@]1(C)C(=O)C2
REMARK SMILES IDX 1 1 2 2 4 3 5 4 6 5 7 6 9 7 10 8 11 9 8 10 3 11
REMARK H PARENT
REMARK Flexibility Score: inf
ROOT
ATOM      1  C   UNL     1      -7.210  39.997   4.182  1.00  0.00     0.012 C 
ATOM      2  C   UNL     1      -7.730  38.586   4.593  1.00  0.00    -0.020 C 
ATOM      3  C   UNL     1      -7.223  37.443   3.683  1.00  0.00     0.003 C 
ATOM      4  C   UNL     1      -7.866  37.787   2.311  1.00  0.00     0.005 C 
ATOM      5  C   UNL     1      -9.244  38.373   2.711  1.00  0.00     0.015 C 
ATOM      6  C   UNL     1      -9.209  38.298   4.256  1.00  0.00     0.032 C 
ATOM      7  C   UNL     1      -9.286  36.825   4.572  1.00  0.00     0.139 C 
ATOM      8  O   UNL     1     -10.273  36.227   4.969  1.00  0.00    -0.299 OA
ATOM      9  C   UNL     1      -7.976  36.192   4.217  1.00  0.00     0.080 C 
ATOM     10  C   UNL     1     -10.254  39.168   4.964  1.00  0.00     0.020 C 
ATOM     11  C   UNL     1      -7.358  38.400   6.098  1.00  0.00     0.012 C 
ENDROOT
TORSDOF 0
ENDMDL
MODEL 3
REMARK VINA RESULT:    -4.033     18.606     20.154
REMARK INTER + INTRA:          -4.033
REMARK INTER:                  -4.033
REMARK INTRA:                   0.000
REMARK UNBOUND:                 0.000
REMARK SMILES CC1(C)[C@@H]2CC[C@@]1(C)C(=O)C2
REMARK SMILES IDX 1 1 2 2 4 3 5 4 6 5 7 6 9 7 10 8 11 9 8 10 3 11
REMARK H PARENT
REMARK Flexibility Score: inf
ROOT
ATOM      1  C   UNL     1      -9.141  39.341   5.780  1.00  0.00     0.012 C 
ATOM      2  C   UNL     1      -8.175  38.593   4.812  1.00  0.00    -0.020 C 
ATOM      3  C   UNL     1      -7.920  39.341   3.481  1.00  0.00     0.003 C 
ATOM      4  C   UNL     1      -9.325  39.347   2.817  1.00  0.00     0.005 C 
ATOM      5  C   UNL     1      -9.912  37.975   3.235  1.00  0.00     0.015 C 
ATOM      6  C   UNL     1      -8.775  37.366   4.091  1.00  0.00     0.032 C 
ATOM      7  C   UNL     1      -7.676  37.056   3.106  1.00  0.00     0.139 C 
ATOM      8  O   UNL     1      -7.391  35.951   2.672  1.00  0.00    -0.299 OA
ATOM      9  C   UNL     1      -7.053  38.344   2.664  1.00  0.00     0.080 C 
ATOM     10  C   UNL     1      -9.200  36.191   4.980  1.00  0.00     0.020 C 
ATOM     11  C   UNL     1      -6.875  38.300   5.623  1.00  0.00     0.012 C 
ENDROOT
TORSDOF 0
ENDMDL
MODEL 4
REMARK VINA RESULT:    -3.875     18.623     20.199
REMARK INTER + INTRA:          -3.875
REMARK INTER:                  -3.875
REMARK INTRA:                   0.000
REMARK UNBOUND:                 0.000
REMARK SMILES CC1(C)[C@@H]2CC[C@@]1(C)C(=O)C2
REMARK SMILES IDX 1 1 2 2 4 3 5 4 6 5 7 6 9 7 10 8 11 9 8 10 3 11
REMARK H PARENT
REMARK Flexibility Score: inf
ROOT
ATOM      1  C   UNL     1      -7.265  36.703   5.880  1.00  0.00     0.012 C 
ATOM      2  C   UNL     1      -7.641  37.168   4.441  1.00  0.00    -0.020 C 
ATOM      3  C   UNL     1      -6.875  38.428   3.971  1.00  0.00     0.003 C 
ATOM      4  C   UNL     1      -7.379  39.521   4.954  1.00  0.00     0.005 C 
ATOM      5  C   UNL     1      -8.862  39.131   5.177  1.00  0.00     0.015 C 
ATOM      6  C   UNL     1      -9.014  37.862   4.304  1.00  0.00     0.032 C 
ATOM      7  C   UNL     1      -8.933  38.361   2.883  1.00  0.00     0.139 C 
ATOM      8  O   UNL     1      -9.874  38.508   2.119  1.00  0.00    -0.299 OA
ATOM      9  C   UNL     1      -7.516  38.750   2.592  1.00  0.00     0.080 C 
ATOM     10  C   UNL     1     -10.246  37.008   4.622  1.00  0.00     0.020 C 
ATOM     11  C   UNL     1      -7.441  35.931   3.511  1.00  0.00     0.012 C 
ENDROOT
TORSDOF 0
ENDMDL
MODEL 5
REMARK VINA RESULT:    -3.840      1.287      3.019
REMARK INTER + INTRA:          -3.840
REMARK INTER:                  -3.840
REMARK INTRA:                   0.000
REMARK UNBOUND:                 0.000
REMARK SMILES CC1(C)[C@@H]2CC[C@@]1(C)C(=O)C2
REMARK SMILES IDX 1 1 2 2 4 3 5 4 6 5 7 6 9 7 10 8 11 9 8 10 3 11
REMARK H PARENT
REMARK Flexibility Score: inf
ROOT
ATOM      1  C   UNL     1     -20.062  22.058  -2.130  1.00  0.00     0.012 C 
ATOM      2  C   UNL     1     -20.006  21.842  -0.587  1.00  0.00    -0.020 C 
ATOM      3  C   UNL     1     -21.342  21.359   0.026  1.00  0.00     0.003 C 
ATOM      4  C   UNL     1     -22.292  22.561  -0.235  1.00  0.00     0.005 C 
ATOM      5  C   UNL     1     -21.358  23.785  -0.062  1.00  0.00     0.015 C 
ATOM      6  C   UNL     1     -19.995  23.130   0.265  1.00  0.00     0.032 C 
ATOM      7  C   UNL     1     -20.169  22.551   1.647  1.00  0.00     0.139 C 
ATOM      8  O   UNL     1     -19.731  23.025   2.684  1.00  0.00    -0.299 OA
ATOM      9  C   UNL     1     -21.058  21.349   1.554  1.00  0.00     0.080 C 
ATOM     10  C   UNL     1     -18.782  24.052   0.095  1.00  0.00     0.020 C 
ATOM     11  C   UNL     1     -18.810  20.875  -0.320  1.00  0.00     0.012 C 
ENDROOT
TORSDOF 0
ENDMDL
MODEL 6
REMARK VINA RESULT:    -3.564     18.942     20.306
REMARK INTER + INTRA:          -3.564
REMARK INTER:                  -3.564
REMARK INTRA:                   0.000
REMARK UNBOUND:                 0.000
REMARK SMILES CC1(C)[C@@H]2CC[C@@]1(C)C(=O)C2
REMARK SMILES IDX 1 1 2 2 4 3 5 4 6 5 7 6 9 7 10 8 11 9 8 10 3 11
REMARK H PARENT
REMARK Flexibility Score: inf
ROOT
ATOM      1  C   UNL     1      -9.493  36.474   5.296  1.00  0.00     0.012 C 
ATOM      2  C   UNL     1      -9.242  37.875   4.661  1.00  0.00    -0.020 C 
ATOM      3  C   UNL     1      -9.253  37.871   3.114  1.00  0.00     0.003 C 
ATOM      4  C   UNL     1      -8.028  36.982   2.765  1.00  0.00     0.005 C 
ATOM      5  C   UNL     1      -7.010  37.343   3.876  1.00  0.00     0.015 C 
ATOM      6  C   UNL     1      -7.785  38.382   4.722  1.00  0.00     0.032 C 
ATOM      7  C   UNL     1      -7.877  39.603   3.841  1.00  0.00     0.139 C 
ATOM      8  O   UNL     1      -7.206  40.618   3.948  1.00  0.00    -0.299 OA
ATOM      9  C   UNL     1      -8.858  39.328   2.743  1.00  0.00     0.080 C 
ATOM     10  C   UNL     1      -7.206  38.632   6.119  1.00  0.00     0.020 C 
ATOM     11  C   UNL     1     -10.294  38.841   5.292  1.00  0.00     0.012 C 
ENDROOT
TORSDOF 0
ENDMDL
MODEL 7
REMARK VINA RESULT:    -3.493      1.536      3.111
REMARK INTER + INTRA:          -3.493
REMARK INTER:                  -3.493
REMARK INTRA:                   0.000
REMARK UNBOUND:                 0.000
REMARK SMILES CC1(C)[C@@H]2CC[C@@]1(C)C(=O)C2
REMARK SMILES IDX 1 1 2 2 4 3 5 4 6 5 7 6 9 7 10 8 11 9 8 10 3 11
REMARK H PARENT
REMARK Flexibility Score: inf
ROOT
ATOM      1  C   UNL     1     -20.429  22.353   2.417  1.00  0.00     0.012 C 
ATOM      2  C   UNL     1     -19.966  22.215   0.936  1.00  0.00    -0.020 C 
ATOM      3  C   UNL     1     -19.181  23.440   0.409  1.00  0.00     0.003 C 
ATOM      4  C   UNL     1     -20.243  24.573   0.455  1.00  0.00     0.005 C 
ATOM      5  C   UNL     1     -21.553  23.836   0.077  1.00  0.00     0.015 C 
ATOM      6  C   UNL     1     -21.075  22.378  -0.126  1.00  0.00     0.032 C 
ATOM      7  C   UNL     1     -20.250  22.416  -1.388  1.00  0.00     0.139 C 
ATOM      8  O   UNL     1     -20.605  22.025  -2.490  1.00  0.00    -0.299 OA
ATOM      9  C   UNL     1     -18.957  23.111  -1.094  1.00  0.00     0.080 C 
ATOM     10  C   UNL     1     -22.193  21.329  -0.113  1.00  0.00     0.020 C 
ATOM     11  C   UNL     1     -19.170  20.876   0.844  1.00  0.00     0.012 C 
ENDROOT
TORSDOF 0
ENDMDL
MODEL 8
REMARK VINA RESULT:    -3.458      1.950      3.062
REMARK INTER + INTRA:          -3.458
REMARK INTER:                  -3.458
REMARK INTRA:                   0.000
REMARK UNBOUND:                 0.000
REMARK SMILES CC1(C)[C@@H]2CC[C@@]1(C)C(=O)C2
REMARK SMILES IDX 1 1 2 2 4 3 5 4 6 5 7 6 9 7 10 8 11 9 8 10 3 11
REMARK H PARENT
REMARK Flexibility Score: inf
ROOT
ATOM      1  C   UNL     1     -18.342  22.189  -0.991  1.00  0.00     0.012 C 
ATOM      2  C   UNL     1     -19.845  22.090  -0.593  1.00  0.00    -0.020 C 
ATOM      3  C   UNL     1     -20.635  23.403  -0.802  1.00  0.00     0.003 C 
ATOM      4  C   UNL     1     -19.957  24.374   0.204  1.00  0.00     0.005 C 
ATOM      5  C   UNL     1     -19.616  23.451   1.401  1.00  0.00     0.015 C 
ATOM      6  C   UNL     1     -20.132  22.072   0.924  1.00  0.00     0.032 C 
ATOM      7  C   UNL     1     -21.635  22.203   0.925  1.00  0.00     0.139 C 
ATOM      8  O   UNL     1     -22.395  21.744   1.764  1.00  0.00    -0.299 OA
ATOM      9  C   UNL     1     -22.040  23.080  -0.219  1.00  0.00     0.080 C 
ATOM     10  C   UNL     1     -19.585  20.875   1.710  1.00  0.00     0.020 C 
ATOM     11  C   UNL     1     -20.431  20.876  -1.380  1.00  0.00     0.012 C 
ENDROOT
TORSDOF 0
ENDMDL
MODEL 9
REMARK VINA RESULT:    -3.366     19.064     20.624
REMARK INTER + INTRA:          -3.366
REMARK INTER:                  -3.366
REMARK INTRA:                   0.000
REMARK UNBOUND:                 0.000
REMARK SMILES CC1(C)[C@@H]2CC[C@@]1(C)C(=O)C2
REMARK SMILES IDX 1 1 2 2 4 3 5 4 6 5 7 6 9 7 10 8 11 9 8 10 3 11
REMARK H PARENT
REMARK Flexibility Score: inf
ROOT
ATOM      1  C   UNL     1      -9.144  36.118   4.952  1.00  0.00     0.012 C 
ATOM      2  C   UNL     1      -8.297  37.420   5.079  1.00  0.00    -0.020 C 
ATOM      3  C   UNL     1      -8.946  38.505   5.970  1.00  0.00     0.003 C 
ATOM      4  C   UNL     1     -10.234  38.870   5.180  1.00  0.00     0.005 C 
ATOM      5  C   UNL     1      -9.779  38.760   3.703  1.00  0.00     0.015 C 
ATOM      6  C   UNL     1      -8.296  38.337   3.836  1.00  0.00     0.032 C 
ATOM      7  C   UNL     1      -7.597  39.554   4.388  1.00  0.00     0.139 C 
ATOM      8  O   UNL     1      -6.898  40.330   3.755  1.00  0.00    -0.299 OA
ATOM      9  C   UNL     1      -7.985  39.718   5.825  1.00  0.00     0.080 C 
ATOM     10  C   UNL     1      -7.677  37.758   2.559  1.00  0.00     0.020 C 
ATOM     11  C   UNL     1      -6.880  36.979   5.562  1.00  0.00     0.012 C 
ENDROOT
TORSDOF 0
ENDMDL
