MODEL 1
REMARK VINA RESULT:    -4.778      0.000      0.000
REMARK INTER + INTRA:          -6.133
REMARK INTER:                  -5.895
REMARK INTRA:                  -0.238
REMARK UNBOUND:                -0.238
REMARK SMILES CCCCC(=O)c1ccccc1
REMARK SMILES IDX 4 1 3 2 2 3 1 4 5 5 6 6 7 7 8 8 12 9 9 10 11 11 10 12
REMARK H PARENT
REMARK Flexibility Score: inf
ROOT
ATOM      1  C   UNL     1      43.704  31.910  52.379  1.00  0.00     0.081 C 
ENDROOT
BRANCH   1   2
ATOM      2  C   UNL     1      44.109  31.980  53.859  1.00  0.00     0.008 C 
BRANCH   2   3
ATOM      3  C   UNL     1      44.727  30.664  54.354  1.00  0.00    -0.003 C 
ATOM      4  C   UNL     1      46.034  30.917  55.100  1.00  0.00     0.004 C 
ENDBRANCH   2   3
ENDBRANCH   1   2
BRANCH   1   5
ATOM      5  C   UNL     1      44.694  32.613  51.485  1.00  0.00     0.162 C 
ATOM      6  O   UNL     1      45.922  32.451  51.726  1.00  0.00    -0.294 OA
BRANCH   5   7
ATOM      7  C   UNL     1      44.281  33.457  50.327  1.00  0.00     0.017 A 
ATOM      8  C   UNL     1      43.561  34.658  50.500  1.00  0.00     0.012 A 
ATOM      9  C   UNL     1      44.614  33.057  49.017  1.00  0.00     0.012 A 
ATOM     10  C   UNL     1      43.187  35.428  49.395  1.00  0.00     0.001 A 
ATOM     11  C   UNL     1      44.237  33.832  47.917  1.00  0.00     0.001 A 
ATOM     12  C   UNL     1      43.524  35.017  48.106  1.00  0.00     0.000 A 
ENDBRANCH   5   7
ENDBRANCH   1   5
TORSDOF 4
ENDMDL
MODEL 2
REMARK VINA RESULT:    -4.642      1.303      1.852
REMARK INTER + INTRA:          -5.966
REMARK INTER:                  -5.751
REMARK INTRA:                  -0.215
REMARK UNBOUND:                -0.238
REMARK SMILES CCCCC(=O)c1ccccc1
REMARK SMILES IDX 4 1 3 2 2 3 1 4 5 5 6 6 7 7 8 8 12 9 9 10 11 11 10 12
REMARK H PARENT
REMARK Flexibility Score: inf
ROOT
ATOM      1  C   UNL     1      44.467  33.286  52.014  1.00  0.00     0.081 C 
ENDROOT
BRANCH   1   2
ATOM      2  C   UNL     1      45.500  32.186  52.298  1.00  0.00     0.008 C 
BRANCH   2   3
ATOM      3  C   UNL     1      44.923  31.058  53.167  1.00  0.00    -0.003 C 
ATOM      4  C   UNL     1      45.551  31.059  54.557  1.00  0.00     0.004 C 
ENDBRANCH   2   3
ENDBRANCH   1   2
BRANCH   1   5
ATOM      5  C   UNL     1      44.267  33.512  50.537  1.00  0.00     0.162 C 
ATOM      6  O   UNL     1      44.648  32.604  49.747  1.00  0.00    -0.294 OA
BRANCH   5   7
ATOM      7  C   UNL     1      43.620  34.736  49.985  1.00  0.00     0.017 A 
ATOM      8  C   UNL     1      43.182  35.787  50.819  1.00  0.00     0.012 A 
ATOM      9  C   UNL     1      43.434  34.861  48.594  1.00  0.00     0.012 A 
ATOM     10  C   UNL     1      42.577  36.923  50.272  1.00  0.00     0.001 A 
ATOM     11  C   UNL     1      42.829  36.000  48.054  1.00  0.00     0.001 A 
ATOM     12  C   UNL     1      42.400  37.030  48.893  1.00  0.00     0.000 A 
ENDBRANCH   5   7
ENDBRANCH   1   5
TORSDOF 4
ENDMDL
MODEL 3
REMARK VINA RESULT:    -4.595      2.304      5.136
REMARK INTER + INTRA:          -5.908
REMARK INTER:                  -5.685
REMARK INTRA:                  -0.223
REMARK UNBOUND:                -0.238
REMARK SMILES CCCCC(=O)c1ccccc1
REMARK SMILES IDX 4 1 3 2 2 3 1 4 5 5 6 6 7 7 8 8 12 9 9 10 11 11 10 12
REMARK H PARENT
REMARK Flexibility Score: inf
ROOT
ATOM      1  C   UNL     1      43.087  36.043  50.733  1.00  0.00     0.081 C 
ENDROOT
BRANCH   1   2
ATOM      2  C   UNL     1      41.935  36.741  49.995  1.00  0.00     0.008 C 
BRANCH   2   3
ATOM      3  C   UNL     1      40.836  37.220  50.955  1.00  0.00    -0.003 C 
ATOM      4  C   UNL     1      41.418  38.092  52.064  1.00  0.00     0.004 C 
ENDBRANCH   2   3
ENDBRANCH   1   2
BRANCH   1   5
ATOM      5  C   UNL     1      43.555  34.803  50.013  1.00  0.00     0.162 C 
ATOM      6  O   UNL     1      43.475  34.789  48.754  1.00  0.00    -0.294 OA
BRANCH   5   7
ATOM      7  C   UNL     1      44.126  33.622  50.722  1.00  0.00     0.017 A 
ATOM      8  C   UNL     1      44.170  33.550  52.131  1.00  0.00     0.012 A 
ATOM      9  C   UNL     1      44.638  32.541  49.978  1.00  0.00     0.012 A 
ATOM     10  C   UNL     1      44.713  32.429  52.767  1.00  0.00     0.001 A 
ATOM     11  C   UNL     1      45.179  31.424  50.621  1.00  0.00     0.001 A 
ATOM     12  C   UNL     1      45.217  31.369  52.015  1.00  0.00     0.000 A 
ENDBRANCH   5   7
ENDBRANCH   1   5
TORSDOF 4
ENDMDL
MODEL 4
REMARK VINA RESULT:    -4.590      2.252      5.481
REMARK INTER + INTRA:          -5.901
REMARK INTER:                  -5.668
REMARK INTRA:                  -0.233
REMARK UNBOUND:                -0.238
REMARK SMILES CCCCC(=O)c1ccccc1
REMARK SMILES IDX 4 1 3 2 2 3 1 4 5 5 6 6 7 7 8 8 12 9 9 10 11 11 10 12
REMARK H PARENT
REMARK Flexibility Score: inf
ROOT
ATOM      1  C   UNL     1      43.028  36.018  50.662  1.00  0.00     0.081 C 
ENDROOT
BRANCH   1   2
ATOM      2  C   UNL     1      41.981  36.792  49.847  1.00  0.00     0.008 C 
BRANCH   2   3
ATOM      3  C   UNL     1      40.658  36.956  50.610  1.00  0.00    -0.003 C 
ATOM      4  C   UNL     1      39.470  36.551  49.743  1.00  0.00     0.004 C 
ENDBRANCH   2   3
ENDBRANCH   1   2
BRANCH   1   5
ATOM      5  C   UNL     1      43.529  34.797  49.931  1.00  0.00     0.162 C 
ATOM      6  O   UNL     1      43.453  34.795  48.672  1.00  0.00    -0.294 OA
BRANCH   5   7
ATOM      7  C   UNL     1      44.128  33.624  50.630  1.00  0.00     0.017 A 
ATOM      8  C   UNL     1      44.623  32.509  49.922  1.00  0.00     0.012 A 
ATOM      9  C   UNL     1      44.208  33.616  52.037  1.00  0.00     0.012 A 
ATOM     10  C   UNL     1      45.179  31.423  50.605  1.00  0.00     0.001 A 
ATOM     11  C   UNL     1      44.765  32.527  52.714  1.00  0.00     0.001 A 
ATOM     12  C   UNL     1      45.249  31.431  51.998  1.00  0.00     0.000 A 
ENDBRANCH   5   7
ENDBRANCH   1   5
TORSDOF 4
ENDMDL
MODEL 5
REMARK VINA RESULT:    -4.510      1.878      5.568
REMARK INTER + INTRA:          -5.803
REMARK INTER:                  -5.593
REMARK INTRA:                  -0.210
REMARK UNBOUND:                -0.238
REMARK SMILES CCCCC(=O)c1ccccc1
REMARK SMILES IDX 4 1 3 2 2 3 1 4 5 5 6 6 7 7 8 8 12 9 9 10 11 11 10 12
REMARK H PARENT
REMARK Flexibility Score: inf
ROOT
ATOM      1  C   UNL     1      43.172  35.156  49.057  1.00  0.00     0.081 C 
ENDROOT
BRANCH   1   2
ATOM      2  C   UNL     1      43.568  36.146  47.951  1.00  0.00     0.008 C 
BRANCH   2   3
ATOM      3  C   UNL     1      42.779  37.461  48.040  1.00  0.00    -0.003 C 
ATOM      4  C   UNL     1      41.357  37.216  48.534  1.00  0.00     0.004 C 
ENDBRANCH   2   3
ENDBRANCH   1   2
BRANCH   1   5
ATOM      5  C   UNL     1      44.083  33.954  49.097  1.00  0.00     0.162 C 
ATOM      6  O   UNL     1      44.638  33.602  48.020  1.00  0.00    -0.294 OA
BRANCH   5   7
ATOM      7  C   UNL     1      44.370  33.197  50.349  1.00  0.00     0.017 A 
ATOM      8  C   UNL     1      44.198  33.776  51.625  1.00  0.00     0.012 A 
ATOM      9  C   UNL     1      44.824  31.866  50.272  1.00  0.00     0.012 A 
ATOM     10  C   UNL     1      44.476  33.041  52.781  1.00  0.00     0.001 A 
ATOM     11  C   UNL     1      45.100  31.137  51.432  1.00  0.00     0.001 A 
ATOM     12  C   UNL     1      44.926  31.725  52.686  1.00  0.00     0.000 A 
ENDBRANCH   5   7
ENDBRANCH   1   5
TORSDOF 4
ENDMDL
MODEL 6
REMARK VINA RESULT:    -4.507      1.296      5.322
REMARK INTER + INTRA:          -5.799
REMARK INTER:                  -5.573
REMARK INTRA:                  -0.226
REMARK UNBOUND:                -0.238
REMARK SMILES CCCCC(=O)c1ccccc1
REMARK SMILES IDX 4 1 3 2 2 3 1 4 5 5 6 6 7 7 8 8 12 9 9 10 11 11 10 12
REMARK H PARENT
REMARK Flexibility Score: inf
ROOT
ATOM      1  C   UNL     1      43.877  34.320  50.846  1.00  0.00     0.081 C 
ENDROOT
BRANCH   1   2
ATOM      2  C   UNL     1      43.481  34.772  49.432  1.00  0.00     0.008 C 
BRANCH   2   3
ATOM      3  C   UNL     1      42.763  36.130  49.437  1.00  0.00    -0.003 C 
ATOM      4  C   UNL     1      42.611  36.666  50.858  1.00  0.00     0.004 C 
ENDBRANCH   2   3
ENDBRANCH   1   2
BRANCH   1   5
ATOM      5  C   UNL     1      44.409  32.909  50.864  1.00  0.00     0.162 C 
ATOM      6  O   UNL     1      44.854  32.436  49.782  1.00  0.00    -0.294 OA
BRANCH   5   7
ATOM      7  C   UNL     1      44.454  32.076  52.100  1.00  0.00     0.017 A 
ATOM      8  C   UNL     1      44.306  32.642  53.384  1.00  0.00     0.012 A 
ATOM      9  C   UNL     1      44.649  30.684  51.997  1.00  0.00     0.012 A 
ATOM     10  C   UNL     1      44.353  31.835  54.525  1.00  0.00     0.001 A 
ATOM     11  C   UNL     1      44.695  29.884  53.142  1.00  0.00     0.001 A 
ATOM     12  C   UNL     1      44.548  30.459  54.405  1.00  0.00     0.000 A 
ENDBRANCH   5   7
ENDBRANCH   1   5
TORSDOF 4
ENDMDL
MODEL 7
REMARK VINA RESULT:    -4.425      3.660      5.827
REMARK INTER + INTRA:          -5.698
REMARK INTER:                  -5.478
REMARK INTRA:                  -0.219
REMARK UNBOUND:                -0.238
REMARK SMILES CCCCC(=O)c1ccccc1
REMARK SMILES IDX 4 1 3 2 2 3 1 4 5 5 6 6 7 7 8 8 12 9 9 10 11 11 10 12
REMARK H PARENT
REMARK Flexibility Score: inf
ROOT
ATOM      1  C   UNL     1      43.309  35.274  49.524  1.00  0.00     0.081 C 
ENDROOT
BRANCH   1   2
ATOM      2  C   UNL     1      43.535  34.917  48.047  1.00  0.00     0.008 C 
BRANCH   2   3
ATOM      3  C   UNL     1      44.456  33.699  47.879  1.00  0.00    -0.003 C 
ATOM      4  C   UNL     1      44.652  32.971  49.205  1.00  0.00     0.004 C 
ENDBRANCH   2   3
ENDBRANCH   1   2
BRANCH   1   5
ATOM      5  C   UNL     1      42.148  36.218  49.709  1.00  0.00     0.162 C 
ATOM      6  O   UNL     1      41.246  36.220  48.828  1.00  0.00    -0.294 OA
BRANCH   5   7
ATOM      7  C   UNL     1      42.016  37.116  50.893  1.00  0.00     0.017 A 
ATOM      8  C   UNL     1      43.143  37.661  51.543  1.00  0.00     0.012 A 
ATOM      9  C   UNL     1      40.736  37.437  51.386  1.00  0.00     0.012 A 
ATOM     10  C   UNL     1      42.988  38.499  52.652  1.00  0.00     0.001 A 
ATOM     11  C   UNL     1      40.587  38.275  52.495  1.00  0.00     0.001 A 
ATOM     12  C   UNL     1      41.713  38.806  53.127  1.00  0.00     0.000 A 
ENDBRANCH   5   7
ENDBRANCH   1   5
TORSDOF 4
ENDMDL
MODEL 8
REMARK VINA RESULT:    -4.213      3.326      4.719
REMARK INTER + INTRA:          -5.436
REMARK INTER:                  -5.185
REMARK INTRA:                  -0.250
REMARK UNBOUND:                -0.238
REMARK SMILES CCCCC(=O)c1ccccc1
REMARK SMILES IDX 4 1 3 2 2 3 1 4 5 5 6 6 7 7 8 8 12 9 9 10 11 11 10 12
REMARK H PARENT
REMARK Flexibility Score: inf
ROOT
ATOM      1  C   UNL     1      43.165  35.865  50.892  1.00  0.00     0.081 C 
ENDROOT
BRANCH   1   2
ATOM      2  C   UNL     1      43.805  34.505  50.577  1.00  0.00     0.008 C 
BRANCH   2   3
ATOM      3  C   UNL     1      44.110  33.699  51.848  1.00  0.00    -0.003 C 
ATOM      4  C   UNL     1      44.955  32.469  51.530  1.00  0.00     0.004 C 
ENDBRANCH   2   3
ENDBRANCH   1   2
BRANCH   1   5
ATOM      5  C   UNL     1      42.492  36.470  49.685  1.00  0.00     0.162 C 
ATOM      6  O   UNL     1      43.213  37.107  48.869  1.00  0.00    -0.294 OA
BRANCH   5   7
ATOM      7  C   UNL     1      41.034  36.320  49.411  1.00  0.00     0.017 A 
ATOM      8  C   UNL     1      40.058  36.643  50.378  1.00  0.00     0.012 A 
ATOM      9  C   UNL     1      40.605  35.844  48.157  1.00  0.00     0.012 A 
ATOM     10  C   UNL     1      38.698  36.491  50.092  1.00  0.00     0.001 A 
ATOM     11  C   UNL     1      39.243  35.695  47.878  1.00  0.00     0.001 A 
ATOM     12  C   UNL     1      38.291  36.017  48.845  1.00  0.00     0.000 A 
ENDBRANCH   5   7
ENDBRANCH   1   5
TORSDOF 4
ENDMDL
MODEL 9
REMARK VINA RESULT:    -3.901     15.666     16.890
REMARK INTER + INTRA:          -5.051
REMARK INTER:                  -4.746
REMARK INTRA:                  -0.304
REMARK UNBOUND:                -0.238
REMARK SMILES CCCCC(=O)c1ccccc1
REMARK SMILES IDX 4 1 3 2 2 3 1 4 5 5 6 6 7 7 8 8 12 9 9 10 11 11 10 12
REMARK H PARENT
REMARK Flexibility Score: inf
ROOT
ATOM      1  C   UNL     1      41.909  38.489  66.182  1.00  0.00     0.081 C 
ENDROOT
BRANCH   1   2
ATOM      2  C   UNL     1      41.270  38.181  67.544  1.00  0.00     0.008 C 
BRANCH   2   3
ATOM      3  C   UNL     1      39.955  37.399  67.404  1.00  0.00    -0.003 C 
ATOM      4  C   UNL     1      39.449  37.427  65.965  1.00  0.00     0.004 C 
ENDBRANCH   2   3
ENDBRANCH   1   2
BRANCH   1   5
ATOM      5  C   UNL     1      43.268  39.126  66.323  1.00  0.00     0.162 C 
ATOM      6  O   UNL     1      43.339  40.383  66.244  1.00  0.00    -0.294 OA
BRANCH   5   7
ATOM      7  C   UNL     1      44.509  38.339  66.578  1.00  0.00     0.017 A 
ATOM      8  C   UNL     1      45.479  38.760  67.512  1.00  0.00     0.012 A 
ATOM      9  C   UNL     1      44.731  37.138  65.874  1.00  0.00     0.012 A 
ATOM     10  C   UNL     1      46.633  38.000  67.729  1.00  0.00     0.001 A 
ATOM     11  C   UNL     1      45.887  36.384  66.096  1.00  0.00     0.001 A 
ATOM     12  C   UNL     1      46.837  36.815  67.023  1.00  0.00     0.000 A 
ENDBRANCH   5   7
ENDBRANCH   1   5
TORSDOF 4
ENDMDL
