MODEL 1
REMARK VINA RESULT:    -4.841      0.000      0.000
REMARK INTER + INTRA:          -5.897
REMARK INTER:                  -5.832
REMARK INTRA:                  -0.065
REMARK UNBOUND:                -0.065
REMARK SMILES CC[C@H](C)[C@@H]([NH3+])C(=O)[O-]
REMARK SMILES IDX 3 1 4 2 5 3 6 4 7 8 8 9 9 10 2 11 1 12
REMARK H PARENT 6 5 6 6 6 7
REMARK Flexibility Score: inf
ROOT
ATOM      1  C   UNL     1     -15.749   2.444 -23.447  1.00  0.00     0.050 C 
ATOM      2  C   UNL     1     -16.779   3.061 -22.483  1.00  0.00     0.014 C 
ENDROOT
BRANCH   1   3
ATOM      3  C   UNL     1     -15.396   0.963 -23.093  1.00  0.00     0.230 C 
BRANCH   3   4
ATOM      4  N   UNL     1     -16.473   0.270 -22.367  1.00  0.00    -0.350 N 
ATOM      5  H   UNL     1     -17.171  -0.121 -23.038  1.00  0.00     0.345 HD
ATOM      6  H   UNL     1     -16.096  -0.499 -21.769  1.00  0.00     0.345 HD
ATOM      7  H   UNL     1     -16.977   0.952 -21.755  1.00  0.00     0.345 HD
ENDBRANCH   3   4
BRANCH   3   8
ATOM      8  C   UNL     1     -14.990   0.193 -24.326  1.00  0.00     0.099 C 
ATOM      9  O   UNL     1     -15.859  -0.306 -25.092  1.00  0.00    -0.544 OA
ATOM     10  O   UNL     1     -13.645   0.070 -24.650  1.00  0.00    -0.544 OA
ENDBRANCH   3   8
ENDBRANCH   1   3
BRANCH   1  11
ATOM     11  C   UNL     1     -14.514   3.375 -23.542  1.00  0.00     0.006 C 
ATOM     12  C   UNL     1     -14.875   4.848 -23.744  1.00  0.00     0.004 C 
ENDBRANCH   1  11
TORSDOF 4
ENDMDL
MODEL 2
REMARK VINA RESULT:    -4.148      8.598      9.293
REMARK INTER + INTRA:          -5.062
REMARK INTER:                  -4.948
REMARK INTRA:                  -0.113
REMARK UNBOUND:                -0.065
REMARK SMILES CC[C@H](C)[C@@H]([NH3+])C(=O)[O-]
REMARK SMILES IDX 3 1 4 2 5 3 6 4 7 8 8 9 9 10 2 11 1 12
REMARK H PARENT 6 5 6 6 6 7
REMARK Flexibility Score: inf
ROOT
ATOM      1  C   UNL     1     -12.627   2.206 -32.499  1.00  0.00     0.050 C 
ATOM      2  C   UNL     1     -12.658   2.096 -34.035  1.00  0.00     0.014 C 
ENDROOT
BRANCH   1   3
ATOM      3  C   UNL     1     -11.847   1.033 -31.822  1.00  0.00     0.230 C 
BRANCH   3   4
ATOM      4  N   UNL     1     -11.321   0.055 -32.789  1.00  0.00    -0.350 N 
ATOM      5  H   UNL     1     -11.343  -0.907 -32.383  1.00  0.00     0.345 HD
ATOM      6  H   UNL     1     -11.867   0.069 -33.681  1.00  0.00     0.345 HD
ATOM      7  H   UNL     1     -10.323   0.280 -33.007  1.00  0.00     0.345 HD
ENDBRANCH   3   4
BRANCH   3   8
ATOM      8  C   UNL     1     -10.748   1.557 -30.930  1.00  0.00     0.099 C 
ATOM      9  O   UNL     1      -9.581   1.084 -30.995  1.00  0.00    -0.544 OA
ATOM     10  O   UNL     1     -11.010   2.606 -30.058  1.00  0.00    -0.544 OA
ENDBRANCH   3   8
ENDBRANCH   1   3
BRANCH   1  11
ATOM     11  C   UNL     1     -14.072   2.382 -31.970  1.00  0.00     0.006 C 
ATOM     12  C   UNL     1     -14.246   3.607 -31.068  1.00  0.00     0.004 C 
ENDBRANCH   1  11
TORSDOF 4
ENDMDL
MODEL 3
REMARK VINA RESULT:    -4.116      8.317      8.823
REMARK INTER + INTRA:          -5.023
REMARK INTER:                  -4.959
REMARK INTRA:                  -0.064
REMARK UNBOUND:                -0.065
REMARK SMILES CC[C@H](C)[C@@H]([NH3+])C(=O)[O-]
REMARK SMILES IDX 3 1 4 2 5 3 6 4 7 8 8 9 9 10 2 11 1 12
REMARK H PARENT 6 5 6 6 6 7
REMARK Flexibility Score: inf
ROOT
ATOM      1  C   UNL     1     -11.897   2.058 -30.448  1.00  0.00     0.050 C 
ATOM      2  C   UNL     1     -11.452   3.094 -29.398  1.00  0.00     0.014 C 
ENDROOT
BRANCH   1   3
ATOM      3  C   UNL     1     -10.742   1.632 -31.409  1.00  0.00     0.230 C 
BRANCH   3   4
ATOM      4  N   UNL     1      -9.629   0.964 -30.714  1.00  0.00    -0.350 N 
ATOM      5  H   UNL     1      -9.973   0.122 -30.201  1.00  0.00     0.345 HD
ATOM      6  H   UNL     1      -8.876   0.682 -31.382  1.00  0.00     0.345 HD
ATOM      7  H   UNL     1      -9.218   1.615 -30.006  1.00  0.00     0.345 HD
ENDBRANCH   3   4
BRANCH   3   8
ATOM      8  C   UNL     1     -11.264   0.779 -32.540  1.00  0.00     0.099 C 
ATOM      9  O   UNL     1     -11.781  -0.349 -32.315  1.00  0.00    -0.544 OA
ATOM     10  O   UNL     1     -11.219   1.260 -33.843  1.00  0.00    -0.544 OA
ENDBRANCH   3   8
ENDBRANCH   1   3
BRANCH   1  11
ATOM     11  C   UNL     1     -13.158   2.581 -31.180  1.00  0.00     0.006 C 
ATOM     12  C   UNL     1     -13.716   3.876 -30.586  1.00  0.00     0.004 C 
ENDBRANCH   1  11
TORSDOF 4
ENDMDL
MODEL 4
REMARK VINA RESULT:    -4.114      6.407      7.290
REMARK INTER + INTRA:          -5.021
REMARK INTER:                  -4.953
REMARK INTRA:                  -0.068
REMARK UNBOUND:                -0.065
REMARK SMILES CC[C@H](C)[C@@H]([NH3+])C(=O)[O-]
REMARK SMILES IDX 3 1 4 2 5 3 6 4 7 8 8 9 9 10 2 11 1 12
REMARK H PARENT 6 5 6 6 6 7
REMARK Flexibility Score: inf
ROOT
ATOM      1  C   UNL     1     -11.859   3.785 -29.092  1.00  0.00     0.050 C 
ATOM      2  C   UNL     1     -11.779   2.312 -29.534  1.00  0.00     0.014 C 
ENDROOT
BRANCH   1   3
ATOM      3  C   UNL     1     -11.825   3.956 -27.539  1.00  0.00     0.230 C 
BRANCH   3   4
ATOM      4  N   UNL     1     -11.423   2.729 -26.832  1.00  0.00    -0.350 N 
ATOM      5  H   UNL     1     -11.368   2.902 -25.803  1.00  0.00     0.345 HD
ATOM      6  H   UNL     1     -12.089   1.946 -27.018  1.00  0.00     0.345 HD
ATOM      7  H   UNL     1     -10.470   2.439 -27.150  1.00  0.00     0.345 HD
ENDBRANCH   3   4
BRANCH   3   8
ATOM      8  C   UNL     1     -10.953   5.122 -27.140  1.00  0.00     0.099 C 
ATOM      9  O   UNL     1      -9.918   5.411 -27.800  1.00  0.00    -0.544 OA
ATOM     10  O   UNL     1     -11.317   5.918 -26.061  1.00  0.00    -0.544 OA
ENDBRANCH   3   8
ENDBRANCH   1   3
BRANCH   1  11
ATOM     11  C   UNL     1     -13.080   4.457 -29.768  1.00  0.00     0.006 C 
ATOM     12  C   UNL     1     -13.704   3.612 -30.880  1.00  0.00     0.004 C 
ENDBRANCH   1  11
TORSDOF 4
ENDMDL
MODEL 5
REMARK VINA RESULT:    -4.107      6.629      7.316
REMARK INTER + INTRA:          -5.012
REMARK INTER:                  -4.923
REMARK INTRA:                  -0.089
REMARK UNBOUND:                -0.065
REMARK SMILES CC[C@H](C)[C@@H]([NH3+])C(=O)[O-]
REMARK SMILES IDX 3 1 4 2 5 3 6 4 7 8 8 9 9 10 2 11 1 12
REMARK H PARENT 6 5 6 6 6 7
REMARK Flexibility Score: inf
ROOT
ATOM      1  C   UNL     1     -12.566   4.241 -29.858  1.00  0.00     0.050 C 
ATOM      2  C   UNL     1     -13.224   3.553 -31.068  1.00  0.00     0.014 C 
ENDROOT
BRANCH   1   3
ATOM      3  C   UNL     1     -11.789   3.243 -28.940  1.00  0.00     0.230 C 
BRANCH   3   4
ATOM      4  N   UNL     1     -10.783   2.453 -29.668  1.00  0.00    -0.350 N 
ATOM      5  H   UNL     1      -9.853   2.926 -29.633  1.00  0.00     0.345 HD
ATOM      6  H   UNL     1     -10.698   1.488 -29.275  1.00  0.00     0.345 HD
ATOM      7  H   UNL     1     -11.058   2.379 -30.675  1.00  0.00     0.345 HD
ENDBRANCH   3   4
BRANCH   3   8
ATOM      8  C   UNL     1     -11.168   3.958 -27.764  1.00  0.00     0.099 C 
ATOM      9  O   UNL     1     -10.303   4.859 -27.938  1.00  0.00    -0.544 OA
ATOM     10  O   UNL     1     -11.588   3.656 -26.475  1.00  0.00    -0.544 OA
ENDBRANCH   3   8
ENDBRANCH   1   3
BRANCH   1  11
ATOM     11  C   UNL     1     -13.628   5.083 -29.107  1.00  0.00     0.006 C 
ATOM     12  C   UNL     1     -15.004   5.066 -29.775  1.00  0.00     0.004 C 
ENDBRANCH   1  11
TORSDOF 4
ENDMDL
MODEL 6
REMARK VINA RESULT:    -4.027      6.374      7.221
REMARK INTER + INTRA:          -4.916
REMARK INTER:                  -4.849
REMARK INTRA:                  -0.067
REMARK UNBOUND:                -0.065
REMARK SMILES CC[C@H](C)[C@@H]([NH3+])C(=O)[O-]
REMARK SMILES IDX 3 1 4 2 5 3 6 4 7 8 8 9 9 10 2 11 1 12
REMARK H PARENT 6 5 6 6 6 7
REMARK Flexibility Score: inf
ROOT
ATOM      1  C   UNL     1     -11.814   3.703 -29.049  1.00  0.00     0.050 C 
ATOM      2  C   UNL     1     -11.754   2.227 -29.483  1.00  0.00     0.014 C 
ENDROOT
BRANCH   1   3
ATOM      3  C   UNL     1     -11.847   3.880 -27.497  1.00  0.00     0.230 C 
BRANCH   3   4
ATOM      4  N   UNL     1     -11.457   2.662 -26.769  1.00  0.00    -0.350 N 
ATOM      5  H   UNL     1     -10.460   2.724 -26.463  1.00  0.00     0.345 HD
ATOM      6  H   UNL     1     -12.068   2.503 -25.936  1.00  0.00     0.345 HD
ATOM      7  H   UNL     1     -11.537   1.834 -27.403  1.00  0.00     0.345 HD
ENDBRANCH   3   4
BRANCH   3   8
ATOM      8  C   UNL     1     -11.009   5.060 -27.067  1.00  0.00     0.099 C 
ATOM      9  O   UNL     1     -11.315   5.734 -26.046  1.00  0.00    -0.544 OA
ATOM     10  O   UNL     1      -9.858   5.381 -27.776  1.00  0.00    -0.544 OA
ENDBRANCH   3   8
ENDBRANCH   1   3
BRANCH   1  11
ATOM     11  C   UNL     1     -12.983   4.405 -29.783  1.00  0.00     0.006 C 
ATOM     12  C   UNL     1     -13.541   3.597 -30.956  1.00  0.00     0.004 C 
ENDBRANCH   1  11
TORSDOF 4
ENDMDL
MODEL 7
REMARK VINA RESULT:    -3.949      8.605      9.136
REMARK INTER + INTRA:          -4.822
REMARK INTER:                  -4.722
REMARK INTRA:                  -0.100
REMARK UNBOUND:                -0.065
REMARK SMILES CC[C@H](C)[C@@H]([NH3+])C(=O)[O-]
REMARK SMILES IDX 3 1 4 2 5 3 6 4 7 8 8 9 9 10 2 11 1 12
REMARK H PARENT 6 5 6 6 6 7
REMARK Flexibility Score: inf
ROOT
ATOM      1  C   UNL     1     -12.383   2.889 -30.995  1.00  0.00     0.050 C 
ATOM      2  C   UNL     1     -12.845   3.900 -29.929  1.00  0.00     0.014 C 
ENDROOT
BRANCH   1   3
ATOM      3  C   UNL     1     -13.536   2.444 -31.950  1.00  0.00     0.230 C 
BRANCH   3   4
ATOM      4  N   UNL     1     -14.828   3.071 -31.627  1.00  0.00    -0.350 N 
ATOM      5  H   UNL     1     -14.704   4.092 -31.450  1.00  0.00     0.345 HD
ATOM      6  H   UNL     1     -15.522   2.933 -32.396  1.00  0.00     0.345 HD
ATOM      7  H   UNL     1     -15.214   2.647 -30.751  1.00  0.00     0.345 HD
ENDBRANCH   3   4
BRANCH   3   8
ATOM      8  C   UNL     1     -13.166   2.681 -33.394  1.00  0.00     0.099 C 
ATOM      9  O   UNL     1     -12.913   1.715 -34.165  1.00  0.00    -0.544 OA
ATOM     10  O   UNL     1     -13.148   3.976 -33.897  1.00  0.00    -0.544 OA
ENDBRANCH   3   8
ENDBRANCH   1   3
BRANCH   1  11
ATOM     11  C   UNL     1     -11.656   1.710 -30.301  1.00  0.00     0.006 C 
ATOM     12  C   UNL     1     -10.401   1.246 -31.042  1.00  0.00     0.004 C 
ENDBRANCH   1  11
TORSDOF 4
ENDMDL
MODEL 8
REMARK VINA RESULT:    -3.922      6.676      7.581
REMARK INTER + INTRA:          -4.790
REMARK INTER:                  -4.702
REMARK INTRA:                  -0.088
REMARK UNBOUND:                -0.065
REMARK SMILES CC[C@H](C)[C@@H]([NH3+])C(=O)[O-]
REMARK SMILES IDX 3 1 4 2 5 3 6 4 7 8 8 9 9 10 2 11 1 12
REMARK H PARENT 6 5 6 6 6 7
REMARK Flexibility Score: inf
ROOT
ATOM      1  C   UNL     1     -12.560   3.556 -29.521  1.00  0.00     0.050 C 
ATOM      2  C   UNL     1     -13.582   3.878 -30.627  1.00  0.00     0.014 C 
ENDROOT
BRANCH   1   3
ATOM      3  C   UNL     1     -12.075   4.828 -28.753  1.00  0.00     0.230 C 
BRANCH   3   4
ATOM      4  N   UNL     1     -13.182   5.626 -28.200  1.00  0.00    -0.350 N 
ATOM      5  H   UNL     1     -13.624   6.203 -28.949  1.00  0.00     0.345 HD
ATOM      6  H   UNL     1     -13.907   5.017 -27.756  1.00  0.00     0.345 HD
ATOM      7  H   UNL     1     -12.812   6.284 -27.476  1.00  0.00     0.345 HD
ENDBRANCH   3   4
BRANCH   3   8
ATOM      8  C   UNL     1     -11.080   4.465 -27.677  1.00  0.00     0.099 C 
ATOM      9  O   UNL     1      -9.943   5.010 -27.636  1.00  0.00    -0.544 OA
ATOM     10  O   UNL     1     -11.435   3.554 -26.689  1.00  0.00    -0.544 OA
ENDBRANCH   3   8
ENDBRANCH   1   3
BRANCH   1  11
ATOM     11  C   UNL     1     -11.408   2.711 -30.119  1.00  0.00     0.006 C 
ATOM     12  C   UNL     1     -11.889   1.471 -30.874  1.00  0.00     0.004 C 
ENDBRANCH   1  11
TORSDOF 4
ENDMDL
MODEL 9
REMARK VINA RESULT:    -3.873      7.679      8.182
REMARK INTER + INTRA:          -4.730
REMARK INTER:                  -4.673
REMARK INTRA:                  -0.057
REMARK UNBOUND:                -0.065
REMARK SMILES CC[C@H](C)[C@@H]([NH3+])C(=O)[O-]
REMARK SMILES IDX 3 1 4 2 5 3 6 4 7 8 8 9 9 10 2 11 1 12
REMARK H PARENT 6 5 6 6 6 7
REMARK Flexibility Score: inf
ROOT
ATOM      1  C   UNL     1     -12.259   3.032 -30.636  1.00  0.00     0.050 C 
ATOM      2  C   UNL     1     -13.706   3.480 -30.916  1.00  0.00     0.014 C 
ENDROOT
BRANCH   1   3
ATOM      3  C   UNL     1     -12.053   1.494 -30.816  1.00  0.00     0.230 C 
BRANCH   3   4
ATOM      4  N   UNL     1     -13.185   0.834 -31.488  1.00  0.00    -0.350 N 
ATOM      5  H   UNL     1     -12.961  -0.167 -31.681  1.00  0.00     0.345 HD
ATOM      6  H   UNL     1     -14.056   0.893 -30.914  1.00  0.00     0.345 HD
ATOM      7  H   UNL     1     -13.362   1.297 -32.410  1.00  0.00     0.345 HD
ENDBRANCH   3   4
BRANCH   3   8
ATOM      8  C   UNL     1     -10.755   1.200 -31.527  1.00  0.00     0.099 C 
ATOM      9  O   UNL     1      -9.656   1.234 -30.909  1.00  0.00    -0.544 OA
ATOM     10  O   UNL     1     -10.770   0.840 -32.869  1.00  0.00    -0.544 OA
ENDBRANCH   3   8
ENDBRANCH   1   3
BRANCH   1  11
ATOM     11  C   UNL     1     -11.817   3.564 -29.250  1.00  0.00     0.006 C 
ATOM     12  C   UNL     1     -12.631   4.768 -28.771  1.00  0.00     0.004 C 
ENDBRANCH   1  11
TORSDOF 4
ENDMDL
