MODEL 1
REMARK VINA RESULT:    -3.868      0.000      0.000
REMARK INTER + INTRA:          -5.604
REMARK INTER:                  -5.225
REMARK INTRA:                  -0.379
REMARK UNBOUND:                -0.379
REMARK SMILES CCCCCCC=CC(=O)[O-]
REMARK SMILES IDX 5 1 6 2 7 3 8 4 9 5 10 6 11 7 4 8 3 9 2 10 1 11
REMARK H PARENT
REMARK Flexibility Score: inf
ROOT
ATOM      1  C   UNL     1      31.735 170.321 153.978  1.00  0.00     0.004 C 
ENDROOT
BRANCH   1   2
ATOM      2  C   UNL     1      33.110 169.894 154.517  1.00  0.00     0.027 C 
BRANCH   2   3
ATOM      3  C   UNL     1      33.523 170.740 155.690  1.00  0.00    -0.025 C 
ATOM      4  C   UNL     1      34.062 170.294 156.836  1.00  0.00     0.020 C 
BRANCH   4   5
ATOM      5  C   UNL     1      34.329 168.884 157.193  1.00  0.00     0.064 C 
ATOM      6  O   UNL     1      35.485 168.420 157.010  1.00  0.00    -0.545 OA
ATOM      7  O   UNL     1      33.356 168.059 157.741  1.00  0.00    -0.545 OA
ENDBRANCH   4   5
ENDBRANCH   2   3
ENDBRANCH   1   2
BRANCH   1   8
ATOM      8  C   UNL     1      31.532 171.843 154.017  1.00  0.00     0.000 C 
BRANCH   8   9
ATOM      9  C   UNL     1      30.102 172.240 154.411  1.00  0.00    -0.000 C 
BRANCH   9  10
ATOM     10  C   UNL     1      29.818 173.702 154.046  1.00  0.00    -0.003 C 
ATOM     11  C   UNL     1      31.057 174.569 154.239  1.00  0.00     0.004 C 
ENDBRANCH   9  10
ENDBRANCH   8   9
ENDBRANCH   1   8
TORSDOF 6
ENDMDL
MODEL 2
REMARK VINA RESULT:    -3.841      2.580      3.772
REMARK INTER + INTRA:          -5.567
REMARK INTER:                  -4.864
REMARK INTRA:                  -0.703
REMARK UNBOUND:                -0.379
REMARK SMILES CCCCCCC=CC(=O)[O-]
REMARK SMILES IDX 5 1 6 2 7 3 8 4 9 5 10 6 11 7 4 8 3 9 2 10 1 11
REMARK H PARENT
REMARK Flexibility Score: inf
ROOT
ATOM      1  C   UNL     1      34.778 170.070 155.971  1.00  0.00     0.004 C 
ENDROOT
BRANCH   1   2
ATOM      2  C   UNL     1      35.113 169.318 157.270  1.00  0.00     0.027 C 
BRANCH   2   3
ATOM      3  C   UNL     1      34.254 168.094 157.430  1.00  0.00    -0.025 C 
ATOM      4  C   UNL     1      33.311 167.907 158.367  1.00  0.00     0.020 C 
BRANCH   4   5
ATOM      5  C   UNL     1      32.946 168.845 159.450  1.00  0.00     0.064 C 
ATOM      6  O   UNL     1      32.208 169.828 159.179  1.00  0.00    -0.545 OA
ATOM      7  O   UNL     1      33.374 168.671 160.759  1.00  0.00    -0.545 OA
ENDBRANCH   4   5
ENDBRANCH   2   3
ENDBRANCH   1   2
BRANCH   1   8
ATOM      8  C   UNL     1      33.410 170.767 156.028  1.00  0.00     0.000 C 
BRANCH   8   9
ATOM      9  C   UNL     1      32.750 170.890 154.646  1.00  0.00    -0.000 C 
BRANCH   9  10
ATOM     10  C   UNL     1      32.578 169.511 153.997  1.00  0.00    -0.003 C 
ATOM     11  C   UNL     1      31.563 168.666 154.760  1.00  0.00     0.004 C 
ENDBRANCH   9  10
ENDBRANCH   8   9
ENDBRANCH   1   8
TORSDOF 6
ENDMDL
MODEL 3
REMARK VINA RESULT:    -3.749     22.205     23.655
REMARK INTER + INTRA:          -5.443
REMARK INTER:                  -4.592
REMARK INTRA:                  -0.850
REMARK UNBOUND:                -0.379
REMARK SMILES CCCCCCC=CC(=O)[O-]
REMARK SMILES IDX 5 1 6 2 7 3 8 4 9 5 10 6 11 7 4 8 3 9 2 10 1 11
REMARK H PARENT
REMARK Flexibility Score: inf
ROOT
ATOM      1  C   UNL     1      41.975 185.609 172.788  1.00  0.00     0.004 C 
ENDROOT
BRANCH   1   2
ATOM      2  C   UNL     1      40.535 186.128 172.936  1.00  0.00     0.027 C 
BRANCH   2   3
ATOM      3  C   UNL     1      39.565 184.996 173.132  1.00  0.00    -0.025 C 
ATOM      4  C   UNL     1      38.946 184.308 172.160  1.00  0.00     0.020 C 
BRANCH   4   5
ATOM      5  C   UNL     1      39.064 184.540 170.704  1.00  0.00     0.064 C 
ATOM      6  O   UNL     1      40.086 184.117 170.103  1.00  0.00    -0.545 OA
ATOM      7  O   UNL     1      38.079 185.191 169.973  1.00  0.00    -0.545 OA
ENDBRANCH   4   5
ENDBRANCH   2   3
ENDBRANCH   1   2
BRANCH   1   8
ATOM      8  C   UNL     1      42.445 184.814 174.016  1.00  0.00     0.000 C 
BRANCH   8   9
ATOM      9  C   UNL     1      43.249 183.561 173.638  1.00  0.00    -0.000 C 
BRANCH   9  10
ATOM     10  C   UNL     1      42.669 182.896 172.384  1.00  0.00    -0.003 C 
ATOM     11  C   UNL     1      41.612 181.858 172.749  1.00  0.00     0.004 C 
ENDBRANCH   9  10
ENDBRANCH   8   9
ENDBRANCH   1   8
TORSDOF 6
ENDMDL
MODEL 4
REMARK VINA RESULT:    -3.718      0.881      1.284
REMARK INTER + INTRA:          -5.401
REMARK INTER:                  -5.061
REMARK INTRA:                  -0.340
REMARK UNBOUND:                -0.379
REMARK SMILES CCCCCCC=CC(=O)[O-]
REMARK SMILES IDX 5 1 6 2 7 3 8 4 9 5 10 6 11 7 4 8 3 9 2 10 1 11
REMARK H PARENT
REMARK Flexibility Score: inf
ROOT
ATOM      1  C   UNL     1      32.128 170.610 153.934  1.00  0.00     0.004 C 
ENDROOT
BRANCH   1   2
ATOM      2  C   UNL     1      33.018 169.688 154.783  1.00  0.00     0.027 C 
BRANCH   2   3
ATOM      3  C   UNL     1      34.168 170.445 155.389  1.00  0.00    -0.025 C 
ATOM      4  C   UNL     1      34.865 170.084 156.478  1.00  0.00     0.020 C 
BRANCH   4   5
ATOM      5  C   UNL     1      34.628 168.893 157.321  1.00  0.00     0.064 C 
ATOM      6  O   UNL     1      35.380 167.893 157.185  1.00  0.00    -0.545 OA
ATOM      7  O   UNL     1      33.617 168.845 158.272  1.00  0.00    -0.545 OA
ENDBRANCH   4   5
ENDBRANCH   2   3
ENDBRANCH   1   2
BRANCH   1   8
ATOM      8  C   UNL     1      31.484 171.734 154.760  1.00  0.00     0.000 C 
BRANCH   8   9
ATOM      9  C   UNL     1      30.926 172.867 153.885  1.00  0.00    -0.000 C 
BRANCH   9  10
ATOM     10  C   UNL     1      29.430 173.076 154.147  1.00  0.00    -0.003 C 
ATOM     11  C   UNL     1      28.836 171.904 154.921  1.00  0.00     0.004 C 
ENDBRANCH   9  10
ENDBRANCH   8   9
ENDBRANCH   1   8
TORSDOF 6
ENDMDL
MODEL 5
REMARK VINA RESULT:    -3.700      3.138      5.486
REMARK INTER + INTRA:          -5.376
REMARK INTER:                  -4.821
REMARK INTRA:                  -0.555
REMARK UNBOUND:                -0.379
REMARK SMILES CCCCCCC=CC(=O)[O-]
REMARK SMILES IDX 5 1 6 2 7 3 8 4 9 5 10 6 11 7 4 8 3 9 2 10 1 11
REMARK H PARENT
REMARK Flexibility Score: inf
ROOT
ATOM      1  C   UNL     1      33.351 170.499 154.301  1.00  0.00     0.004 C 
ENDROOT
BRANCH   1   2
ATOM      2  C   UNL     1      31.974 169.863 154.046  1.00  0.00     0.027 C 
BRANCH   2   3
ATOM      3  C   UNL     1      31.067 170.030 155.235  1.00  0.00    -0.025 C 
ATOM      4  C   UNL     1      30.203 171.038 155.434  1.00  0.00     0.020 C 
BRANCH   4   5
ATOM      5  C   UNL     1      29.988 172.202 154.549  1.00  0.00     0.064 C 
ATOM      6  O   UNL     1      28.878 172.328 153.970  1.00  0.00    -0.545 OA
ATOM      7  O   UNL     1      30.961 173.173 154.348  1.00  0.00    -0.545 OA
ENDBRANCH   4   5
ENDBRANCH   2   3
ENDBRANCH   1   2
BRANCH   1   8
ATOM      8  C   UNL     1      33.716 170.540 155.793  1.00  0.00     0.000 C 
BRANCH   8   9
ATOM      9  C   UNL     1      35.086 169.912 156.084  1.00  0.00    -0.000 C 
BRANCH   9  10
ATOM     10  C   UNL     1      34.989 168.887 157.221  1.00  0.00    -0.003 C 
ATOM     11  C   UNL     1      33.673 169.029 157.979  1.00  0.00     0.004 C 
ENDBRANCH   9  10
ENDBRANCH   8   9
ENDBRANCH   1   8
TORSDOF 6
ENDMDL
MODEL 6
REMARK VINA RESULT:    -3.667      1.347      1.933
REMARK INTER + INTRA:          -5.332
REMARK INTER:                  -4.983
REMARK INTRA:                  -0.350
REMARK UNBOUND:                -0.379
REMARK SMILES CCCCCCC=CC(=O)[O-]
REMARK SMILES IDX 5 1 6 2 7 3 8 4 9 5 10 6 11 7 4 8 3 9 2 10 1 11
REMARK H PARENT
REMARK Flexibility Score: inf
ROOT
ATOM      1  C   UNL     1      33.537 169.905 154.729  1.00  0.00     0.004 C 
ENDROOT
BRANCH   1   2
ATOM      2  C   UNL     1      34.112 170.545 156.004  1.00  0.00     0.027 C 
BRANCH   2   3
ATOM      3  C   UNL     1      34.944 169.562 156.781  1.00  0.00    -0.025 C 
ATOM      4  C   UNL     1      34.508 168.767 157.771  1.00  0.00     0.020 C 
BRANCH   4   5
ATOM      5  C   UNL     1      33.136 168.718 158.322  1.00  0.00     0.064 C 
ATOM      6  O   UNL     1      32.914 169.238 159.446  1.00  0.00    -0.545 OA
ATOM      7  O   UNL     1      32.081 168.134 157.634  1.00  0.00    -0.545 OA
ENDBRANCH   4   5
ENDBRANCH   2   3
ENDBRANCH   1   2
BRANCH   1   8
ATOM      8  C   UNL     1      32.669 170.880 153.919  1.00  0.00     0.000 C 
BRANCH   8   9
ATOM      9  C   UNL     1      31.485 171.432 154.727  1.00  0.00    -0.000 C 
BRANCH   9  10
ATOM     10  C   UNL     1      30.638 172.386 153.877  1.00  0.00    -0.003 C 
ATOM     11  C   UNL     1      30.989 173.842 154.166  1.00  0.00     0.004 C 
ENDBRANCH   9  10
ENDBRANCH   8   9
ENDBRANCH   1   8
TORSDOF 6
ENDMDL
MODEL 7
REMARK VINA RESULT:    -3.648      2.872      5.294
REMARK INTER + INTRA:          -5.306
REMARK INTER:                  -4.876
REMARK INTRA:                  -0.430
REMARK UNBOUND:                -0.379
REMARK SMILES CCCCCCC=CC(=O)[O-]
REMARK SMILES IDX 5 1 6 2 7 3 8 4 9 5 10 6 11 7 4 8 3 9 2 10 1 11
REMARK H PARENT
REMARK Flexibility Score: inf
ROOT
ATOM      1  C   UNL     1      34.912 169.757 156.475  1.00  0.00     0.004 C 
ENDROOT
BRANCH   1   2
ATOM      2  C   UNL     1      33.651 170.516 156.031  1.00  0.00     0.027 C 
BRANCH   2   3
ATOM      3  C   UNL     1      33.384 170.320 154.563  1.00  0.00    -0.025 C 
ATOM      4  C   UNL     1      32.348 170.824 153.875  1.00  0.00     0.020 C 
BRANCH   4   5
ATOM      5  C   UNL     1      31.243 171.643 154.419  1.00  0.00     0.064 C 
ATOM      6  O   UNL     1      31.221 172.876 154.167  1.00  0.00    -0.545 OA
ATOM      7  O   UNL     1      30.219 171.098 155.181  1.00  0.00    -0.545 OA
ENDBRANCH   4   5
ENDBRANCH   2   3
ENDBRANCH   1   2
BRANCH   1   8
ATOM      8  C   UNL     1      34.610 168.669 157.517  1.00  0.00     0.000 C 
BRANCH   8   9
ATOM      9  C   UNL     1      33.131 168.639 157.930  1.00  0.00    -0.000 C 
BRANCH   9  10
ATOM     10  C   UNL     1      32.972 168.967 159.420  1.00  0.00    -0.003 C 
ATOM     11  C   UNL     1      31.840 169.964 159.647  1.00  0.00     0.004 C 
ENDBRANCH   9  10
ENDBRANCH   8   9
ENDBRANCH   1   8
TORSDOF 6
ENDMDL
MODEL 8
REMARK VINA RESULT:    -3.575      1.467      2.143
REMARK INTER + INTRA:          -5.208
REMARK INTER:                  -4.724
REMARK INTRA:                  -0.484
REMARK UNBOUND:                -0.379
REMARK SMILES CCCCCCC=CC(=O)[O-]
REMARK SMILES IDX 5 1 6 2 7 3 8 4 9 5 10 6 11 7 4 8 3 9 2 10 1 11
REMARK H PARENT
REMARK Flexibility Score: inf
ROOT
ATOM      1  C   UNL     1      30.220 170.415 155.443  1.00  0.00     0.004 C 
ENDROOT
BRANCH   1   2
ATOM      2  C   UNL     1      31.164 169.305 154.952  1.00  0.00     0.027 C 
BRANCH   2   3
ATOM      3  C   UNL     1      32.197 169.848 154.003  1.00  0.00    -0.025 C 
ATOM      4  C   UNL     1      33.435 170.253 154.330  1.00  0.00     0.020 C 
BRANCH   4   5
ATOM      5  C   UNL     1      34.023 170.281 155.686  1.00  0.00     0.064 C 
ATOM      6  O   UNL     1      33.499 171.018 156.561  1.00  0.00    -0.545 OA
ATOM      7  O   UNL     1      35.123 169.508 156.035  1.00  0.00    -0.545 OA
ENDBRANCH   4   5
ENDBRANCH   2   3
ENDBRANCH   1   2
BRANCH   1   8
ATOM      8  C   UNL     1      29.553 171.178 154.287  1.00  0.00     0.000 C 
BRANCH   8   9
ATOM      9  C   UNL     1      29.562 172.699 154.498  1.00  0.00    -0.000 C 
BRANCH   9  10
ATOM     10  C   UNL     1      30.887 173.310 154.028  1.00  0.00    -0.003 C 
ATOM     11  C   UNL     1      30.898 174.822 154.225  1.00  0.00     0.004 C 
ENDBRANCH   9  10
ENDBRANCH   8   9
ENDBRANCH   1   8
TORSDOF 6
ENDMDL
MODEL 9
REMARK VINA RESULT:    -3.510      3.360      4.923
REMARK INTER + INTRA:          -5.120
REMARK INTER:                  -4.613
REMARK INTRA:                  -0.507
REMARK UNBOUND:                -0.379
REMARK SMILES CCCCCCC=CC(=O)[O-]
REMARK SMILES IDX 5 1 6 2 7 3 8 4 9 5 10 6 11 7 4 8 3 9 2 10 1 11
REMARK H PARENT
REMARK Flexibility Score: inf
ROOT
ATOM      1  C   UNL     1      34.105 168.173 157.361  1.00  0.00     0.004 C 
ENDROOT
BRANCH   1   2
ATOM      2  C   UNL     1      33.342 168.091 158.693  1.00  0.00     0.027 C 
BRANCH   2   3
ATOM      3  C   UNL     1      32.531 169.335 158.934  1.00  0.00    -0.025 C 
ATOM      4  C   UNL     1      31.960 169.693 160.095  1.00  0.00     0.020 C 
BRANCH   4   5
ATOM      5  C   UNL     1      31.983 168.929 161.361  1.00  0.00     0.064 C 
ATOM      6  O   UNL     1      30.956 168.287 161.702  1.00  0.00    -0.545 OA
ATOM      7  O   UNL     1      33.105 168.878 162.178  1.00  0.00    -0.545 OA
ENDBRANCH   4   5
ENDBRANCH   2   3
ENDBRANCH   1   2
BRANCH   1   8
ATOM      8  C   UNL     1      35.035 169.395 157.286  1.00  0.00     0.000 C 
BRANCH   8   9
ATOM      9  C   UNL     1      34.952 170.120 155.935  1.00  0.00    -0.000 C 
BRANCH   9  10
ATOM     10  C   UNL     1      33.510 170.540 155.626  1.00  0.00    -0.003 C 
ATOM     11  C   UNL     1      33.099 170.111 154.221  1.00  0.00     0.004 C 
ENDBRANCH   9  10
ENDBRANCH   8   9
ENDBRANCH   1   8
TORSDOF 6
ENDMDL
