MODEL 1
REMARK VINA RESULT:    -6.921      0.000      0.000
REMARK INTER + INTRA:          -7.199
REMARK INTER:                  -7.528
REMARK INTRA:                   0.329
REMARK UNBOUND:                 0.329
REMARK SMILES C[C@H]1[C@@H](C)CC[C@]2(C(=O)[O-])CC[C@@]3(C)C(=CC[C@H]4[C@]5(C)CC[C@H](O)C(C)(C)[C@@H]5CC[C@]43C)[C@@H]12
REMARK SMILES IDX 7 1 6 2 11 3 33 4 5 5 12 6 15 7 2 8 3 9 13 10 16 11 1 12
REMARK SMILES IDX 4 13 14 14 31 15 17 16 18 17 30 18 32 19 19 20 29 21 28 22
REMARK SMILES IDX 21 23 20 24 25 25 22 26 23 27 26 28 27 29 8 30 9 31 10 32
REMARK SMILES IDX 24 33
REMARK H PARENT 24 34
REMARK Flexibility Score: inf
ROOT
ATOM      1  C   UNL     1     -50.969 -36.990 -22.263  1.00  0.00     0.017 C 
ATOM      2  C   UNL     1     -51.250 -36.974 -23.806  1.00  0.00     0.014 C 
ATOM      3  C   UNL     1     -50.095 -35.770 -21.876  1.00  0.00     0.014 C 
ATOM      4  C   UNL     1     -50.094 -38.221 -21.882  1.00  0.00     0.030 C 
ATOM      5  C   UNL     1     -50.171 -37.667 -24.656  1.00  0.00     0.004 C 
ATOM      6  C   UNL     1     -49.750 -35.717 -20.368  1.00  0.00     0.013 C 
ATOM      7  C   UNL     1     -49.859 -38.329 -20.379  1.00  0.00    -0.063 C 
ATOM      8  C   UNL     1     -50.309 -39.498 -22.771  1.00  0.00    -0.003 C 
ATOM      9  C   UNL     1     -49.924 -39.158 -24.259  1.00  0.00    -0.011 C 
ATOM     10  C   UNL     1     -49.517 -37.076 -19.552  1.00  0.00    -0.006 C 
ATOM     11  C   UNL     1     -49.632 -39.527 -19.833  1.00  0.00    -0.027 C 
ATOM     12  C   UNL     1     -51.708 -40.126 -22.616  1.00  0.00     0.008 C 
ATOM     13  C   UNL     1     -50.479 -40.145 -25.300  1.00  0.00     0.008 C 
ATOM     14  C   UNL     1     -50.543 -37.073 -18.377  1.00  0.00     0.017 C 
ATOM     15  C   UNL     1     -48.007 -37.209 -18.993  1.00  0.00    -0.020 C 
ATOM     16  C   UNL     1     -48.480 -39.769 -18.901  1.00  0.00     0.032 C 
ATOM     17  C   UNL     1     -47.803 -38.553 -18.171  1.00  0.00     0.006 C 
ATOM     18  C   UNL     1     -47.033 -37.273 -20.197  1.00  0.00     0.008 C 
ATOM     19  C   UNL     1     -47.684 -35.975 -18.074  1.00  0.00     0.012 C 
ATOM     20  C   UNL     1     -46.276 -38.906 -17.738  1.00  0.00    -0.025 C 
ATOM     21  C   UNL     1     -45.576 -37.345 -19.786  1.00  0.00     0.005 C 
ATOM     22  C   UNL     1     -45.210 -38.578 -18.903  1.00  0.00     0.003 C 
ATOM     23  C   UNL     1     -45.904 -38.228 -16.367  1.00  0.00     0.010 C 
ATOM     24  C   UNL     1     -46.222 -40.436 -17.376  1.00  0.00     0.012 C 
ATOM     25  C   UNL     1     -43.676 -38.513 -18.457  1.00  0.00    -0.006 C 
ATOM     26  C   UNL     1     -44.417 -38.318 -16.003  1.00  0.00     0.033 C 
ATOM     27  C   UNL     1     -43.523 -37.750 -17.102  1.00  0.00     0.120 C 
ATOM     28  C   UNL     1     -42.761 -37.777 -19.488  1.00  0.00     0.014 C 
ATOM     29  C   UNL     1     -43.071 -39.958 -18.356  1.00  0.00     0.014 C 
ENDROOT
BRANCH   1  30
ATOM     30  C   UNL     1     -52.320 -36.908 -21.520  1.00  0.00     0.048 C 
ATOM     31  O   UNL     1     -53.137 -35.972 -21.762  1.00  0.00    -0.550 OA
ATOM     32  O   UNL     1     -52.757 -37.950 -20.704  1.00  0.00    -0.550 OA
ENDBRANCH   1  30
BRANCH  27  33
ATOM     33  O   UNL     1     -43.795 -36.380 -17.273  1.00  0.00    -0.393 OA
ATOM     34  H   UNL     1     -43.090 -36.022 -17.876  1.00  0.00     0.210 HD
ENDBRANCH  27  33
TORSDOF 2
ENDMDL
MODEL 2
REMARK VINA RESULT:    -6.835      4.710      9.092
REMARK INTER + INTRA:          -7.105
REMARK INTER:                  -7.377
REMARK INTRA:                   0.272
REMARK UNBOUND:                 0.329
REMARK SMILES C[C@H]1[C@@H](C)CC[C@]2(C(=O)[O-])CC[C@@]3(C)C(=CC[C@H]4[C@]5(C)CC[C@H](O)C(C)(C)[C@@H]5CC[C@]43C)[C@@H]12
REMARK SMILES IDX 7 1 6 2 11 3 33 4 5 5 12 6 15 7 2 8 3 9 13 10 16 11 1 12
REMARK SMILES IDX 4 13 14 14 31 15 17 16 18 17 30 18 32 19 19 20 29 21 28 22
REMARK SMILES IDX 21 23 20 24 25 25 22 26 23 27 26 28 27 29 8 30 9 31 10 32
REMARK SMILES IDX 24 33
REMARK H PARENT 24 34
REMARK Flexibility Score: inf
ROOT
ATOM      1  C   UNL     1     -42.926 -41.649 -18.421  1.00  0.00     0.017 C 
ATOM      2  C   UNL     1     -41.372 -41.614 -18.215  1.00  0.00     0.014 C 
ATOM      3  C   UNL     1     -43.433 -43.112 -18.350  1.00  0.00     0.014 C 
ATOM      4  C   UNL     1     -43.296 -41.188 -19.862  1.00  0.00     0.030 C 
ATOM      5  C   UNL     1     -40.556 -41.800 -19.507  1.00  0.00     0.004 C 
ATOM      6  C   UNL     1     -44.960 -43.243 -18.564  1.00  0.00     0.013 C 
ATOM      7  C   UNL     1     -44.803 -41.125 -20.089  1.00  0.00    -0.063 C 
ATOM      8  C   UNL     1     -42.329 -40.125 -20.495  1.00  0.00    -0.003 C 
ATOM      9  C   UNL     1     -40.887 -40.749 -20.614  1.00  0.00    -0.011 C 
ATOM     10  C   UNL     1     -45.715 -42.252 -19.572  1.00  0.00    -0.006 C 
ATOM     11  C   UNL     1     -45.298 -40.279 -20.996  1.00  0.00    -0.027 C 
ATOM     12  C   UNL     1     -42.361 -38.761 -19.778  1.00  0.00     0.008 C 
ATOM     13  C   UNL     1     -39.763 -39.717 -20.803  1.00  0.00     0.008 C 
ATOM     14  C   UNL     1     -46.822 -41.530 -18.741  1.00  0.00     0.017 C 
ATOM     15  C   UNL     1     -46.361 -43.029 -20.833  1.00  0.00    -0.020 C 
ATOM     16  C   UNL     1     -46.286 -40.720 -22.036  1.00  0.00     0.032 C 
ATOM     17  C   UNL     1     -47.121 -42.032 -21.807  1.00  0.00     0.006 C 
ATOM     18  C   UNL     1     -45.219 -43.674 -21.659  1.00  0.00     0.008 C 
ATOM     19  C   UNL     1     -47.364 -44.122 -20.310  1.00  0.00     0.012 C 
ATOM     20  C   UNL     1     -47.631 -42.656 -23.220  1.00  0.00    -0.025 C 
ATOM     21  C   UNL     1     -45.718 -44.477 -22.843  1.00  0.00     0.005 C 
ATOM     22  C   UNL     1     -46.554 -43.662 -23.877  1.00  0.00     0.003 C 
ATOM     23  C   UNL     1     -49.056 -43.306 -23.072  1.00  0.00     0.010 C 
ATOM     24  C   UNL     1     -47.913 -41.458 -24.199  1.00  0.00     0.012 C 
ATOM     25  C   UNL     1     -47.099 -44.618 -25.037  1.00  0.00    -0.006 C 
ATOM     26  C   UNL     1     -49.508 -44.118 -24.292  1.00  0.00     0.033 C 
ATOM     27  C   UNL     1     -48.500 -45.201 -24.664  1.00  0.00     0.120 C 
ATOM     28  C   UNL     1     -46.169 -45.840 -25.321  1.00  0.00     0.014 C 
ATOM     29  C   UNL     1     -47.161 -43.846 -26.402  1.00  0.00     0.014 C 
ENDROOT
BRANCH   1  30
ATOM     30  C   UNL     1     -43.586 -40.825 -17.294  1.00  0.00     0.048 C 
ATOM     31  O   UNL     1     -43.512 -41.200 -16.088  1.00  0.00    -0.550 OA
ATOM     32  O   UNL     1     -44.118 -39.561 -17.544  1.00  0.00    -0.550 OA
ENDBRANCH   1  30
BRANCH  27  33
ATOM     33  O   UNL     1     -48.386 -46.125 -23.608  1.00  0.00    -0.393 OA
ATOM     34  H   UNL     1     -47.663 -45.791 -23.013  1.00  0.00     0.210 HD
ENDBRANCH  27  33
TORSDOF 2
ENDMDL
MODEL 3
REMARK VINA RESULT:    -6.771      2.453      4.500
REMARK INTER + INTRA:          -7.036
REMARK INTER:                  -7.310
REMARK INTRA:                   0.274
REMARK UNBOUND:                 0.329
REMARK SMILES C[C@H]1[C@@H](C)CC[C@]2(C(=O)[O-])CC[C@@]3(C)C(=CC[C@H]4[C@]5(C)CC[C@H](O)C(C)(C)[C@@H]5CC[C@]43C)[C@@H]12
REMARK SMILES IDX 7 1 6 2 11 3 33 4 5 5 12 6 15 7 2 8 3 9 13 10 16 11 1 12
REMARK SMILES IDX 4 13 14 14 31 15 17 16 18 17 30 18 32 19 19 20 29 21 28 22
REMARK SMILES IDX 21 23 20 24 25 25 22 26 23 27 26 28 27 29 8 30 9 31 10 32
REMARK SMILES IDX 24 33
REMARK H PARENT 24 34
REMARK Flexibility Score: inf
ROOT
ATOM      1  C   UNL     1     -51.223 -38.118 -25.926  1.00  0.00     0.017 C 
ATOM      2  C   UNL     1     -52.233 -38.890 -26.843  1.00  0.00     0.014 C 
ATOM      3  C   UNL     1     -49.849 -38.834 -25.939  1.00  0.00     0.014 C 
ATOM      4  C   UNL     1     -51.675 -38.188 -24.436  1.00  0.00     0.030 C 
ATOM      5  C   UNL     1     -52.989 -40.029 -26.136  1.00  0.00     0.004 C 
ATOM      6  C   UNL     1     -48.791 -38.148 -25.040  1.00  0.00     0.013 C 
ATOM      7  C   UNL     1     -50.769 -37.382 -23.511  1.00  0.00    -0.063 C 
ATOM      8  C   UNL     1     -53.227 -38.254 -24.208  1.00  0.00    -0.003 C 
ATOM      9  C   UNL     1     -53.789 -39.564 -24.877  1.00  0.00    -0.011 C 
ATOM     10  C   UNL     1     -49.239 -37.443 -23.673  1.00  0.00    -0.006 C 
ATOM     11  C   UNL     1     -51.264 -36.885 -22.374  1.00  0.00    -0.027 C 
ATOM     12  C   UNL     1     -53.965 -36.969 -24.635  1.00  0.00     0.008 C 
ATOM     13  C   UNL     1     -55.309 -39.554 -25.114  1.00  0.00     0.008 C 
ATOM     14  C   UNL     1     -48.782 -35.954 -23.769  1.00  0.00     0.017 C 
ATOM     15  C   UNL     1     -48.598 -38.156 -22.372  1.00  0.00    -0.020 C 
ATOM     16  C   UNL     1     -50.569 -37.073 -21.057  1.00  0.00     0.032 C 
ATOM     17  C   UNL     1     -49.038 -37.429 -21.030  1.00  0.00     0.006 C 
ATOM     18  C   UNL     1     -49.132 -39.608 -22.286  1.00  0.00     0.008 C 
ATOM     19  C   UNL     1     -47.030 -38.138 -22.491  1.00  0.00     0.012 C 
ATOM     20  C   UNL     1     -48.635 -38.175 -19.643  1.00  0.00    -0.025 C 
ATOM     21  C   UNL     1     -48.551 -40.391 -21.126  1.00  0.00     0.005 C 
ATOM     22  C   UNL     1     -48.829 -39.775 -19.720  1.00  0.00     0.003 C 
ATOM     23  C   UNL     1     -47.190 -37.761 -19.176  1.00  0.00     0.010 C 
ATOM     24  C   UNL     1     -49.536 -37.580 -18.499  1.00  0.00     0.012 C 
ATOM     25  C   UNL     1     -48.104 -40.629 -18.580  1.00  0.00    -0.006 C 
ATOM     26  C   UNL     1     -46.643 -38.592 -18.008  1.00  0.00     0.033 C 
ATOM     27  C   UNL     1     -46.663 -40.088 -18.311  1.00  0.00     0.120 C 
ATOM     28  C   UNL     1     -47.952 -42.141 -18.940  1.00  0.00     0.014 C 
ATOM     29  C   UNL     1     -48.958 -40.623 -17.263  1.00  0.00     0.014 C 
ENDROOT
BRANCH   1  30
ATOM     30  C   UNL     1     -51.058 -36.685 -26.479  1.00  0.00     0.048 C 
ATOM     31  O   UNL     1     -50.522 -36.484 -27.607  1.00  0.00    -0.550 OA
ATOM     32  O   UNL     1     -51.654 -35.596 -25.846  1.00  0.00    -0.550 OA
ENDBRANCH   1  30
BRANCH  27  33
ATOM     33  O   UNL     1     -45.820 -40.361 -19.404  1.00  0.00    -0.393 OA
ATOM     34  H   UNL     1     -46.279 -40.010 -20.213  1.00  0.00     0.210 HD
ENDBRANCH  27  33
TORSDOF 2
ENDMDL
MODEL 4
REMARK VINA RESULT:    -6.732     10.498     13.728
REMARK INTER + INTRA:          -6.993
REMARK INTER:                  -7.413
REMARK INTRA:                   0.420
REMARK UNBOUND:                 0.329
REMARK SMILES C[C@H]1[C@@H](C)CC[C@]2(C(=O)[O-])CC[C@@]3(C)C(=CC[C@H]4[C@]5(C)CC[C@H](O)C(C)(C)[C@@H]5CC[C@]43C)[C@@H]12
REMARK SMILES IDX 7 1 6 2 11 3 33 4 5 5 12 6 15 7 2 8 3 9 13 10 16 11 1 12
REMARK SMILES IDX 4 13 14 14 31 15 17 16 18 17 30 18 32 19 19 20 29 21 28 22
REMARK SMILES IDX 21 23 20 24 25 25 22 26 23 27 26 28 27 29 8 30 9 31 10 32
REMARK SMILES IDX 24 33
REMARK H PARENT 24 34
REMARK Flexibility Score: inf
ROOT
ATOM      1  C   UNL     1     -51.606 -36.222 -30.311  1.00  0.00     0.017 C 
ATOM      2  C   UNL     1     -50.236 -35.714 -29.741  1.00  0.00     0.014 C 
ATOM      3  C   UNL     1     -52.494 -36.747 -29.156  1.00  0.00     0.014 C 
ATOM      4  C   UNL     1     -51.389 -37.468 -31.222  1.00  0.00     0.030 C 
ATOM      5  C   UNL     1     -49.159 -36.806 -29.610  1.00  0.00     0.004 C 
ATOM      6  C   UNL     1     -53.864 -37.289 -29.632  1.00  0.00     0.013 C 
ATOM      7  C   UNL     1     -52.682 -37.952 -31.869  1.00  0.00    -0.063 C 
ATOM      8  C   UNL     1     -50.023 -37.503 -31.996  1.00  0.00    -0.003 C 
ATOM      9  C   UNL     1     -48.843 -37.538 -30.953  1.00  0.00    -0.011 C 
ATOM     10  C   UNL     1     -53.981 -38.034 -31.046  1.00  0.00    -0.006 C 
ATOM     11  C   UNL     1     -52.632 -38.602 -33.034  1.00  0.00    -0.027 C 
ATOM     12  C   UNL     1     -49.888 -36.392 -33.055  1.00  0.00     0.008 C 
ATOM     13  C   UNL     1     -47.474 -37.144 -31.532  1.00  0.00     0.008 C 
ATOM     14  C   UNL     1     -55.039 -37.245 -31.879  1.00  0.00     0.017 C 
ATOM     15  C   UNL     1     -54.412 -39.584 -30.893  1.00  0.00    -0.020 C 
ATOM     16  C   UNL     1     -53.349 -39.903 -33.250  1.00  0.00     0.032 C 
ATOM     17  C   UNL     1     -54.543 -40.297 -32.306  1.00  0.00     0.006 C 
ATOM     18  C   UNL     1     -53.302 -40.336 -30.117  1.00  0.00     0.008 C 
ATOM     19  C   UNL     1     -55.786 -39.667 -30.132  1.00  0.00     0.012 C 
ATOM     20  C   UNL     1     -54.762 -41.908 -32.281  1.00  0.00    -0.025 C 
ATOM     21  C   UNL     1     -53.629 -41.795 -29.868  1.00  0.00     0.005 C 
ATOM     22  C   UNL     1     -53.862 -42.638 -31.160  1.00  0.00     0.003 C 
ATOM     23  C   UNL     1     -56.289 -42.270 -32.163  1.00  0.00     0.010 C 
ATOM     24  C   UNL     1     -54.399 -42.464 -33.707  1.00  0.00     0.012 C 
ATOM     25  C   UNL     1     -54.280 -44.135 -30.784  1.00  0.00    -0.006 C 
ATOM     26  C   UNL     1     -56.565 -43.756 -31.900  1.00  0.00     0.033 C 
ATOM     27  C   UNL     1     -55.833 -44.263 -30.661  1.00  0.00     0.120 C 
ATOM     28  C   UNL     1     -53.683 -44.623 -29.425  1.00  0.00     0.014 C 
ATOM     29  C   UNL     1     -53.719 -45.146 -31.845  1.00  0.00     0.014 C 
ENDROOT
BRANCH   1  30
ATOM     30  C   UNL     1     -52.315 -35.037 -31.004  1.00  0.00     0.048 C 
ATOM     31  O   UNL     1     -53.177 -34.348 -30.385  1.00  0.00    -0.550 OA
ATOM     32  O   UNL     1     -51.900 -34.581 -32.253  1.00  0.00    -0.550 OA
ENDBRANCH   1  30
BRANCH  27  33
ATOM     33  O   UNL     1     -56.297 -43.579 -29.522  1.00  0.00    -0.393 OA
ATOM     34  H   UNL     1     -55.982 -42.639 -29.606  1.00  0.00     0.210 HD
ENDBRANCH  27  33
TORSDOF 2
ENDMDL
MODEL 5
REMARK VINA RESULT:    -6.656      3.623      9.280
REMARK INTER + INTRA:          -6.911
REMARK INTER:                  -7.184
REMARK INTRA:                   0.273
REMARK UNBOUND:                 0.329
REMARK SMILES C[C@H]1[C@@H](C)CC[C@]2(C(=O)[O-])CC[C@@]3(C)C(=CC[C@H]4[C@]5(C)CC[C@H](O)C(C)(C)[C@@H]5CC[C@]43C)[C@@H]12
REMARK SMILES IDX 7 1 6 2 11 3 33 4 5 5 12 6 15 7 2 8 3 9 13 10 16 11 1 12
REMARK SMILES IDX 4 13 14 14 31 15 17 16 18 17 30 18 32 19 19 20 29 21 28 22
REMARK SMILES IDX 21 23 20 24 25 25 22 26 23 27 26 28 27 29 8 30 9 31 10 32
REMARK SMILES IDX 24 33
REMARK H PARENT 24 34
REMARK Flexibility Score: inf
ROOT
ATOM      1  C   UNL     1     -48.798 -37.471 -22.351  1.00  0.00     0.017 C 
ATOM      2  C   UNL     1     -48.147 -37.145 -20.962  1.00  0.00     0.014 C 
ATOM      3  C   UNL     1     -49.408 -36.183 -22.960  1.00  0.00     0.014 C 
ATOM      4  C   UNL     1     -50.018 -38.423 -22.170  1.00  0.00     0.030 C 
ATOM      5  C   UNL     1     -49.118 -37.223 -19.771  1.00  0.00     0.004 C 
ATOM      6  C   UNL     1     -50.094 -36.417 -24.328  1.00  0.00     0.013 C 
ATOM      7  C   UNL     1     -50.639 -38.837 -23.501  1.00  0.00    -0.063 C 
ATOM      8  C   UNL     1     -49.914 -39.427 -20.969  1.00  0.00    -0.003 C 
ATOM      9  C   UNL     1     -49.819 -38.611 -19.625  1.00  0.00    -0.011 C 
ATOM     10  C   UNL     1     -50.853 -37.798 -24.617  1.00  0.00    -0.006 C 
ATOM     11  C   UNL     1     -51.285 -40.002 -23.591  1.00  0.00    -0.027 C 
ATOM     12  C   UNL     1     -48.799 -40.478 -21.141  1.00  0.00     0.008 C 
ATOM     13  C   UNL     1     -49.286 -39.418 -18.429  1.00  0.00     0.008 C 
ATOM     14  C   UNL     1     -50.184 -38.418 -25.883  1.00  0.00     0.017 C 
ATOM     15  C   UNL     1     -52.439 -37.593 -24.850  1.00  0.00    -0.020 C 
ATOM     16  C   UNL     1     -52.656 -40.105 -24.196  1.00  0.00     0.032 C 
ATOM     17  C   UNL     1     -53.169 -38.970 -25.155  1.00  0.00     0.006 C 
ATOM     18  C   UNL     1     -53.067 -37.037 -23.546  1.00  0.00     0.008 C 
ATOM     19  C   UNL     1     -52.663 -36.601 -26.050  1.00  0.00     0.012 C 
ATOM     20  C   UNL     1     -54.794 -38.929 -25.197  1.00  0.00    -0.025 C 
ATOM     21  C   UNL     1     -54.551 -36.755 -23.670  1.00  0.00     0.005 C 
ATOM     22  C   UNL     1     -55.420 -37.996 -24.040  1.00  0.00     0.003 C 
ATOM     23  C   UNL     1     -55.314 -38.547 -26.632  1.00  0.00     0.010 C 
ATOM     24  C   UNL     1     -55.315 -40.405 -25.037  1.00  0.00     0.012 C 
ATOM     25  C   UNL     1     -56.951 -37.573 -24.226  1.00  0.00    -0.006 C 
ATOM     26  C   UNL     1     -56.819 -38.260 -26.700  1.00  0.00     0.033 C 
ATOM     27  C   UNL     1     -57.241 -37.178 -25.710  1.00  0.00     0.120 C 
ATOM     28  C   UNL     1     -57.367 -36.349 -23.350  1.00  0.00     0.014 C 
ATOM     29  C   UNL     1     -57.902 -38.732 -23.761  1.00  0.00     0.014 C 
ENDROOT
BRANCH   1  30
ATOM     30  C   UNL     1     -47.698 -38.009 -23.292  1.00  0.00     0.048 C 
ATOM     31  O   UNL     1     -46.706 -37.289 -23.608  1.00  0.00    -0.550 OA
ATOM     32  O   UNL     1     -47.667 -39.350 -23.670  1.00  0.00    -0.550 OA
ENDBRANCH   1  30
BRANCH  27  33
ATOM     33  O   UNL     1     -56.604 -35.966 -26.033  1.00  0.00    -0.393 OA
ATOM     34  H   UNL     1     -57.135 -35.241 -25.608  1.00  0.00     0.210 HD
ENDBRANCH  27  33
TORSDOF 2
ENDMDL
MODEL 6
REMARK VINA RESULT:    -6.650      2.084      7.885
REMARK INTER + INTRA:          -6.904
REMARK INTER:                  -7.521
REMARK INTRA:                   0.617
REMARK UNBOUND:                 0.329
REMARK SMILES C[C@H]1[C@@H](C)CC[C@]2(C(=O)[O-])CC[C@@]3(C)C(=CC[C@H]4[C@]5(C)CC[C@H](O)C(C)(C)[C@@H]5CC[C@]43C)[C@@H]12
REMARK SMILES IDX 7 1 6 2 11 3 33 4 5 5 12 6 15 7 2 8 3 9 13 10 16 11 1 12
REMARK SMILES IDX 4 13 14 14 31 15 17 16 18 17 30 18 32 19 19 20 29 21 28 22
REMARK SMILES IDX 21 23 20 24 25 25 22 26 23 27 26 28 27 29 8 30 9 31 10 32
REMARK SMILES IDX 24 33
REMARK H PARENT 24 34
REMARK Flexibility Score: inf
ROOT
ATOM      1  C   UNL     1     -48.297 -37.790 -18.719  1.00  0.00     0.017 C 
ATOM      2  C   UNL     1     -47.601 -38.829 -17.773  1.00  0.00     0.014 C 
ATOM      3  C   UNL     1     -49.833 -37.842 -18.517  1.00  0.00     0.014 C 
ATOM      4  C   UNL     1     -48.095 -38.190 -20.211  1.00  0.00     0.030 C 
ATOM      5  C   UNL     1     -47.479 -40.244 -18.366  1.00  0.00     0.004 C 
ATOM      6  C   UNL     1     -50.605 -36.858 -19.430  1.00  0.00     0.013 C 
ATOM      7  C   UNL     1     -48.684 -37.166 -21.177  1.00  0.00    -0.063 C 
ATOM      8  C   UNL     1     -46.751 -38.936 -20.530  1.00  0.00    -0.003 C 
ATOM      9  C   UNL     1     -46.713 -40.290 -19.726  1.00  0.00    -0.011 C 
ATOM     10  C   UNL     1     -50.068 -36.548 -20.908  1.00  0.00    -0.006 C 
ATOM     11  C   UNL     1     -48.164 -37.041 -22.401  1.00  0.00    -0.027 C 
ATOM     12  C   UNL     1     -45.499 -38.058 -20.333  1.00  0.00     0.008 C 
ATOM     13  C   UNL     1     -45.312 -40.910 -19.594  1.00  0.00     0.008 C 
ATOM     14  C   UNL     1     -49.847 -35.006 -20.987  1.00  0.00     0.017 C 
ATOM     15  C   UNL     1     -51.097 -37.039 -22.053  1.00  0.00    -0.020 C 
ATOM     16  C   UNL     1     -49.024 -37.038 -23.631  1.00  0.00     0.032 C 
ATOM     17  C   UNL     1     -50.555 -36.704 -23.508  1.00  0.00     0.006 C 
ATOM     18  C   UNL     1     -51.233 -38.581 -21.974  1.00  0.00     0.008 C 
ATOM     19  C   UNL     1     -52.488 -36.339 -21.835  1.00  0.00     0.012 C 
ATOM     20  C   UNL     1     -51.394 -37.334 -24.751  1.00  0.00    -0.025 C 
ATOM     21  C   UNL     1     -52.220 -39.146 -22.975  1.00  0.00     0.005 C 
ATOM     22  C   UNL     1     -51.878 -38.846 -24.467  1.00  0.00     0.003 C 
ATOM     23  C   UNL     1     -52.578 -36.387 -25.173  1.00  0.00     0.010 C 
ATOM     24  C   UNL     1     -50.469 -37.296 -26.022  1.00  0.00     0.012 C 
ATOM     25  C   UNL     1     -53.022 -39.412 -25.430  1.00  0.00    -0.006 C 
ATOM     26  C   UNL     1     -53.555 -37.011 -26.178  1.00  0.00     0.033 C 
ATOM     27  C   UNL     1     -54.126 -38.334 -25.675  1.00  0.00     0.120 C 
ATOM     28  C   UNL     1     -53.749 -40.671 -24.856  1.00  0.00     0.014 C 
ATOM     29  C   UNL     1     -52.406 -39.900 -26.789  1.00  0.00     0.014 C 
ENDROOT
BRANCH   1  30
ATOM     30  C   UNL     1     -47.782 -36.379 -18.358  1.00  0.00     0.048 C 
ATOM     31  O   UNL     1     -48.582 -35.474 -17.981  1.00  0.00    -0.550 OA
ATOM     32  O   UNL     1     -46.417 -36.115 -18.259  1.00  0.00    -0.550 OA
ENDBRANCH   1  30
BRANCH  27  33
ATOM     33  O   UNL     1     -54.871 -38.112 -24.501  1.00  0.00    -0.393 OA
ATOM     34  H   UNL     1     -55.614 -37.499 -24.745  1.00  0.00     0.210 HD
ENDBRANCH  27  33
TORSDOF 2
ENDMDL
MODEL 7
REMARK VINA RESULT:    -6.620      1.649      7.696
REMARK INTER + INTRA:          -6.871
REMARK INTER:                  -7.145
REMARK INTRA:                   0.274
REMARK UNBOUND:                 0.329
REMARK SMILES C[C@H]1[C@@H](C)CC[C@]2(C(=O)[O-])CC[C@@]3(C)C(=CC[C@H]4[C@]5(C)CC[C@H](O)C(C)(C)[C@@H]5CC[C@]43C)[C@@H]12
REMARK SMILES IDX 7 1 6 2 11 3 33 4 5 5 12 6 15 7 2 8 3 9 13 10 16 11 1 12
REMARK SMILES IDX 4 13 14 14 31 15 17 16 18 17 30 18 32 19 19 20 29 21 28 22
REMARK SMILES IDX 21 23 20 24 25 25 22 26 23 27 26 28 27 29 8 30 9 31 10 32
REMARK SMILES IDX 24 33
REMARK H PARENT 24 34
REMARK Flexibility Score: inf
ROOT
ATOM      1  C   UNL     1     -43.775 -40.183 -18.386  1.00  0.00     0.017 C 
ATOM      2  C   UNL     1     -42.316 -40.481 -18.876  1.00  0.00     0.014 C 
ATOM      3  C   UNL     1     -44.721 -41.328 -18.828  1.00  0.00     0.014 C 
ATOM      4  C   UNL     1     -44.344 -38.921 -19.100  1.00  0.00     0.030 C 
ATOM      5  C   UNL     1     -42.010 -39.980 -20.299  1.00  0.00     0.004 C 
ATOM      6  C   UNL     1     -46.193 -41.107 -18.402  1.00  0.00     0.013 C 
ATOM      7  C   UNL     1     -45.733 -38.540 -18.598  1.00  0.00    -0.063 C 
ATOM      8  C   UNL     1     -43.282 -37.828 -19.477  1.00  0.00    -0.003 C 
ATOM      9  C   UNL     1     -42.244 -38.447 -20.488  1.00  0.00    -0.011 C 
ATOM     10  C   UNL     1     -46.801 -39.624 -18.364  1.00  0.00    -0.006 C 
ATOM     11  C   UNL     1     -46.131 -37.267 -18.665  1.00  0.00    -0.027 C 
ATOM     12  C   UNL     1     -42.633 -37.153 -18.252  1.00  0.00     0.008 C 
ATOM     13  C   UNL     1     -40.929 -37.659 -20.609  1.00  0.00     0.008 C 
ATOM     14  C   UNL     1     -47.307 -39.388 -16.907  1.00  0.00     0.017 C 
ATOM     15  C   UNL     1     -48.000 -39.422 -19.427  1.00  0.00    -0.020 C 
ATOM     16  C   UNL     1     -47.458 -36.880 -19.250  1.00  0.00     0.032 C 
ATOM     17  C   UNL     1     -48.601 -37.953 -19.358  1.00  0.00     0.006 C 
ATOM     18  C   UNL     1     -47.434 -39.603 -20.858  1.00  0.00     0.008 C 
ATOM     19  C   UNL     1     -49.135 -40.470 -19.134  1.00  0.00     0.012 C 
ATOM     20  C   UNL     1     -49.668 -37.557 -20.521  1.00  0.00    -0.025 C 
ATOM     21  C   UNL     1     -48.490 -39.486 -21.939  1.00  0.00     0.005 C 
ATOM     22  C   UNL     1     -49.240 -38.118 -21.971  1.00  0.00     0.003 C 
ATOM     23  C   UNL     1     -51.129 -37.976 -20.115  1.00  0.00     0.010 C 
ATOM     24  C   UNL     1     -49.772 -35.988 -20.561  1.00  0.00     0.012 C 
ATOM     25  C   UNL     1     -50.384 -38.132 -23.087  1.00  0.00    -0.006 C 
ATOM     26  C   UNL     1     -52.157 -37.851 -21.247  1.00  0.00     0.033 C 
ATOM     27  C   UNL     1     -51.738 -38.632 -22.489  1.00  0.00     0.120 C 
ATOM     28  C   UNL     1     -50.059 -39.066 -24.297  1.00  0.00     0.014 C 
ATOM     29  C   UNL     1     -50.547 -36.706 -23.724  1.00  0.00     0.014 C 
ENDROOT
BRANCH   1  30
ATOM     30  C   UNL     1     -43.764 -40.097 -16.843  1.00  0.00     0.048 C 
ATOM     31  O   UNL     1     -43.469 -41.107 -16.140  1.00  0.00    -0.550 OA
ATOM     32  O   UNL     1     -43.895 -38.873 -16.190  1.00  0.00    -0.550 OA
ENDBRANCH   1  30
BRANCH  27  33
ATOM     33  O   UNL     1     -51.667 -40.004 -22.184  1.00  0.00    -0.393 OA
ATOM     34  H   UNL     1     -52.578 -40.377 -22.329  1.00  0.00     0.210 HD
ENDBRANCH  27  33
TORSDOF 2
ENDMDL
MODEL 8
REMARK VINA RESULT:    -6.526      3.529      7.444
REMARK INTER + INTRA:          -6.769
REMARK INTER:                  -7.042
REMARK INTRA:                   0.273
REMARK UNBOUND:                 0.329
REMARK SMILES C[C@H]1[C@@H](C)CC[C@]2(C(=O)[O-])CC[C@@]3(C)C(=CC[C@H]4[C@]5(C)CC[C@H](O)C(C)(C)[C@@H]5CC[C@]43C)[C@@H]12
REMARK SMILES IDX 7 1 6 2 11 3 33 4 5 5 12 6 15 7 2 8 3 9 13 10 16 11 1 12
REMARK SMILES IDX 4 13 14 14 31 15 17 16 18 17 30 18 32 19 19 20 29 21 28 22
REMARK SMILES IDX 21 23 20 24 25 25 22 26 23 27 26 28 27 29 8 30 9 31 10 32
REMARK SMILES IDX 24 33
REMARK H PARENT 24 34
REMARK Flexibility Score: inf
ROOT
ATOM      1  C   UNL     1     -45.435 -42.529 -21.111  1.00  0.00     0.017 C 
ATOM      2  C   UNL     1     -45.015 -43.866 -21.815  1.00  0.00     0.014 C 
ATOM      3  C   UNL     1     -46.765 -42.733 -20.344  1.00  0.00     0.014 C 
ATOM      4  C   UNL     1     -45.769 -41.437 -22.171  1.00  0.00     0.030 C 
ATOM      5  C   UNL     1     -45.618 -44.061 -23.217  1.00  0.00     0.004 C 
ATOM      6  C   UNL     1     -47.267 -41.453 -19.633  1.00  0.00     0.013 C 
ATOM      7  C   UNL     1     -46.104 -40.090 -21.538  1.00  0.00    -0.063 C 
ATOM      8  C   UNL     1     -44.957 -41.532 -23.511  1.00  0.00    -0.003 C 
ATOM      9  C   UNL     1     -45.280 -42.905 -24.211  1.00  0.00    -0.011 C 
ATOM     10  C   UNL     1     -47.016 -40.017 -20.299  1.00  0.00    -0.006 C 
ATOM     11  C   UNL     1     -45.884 -38.967 -22.225  1.00  0.00    -0.027 C 
ATOM     12  C   UNL     1     -43.450 -41.259 -23.337  1.00  0.00     0.008 C 
ATOM     13  C   UNL     1     -44.260 -43.327 -25.282  1.00  0.00     0.008 C 
ATOM     14  C   UNL     1     -46.216 -39.176 -19.256  1.00  0.00     0.017 C 
ATOM     15  C   UNL     1     -48.393 -39.274 -20.700  1.00  0.00    -0.020 C 
ATOM     16  C   UNL     1     -46.933 -37.902 -22.365  1.00  0.00     0.032 C 
ATOM     17  C   UNL     1     -48.122 -37.845 -21.339  1.00  0.00     0.006 C 
ATOM     18  C   UNL     1     -49.117 -40.115 -21.783  1.00  0.00     0.008 C 
ATOM     19  C   UNL     1     -49.289 -39.116 -19.418  1.00  0.00     0.012 C 
ATOM     20  C   UNL     1     -49.411 -37.087 -21.979  1.00  0.00    -0.025 C 
ATOM     21  C   UNL     1     -50.454 -39.534 -22.196  1.00  0.00     0.005 C 
ATOM     22  C   UNL     1     -50.382 -38.091 -22.786  1.00  0.00     0.003 C 
ATOM     23  C   UNL     1     -50.176 -36.251 -20.887  1.00  0.00     0.010 C 
ATOM     24  C   UNL     1     -48.878 -35.965 -22.943  1.00  0.00     0.012 C 
ATOM     25  C   UNL     1     -51.850 -37.544 -23.110  1.00  0.00    -0.006 C 
ATOM     26  C   UNL     1     -51.528 -35.696 -21.352  1.00  0.00     0.033 C 
ATOM     27  C   UNL     1     -52.448 -36.795 -21.876  1.00  0.00     0.120 C 
ATOM     28  C   UNL     1     -52.864 -38.673 -23.481  1.00  0.00     0.014 C 
ATOM     29  C   UNL     1     -51.822 -36.610 -24.371  1.00  0.00     0.014 C 
ENDROOT
BRANCH   1  30
ATOM     30  C   UNL     1     -44.325 -42.134 -20.112  1.00  0.00     0.048 C 
ATOM     31  O   UNL     1     -44.058 -42.869 -19.117  1.00  0.00    -0.550 OA
ATOM     32  O   UNL     1     -43.468 -41.066 -20.372  1.00  0.00    -0.550 OA
ENDBRANCH   1  30
BRANCH  27  33
ATOM     33  O   UNL     1     -52.741 -37.702 -20.840  1.00  0.00    -0.393 OA
ATOM     34  H   UNL     1     -53.365 -38.377 -21.219  1.00  0.00     0.210 HD
ENDBRANCH  27  33
TORSDOF 2
ENDMDL
MODEL 9
REMARK VINA RESULT:    -6.445      2.071      7.761
REMARK INTER + INTRA:          -6.681
REMARK INTER:                  -7.003
REMARK INTRA:                   0.323
REMARK UNBOUND:                 0.329
REMARK SMILES C[C@H]1[C@@H](C)CC[C@]2(C(=O)[O-])CC[C@@]3(C)C(=CC[C@H]4[C@]5(C)CC[C@H](O)C(C)(C)[C@@H]5CC[C@]43C)[C@@H]12
REMARK SMILES IDX 7 1 6 2 11 3 33 4 5 5 12 6 15 7 2 8 3 9 13 10 16 11 1 12
REMARK SMILES IDX 4 13 14 14 31 15 17 16 18 17 30 18 32 19 19 20 29 21 28 22
REMARK SMILES IDX 21 23 20 24 25 25 22 26 23 27 26 28 27 29 8 30 9 31 10 32
REMARK SMILES IDX 24 33
REMARK H PARENT 24 34
REMARK Flexibility Score: inf
ROOT
ATOM      1  C   UNL     1     -47.551 -39.591 -18.733  1.00  0.00     0.017 C 
ATOM      2  C   UNL     1     -46.829 -40.861 -18.163  1.00  0.00     0.014 C 
ATOM      3  C   UNL     1     -49.075 -39.691 -18.472  1.00  0.00     0.014 C 
ATOM      4  C   UNL     1     -47.433 -39.547 -20.286  1.00  0.00     0.030 C 
ATOM      5  C   UNL     1     -46.766 -42.047 -19.142  1.00  0.00     0.004 C 
ATOM      6  C   UNL     1     -49.873 -38.484 -19.021  1.00  0.00     0.013 C 
ATOM      7  C   UNL     1     -48.049 -38.286 -20.884  1.00  0.00    -0.063 C 
ATOM      8  C   UNL     1     -46.122 -40.177 -20.877  1.00  0.00    -0.003 C 
ATOM      9  C   UNL     1     -46.071 -41.705 -20.498  1.00  0.00    -0.011 C 
ATOM     10  C   UNL     1     -49.405 -37.765 -20.375  1.00  0.00    -0.006 C 
ATOM     11  C   UNL     1     -47.590 -37.818 -22.048  1.00  0.00    -0.027 C 
ATOM     12  C   UNL     1     -44.844 -39.399 -20.506  1.00  0.00     0.008 C 
ATOM     13  C   UNL     1     -44.678 -42.344 -20.625  1.00  0.00     0.008 C 
ATOM     14  C   UNL     1     -49.157 -36.266 -20.021  1.00  0.00     0.017 C 
ATOM     15  C   UNL     1     -50.500 -37.902 -21.555  1.00  0.00    -0.020 C 
ATOM     16  C   UNL     1     -48.511 -37.458 -23.178  1.00  0.00     0.032 C 
ATOM     17  C   UNL     1     -50.026 -37.166 -22.881  1.00  0.00     0.006 C 
ATOM     18  C   UNL     1     -50.663 -39.400 -21.914  1.00  0.00     0.008 C 
ATOM     19  C   UNL     1     -51.864 -37.287 -21.071  1.00  0.00     0.012 C 
ATOM     20  C   UNL     1     -50.940 -37.409 -24.204  1.00  0.00    -0.025 C 
ATOM     21  C   UNL     1     -51.711 -39.650 -22.979  1.00  0.00     0.005 C 
ATOM     22  C   UNL     1     -51.439 -38.937 -24.340  1.00  0.00     0.003 C 
ATOM     23  C   UNL     1     -52.124 -36.375 -24.273  1.00  0.00     0.010 C 
ATOM     24  C   UNL     1     -50.079 -37.012 -25.460  1.00  0.00     0.012 C 
ATOM     25  C   UNL     1     -52.642 -39.197 -25.360  1.00  0.00    -0.006 C 
ATOM     26  C   UNL     1     -53.163 -36.680 -25.360  1.00  0.00     0.033 C 
ATOM     27  C   UNL     1     -53.735 -38.088 -25.226  1.00  0.00     0.120 C 
ATOM     28  C   UNL     1     -53.363 -40.564 -25.133  1.00  0.00     0.014 C 
ATOM     29  C   UNL     1     -52.105 -39.277 -26.833  1.00  0.00     0.014 C 
ENDROOT
BRANCH   1  30
ATOM     30  C   UNL     1     -46.990 -38.346 -18.011  1.00  0.00     0.048 C 
ATOM     31  O   UNL     1     -47.005 -38.267 -16.749  1.00  0.00    -0.550 OA
ATOM     32  O   UNL     1     -46.290 -37.364 -18.710  1.00  0.00    -0.550 OA
ENDBRANCH   1  30
BRANCH  27  33
ATOM     33  O   UNL     1     -54.414 -38.209 -24.000  1.00  0.00    -0.393 OA
ATOM     34  H   UNL     1     -55.385 -38.229 -24.212  1.00  0.00     0.210 HD
ENDBRANCH  27  33
TORSDOF 2
ENDMDL
