MODEL 1
REMARK VINA RESULT:    -6.541      0.000      0.000
REMARK INTER + INTRA:          -8.460
REMARK INTER:                  -8.070
REMARK INTRA:                  -0.390
REMARK UNBOUND:                -0.390
REMARK SMILES O=C1c2c(O)cc(O)cc2O[C@H](c2cc(O)c(O)c(O)c2)[C@@H]1O
REMARK SMILES IDX 12 1 22 2 2 3 1 4 3 5 4 6 6 7 7 8 9 9 10 10 11 11 13 12
REMARK SMILES IDX 14 13 15 14 21 15 17 16 19 17 16 18 18 20 20 22 23 24 5 26
REMARK SMILES IDX 8 28
REMARK H PARENT 16 19 18 21 20 23 23 25 5 27 8 29
REMARK Flexibility Score: inf
ROOT
ATOM      1  C   UNL     1     138.612 134.681 146.178  1.00  0.00     0.240 C 
ATOM      2  C   UNL     1     139.957 133.971 145.927  1.00  0.00     0.231 C 
ATOM      3  C   UNL     1     140.831 134.852 145.074  1.00  0.00     0.202 C 
ATOM      4  O   UNL     1     141.610 134.324 144.235  1.00  0.00    -0.291 OA
ATOM      5  C   UNL     1     140.805 136.321 145.280  1.00  0.00     0.105 A 
ATOM      6  C   UNL     1     141.760 137.189 144.707  1.00  0.00     0.133 A 
ATOM      7  C   UNL     1     141.703 138.563 144.983  1.00  0.00     0.093 A 
ATOM      8  C   UNL     1     140.716 139.079 145.828  1.00  0.00     0.123 A 
ATOM      9  C   UNL     1     139.767 138.219 146.394  1.00  0.00     0.093 A 
ATOM     10  C   UNL     1     139.799 136.851 146.111  1.00  0.00     0.138 A 
ATOM     11  O   UNL     1     138.827 136.010 146.665  1.00  0.00    -0.481 OA
ENDROOT
BRANCH   1  12
ATOM     12  C   UNL     1     137.739 133.899 147.134  1.00  0.00     0.003 A 
ATOM     13  C   UNL     1     137.414 134.442 148.387  1.00  0.00     0.058 A 
ATOM     14  C   UNL     1     136.579 133.745 149.271  1.00  0.00     0.161 A 
ATOM     15  C   UNL     1     137.193 132.659 146.764  1.00  0.00     0.058 A 
ATOM     16  C   UNL     1     136.051 132.502 148.902  1.00  0.00     0.200 A 
ATOM     17  C   UNL     1     136.356 131.957 147.643  1.00  0.00     0.161 A 
BRANCH  14  18
ATOM     18  O   UNL     1     136.267 134.285 150.518  1.00  0.00    -0.504 OA
ATOM     19  H   UNL     1     136.595 135.202 150.797  1.00  0.00     0.293 HD
ENDBRANCH  14  18
BRANCH  16  20
ATOM     20  O   UNL     1     135.223 131.821 149.795  1.00  0.00    -0.502 OA
ATOM     21  H   UNL     1     135.110 132.117 150.757  1.00  0.00     0.293 HD
ENDBRANCH  16  20
BRANCH  17  22
ATOM     22  O   UNL     1     135.826 130.724 147.269  1.00  0.00    -0.504 OA
ATOM     23  H   UNL     1     135.550 130.033 147.957  1.00  0.00     0.293 HD
ENDBRANCH  17  22
ENDBRANCH   1  12
BRANCH   2  24
ATOM     24  O   UNL     1     140.605 133.718 147.147  1.00  0.00    -0.381 OA
ATOM     25  H   UNL     1     141.446 134.246 147.139  1.00  0.00     0.211 HD
ENDBRANCH   2  24
BRANCH   6  26
ATOM     26  O   UNL     1     142.765 136.694 143.876  1.00  0.00    -0.507 OA
ATOM     27  H   UNL     1     143.715 137.044 143.922  1.00  0.00     0.293 HD
ENDBRANCH   6  26
BRANCH   8  28
ATOM     28  O   UNL     1     140.685 140.445 146.097  1.00  0.00    -0.508 OA
ATOM     29  H   UNL     1     141.373 140.881 146.699  1.00  0.00     0.293 HD
ENDBRANCH   8  28
TORSDOF 7
ENDMDL
MODEL 2
REMARK VINA RESULT:    -6.224      3.505      7.929
REMARK INTER + INTRA:          -8.070
REMARK INTER:                  -7.675
REMARK INTRA:                  -0.395
REMARK UNBOUND:                -0.390
REMARK SMILES O=C1c2c(O)cc(O)cc2O[C@H](c2cc(O)c(O)c(O)c2)[C@@H]1O
REMARK SMILES IDX 12 1 22 2 2 3 1 4 3 5 4 6 6 7 7 8 9 9 10 10 11 11 13 12
REMARK SMILES IDX 14 13 15 14 21 15 17 16 19 17 16 18 18 20 20 22 23 24 5 26
REMARK SMILES IDX 8 28
REMARK H PARENT 16 19 18 21 20 23 23 25 5 27 8 29
REMARK Flexibility Score: inf
ROOT
ATOM      1  C   UNL     1     137.381 132.904 149.359  1.00  0.00     0.240 C 
ATOM      2  C   UNL     1     138.054 131.898 150.313  1.00  0.00     0.231 C 
ATOM      3  C   UNL     1     137.412 131.997 151.672  1.00  0.00     0.202 C 
ATOM      4  O   UNL     1     138.115 131.823 152.703  1.00  0.00    -0.291 OA
ATOM      5  C   UNL     1     135.951 132.237 151.771  1.00  0.00     0.105 A 
ATOM      6  C   UNL     1     135.234 132.098 152.980  1.00  0.00     0.133 A 
ATOM      7  C   UNL     1     133.845 132.293 152.989  1.00  0.00     0.093 A 
ATOM      8  C   UNL     1     133.164 132.616 151.812  1.00  0.00     0.123 A 
ATOM      9  C   UNL     1     133.874 132.757 150.614  1.00  0.00     0.093 A 
ATOM     10  C   UNL     1     135.261 132.585 150.594  1.00  0.00     0.138 A 
ATOM     11  O   UNL     1     135.957 132.755 149.392  1.00  0.00    -0.481 OA
ENDROOT
BRANCH   1  12
ATOM     12  C   UNL     1     137.898 132.762 147.945  1.00  0.00     0.003 A 
ATOM     13  C   UNL     1     137.023 132.382 146.915  1.00  0.00     0.058 A 
ATOM     14  C   UNL     1     137.479 132.279 145.594  1.00  0.00     0.161 A 
ATOM     15  C   UNL     1     139.233 133.067 147.630  1.00  0.00     0.058 A 
ATOM     16  C   UNL     1     138.815 132.568 145.290  1.00  0.00     0.200 A 
ATOM     17  C   UNL     1     139.696 132.966 146.310  1.00  0.00     0.161 A 
BRANCH  14  18
ATOM     18  O   UNL     1     136.608 131.892 144.577  1.00  0.00    -0.504 OA
ATOM     19  H   UNL     1     136.863 131.181 143.902  1.00  0.00     0.293 HD
ENDBRANCH  14  18
BRANCH  16  20
ATOM     20  O   UNL     1     139.252 132.458 143.970  1.00  0.00    -0.502 OA
ATOM     21  H   UNL     1     139.231 131.579 143.467  1.00  0.00     0.293 HD
ENDBRANCH  16  20
BRANCH  17  22
ATOM     22  O   UNL     1     141.024 133.264 146.010  1.00  0.00    -0.504 OA
ATOM     23  H   UNL     1     141.757 132.569 146.097  1.00  0.00     0.293 HD
ENDBRANCH  17  22
ENDBRANCH   1  12
BRANCH   2  24
ATOM     24  O   UNL     1     137.900 130.590 149.824  1.00  0.00    -0.381 OA
ATOM     25  H   UNL     1     137.678 130.670 148.860  1.00  0.00     0.211 HD
ENDBRANCH   2  24
BRANCH   6  26
ATOM     26  O   UNL     1     135.892 131.759 154.162  1.00  0.00    -0.507 OA
ATOM     27  H   UNL     1     136.056 130.793 154.422  1.00  0.00     0.293 HD
ENDBRANCH   6  26
BRANCH   8  28
ATOM     28  O   UNL     1     131.783 132.794 151.844  1.00  0.00    -0.508 OA
ATOM     29  H   UNL     1     131.224 132.749 151.001  1.00  0.00     0.293 HD
ENDBRANCH   8  28
TORSDOF 7
ENDMDL
MODEL 3
REMARK VINA RESULT:    -6.025      2.549      2.779
REMARK INTER + INTRA:          -7.824
REMARK INTER:                  -7.442
REMARK INTRA:                  -0.382
REMARK UNBOUND:                -0.390
REMARK SMILES O=C1c2c(O)cc(O)cc2O[C@H](c2cc(O)c(O)c(O)c2)[C@@H]1O
REMARK SMILES IDX 12 1 22 2 2 3 1 4 3 5 4 6 6 7 7 8 9 9 10 10 11 11 13 12
REMARK SMILES IDX 14 13 15 14 21 15 17 16 19 17 16 18 18 20 20 22 23 24 5 26
REMARK SMILES IDX 8 28
REMARK H PARENT 16 19 18 21 20 23 23 25 5 27 8 29
REMARK Flexibility Score: inf
ROOT
ATOM      1  C   UNL     1     138.218 134.272 147.268  1.00  0.00     0.240 C 
ATOM      2  C   UNL     1     138.381 133.492 145.948  1.00  0.00     0.231 C 
ATOM      3  C   UNL     1     139.547 134.056 145.179  1.00  0.00     0.202 C 
ATOM      4  O   UNL     1     139.501 134.084 143.920  1.00  0.00    -0.291 OA
ATOM      5  C   UNL     1     140.752 134.512 145.915  1.00  0.00     0.105 A 
ATOM      6  C   UNL     1     141.970 134.817 145.269  1.00  0.00     0.133 A 
ATOM      7  C   UNL     1     143.084 135.196 146.033  1.00  0.00     0.093 A 
ATOM      8  C   UNL     1     143.001 135.264 147.427  1.00  0.00     0.123 A 
ATOM      9  C   UNL     1     141.792 134.965 148.068  1.00  0.00     0.093 A 
ATOM     10  C   UNL     1     140.669 134.606 147.317  1.00  0.00     0.138 A 
ATOM     11  O   UNL     1     139.462 134.335 147.973  1.00  0.00    -0.481 OA
ENDROOT
BRANCH   1  12
ATOM     12  C   UNL     1     137.141 133.669 148.142  1.00  0.00     0.003 A 
ATOM     13  C   UNL     1     137.488 133.059 149.357  1.00  0.00     0.058 A 
ATOM     14  C   UNL     1     136.499 132.525 150.194  1.00  0.00     0.161 A 
ATOM     15  C   UNL     1     135.785 133.765 147.787  1.00  0.00     0.058 A 
ATOM     16  C   UNL     1     135.150 132.610 149.827  1.00  0.00     0.200 A 
ATOM     17  C   UNL     1     134.790 133.234 148.620  1.00  0.00     0.161 A 
BRANCH  14  18
ATOM     18  O   UNL     1     136.849 131.912 151.396  1.00  0.00    -0.504 OA
ATOM     19  H   UNL     1     136.218 131.280 151.873  1.00  0.00     0.293 HD
ENDBRANCH  14  18
BRANCH  16  20
ATOM     20  O   UNL     1     134.179 132.072 150.672  1.00  0.00    -0.502 OA
ATOM     21  H   UNL     1     133.646 132.645 151.315  1.00  0.00     0.293 HD
ENDBRANCH  16  20
BRANCH  17  22
ATOM     22  O   UNL     1     133.449 133.328 148.255  1.00  0.00    -0.504 OA
ATOM     23  H   UNL     1     132.734 133.596 148.922  1.00  0.00     0.293 HD
ENDBRANCH  17  22
ENDBRANCH   1  12
BRANCH   2  24
ATOM     24  O   UNL     1     138.617 132.133 146.215  1.00  0.00    -0.381 OA
ATOM     25  H   UNL     1     138.529 131.653 145.351  1.00  0.00     0.211 HD
ENDBRANCH   2  24
BRANCH   6  26
ATOM     26  O   UNL     1     142.080 134.737 143.881  1.00  0.00    -0.507 OA
ATOM     27  H   UNL     1     142.227 133.853 143.409  1.00  0.00     0.293 HD
ENDBRANCH   6  26
BRANCH   8  28
ATOM     28  O   UNL     1     144.123 135.632 148.166  1.00  0.00    -0.508 OA
ATOM     29  H   UNL     1     145.059 135.404 147.855  1.00  0.00     0.293 HD
ENDBRANCH   8  28
TORSDOF 7
ENDMDL
MODEL 4
REMARK VINA RESULT:    -5.978      6.907     10.855
REMARK INTER + INTRA:          -7.766
REMARK INTER:                  -7.421
REMARK INTRA:                  -0.345
REMARK UNBOUND:                -0.390
REMARK SMILES O=C1c2c(O)cc(O)cc2O[C@H](c2cc(O)c(O)c(O)c2)[C@@H]1O
REMARK SMILES IDX 12 1 22 2 2 3 1 4 3 5 4 6 6 7 7 8 9 9 10 10 11 11 13 12
REMARK SMILES IDX 14 13 15 14 21 15 17 16 19 17 16 18 18 20 20 22 23 24 5 26
REMARK SMILES IDX 8 28
REMARK H PARENT 16 19 18 21 20 23 23 25 5 27 8 29
REMARK Flexibility Score: inf
ROOT
ATOM      1  C   UNL     1     132.693 135.288 154.121  1.00  0.00     0.240 C 
ATOM      2  C   UNL     1     131.267 135.681 153.688  1.00  0.00     0.231 C 
ATOM      3  C   UNL     1     130.693 136.647 154.691  1.00  0.00     0.202 C 
ATOM      4  O   UNL     1     129.460 136.611 154.949  1.00  0.00    -0.291 OA
ATOM      5  C   UNL     1     131.577 137.665 155.309  1.00  0.00     0.105 A 
ATOM      6  C   UNL     1     131.081 138.754 156.059  1.00  0.00     0.133 A 
ATOM      7  C   UNL     1     131.973 139.706 156.574  1.00  0.00     0.093 A 
ATOM      8  C   UNL     1     133.348 139.591 156.344  1.00  0.00     0.123 A 
ATOM      9  C   UNL     1     133.841 138.510 155.604  1.00  0.00     0.093 A 
ATOM     10  C   UNL     1     132.965 137.543 155.102  1.00  0.00     0.138 A 
ATOM     11  O   UNL     1     133.478 136.456 154.386  1.00  0.00    -0.481 OA
ENDROOT
BRANCH   1  12
ATOM     12  C   UNL     1     133.369 134.416 153.086  1.00  0.00     0.003 A 
ATOM     13  C   UNL     1     132.948 133.089 152.908  1.00  0.00     0.058 A 
ATOM     14  C   UNL     1     133.540 132.279 151.930  1.00  0.00     0.161 A 
ATOM     15  C   UNL     1     134.374 134.933 152.251  1.00  0.00     0.058 A 
ATOM     16  C   UNL     1     134.553 132.796 151.112  1.00  0.00     0.200 A 
ATOM     17  C   UNL     1     134.970 134.128 151.270  1.00  0.00     0.161 A 
BRANCH  14  18
ATOM     18  O   UNL     1     133.124 130.959 151.763  1.00  0.00    -0.504 OA
ATOM     19  H   UNL     1     132.667 130.650 150.913  1.00  0.00     0.293 HD
ENDBRANCH  14  18
BRANCH  16  20
ATOM     20  O   UNL     1     135.133 131.974 150.145  1.00  0.00    -0.502 OA
ATOM     21  H   UNL     1     134.966 130.975 150.116  1.00  0.00     0.293 HD
ENDBRANCH  16  20
BRANCH  17  22
ATOM     22  O   UNL     1     135.972 134.648 150.453  1.00  0.00    -0.504 OA
ATOM     23  H   UNL     1     135.769 135.008 149.527  1.00  0.00     0.293 HD
ENDBRANCH  17  22
ENDBRANCH   1  12
BRANCH   2  24
ATOM     24  O   UNL     1     131.295 136.290 152.423  1.00  0.00    -0.381 OA
ATOM     25  H   UNL     1     131.419 135.562 151.759  1.00  0.00     0.211 HD
ENDBRANCH   2  24
BRANCH   6  26
ATOM     26  O   UNL     1     129.712 138.898 156.284  1.00  0.00    -0.507 OA
ATOM     27  H   UNL     1     129.074 138.115 156.200  1.00  0.00     0.293 HD
ENDBRANCH   6  26
BRANCH   8  28
ATOM     28  O   UNL     1     134.213 140.554 156.857  1.00  0.00    -0.508 OA
ATOM     29  H   UNL     1     135.175 140.620 156.547  1.00  0.00     0.293 HD
ENDBRANCH   8  28
TORSDOF 7
ENDMDL
MODEL 5
REMARK VINA RESULT:    -5.927      2.099      2.722
REMARK INTER + INTRA:          -7.703
REMARK INTER:                  -7.528
REMARK INTRA:                  -0.175
REMARK UNBOUND:                -0.390
REMARK SMILES O=C1c2c(O)cc(O)cc2O[C@H](c2cc(O)c(O)c(O)c2)[C@@H]1O
REMARK SMILES IDX 12 1 22 2 2 3 1 4 3 5 4 6 6 7 7 8 9 9 10 10 11 11 13 12
REMARK SMILES IDX 14 13 15 14 21 15 17 16 19 17 16 18 18 20 20 22 23 24 5 26
REMARK SMILES IDX 8 28
REMARK H PARENT 16 19 18 21 20 23 23 25 5 27 8 29
REMARK Flexibility Score: inf
ROOT
ATOM      1  C   UNL     1     137.884 135.499 147.240  1.00  0.00     0.240 C 
ATOM      2  C   UNL     1     138.845 135.563 146.036  1.00  0.00     0.231 C 
ATOM      3  C   UNL     1     138.920 136.982 145.536  1.00  0.00     0.202 C 
ATOM      4  O   UNL     1     139.059 137.195 144.302  1.00  0.00    -0.291 OA
ATOM      5  C   UNL     1     138.890 138.100 146.510  1.00  0.00     0.105 A 
ATOM      6  C   UNL     1     139.201 139.431 146.156  1.00  0.00     0.133 A 
ATOM      7  C   UNL     1     139.200 140.430 147.140  1.00  0.00     0.093 A 
ATOM      8  C   UNL     1     138.902 140.118 148.470  1.00  0.00     0.123 A 
ATOM      9  C   UNL     1     138.590 138.799 148.822  1.00  0.00     0.093 A 
ATOM     10  C   UNL     1     138.568 137.797 147.848  1.00  0.00     0.138 A 
ATOM     11  O   UNL     1     138.229 136.490 148.214  1.00  0.00    -0.481 OA
ENDROOT
BRANCH   1  12
ATOM     12  C   UNL     1     137.865 134.122 147.865  1.00  0.00     0.003 A 
ATOM     13  C   UNL     1     138.765 133.810 148.896  1.00  0.00     0.058 A 
ATOM     14  C   UNL     1     138.739 132.551 149.509  1.00  0.00     0.161 A 
ATOM     15  C   UNL     1     136.915 133.163 147.473  1.00  0.00     0.058 A 
ATOM     16  C   UNL     1     137.800 131.594 149.102  1.00  0.00     0.200 A 
ATOM     17  C   UNL     1     136.883 131.901 148.082  1.00  0.00     0.161 A 
BRANCH  14  18
ATOM     18  O   UNL     1     139.640 132.243 150.526  1.00  0.00    -0.504 OA
ATOM     19  H   UNL     1     139.326 131.967 151.449  1.00  0.00     0.293 HD
ENDBRANCH  14  18
BRANCH  16  20
ATOM     20  O   UNL     1     137.789 130.344 149.722  1.00  0.00    -0.502 OA
ATOM     21  H   UNL     1     137.514 129.502 149.232  1.00  0.00     0.293 HD
ENDBRANCH  16  20
BRANCH  17  22
ATOM     22  O   UNL     1     135.942 130.955 147.681  1.00  0.00    -0.504 OA
ATOM     23  H   UNL     1     135.122 131.215 147.145  1.00  0.00     0.293 HD
ENDBRANCH  17  22
ENDBRANCH   1  12
BRANCH   2  24
ATOM     24  O   UNL     1     140.129 135.140 146.420  1.00  0.00    -0.381 OA
ATOM     25  H   UNL     1     140.718 135.265 145.631  1.00  0.00     0.211 HD
ENDBRANCH   2  24
BRANCH   6  26
ATOM     26  O   UNL     1     139.519 139.760 144.838  1.00  0.00    -0.507 OA
ATOM     27  H   UNL     1     139.446 140.712 144.495  1.00  0.00     0.293 HD
ENDBRANCH   6  26
BRANCH   8  28
ATOM     28  O   UNL     1     138.917 141.125 149.432  1.00  0.00    -0.508 OA
ATOM     29  H   UNL     1     138.358 141.061 150.274  1.00  0.00     0.293 HD
ENDBRANCH   8  28
TORSDOF 7
ENDMDL
MODEL 6
REMARK VINA RESULT:    -5.742      9.228     12.984
REMARK INTER + INTRA:          -7.475
REMARK INTER:                  -7.155
REMARK INTRA:                  -0.320
REMARK UNBOUND:                -0.390
REMARK SMILES O=C1c2c(O)cc(O)cc2O[C@H](c2cc(O)c(O)c(O)c2)[C@@H]1O
REMARK SMILES IDX 12 1 22 2 2 3 1 4 3 5 4 6 6 7 7 8 9 9 10 10 11 11 13 12
REMARK SMILES IDX 14 13 15 14 21 15 17 16 19 17 16 18 18 20 20 22 23 24 5 26
REMARK SMILES IDX 8 28
REMARK H PARENT 16 19 18 21 20 23 23 25 5 27 8 29
REMARK Flexibility Score: inf
ROOT
ATOM      1  C   UNL     1     131.863 137.422 155.923  1.00  0.00     0.240 C 
ATOM      2  C   UNL     1     131.008 137.583 154.650  1.00  0.00     0.231 C 
ATOM      3  C   UNL     1     131.685 136.877 153.505  1.00  0.00     0.202 C 
ATOM      4  O   UNL     1     131.595 137.357 152.343  1.00  0.00    -0.291 OA
ATOM      5  C   UNL     1     132.394 135.598 153.755  1.00  0.00     0.105 A 
ATOM      6  C   UNL     1     132.836 134.754 152.713  1.00  0.00     0.133 A 
ATOM      7  C   UNL     1     133.457 133.535 153.024  1.00  0.00     0.093 A 
ATOM      8  C   UNL     1     133.632 133.145 154.355  1.00  0.00     0.123 A 
ATOM      9  C   UNL     1     133.197 133.983 155.389  1.00  0.00     0.093 A 
ATOM     10  C   UNL     1     132.595 135.209 155.094  1.00  0.00     0.138 A 
ATOM     11  O   UNL     1     132.189 136.045 156.140  1.00  0.00    -0.481 OA
ENDROOT
BRANCH   1  12
ATOM     12  C   UNL     1     131.171 138.003 157.136  1.00  0.00     0.003 A 
ATOM     13  C   UNL     1     130.629 139.297 157.078  1.00  0.00     0.058 A 
ATOM     14  C   UNL     1     129.955 139.837 158.182  1.00  0.00     0.161 A 
ATOM     15  C   UNL     1     131.004 137.243 158.305  1.00  0.00     0.058 A 
ATOM     16  C   UNL     1     129.806 139.079 159.351  1.00  0.00     0.200 A 
ATOM     17  C   UNL     1     130.330 137.777 159.413  1.00  0.00     0.161 A 
BRANCH  14  18
ATOM     18  O   UNL     1     129.426 141.125 158.123  1.00  0.00    -0.504 OA
ATOM     19  H   UNL     1     128.427 141.290 158.141  1.00  0.00     0.293 HD
ENDBRANCH  14  18
BRANCH  16  20
ATOM     20  O   UNL     1     129.135 139.634 160.440  1.00  0.00    -0.502 OA
ATOM     21  H   UNL     1     128.827 140.599 160.449  1.00  0.00     0.293 HD
ENDBRANCH  16  20
BRANCH  17  22
ATOM     22  O   UNL     1     130.177 137.017 160.571  1.00  0.00    -0.504 OA
ATOM     23  H   UNL     1     130.397 137.393 161.486  1.00  0.00     0.293 HD
ENDBRANCH  17  22
ENDBRANCH   1  12
BRANCH   2  24
ATOM     24  O   UNL     1     129.734 137.024 154.849  1.00  0.00    -0.381 OA
ATOM     25  H   UNL     1     129.448 136.648 153.977  1.00  0.00     0.211 HD
ENDBRANCH   2  24
BRANCH   6  26
ATOM     26  O   UNL     1     132.655 135.115 151.378  1.00  0.00    -0.507 OA
ATOM     27  H   UNL     1     131.757 135.019 150.918  1.00  0.00     0.293 HD
ENDBRANCH   6  26
BRANCH   8  28
ATOM     28  O   UNL     1     134.241 131.925 154.640  1.00  0.00    -0.508 OA
ATOM     29  H   UNL     1     134.224 131.529 155.572  1.00  0.00     0.293 HD
ENDBRANCH   8  28
TORSDOF 7
ENDMDL
MODEL 7
REMARK VINA RESULT:    -5.735      7.100     10.880
REMARK INTER + INTRA:          -7.466
REMARK INTER:                  -7.114
REMARK INTRA:                  -0.352
REMARK UNBOUND:                -0.390
REMARK SMILES O=C1c2c(O)cc(O)cc2O[C@H](c2cc(O)c(O)c(O)c2)[C@@H]1O
REMARK SMILES IDX 12 1 22 2 2 3 1 4 3 5 4 6 6 7 7 8 9 9 10 10 11 11 13 12
REMARK SMILES IDX 14 13 15 14 21 15 17 16 19 17 16 18 18 20 20 22 23 24 5 26
REMARK SMILES IDX 8 28
REMARK H PARENT 16 19 18 21 20 23 23 25 5 27 8 29
REMARK Flexibility Score: inf
ROOT
ATOM      1  C   UNL     1     132.825 136.371 154.276  1.00  0.00     0.240 C 
ATOM      2  C   UNL     1     133.482 137.209 153.161  1.00  0.00     0.231 C 
ATOM      3  C   UNL     1     134.500 136.365 152.440  1.00  0.00     0.202 C 
ATOM      4  O   UNL     1     135.550 136.905 152.000  1.00  0.00    -0.291 OA
ATOM      5  C   UNL     1     134.219 134.927 152.208  1.00  0.00     0.105 A 
ATOM      6  C   UNL     1     134.992 134.130 151.336  1.00  0.00     0.133 A 
ATOM      7  C   UNL     1     134.640 132.788 151.126  1.00  0.00     0.093 A 
ATOM      8  C   UNL     1     133.525 132.237 151.766  1.00  0.00     0.123 A 
ATOM      9  C   UNL     1     132.760 133.026 152.633  1.00  0.00     0.093 A 
ATOM     10  C   UNL     1     133.111 134.359 152.866  1.00  0.00     0.138 A 
ATOM     11  O   UNL     1     132.350 135.125 153.756  1.00  0.00    -0.481 OA
ENDROOT
BRANCH   1  12
ATOM     12  C   UNL     1     131.703 137.127 154.953  1.00  0.00     0.003 A 
ATOM     13  C   UNL     1     130.451 136.515 155.124  1.00  0.00     0.058 A 
ATOM     14  C   UNL     1     129.412 137.189 155.779  1.00  0.00     0.161 A 
ATOM     15  C   UNL     1     131.912 138.415 155.474  1.00  0.00     0.058 A 
ATOM     16  C   UNL     1     129.622 138.480 156.282  1.00  0.00     0.200 A 
ATOM     17  C   UNL     1     130.877 139.095 156.132  1.00  0.00     0.161 A 
BRANCH  14  18
ATOM     18  O   UNL     1     128.169 136.581 155.938  1.00  0.00    -0.504 OA
ATOM     19  H   UNL     1     128.079 135.651 156.331  1.00  0.00     0.293 HD
ENDBRANCH  14  18
BRANCH  16  20
ATOM     20  O   UNL     1     128.576 139.136 156.930  1.00  0.00    -0.502 OA
ATOM     21  H   UNL     1     127.803 138.634 157.350  1.00  0.00     0.293 HD
ENDBRANCH  16  20
BRANCH  17  22
ATOM     22  O   UNL     1     131.092 140.375 156.638  1.00  0.00    -0.504 OA
ATOM     23  H   UNL     1     130.747 141.201 156.161  1.00  0.00     0.293 HD
ENDBRANCH  17  22
ENDBRANCH   1  12
BRANCH   2  24
ATOM     24  O   UNL     1     132.509 137.643 152.245  1.00  0.00    -0.381 OA
ATOM     25  H   UNL     1     132.045 136.831 151.915  1.00  0.00     0.211 HD
ENDBRANCH   2  24
BRANCH   6  26
ATOM     26  O   UNL     1     136.097 134.664 150.674  1.00  0.00    -0.507 OA
ATOM     27  H   UNL     1     136.889 134.089 150.409  1.00  0.00     0.293 HD
ENDBRANCH   6  26
BRANCH   8  28
ATOM     28  O   UNL     1     133.188 130.906 151.534  1.00  0.00    -0.508 OA
ATOM     29  H   UNL     1     133.054 130.253 152.296  1.00  0.00     0.293 HD
ENDBRANCH   8  28
TORSDOF 7
ENDMDL
MODEL 8
REMARK VINA RESULT:    -5.698      1.915      2.700
REMARK INTER + INTRA:          -7.421
REMARK INTER:                  -7.727
REMARK INTRA:                   0.306
REMARK UNBOUND:                -0.390
REMARK SMILES O=C1c2c(O)cc(O)cc2O[C@H](c2cc(O)c(O)c(O)c2)[C@@H]1O
REMARK SMILES IDX 12 1 22 2 2 3 1 4 3 5 4 6 6 7 7 8 9 9 10 10 11 11 13 12
REMARK SMILES IDX 14 13 15 14 21 15 17 16 19 17 16 18 18 20 20 22 23 24 5 26
REMARK SMILES IDX 8 28
REMARK H PARENT 16 19 18 21 20 23 23 25 5 27 8 29
REMARK Flexibility Score: inf
ROOT
ATOM      1  C   UNL     1     139.145 135.022 146.536  1.00  0.00     0.240 C 
ATOM      2  C   UNL     1     140.646 135.352 146.656  1.00  0.00     0.231 C 
ATOM      3  C   UNL     1     140.906 136.707 146.054  1.00  0.00     0.202 C 
ATOM      4  O   UNL     1     141.995 136.920 145.456  1.00  0.00    -0.291 OA
ATOM      5  C   UNL     1     139.903 137.786 146.229  1.00  0.00     0.105 A 
ATOM      6  C   UNL     1     140.172 139.137 145.918  1.00  0.00     0.133 A 
ATOM      7  C   UNL     1     139.192 140.112 146.154  1.00  0.00     0.093 A 
ATOM      8  C   UNL     1     137.955 139.759 146.703  1.00  0.00     0.123 A 
ATOM      9  C   UNL     1     137.686 138.420 147.009  1.00  0.00     0.093 A 
ATOM     10  C   UNL     1     138.647 137.435 146.760  1.00  0.00     0.138 A 
ATOM     11  O   UNL     1     138.351 136.098 147.048  1.00  0.00    -0.481 OA
ENDROOT
BRANCH   1  12
ATOM     12  C   UNL     1     138.801 133.727 147.238  1.00  0.00     0.003 A 
ATOM     13  C   UNL     1     137.478 133.258 147.230  1.00  0.00     0.058 A 
ATOM     14  C   UNL     1     137.150 132.043 147.846  1.00  0.00     0.161 A 
ATOM     15  C   UNL     1     139.800 132.948 147.846  1.00  0.00     0.058 A 
ATOM     16  C   UNL     1     138.147 131.279 148.465  1.00  0.00     0.200 A 
ATOM     17  C   UNL     1     139.478 131.731 148.464  1.00  0.00     0.161 A 
BRANCH  14  18
ATOM     18  O   UNL     1     135.833 131.586 147.844  1.00  0.00    -0.504 OA
ATOM     19  H   UNL     1     135.063 132.184 148.118  1.00  0.00     0.293 HD
ENDBRANCH  14  18
BRANCH  16  20
ATOM     20  O   UNL     1     137.802 130.073 149.075  1.00  0.00    -0.502 OA
ATOM     21  H   UNL     1     137.140 130.027 149.841  1.00  0.00     0.293 HD
ENDBRANCH  16  20
BRANCH  17  22
ATOM     22  O   UNL     1     140.475 130.970 149.071  1.00  0.00    -0.504 OA
ATOM     23  H   UNL     1     140.392 130.655 150.031  1.00  0.00     0.293 HD
ENDBRANCH  17  22
ENDBRANCH   1  12
BRANCH   2  24
ATOM     24  O   UNL     1     141.033 135.364 148.007  1.00  0.00    -0.381 OA
ATOM     25  H   UNL     1     140.326 134.882 148.510  1.00  0.00     0.211 HD
ENDBRANCH   2  24
BRANCH   6  26
ATOM     26  O   UNL     1     141.405 139.513 145.386  1.00  0.00    -0.507 OA
ATOM     27  H   UNL     1     141.493 139.858 144.437  1.00  0.00     0.293 HD
ENDBRANCH   6  26
BRANCH   8  28
ATOM     28  O   UNL     1     137.001 140.746 146.939  1.00  0.00    -0.508 OA
ATOM     29  H   UNL     1     136.968 141.594 146.386  1.00  0.00     0.293 HD
ENDBRANCH   8  28
TORSDOF 7
ENDMDL
MODEL 9
REMARK VINA RESULT:    -5.688      2.587      4.551
REMARK INTER + INTRA:          -7.408
REMARK INTER:                  -7.184
REMARK INTRA:                  -0.225
REMARK UNBOUND:                -0.390
REMARK SMILES O=C1c2c(O)cc(O)cc2O[C@H](c2cc(O)c(O)c(O)c2)[C@@H]1O
REMARK SMILES IDX 12 1 22 2 2 3 1 4 3 5 4 6 6 7 7 8 9 9 10 10 11 11 13 12
REMARK SMILES IDX 14 13 15 14 21 15 17 16 19 17 16 18 18 20 20 22 23 24 5 26
REMARK SMILES IDX 8 28
REMARK H PARENT 16 19 18 21 20 23 23 25 5 27 8 29
REMARK Flexibility Score: inf
ROOT
ATOM      1  C   UNL     1     136.079 133.186 148.379  1.00  0.00     0.240 C 
ATOM      2  C   UNL     1     136.007 131.953 147.456  1.00  0.00     0.231 C 
ATOM      3  C   UNL     1     136.724 132.257 146.166  1.00  0.00     0.202 C 
ATOM      4  O   UNL     1     136.294 131.764 145.089  1.00  0.00    -0.291 OA
ATOM      5  C   UNL     1     137.958 133.079 146.196  1.00  0.00     0.105 A 
ATOM      6  C   UNL     1     138.820 133.203 145.084  1.00  0.00     0.133 A 
ATOM      7  C   UNL     1     139.996 133.959 145.199  1.00  0.00     0.093 A 
ATOM      8  C   UNL     1     140.327 134.583 146.405  1.00  0.00     0.123 A 
ATOM      9  C   UNL     1     139.471 134.463 147.507  1.00  0.00     0.093 A 
ATOM     10  C   UNL     1     138.286 133.730 147.401  1.00  0.00     0.138 A 
ATOM     11  O   UNL     1     137.430 133.643 148.505  1.00  0.00    -0.481 OA
ENDROOT
BRANCH   1  12
ATOM     12  C   UNL     1     135.485 132.898 149.740  1.00  0.00     0.003 A 
ATOM     13  C   UNL     1     134.100 133.010 149.935  1.00  0.00     0.058 A 
ATOM     14  C   UNL     1     133.529 132.714 151.180  1.00  0.00     0.161 A 
ATOM     15  C   UNL     1     136.292 132.457 150.802  1.00  0.00     0.058 A 
ATOM     16  C   UNL     1     134.342 132.291 152.240  1.00  0.00     0.200 A 
ATOM     17  C   UNL     1     135.729 132.159 152.050  1.00  0.00     0.161 A 
BRANCH  14  18
ATOM     18  O   UNL     1     132.154 132.835 151.372  1.00  0.00    -0.504 OA
ATOM     19  H   UNL     1     131.761 133.570 151.948  1.00  0.00     0.293 HD
ENDBRANCH  14  18
BRANCH  16  20
ATOM     20  O   UNL     1     133.758 132.003 153.473  1.00  0.00    -0.502 OA
ATOM     21  H   UNL     1     133.607 131.052 153.789  1.00  0.00     0.293 HD
ENDBRANCH  16  20
BRANCH  17  22
ATOM     22  O   UNL     1     136.540 131.730 153.099  1.00  0.00    -0.504 OA
ATOM     23  H   UNL     1     136.738 130.748 153.250  1.00  0.00     0.293 HD
ENDBRANCH  17  22
ENDBRANCH   1  12
BRANCH   2  24
ATOM     24  O   UNL     1     136.616 130.849 148.075  1.00  0.00    -0.381 OA
ATOM     25  H   UNL     1     137.358 130.563 147.481  1.00  0.00     0.211 HD
ENDBRANCH   2  24
BRANCH   6  26
ATOM     26  O   UNL     1     138.519 132.574 143.876  1.00  0.00    -0.507 OA
ATOM     27  H   UNL     1     137.975 131.719 143.842  1.00  0.00     0.293 HD
ENDBRANCH   6  26
BRANCH   8  28
ATOM     28  O   UNL     1     141.505 135.319 146.499  1.00  0.00    -0.508 OA
ATOM     29  H   UNL     1     142.404 134.908 146.279  1.00  0.00     0.293 HD
ENDBRANCH   8  28
TORSDOF 7
ENDMDL
