MODEL 1
REMARK VINA RESULT:    -4.840      0.000      0.000
REMARK INTER + INTRA:         -11.284
REMARK INTER:                  -7.953
REMARK INTRA:                  -3.332
REMARK UNBOUND:                -3.332
REMARK SMILES C[C@H]1O[C@H](OC[C@@H]2O[C@@H](Oc3c(-c4ccc(O)c(O)c4)oc4cc(O)cc(O)c4c3=O)[C@@H](O)[C@@H](O)[C@@H]2O)[C@@H](O)[C@@H](O)[C@H]1O
REMARK SMILES IDX 7 1 36 2 34 3 32 4 9 5 8 6 6 7 5 8 4 9 1 10 2 11 42 12 3 13
REMARK SMILES IDX 40 14 38 15 43 16 41 18 39 20 37 22 35 24 10 26 11 27 12 28
REMARK SMILES IDX 30 29 21 30 29 31 31 32 22 33 27 34 23 35 26 36 24 37 13 38
REMARK SMILES IDX 20 39 14 40 18 41 15 42 16 43 19 44 17 46 28 48 25 50 33 52
REMARK H PARENT 43 17 41 19 39 21 37 23 35 25 19 45 17 47 28 49 25 51 33 53
REMARK Flexibility Score: inf
ROOT
ATOM      1  C   UNL     1      27.548 172.122 170.224  1.00  0.00     0.180 C 
ATOM      2  C   UNL     1      27.471 173.512 169.400  1.00  0.00     0.177 C 
ATOM      3  C   UNL     1      27.611 174.781 170.339  1.00  0.00     0.180 C 
ATOM      4  C   UNL     1      27.445 174.396 171.833  1.00  0.00     0.214 C 
ATOM      5  C   UNL     1      28.439 173.260 172.107  1.00  0.00     0.339 C 
ATOM      6  O   UNL     1      27.857 172.114 171.594  1.00  0.00    -0.332 OA
ENDROOT
BRANCH   1   7
ATOM      7  C   UNL     1      26.344 171.174 170.090  1.00  0.00     0.198 C 
BRANCH   7   8
ATOM      8  O   UNL     1      26.411 170.290 168.981  1.00  0.00    -0.347 OA
BRANCH   8   9
ATOM      9  C   UNL     1      27.231 169.161 169.359  1.00  0.00     0.281 C 
ATOM     10  C   UNL     1      27.172 166.522 171.702  1.00  0.00     0.041 C 
ATOM     11  C   UNL     1      27.605 166.989 170.256  1.00  0.00     0.150 C 
ATOM     12  C   UNL     1      29.156 167.452 170.212  1.00  0.00     0.174 C 
ATOM     13  O   UNL     1      26.578 167.933 169.820  1.00  0.00    -0.344 OA
ATOM     14  C   UNL     1      29.515 168.471 169.062  1.00  0.00     0.179 C 
ATOM     15  C   UNL     1      28.264 168.790 168.264  1.00  0.00     0.202 C 
BRANCH  12  16
ATOM     16  O   UNL     1      29.629 167.974 171.466  1.00  0.00    -0.388 OA
ATOM     17  H   UNL     1      28.870 168.489 171.905  1.00  0.00     0.211 HD
ENDBRANCH  12  16
BRANCH  14  18
ATOM     18  O   UNL     1      30.018 169.700 169.493  1.00  0.00    -0.387 OA
ATOM     19  H   UNL     1      31.017 169.729 169.483  1.00  0.00     0.211 HD
ENDBRANCH  14  18
BRANCH  15  20
ATOM     20  O   UNL     1      28.540 169.783 167.262  1.00  0.00    -0.385 OA
ATOM     21  H   UNL     1      28.916 170.576 167.764  1.00  0.00     0.211 HD
ENDBRANCH  15  20
ENDBRANCH   8   9
ENDBRANCH   7   8
ENDBRANCH   1   7
BRANCH   2  22
ATOM     22  O   UNL     1      26.265 173.504 168.662  1.00  0.00    -0.387 OA
ATOM     23  H   UNL     1      26.295 172.707 168.043  1.00  0.00     0.211 HD
ENDBRANCH   2  22
BRANCH   3  24
ATOM     24  O   UNL     1      28.854 175.442 170.125  1.00  0.00    -0.387 OA
ATOM     25  H   UNL     1      28.762 175.998 169.305  1.00  0.00     0.211 HD
ENDBRANCH   3  24
BRANCH   5  26
ATOM     26  O   UNL     1      29.810 173.412 171.614  1.00  0.00    -0.454 OA
BRANCH  26  27
ATOM     27  C   UNL     1      31.037 172.881 172.141  1.00  0.00     0.214 A 
ATOM     28  C   UNL     1      32.035 173.749 172.691  1.00  0.00     0.180 A 
ATOM     29  C   UNL     1      31.349 171.518 172.118  1.00  0.00     0.239 A 
ATOM     30  O   UNL     1      33.278 173.286 172.888  1.00  0.00    -0.452 OA
ATOM     31  C   UNL     1      32.694 171.090 172.192  1.00  0.00     0.111 A 
ATOM     32  O   UNL     1      30.426 170.663 172.096  1.00  0.00    -0.285 OA
ATOM     33  C   UNL     1      33.631 172.025 172.608  1.00  0.00     0.146 A 
ATOM     34  C   UNL     1      33.193 169.804 171.803  1.00  0.00     0.134 A 
ATOM     35  C   UNL     1      35.013 171.662 172.769  1.00  0.00     0.094 A 
ATOM     36  C   UNL     1      34.565 169.489 171.897  1.00  0.00     0.093 A 
ATOM     37  C   UNL     1      35.469 170.410 172.406  1.00  0.00     0.123 A 
BRANCH  28  38
ATOM     38  C   UNL     1      31.804 175.191 172.991  1.00  0.00     0.025 A 
ATOM     39  C   UNL     1      31.788 176.142 171.929  1.00  0.00     0.062 A 
ATOM     40  C   UNL     1      31.241 175.488 174.242  1.00  0.00     0.016 A 
ATOM     41  C   UNL     1      31.244 177.446 172.170  1.00  0.00     0.158 A 
ATOM     42  C   UNL     1      30.526 176.725 174.414  1.00  0.00     0.051 A 
ATOM     43  C   UNL     1      30.528 177.718 173.393  1.00  0.00     0.157 A 
BRANCH  41  44
ATOM     44  O   UNL     1      31.612 178.477 171.316  1.00  0.00    -0.504 OA
ATOM     45  H   UNL     1      32.338 178.293 170.586  1.00  0.00     0.293 HD
ENDBRANCH  41  44
BRANCH  43  46
ATOM     46  O   UNL     1      29.947 178.968 173.683  1.00  0.00    -0.504 OA
ATOM     47  H   UNL     1      29.035 179.042 174.019  1.00  0.00     0.293 HD
ENDBRANCH  43  46
ENDBRANCH  28  38
BRANCH  34  48
ATOM     48  O   UNL     1      32.434 168.820 171.187  1.00  0.00    -0.507 OA
ATOM     49  H   UNL     1      31.904 168.078 171.710  1.00  0.00     0.293 HD
ENDBRANCH  34  48
BRANCH  37  50
ATOM     50  O   UNL     1      36.837 170.124 172.441  1.00  0.00    -0.508 OA
ATOM     51  H   UNL     1      37.227 169.343 171.973  1.00  0.00     0.293 HD
ENDBRANCH  37  50
ENDBRANCH  26  27
ENDBRANCH   5  26
BRANCH   4  52
ATOM     52  O   UNL     1      27.554 175.502 172.708  1.00  0.00    -0.384 OA
ATOM     53  H   UNL     1      28.566 175.583 172.881  1.00  0.00     0.211 HD
ENDBRANCH   4  52
TORSDOF 16
ENDMDL
MODEL 2
REMARK VINA RESULT:    -4.688      2.370      8.380
REMARK INTER + INTRA:         -11.035
REMARK INTER:                  -8.824
REMARK INTRA:                  -2.211
REMARK UNBOUND:                -3.332
REMARK SMILES C[C@H]1O[C@H](OC[C@@H]2O[C@@H](Oc3c(-c4ccc(O)c(O)c4)oc4cc(O)cc(O)c4c3=O)[C@@H](O)[C@@H](O)[C@@H]2O)[C@@H](O)[C@@H](O)[C@H]1O
REMARK SMILES IDX 7 1 36 2 34 3 32 4 9 5 8 6 6 7 5 8 4 9 1 10 2 11 42 12 3 13
REMARK SMILES IDX 40 14 38 15 43 16 41 18 39 20 37 22 35 24 10 26 11 27 12 28
REMARK SMILES IDX 30 29 21 30 29 31 31 32 22 33 27 34 23 35 26 36 24 37 13 38
REMARK SMILES IDX 20 39 14 40 18 41 15 42 16 43 19 44 17 46 28 48 25 50 33 52
REMARK H PARENT 43 17 41 19 39 21 37 23 35 25 19 45 17 47 28 49 25 51 33 53
REMARK Flexibility Score: inf
ROOT
ATOM      1  C   UNL     1      31.610 175.363 173.626  1.00  0.00     0.180 C 
ATOM      2  C   UNL     1      30.060 175.564 174.042  1.00  0.00     0.177 C 
ATOM      3  C   UNL     1      29.068 175.271 172.842  1.00  0.00     0.180 C 
ATOM      4  C   UNL     1      29.827 175.198 171.489  1.00  0.00     0.214 C 
ATOM      5  C   UNL     1      30.958 174.179 171.675  1.00  0.00     0.339 C 
ATOM      6  O   UNL     1      31.957 174.840 172.369  1.00  0.00    -0.332 OA
ENDROOT
BRANCH   1   7
ATOM      7  C   UNL     1      32.536 176.577 173.812  1.00  0.00     0.198 C 
BRANCH   7   8
ATOM      8  O   UNL     1      32.072 177.770 173.200  1.00  0.00    -0.347 OA
BRANCH   8   9
ATOM      9  C   UNL     1      33.193 178.674 173.072  1.00  0.00     0.281 C 
ATOM     10  C   UNL     1      35.692 180.087 175.125  1.00  0.00     0.041 C 
ATOM     11  C   UNL     1      35.317 179.555 173.686  1.00  0.00     0.150 C 
ATOM     12  C   UNL     1      34.886 180.759 172.692  1.00  0.00     0.174 C 
ATOM     13  O   UNL     1      34.380 178.454 173.903  1.00  0.00    -0.344 OA
ATOM     14  C   UNL     1      33.941 180.334 171.502  1.00  0.00     0.179 C 
ATOM     15  C   UNL     1      33.645 178.848 171.600  1.00  0.00     0.202 C 
BRANCH  12  16
ATOM     16  O   UNL     1      34.302 181.879 173.378  1.00  0.00    -0.388 OA
ATOM     17  H   UNL     1      33.847 181.538 174.221  1.00  0.00     0.211 HD
ENDBRANCH  12  16
BRANCH  14  18
ATOM     18  O   UNL     1      32.699 180.971 171.473  1.00  0.00    -0.387 OA
ATOM     19  H   UNL     1      32.253 180.980 172.368  1.00  0.00     0.211 HD
ENDBRANCH  14  18
BRANCH  15  20
ATOM     20  O   UNL     1      32.715 178.447 170.579  1.00  0.00    -0.385 OA
ATOM     21  H   UNL     1      33.278 178.257 169.760  1.00  0.00     0.211 HD
ENDBRANCH  15  20
ENDBRANCH   8   9
ENDBRANCH   7   8
ENDBRANCH   1   7
BRANCH   2  22
ATOM     22  O   UNL     1      29.924 176.872 174.562  1.00  0.00    -0.387 OA
ATOM     23  H   UNL     1      30.065 177.517 173.798  1.00  0.00     0.211 HD
ENDBRANCH   2  22
BRANCH   3  24
ATOM     24  O   UNL     1      28.329 174.075 173.067  1.00  0.00    -0.387 OA
ATOM     25  H   UNL     1      27.812 173.880 172.239  1.00  0.00     0.211 HD
ENDBRANCH   3  24
BRANCH   5  26
ATOM     26  O   UNL     1      30.635 172.903 172.318  1.00  0.00    -0.454 OA
BRANCH  26  27
ATOM     27  C   UNL     1      30.345 171.626 171.726  1.00  0.00     0.214 A 
ATOM     28  C   UNL     1      31.325 170.580 171.723  1.00  0.00     0.180 A 
ATOM     29  C   UNL     1      29.132 171.336 171.095  1.00  0.00     0.239 A 
ATOM     30  O   UNL     1      31.163 169.526 170.911  1.00  0.00    -0.452 OA
ATOM     31  C   UNL     1      29.051 170.296 170.142  1.00  0.00     0.111 A 
ATOM     32  O   UNL     1      28.089 171.961 171.422  1.00  0.00    -0.285 OA
ATOM     33  C   UNL     1      30.102 169.392 170.104  1.00  0.00     0.146 A 
ATOM     34  C   UNL     1      28.021 170.132 169.158  1.00  0.00     0.134 A 
ATOM     35  C   UNL     1      30.077 168.268 169.208  1.00  0.00     0.094 A 
ATOM     36  C   UNL     1      28.052 169.064 168.235  1.00  0.00     0.093 A 
ATOM     37  C   UNL     1      29.065 168.119 168.280  1.00  0.00     0.123 A 
BRANCH  28  38
ATOM     38  C   UNL     1      32.585 170.624 172.518  1.00  0.00     0.025 A 
ATOM     39  C   UNL     1      33.844 170.664 171.850  1.00  0.00     0.062 A 
ATOM     40  C   UNL     1      32.463 171.005 173.863  1.00  0.00     0.016 A 
ATOM     41  C   UNL     1      35.013 171.038 172.589  1.00  0.00     0.158 A 
ATOM     42  C   UNL     1      33.604 171.562 174.541  1.00  0.00     0.051 A 
ATOM     43  C   UNL     1      34.887 171.576 173.922  1.00  0.00     0.157 A 
BRANCH  41  44
ATOM     44  O   UNL     1      36.253 170.666 172.086  1.00  0.00    -0.504 OA
ATOM     45  H   UNL     1      37.113 171.118 172.474  1.00  0.00     0.293 HD
ENDBRANCH  41  44
BRANCH  43  46
ATOM     46  O   UNL     1      35.992 171.986 174.695  1.00  0.00    -0.504 OA
ATOM     47  H   UNL     1      36.233 172.926 174.780  1.00  0.00     0.293 HD
ENDBRANCH  43  46
ENDBRANCH  28  38
BRANCH  34  48
ATOM     48  O   UNL     1      27.004 171.044 168.925  1.00  0.00    -0.507 OA
ATOM     49  H   UNL     1      27.157 171.996 168.504  1.00  0.00     0.293 HD
ENDBRANCH  34  48
BRANCH  37  50
ATOM     50  O   UNL     1      29.131 167.098 167.327  1.00  0.00    -0.508 OA
ATOM     51  H   UNL     1      28.417 166.420 167.225  1.00  0.00     0.293 HD
ENDBRANCH  37  50
ENDBRANCH  26  27
ENDBRANCH   5  26
BRANCH   4  52
ATOM     52  O   UNL     1      28.977 174.947 170.388  1.00  0.00    -0.384 OA
ATOM     53  H   UNL     1      28.683 173.969 170.519  1.00  0.00     0.211 HD
ENDBRANCH   4  52
TORSDOF 16
ENDMDL
MODEL 3
REMARK VINA RESULT:    -4.672      3.955      8.843
REMARK INTER + INTRA:         -11.008
REMARK INTER:                  -7.802
REMARK INTRA:                  -3.206
REMARK UNBOUND:                -3.332
REMARK SMILES C[C@H]1O[C@H](OC[C@@H]2O[C@@H](Oc3c(-c4ccc(O)c(O)c4)oc4cc(O)cc(O)c4c3=O)[C@@H](O)[C@@H](O)[C@@H]2O)[C@@H](O)[C@@H](O)[C@H]1O
REMARK SMILES IDX 7 1 36 2 34 3 32 4 9 5 8 6 6 7 5 8 4 9 1 10 2 11 42 12 3 13
REMARK SMILES IDX 40 14 38 15 43 16 41 18 39 20 37 22 35 24 10 26 11 27 12 28
REMARK SMILES IDX 30 29 21 30 29 31 31 32 22 33 27 34 23 35 26 36 24 37 13 38
REMARK SMILES IDX 20 39 14 40 18 41 15 42 16 43 19 44 17 46 28 48 25 50 33 52
REMARK H PARENT 43 17 41 19 39 21 37 23 35 25 19 45 17 47 28 49 25 51 33 53
REMARK Flexibility Score: inf
ROOT
ATOM      1  C   UNL     1      27.735 169.992 168.503  1.00  0.00     0.180 C 
ATOM      2  C   UNL     1      26.272 170.251 167.864  1.00  0.00     0.177 C 
ATOM      3  C   UNL     1      26.347 170.716 166.351  1.00  0.00     0.180 C 
ATOM      4  C   UNL     1      27.790 171.135 165.961  1.00  0.00     0.214 C 
ATOM      5  C   UNL     1      28.704 169.962 166.337  1.00  0.00     0.339 C 
ATOM      6  O   UNL     1      28.890 170.047 167.705  1.00  0.00    -0.332 OA
ENDROOT
BRANCH   1   7
ATOM      7  C   UNL     1      28.091 170.805 169.760  1.00  0.00     0.198 C 
BRANCH   7   8
ATOM      8  O   UNL     1      28.445 170.019 170.888  1.00  0.00    -0.347 OA
BRANCH   8   9
ATOM      9  C   UNL     1      29.497 170.708 171.601  1.00  0.00     0.281 C 
ATOM     10  C   UNL     1      31.054 173.876 171.596  1.00  0.00     0.041 C 
ATOM     11  C   UNL     1      30.599 172.635 172.461  1.00  0.00     0.150 C 
ATOM     12  C   UNL     1      31.813 171.591 172.702  1.00  0.00     0.174 C 
ATOM     13  O   UNL     1      29.368 172.148 171.838  1.00  0.00    -0.344 OA
ATOM     14  C   UNL     1      31.367 170.105 172.986  1.00  0.00     0.179 C 
ATOM     15  C   UNL     1      29.853 170.016 172.942  1.00  0.00     0.202 C 
BRANCH  12  16
ATOM     16  O   UNL     1      32.785 171.596 171.643  1.00  0.00    -0.388 OA
ATOM     17  H   UNL     1      33.202 172.521 171.594  1.00  0.00     0.211 HD
ENDBRANCH  12  16
BRANCH  14  18
ATOM     18  O   UNL     1      31.834 169.160 172.070  1.00  0.00    -0.387 OA
ATOM     19  H   UNL     1      31.365 169.217 171.189  1.00  0.00     0.211 HD
ENDBRANCH  14  18
BRANCH  15  20
ATOM     20  O   UNL     1      29.419 168.656 173.110  1.00  0.00    -0.385 OA
ATOM     21  H   UNL     1      30.265 168.102 173.133  1.00  0.00     0.211 HD
ENDBRANCH  15  20
ENDBRANCH   8   9
ENDBRANCH   7   8
ENDBRANCH   1   7
BRANCH   2  22
ATOM     22  O   UNL     1      25.603 171.180 168.693  1.00  0.00    -0.387 OA
ATOM     23  H   UNL     1      26.304 171.658 169.240  1.00  0.00     0.211 HD
ENDBRANCH   2  22
BRANCH   3  24
ATOM     24  O   UNL     1      25.866 169.699 165.477  1.00  0.00    -0.387 OA
ATOM     25  H   UNL     1      25.381 170.147 164.733  1.00  0.00     0.211 HD
ENDBRANCH   3  24
BRANCH   5  26
ATOM     26  O   UNL     1      28.283 168.612 165.952  1.00  0.00    -0.454 OA
BRANCH  26  27
ATOM     27  C   UNL     1      28.902 167.683 165.048  1.00  0.00     0.214 A 
ATOM     28  C   UNL     1      29.933 166.796 165.499  1.00  0.00     0.180 A 
ATOM     29  C   UNL     1      28.574 167.608 163.690  1.00  0.00     0.239 A 
ATOM     30  O   UNL     1      30.704 166.167 164.600  1.00  0.00    -0.452 OA
ATOM     31  C   UNL     1      29.487 167.056 162.763  1.00  0.00     0.111 A 
ATOM     32  O   UNL     1      27.436 167.974 163.298  1.00  0.00    -0.285 OA
ATOM     33  C   UNL     1      30.541 166.316 163.279  1.00  0.00     0.146 A 
ATOM     34  C   UNL     1      29.470 167.254 161.343  1.00  0.00     0.134 A 
ATOM     35  C   UNL     1      31.484 165.669 162.409  1.00  0.00     0.094 A 
ATOM     36  C   UNL     1      30.449 166.672 160.510  1.00  0.00     0.093 A 
ATOM     37  C   UNL     1      31.438 165.857 161.041  1.00  0.00     0.123 A 
BRANCH  28  38
ATOM     38  C   UNL     1      30.270 166.582 166.936  1.00  0.00     0.025 A 
ATOM     39  C   UNL     1      31.302 167.356 167.544  1.00  0.00     0.062 A 
ATOM     40  C   UNL     1      29.314 165.909 167.710  1.00  0.00     0.016 A 
ATOM     41  C   UNL     1      31.396 167.389 168.973  1.00  0.00     0.158 A 
ATOM     42  C   UNL     1      29.300 166.105 169.135  1.00  0.00     0.051 A 
ATOM     43  C   UNL     1      30.339 166.833 169.783  1.00  0.00     0.157 A 
BRANCH  41  44
ATOM     44  O   UNL     1      32.608 167.759 169.541  1.00  0.00    -0.504 OA
ATOM     45  H   UNL     1      32.679 167.823 170.583  1.00  0.00     0.293 HD
ENDBRANCH  41  44
BRANCH  43  46
ATOM     46  O   UNL     1      30.356 166.854 171.192  1.00  0.00    -0.504 OA
ATOM     47  H   UNL     1      30.814 167.557 171.686  1.00  0.00     0.293 HD
ENDBRANCH  43  46
ENDBRANCH  28  38
BRANCH  34  48
ATOM     48  O   UNL     1      28.611 168.116 160.680  1.00  0.00    -0.507 OA
ATOM     49  H   UNL     1      28.712 169.163 160.687  1.00  0.00     0.293 HD
ENDBRANCH  34  48
BRANCH  37  50
ATOM     50  O   UNL     1      32.445 165.332 160.226  1.00  0.00    -0.508 OA
ATOM     51  H   UNL     1      32.252 164.720 159.472  1.00  0.00     0.293 HD
ENDBRANCH  37  50
ENDBRANCH  26  27
ENDBRANCH   5  26
BRANCH   4  52
ATOM     52  O   UNL     1      27.900 171.566 164.619  1.00  0.00    -0.384 OA
ATOM     53  H   UNL     1      27.254 172.366 164.561  1.00  0.00     0.211 HD
ENDBRANCH   4  52
TORSDOF 16
ENDMDL
MODEL 4
REMARK VINA RESULT:    -4.659      5.674     10.324
REMARK INTER + INTRA:         -10.986
REMARK INTER:                  -7.629
REMARK INTRA:                  -3.357
REMARK UNBOUND:                -3.332
REMARK SMILES C[C@H]1O[C@H](OC[C@@H]2O[C@@H](Oc3c(-c4ccc(O)c(O)c4)oc4cc(O)cc(O)c4c3=O)[C@@H](O)[C@@H](O)[C@@H]2O)[C@@H](O)[C@@H](O)[C@H]1O
REMARK SMILES IDX 7 1 36 2 34 3 32 4 9 5 8 6 6 7 5 8 4 9 1 10 2 11 42 12 3 13
REMARK SMILES IDX 40 14 38 15 43 16 41 18 39 20 37 22 35 24 10 26 11 27 12 28
REMARK SMILES IDX 30 29 21 30 29 31 31 32 22 33 27 34 23 35 26 36 24 37 13 38
REMARK SMILES IDX 20 39 14 40 18 41 15 42 16 43 19 44 17 46 28 48 25 50 33 52
REMARK H PARENT 43 17 41 19 39 21 37 23 35 25 19 45 17 47 28 49 25 51 33 53
REMARK Flexibility Score: inf
ROOT
ATOM      1  C   UNL     1      27.912 169.159 166.084  1.00  0.00     0.180 C 
ATOM      2  C   UNL     1      26.468 169.307 165.370  1.00  0.00     0.177 C 
ATOM      3  C   UNL     1      26.584 169.791 163.865  1.00  0.00     0.180 C 
ATOM      4  C   UNL     1      28.007 170.327 163.554  1.00  0.00     0.214 C 
ATOM      5  C   UNL     1      28.991 169.226 163.971  1.00  0.00     0.339 C 
ATOM      6  O   UNL     1      29.099 169.313 165.348  1.00  0.00    -0.332 OA
ENDROOT
BRANCH   1   7
ATOM      7  C   UNL     1      28.136 169.985 167.362  1.00  0.00     0.198 C 
BRANCH   7   8
ATOM      8  O   UNL     1      27.325 169.601 168.462  1.00  0.00    -0.347 OA
BRANCH   8   9
ATOM      9  C   UNL     1      28.134 169.662 169.658  1.00  0.00     0.281 C 
ATOM     10  C   UNL     1      28.972 172.004 172.162  1.00  0.00     0.041 C 
ATOM     11  C   UNL     1      28.713 170.485 171.815  1.00  0.00     0.150 C 
ATOM     12  C   UNL     1      30.094 169.687 171.533  1.00  0.00     0.174 C 
ATOM     13  O   UNL     1      27.679 170.486 170.781  1.00  0.00    -0.344 OA
ATOM     14  C   UNL     1      29.950 168.412 170.616  1.00  0.00     0.179 C 
ATOM     15  C   UNL     1      28.501 168.255 170.195  1.00  0.00     0.202 C 
BRANCH  12  16
ATOM     16  O   UNL     1      31.137 170.527 171.010  1.00  0.00    -0.388 OA
ATOM     17  H   UNL     1      30.783 171.477 170.946  1.00  0.00     0.211 HD
ENDBRANCH  12  16
BRANCH  14  18
ATOM     18  O   UNL     1      30.692 168.445 169.433  1.00  0.00    -0.387 OA
ATOM     19  H   UNL     1      31.172 167.585 169.258  1.00  0.00     0.211 HD
ENDBRANCH  14  18
BRANCH  15  20
ATOM     20  O   UNL     1      28.353 167.150 169.286  1.00  0.00    -0.385 OA
ATOM     21  H   UNL     1      28.654 167.498 168.386  1.00  0.00     0.211 HD
ENDBRANCH  15  20
ENDBRANCH   8   9
ENDBRANCH   7   8
ENDBRANCH   1   7
BRANCH   2  22
ATOM     22  O   UNL     1      25.685 170.173 166.168  1.00  0.00    -0.387 OA
ATOM     23  H   UNL     1      25.101 169.597 166.757  1.00  0.00     0.211 HD
ENDBRANCH   2  22
BRANCH   3  24
ATOM     24  O   UNL     1      26.231 168.748 162.963  1.00  0.00    -0.387 OA
ATOM     25  H   UNL     1      25.696 169.154 162.229  1.00  0.00     0.211 HD
ENDBRANCH   3  24
BRANCH   5  26
ATOM     26  O   UNL     1      28.699 167.851 163.558  1.00  0.00    -0.454 OA
BRANCH  26  27
ATOM     27  C   UNL     1      29.358 167.029 162.580  1.00  0.00     0.214 A 
ATOM     28  C   UNL     1      30.436 166.163 162.957  1.00  0.00     0.180 A 
ATOM     29  C   UNL     1      29.025 167.045 161.223  1.00  0.00     0.239 A 
ATOM     30  O   UNL     1      31.231 165.648 162.008  1.00  0.00    -0.452 OA
ATOM     31  C   UNL     1      29.958 166.616 160.252  1.00  0.00     0.111 A 
ATOM     32  O   UNL     1      27.866 167.382 160.864  1.00  0.00    -0.285 OA
ATOM     33  C   UNL     1      31.052 165.892 160.704  1.00  0.00     0.146 A 
ATOM     34  C   UNL     1      29.921 166.924 158.852  1.00  0.00     0.134 A 
ATOM     35  C   UNL     1      32.020 165.365 159.782  1.00  0.00     0.094 A 
ATOM     36  C   UNL     1      30.922 166.460 157.972  1.00  0.00     0.093 A 
ATOM     37  C   UNL     1      31.955 165.658 158.434  1.00  0.00     0.123 A 
BRANCH  28  38
ATOM     38  C   UNL     1      30.795 165.854 164.371  1.00  0.00     0.025 A 
ATOM     39  C   UNL     1      31.595 166.770 165.116  1.00  0.00     0.062 A 
ATOM     40  C   UNL     1      30.021 164.875 165.013  1.00  0.00     0.016 A 
ATOM     41  C   UNL     1      31.656 166.640 166.541  1.00  0.00     0.158 A 
ATOM     42  C   UNL     1      29.938 164.877 166.449  1.00  0.00     0.051 A 
ATOM     43  C   UNL     1      30.757 165.745 167.228  1.00  0.00     0.157 A 
BRANCH  41  44
ATOM     44  O   UNL     1      32.731 167.216 167.205  1.00  0.00    -0.504 OA
ATOM     45  H   UNL     1      33.666 166.749 167.153  1.00  0.00     0.293 HD
ENDBRANCH  41  44
BRANCH  43  46
ATOM     46  O   UNL     1      30.747 165.587 168.628  1.00  0.00    -0.504 OA
ATOM     47  H   UNL     1      30.754 166.355 169.227  1.00  0.00     0.293 HD
ENDBRANCH  43  46
ENDBRANCH  28  38
BRANCH  34  48
ATOM     48  O   UNL     1      29.014 167.790 158.262  1.00  0.00    -0.507 OA
ATOM     49  H   UNL     1      29.222 168.356 157.400  1.00  0.00     0.293 HD
ENDBRANCH  34  48
BRANCH  37  50
ATOM     50  O   UNL     1      32.981 165.252 157.576  1.00  0.00    -0.508 OA
ATOM     51  H   UNL     1      33.764 165.824 157.378  1.00  0.00     0.293 HD
ENDBRANCH  37  50
ENDBRANCH  26  27
ENDBRANCH   5  26
BRANCH   4  52
ATOM     52  O   UNL     1      28.153 170.778 162.222  1.00  0.00    -0.384 OA
ATOM     53  H   UNL     1      27.349 170.363 161.730  1.00  0.00     0.211 HD
ENDBRANCH   4  52
TORSDOF 16
ENDMDL
MODEL 5
REMARK VINA RESULT:    -4.641      3.486      9.374
REMARK INTER + INTRA:         -10.957
REMARK INTER:                  -8.970
REMARK INTRA:                  -1.988
REMARK UNBOUND:                -3.332
REMARK SMILES C[C@H]1O[C@H](OC[C@@H]2O[C@@H](Oc3c(-c4ccc(O)c(O)c4)oc4cc(O)cc(O)c4c3=O)[C@@H](O)[C@@H](O)[C@@H]2O)[C@@H](O)[C@@H](O)[C@H]1O
REMARK SMILES IDX 7 1 36 2 34 3 32 4 9 5 8 6 6 7 5 8 4 9 1 10 2 11 42 12 3 13
REMARK SMILES IDX 40 14 38 15 43 16 41 18 39 20 37 22 35 24 10 26 11 27 12 28
REMARK SMILES IDX 30 29 21 30 29 31 31 32 22 33 27 34 23 35 26 36 24 37 13 38
REMARK SMILES IDX 20 39 14 40 18 41 15 42 16 43 19 44 17 46 28 48 25 50 33 52
REMARK H PARENT 43 17 41 19 39 21 37 23 35 25 19 45 17 47 28 49 25 51 33 53
REMARK Flexibility Score: inf
ROOT
ATOM      1  C   UNL     1      30.024 168.079 170.518  1.00  0.00     0.180 C 
ATOM      2  C   UNL     1      28.617 167.774 171.254  1.00  0.00     0.177 C 
ATOM      3  C   UNL     1      27.526 168.885 170.960  1.00  0.00     0.180 C 
ATOM      4  C   UNL     1      28.167 170.150 170.329  1.00  0.00     0.214 C 
ATOM      5  C   UNL     1      28.970 169.674 169.111  1.00  0.00     0.339 C 
ATOM      6  O   UNL     1      30.147 169.147 169.613  1.00  0.00    -0.332 OA
ENDROOT
BRANCH   1   7
ATOM      7  C   UNL     1      31.265 168.189 171.421  1.00  0.00     0.198 C 
BRANCH   7   8
ATOM      8  O   UNL     1      32.388 168.801 170.806  1.00  0.00    -0.347 OA
BRANCH   8   9
ATOM      9  C   UNL     1      33.178 169.430 171.841  1.00  0.00     0.281 C 
ATOM     10  C   UNL     1      32.692 171.588 174.590  1.00  0.00     0.041 C 
ATOM     11  C   UNL     1      33.523 170.384 173.993  1.00  0.00     0.150 C 
ATOM     12  C   UNL     1      34.915 170.882 173.334  1.00  0.00     0.174 C 
ATOM     13  O   UNL     1      32.584 169.628 173.165  1.00  0.00    -0.344 OA
ATOM     14  C   UNL     1      35.499 169.935 172.216  1.00  0.00     0.179 C 
ATOM     15  C   UNL     1      34.563 168.756 172.016  1.00  0.00     0.202 C 
BRANCH  12  16
ATOM     16  O   UNL     1      34.854 172.226 172.826  1.00  0.00    -0.388 OA
ATOM     17  H   UNL     1      35.634 172.363 172.188  1.00  0.00     0.211 HD
ENDBRANCH  12  16
BRANCH  14  18
ATOM     18  O   UNL     1      35.649 170.522 170.958  1.00  0.00    -0.387 OA
ATOM     19  H   UNL     1      34.889 171.129 170.726  1.00  0.00     0.211 HD
ENDBRANCH  14  18
BRANCH  15  20
ATOM     20  O   UNL     1      35.024 167.919 170.941  1.00  0.00    -0.385 OA
ATOM     21  H   UNL     1      36.027 168.044 170.911  1.00  0.00     0.211 HD
ENDBRANCH  15  20
ENDBRANCH   8   9
ENDBRANCH   7   8
ENDBRANCH   1   7
BRANCH   2  22
ATOM     22  O   UNL     1      28.884 167.616 172.634  1.00  0.00    -0.387 OA
ATOM     23  H   UNL     1      29.671 168.207 172.860  1.00  0.00     0.211 HD
ENDBRANCH   2  22
BRANCH   3  24
ATOM     24  O   UNL     1      26.490 168.377 170.126  1.00  0.00    -0.387 OA
ATOM     25  H   UNL     1      26.419 168.979 169.336  1.00  0.00     0.211 HD
ENDBRANCH   3  24
BRANCH   5  26
ATOM     26  O   UNL     1      28.329 168.731 168.191  1.00  0.00    -0.454 OA
BRANCH  26  27
ATOM     27  C   UNL     1      27.795 168.954 166.875  1.00  0.00     0.214 A 
ATOM     28  C   UNL     1      28.392 168.337 165.728  1.00  0.00     0.180 A 
ATOM     29  C   UNL     1      26.708 169.797 166.627  1.00  0.00     0.239 A 
ATOM     30  O   UNL     1      28.089 168.788 164.503  1.00  0.00    -0.452 OA
ATOM     31  C   UNL     1      26.515 170.356 165.344  1.00  0.00     0.111 A 
ATOM     32  O   UNL     1      25.859 170.010 167.532  1.00  0.00    -0.285 OA
ATOM     33  C   UNL     1      27.228 169.792 164.296  1.00  0.00     0.146 A 
ATOM     34  C   UNL     1      25.709 171.501 165.035  1.00  0.00     0.134 A 
ATOM     35  C   UNL     1      27.049 170.257 162.947  1.00  0.00     0.094 A 
ATOM     36  C   UNL     1      25.605 171.991 163.716  1.00  0.00     0.093 A 
ATOM     37  C   UNL     1      26.253 171.351 162.670  1.00  0.00     0.123 A 
BRANCH  28  38
ATOM     38  C   UNL     1      29.415 167.254 165.808  1.00  0.00     0.025 A 
ATOM     39  C   UNL     1      30.616 167.357 165.047  1.00  0.00     0.062 A 
ATOM     40  C   UNL     1      29.321 166.385 166.905  1.00  0.00     0.016 A 
ATOM     41  C   UNL     1      31.721 166.505 165.373  1.00  0.00     0.158 A 
ATOM     42  C   UNL     1      30.495 165.678 167.343  1.00  0.00     0.051 A 
ATOM     43  C   UNL     1      31.699 165.719 166.582  1.00  0.00     0.157 A 
BRANCH  41  44
ATOM     44  O   UNL     1      32.691 166.291 164.402  1.00  0.00    -0.504 OA
ATOM     45  H   UNL     1      33.480 166.974 164.317  1.00  0.00     0.293 HD
ENDBRANCH  41  44
BRANCH  43  46
ATOM     46  O   UNL     1      32.761 164.881 166.975  1.00  0.00    -0.504 OA
ATOM     47  H   UNL     1      33.576 164.808 166.447  1.00  0.00     0.293 HD
ENDBRANCH  43  46
ENDBRANCH  28  38
BRANCH  34  48
ATOM     48  O   UNL     1      25.086 172.301 165.980  1.00  0.00    -0.507 OA
ATOM     49  H   UNL     1      24.084 172.616 165.911  1.00  0.00     0.293 HD
ENDBRANCH  34  48
BRANCH  37  50
ATOM     50  O   UNL     1      26.202 171.872 161.374  1.00  0.00    -0.508 OA
ATOM     51  H   UNL     1      25.355 171.956 160.868  1.00  0.00     0.293 HD
ENDBRANCH  37  50
ENDBRANCH  26  27
ENDBRANCH   5  26
BRANCH   4  52
ATOM     52  O   UNL     1      27.229 171.172 170.057  1.00  0.00    -0.384 OA
ATOM     53  H   UNL     1      26.639 171.198 170.901  1.00  0.00     0.211 HD
ENDBRANCH   4  52
TORSDOF 16
ENDMDL
MODEL 6
REMARK VINA RESULT:    -4.571      3.223      9.832
REMARK INTER + INTRA:         -10.842
REMARK INTER:                  -8.860
REMARK INTRA:                  -1.982
REMARK UNBOUND:                -3.332
REMARK SMILES C[C@H]1O[C@H](OC[C@@H]2O[C@@H](Oc3c(-c4ccc(O)c(O)c4)oc4cc(O)cc(O)c4c3=O)[C@@H](O)[C@@H](O)[C@@H]2O)[C@@H](O)[C@@H](O)[C@H]1O
REMARK SMILES IDX 7 1 36 2 34 3 32 4 9 5 8 6 6 7 5 8 4 9 1 10 2 11 42 12 3 13
REMARK SMILES IDX 40 14 38 15 43 16 41 18 39 20 37 22 35 24 10 26 11 27 12 28
REMARK SMILES IDX 30 29 21 30 29 31 31 32 22 33 27 34 23 35 26 36 24 37 13 38
REMARK SMILES IDX 20 39 14 40 18 41 15 42 16 43 19 44 17 46 28 48 25 50 33 52
REMARK H PARENT 43 17 41 19 39 21 37 23 35 25 19 45 17 47 28 49 25 51 33 53
REMARK Flexibility Score: inf
ROOT
ATOM      1  C   UNL     1      32.725 177.478 172.770  1.00  0.00     0.180 C 
ATOM      2  C   UNL     1      32.291 177.588 174.324  1.00  0.00     0.177 C 
ATOM      3  C   UNL     1      30.751 177.917 174.501  1.00  0.00     0.180 C 
ATOM      4  C   UNL     1      30.118 178.386 173.164  1.00  0.00     0.214 C 
ATOM      5  C   UNL     1      30.448 177.309 172.121  1.00  0.00     0.339 C 
ATOM      6  O   UNL     1      31.762 177.530 171.748  1.00  0.00    -0.332 OA
ENDROOT
BRANCH   1   7
ATOM      7  C   UNL     1      33.845 178.422 172.299  1.00  0.00     0.198 C 
BRANCH   7   8
ATOM      8  O   UNL     1      33.403 179.719 171.926  1.00  0.00    -0.347 OA
BRANCH   8   9
ATOM      9  C   UNL     1      34.410 180.670 172.340  1.00  0.00     0.281 C 
ATOM     10  C   UNL     1      37.559 181.827 171.243  1.00  0.00     0.041 C 
ATOM     11  C   UNL     1      36.204 182.190 171.971  1.00  0.00     0.150 C 
ATOM     12  C   UNL     1      36.346 182.108 173.582  1.00  0.00     0.174 C 
ATOM     13  O   UNL     1      35.175 181.385 171.315  1.00  0.00    -0.344 OA
ATOM     14  C   UNL     1      34.998 181.841 174.356  1.00  0.00     0.179 C 
ATOM     15  C   UNL     1      33.863 181.703 173.358  1.00  0.00     0.202 C 
BRANCH  12  16
ATOM     16  O   UNL     1      37.333 181.158 174.017  1.00  0.00    -0.388 OA
ATOM     17  H   UNL     1      37.889 180.881 173.213  1.00  0.00     0.211 HD
ENDBRANCH  12  16
BRANCH  14  18
ATOM     18  O   UNL     1      34.975 180.676 175.125  1.00  0.00    -0.387 OA
ATOM     19  H   UNL     1      34.960 179.848 174.565  1.00  0.00     0.211 HD
ENDBRANCH  14  18
BRANCH  15  20
ATOM     20  O   UNL     1      32.634 181.372 174.028  1.00  0.00    -0.385 OA
ATOM     21  H   UNL     1      32.724 181.752 174.961  1.00  0.00     0.211 HD
ENDBRANCH  15  20
ENDBRANCH   8   9
ENDBRANCH   7   8
ENDBRANCH   1   7
BRANCH   2  22
ATOM     22  O   UNL     1      33.132 178.546 174.935  1.00  0.00    -0.387 OA
ATOM     23  H   UNL     1      34.025 178.104 175.100  1.00  0.00     0.211 HD
ENDBRANCH   2  22
BRANCH   3  24
ATOM     24  O   UNL     1      30.045 176.797 175.026  1.00  0.00    -0.387 OA
ATOM     25  H   UNL     1      29.284 176.607 174.412  1.00  0.00     0.211 HD
ENDBRANCH   3  24
BRANCH   5  26
ATOM     26  O   UNL     1      30.241 175.907 172.492  1.00  0.00    -0.454 OA
BRANCH  26  27
ATOM     27  C   UNL     1      29.378 174.921 171.902  1.00  0.00     0.214 A 
ATOM     28  C   UNL     1      29.791 173.553 171.800  1.00  0.00     0.180 A 
ATOM     29  C   UNL     1      28.124 175.230 171.366  1.00  0.00     0.239 A 
ATOM     30  O   UNL     1      29.125 172.722 170.985  1.00  0.00    -0.452 OA
ATOM     31  C   UNL     1      27.529 174.383 170.404  1.00  0.00     0.111 A 
ATOM     32  O   UNL     1      27.490 176.232 171.788  1.00  0.00    -0.285 OA
ATOM     33  C   UNL     1      28.066 173.111 170.265  1.00  0.00     0.146 A 
ATOM     34  C   UNL     1      26.472 174.741 169.503  1.00  0.00     0.134 A 
ATOM     35  C   UNL     1      27.487 172.162 169.353  1.00  0.00     0.094 A 
ATOM     36  C   UNL     1      25.967 173.819 168.562  1.00  0.00     0.093 A 
ATOM     37  C   UNL     1      26.456 172.522 168.507  1.00  0.00     0.123 A 
BRANCH  28  38
ATOM     38  C   UNL     1      30.988 172.995 172.491  1.00  0.00     0.025 A 
ATOM     39  C   UNL     1      31.602 171.807 171.998  1.00  0.00     0.062 A 
ATOM     40  C   UNL     1      31.674 173.864 173.353  1.00  0.00     0.016 A 
ATOM     41  C   UNL     1      32.919 171.466 172.447  1.00  0.00     0.158 A 
ATOM     42  C   UNL     1      33.061 173.614 173.643  1.00  0.00     0.051 A 
ATOM     43  C   UNL     1      33.695 172.415 173.207  1.00  0.00     0.157 A 
BRANCH  41  44
ATOM     44  O   UNL     1      33.331 170.145 172.326  1.00  0.00    -0.504 OA
ATOM     45  H   UNL     1      33.843 169.852 171.462  1.00  0.00     0.293 HD
ENDBRANCH  41  44
BRANCH  43  46
ATOM     46  O   UNL     1      35.004 172.155 173.658  1.00  0.00    -0.504 OA
ATOM     47  H   UNL     1      35.333 172.512 174.503  1.00  0.00     0.293 HD
ENDBRANCH  43  46
ENDBRANCH  28  38
BRANCH  34  48
ATOM     48  O   UNL     1      25.952 176.018 169.370  1.00  0.00    -0.507 OA
ATOM     49  H   UNL     1      25.027 176.318 169.772  1.00  0.00     0.293 HD
ENDBRANCH  34  48
BRANCH  37  50
ATOM     50  O   UNL     1      26.001 171.628 167.534  1.00  0.00    -0.508 OA
ATOM     51  H   UNL     1      25.483 170.816 167.760  1.00  0.00     0.293 HD
ENDBRANCH  37  50
ENDBRANCH  26  27
ENDBRANCH   5  26
BRANCH   4  52
ATOM     52  O   UNL     1      28.744 178.699 173.278  1.00  0.00    -0.384 OA
ATOM     53  H   UNL     1      28.291 178.080 172.592  1.00  0.00     0.211 HD
ENDBRANCH   4  52
TORSDOF 16
ENDMDL
MODEL 7
REMARK VINA RESULT:    -4.562      2.437      4.617
REMARK INTER + INTRA:         -10.826
REMARK INTER:                  -8.567
REMARK INTRA:                  -2.259
REMARK UNBOUND:                -3.332
REMARK SMILES C[C@H]1O[C@H](OC[C@@H]2O[C@@H](Oc3c(-c4ccc(O)c(O)c4)oc4cc(O)cc(O)c4c3=O)[C@@H](O)[C@@H](O)[C@@H]2O)[C@@H](O)[C@@H](O)[C@H]1O
REMARK SMILES IDX 7 1 36 2 34 3 32 4 9 5 8 6 6 7 5 8 4 9 1 10 2 11 42 12 3 13
REMARK SMILES IDX 40 14 38 15 43 16 41 18 39 20 37 22 35 24 10 26 11 27 12 28
REMARK SMILES IDX 30 29 21 30 29 31 31 32 22 33 27 34 23 35 26 36 24 37 13 38
REMARK SMILES IDX 20 39 14 40 18 41 15 42 16 43 19 44 17 46 28 48 25 50 33 52
REMARK H PARENT 43 17 41 19 39 21 37 23 35 25 19 45 17 47 28 49 25 51 33 53
REMARK Flexibility Score: inf
ROOT
ATOM      1  C   UNL     1      27.783 170.542 169.212  1.00  0.00     0.180 C 
ATOM      2  C   UNL     1      26.949 169.743 170.343  1.00  0.00     0.177 C 
ATOM      3  C   UNL     1      27.683 168.420 170.816  1.00  0.00     0.180 C 
ATOM      4  C   UNL     1      28.837 168.041 169.849  1.00  0.00     0.214 C 
ATOM      5  C   UNL     1      29.729 169.282 169.723  1.00  0.00     0.339 C 
ATOM      6  O   UNL     1      29.077 170.133 168.847  1.00  0.00    -0.332 OA
ENDROOT
BRANCH   1   7
ATOM      7  C   UNL     1      27.064 170.798 167.876  1.00  0.00     0.198 C 
BRANCH   7   8
ATOM      8  O   UNL     1      26.917 169.647 167.058  1.00  0.00    -0.347 OA
BRANCH   8   9
ATOM      9  C   UNL     1      27.320 169.999 165.714  1.00  0.00     0.281 C 
ATOM     10  C   UNL     1      26.260 172.136 163.114  1.00  0.00     0.041 C 
ATOM     11  C   UNL     1      27.487 171.452 163.837  1.00  0.00     0.150 C 
ATOM     12  C   UNL     1      27.954 170.099 163.079  1.00  0.00     0.174 C 
ATOM     13  O   UNL     1      27.119 171.374 165.250  1.00  0.00    -0.344 OA
ATOM     14  C   UNL     1      28.701 169.050 163.990  1.00  0.00     0.179 C 
ATOM     15  C   UNL     1      28.782 169.582 165.409  1.00  0.00     0.202 C 
BRANCH  12  16
ATOM     16  O   UNL     1      26.883 169.439 162.384  1.00  0.00    -0.388 OA
ATOM     17  H   UNL     1      26.989 168.436 162.510  1.00  0.00     0.211 HD
ENDBRANCH  12  16
BRANCH  14  18
ATOM     18  O   UNL     1      28.086 167.800 164.084  1.00  0.00    -0.387 OA
ATOM     19  H   UNL     1      27.356 167.784 164.768  1.00  0.00     0.211 HD
ENDBRANCH  14  18
BRANCH  15  20
ATOM     20  O   UNL     1      29.380 168.610 166.283  1.00  0.00    -0.385 OA
ATOM     21  H   UNL     1      30.373 168.801 166.262  1.00  0.00     0.211 HD
ENDBRANCH  15  20
ENDBRANCH   8   9
ENDBRANCH   7   8
ENDBRANCH   1   7
BRANCH   2  22
ATOM     22  O   UNL     1      25.655 169.499 169.825  1.00  0.00    -0.387 OA
ATOM     23  H   UNL     1      25.148 170.372 169.854  1.00  0.00     0.211 HD
ENDBRANCH   2  22
BRANCH   3  24
ATOM     24  O   UNL     1      28.166 168.551 172.149  1.00  0.00    -0.387 OA
ATOM     25  H   UNL     1      28.108 169.514 172.396  1.00  0.00     0.211 HD
ENDBRANCH   3  24
BRANCH   5  26
ATOM     26  O   UNL     1      30.103 169.988 170.951  1.00  0.00    -0.454 OA
BRANCH  26  27
ATOM     27  C   UNL     1      31.390 170.115 171.579  1.00  0.00     0.214 A 
ATOM     28  C   UNL     1      31.873 171.395 172.007  1.00  0.00     0.180 A 
ATOM     29  C   UNL     1      32.252 169.032 171.776  1.00  0.00     0.239 A 
ATOM     30  O   UNL     1      33.173 171.546 172.298  1.00  0.00    -0.452 OA
ATOM     31  C   UNL     1      33.639 169.243 171.942  1.00  0.00     0.111 A 
ATOM     32  O   UNL     1      31.785 167.867 171.869  1.00  0.00    -0.285 OA
ATOM     33  C   UNL     1      34.051 170.537 172.226  1.00  0.00     0.146 A 
ATOM     34  C   UNL     1      34.669 168.260 171.769  1.00  0.00     0.134 A 
ATOM     35  C   UNL     1      35.436 170.834 172.469  1.00  0.00     0.094 A 
ATOM     36  C   UNL     1      36.031 168.587 171.939  1.00  0.00     0.093 A 
ATOM     37  C   UNL     1      36.410 169.867 172.316  1.00  0.00     0.123 A 
BRANCH  28  38
ATOM     38  C   UNL     1      31.026 172.620 172.073  1.00  0.00     0.025 A 
ATOM     39  C   UNL     1      31.544 173.865 171.609  1.00  0.00     0.062 A 
ATOM     40  C   UNL     1      29.647 172.419 172.231  1.00  0.00     0.016 A 
ATOM     41  C   UNL     1      30.637 174.947 171.365  1.00  0.00     0.158 A 
ATOM     42  C   UNL     1      28.734 173.445 171.800  1.00  0.00     0.051 A 
ATOM     43  C   UNL     1      29.213 174.718 171.374  1.00  0.00     0.157 A 
BRANCH  41  44
ATOM     44  O   UNL     1      31.150 176.238 171.342  1.00  0.00    -0.504 OA
ATOM     45  H   UNL     1      30.883 176.901 172.107  1.00  0.00     0.293 HD
ENDBRANCH  41  44
BRANCH  43  46
ATOM     46  O   UNL     1      28.268 175.730 171.118  1.00  0.00    -0.504 OA
ATOM     47  H   UNL     1      27.594 175.978 171.778  1.00  0.00     0.293 HD
ENDBRANCH  43  46
ENDBRANCH  28  38
BRANCH  34  48
ATOM     48  O   UNL     1      34.456 166.974 171.300  1.00  0.00    -0.507 OA
ATOM     49  H   UNL     1      34.116 166.180 171.901  1.00  0.00     0.293 HD
ENDBRANCH  34  48
BRANCH  37  50
ATOM     50  O   UNL     1      37.762 170.208 172.422  1.00  0.00    -0.508 OA
ATOM     51  H   UNL     1      38.065 171.141 172.553  1.00  0.00     0.293 HD
ENDBRANCH  37  50
ENDBRANCH  26  27
ENDBRANCH   5  26
BRANCH   4  52
ATOM     52  O   UNL     1      29.515 166.860 170.229  1.00  0.00    -0.384 OA
ATOM     53  H   UNL     1      29.253 166.730 171.217  1.00  0.00     0.211 HD
ENDBRANCH   4  52
TORSDOF 16
ENDMDL
MODEL 8
REMARK VINA RESULT:    -4.524      3.442      6.533
REMARK INTER + INTRA:         -10.765
REMARK INTER:                  -7.511
REMARK INTRA:                  -3.254
REMARK UNBOUND:                -3.332
REMARK SMILES C[C@H]1O[C@H](OC[C@@H]2O[C@@H](Oc3c(-c4ccc(O)c(O)c4)oc4cc(O)cc(O)c4c3=O)[C@@H](O)[C@@H](O)[C@@H]2O)[C@@H](O)[C@@H](O)[C@H]1O
REMARK SMILES IDX 7 1 36 2 34 3 32 4 9 5 8 6 6 7 5 8 4 9 1 10 2 11 42 12 3 13
REMARK SMILES IDX 40 14 38 15 43 16 41 18 39 20 37 22 35 24 10 26 11 27 12 28
REMARK SMILES IDX 30 29 21 30 29 31 31 32 22 33 27 34 23 35 26 36 24 37 13 38
REMARK SMILES IDX 20 39 14 40 18 41 15 42 16 43 19 44 17 46 28 48 25 50 33 52
REMARK H PARENT 43 17 41 19 39 21 37 23 35 25 19 45 17 47 28 49 25 51 33 53
REMARK Flexibility Score: inf
ROOT
ATOM      1  C   UNL     1      28.049 167.267 167.198  1.00  0.00     0.180 C 
ATOM      2  C   UNL     1      28.588 165.794 167.592  1.00  0.00     0.177 C 
ATOM      3  C   UNL     1      30.160 165.755 167.781  1.00  0.00     0.180 C 
ATOM      4  C   UNL     1      30.827 167.038 167.216  1.00  0.00     0.214 C 
ATOM      5  C   UNL     1      30.113 168.228 167.869  1.00  0.00     0.339 C 
ATOM      6  O   UNL     1      28.916 168.373 167.190  1.00  0.00    -0.332 OA
ENDROOT
BRANCH   1   7
ATOM      7  C   UNL     1      27.258 167.382 165.883  1.00  0.00     0.198 C 
BRANCH   7   8
ATOM      8  O   UNL     1      26.162 168.282 165.933  1.00  0.00    -0.347 OA
BRANCH   8   9
ATOM      9  C   UNL     1      26.416 169.350 164.992  1.00  0.00     0.281 C 
ATOM     10  C   UNL     1      25.878 170.037 161.572  1.00  0.00     0.041 C 
ATOM     11  C   UNL     1      25.980 170.630 163.033  1.00  0.00     0.150 C 
ATOM     12  C   UNL     1      27.452 171.232 163.337  1.00  0.00     0.174 C 
ATOM     13  O   UNL     1      25.449 169.594 163.918  1.00  0.00    -0.344 OA
ATOM     14  C   UNL     1      27.853 171.272 164.862  1.00  0.00     0.179 C 
ATOM     15  C   UNL     1      26.723 170.696 165.695  1.00  0.00     0.202 C 
BRANCH  12  16
ATOM     16  O   UNL     1      28.496 170.581 162.593  1.00  0.00    -0.388 OA
ATOM     17  H   UNL     1      29.392 170.924 162.931  1.00  0.00     0.211 HD
ENDBRANCH  12  16
BRANCH  14  18
ATOM     18  O   UNL     1      28.990 170.535 165.196  1.00  0.00    -0.387 OA
ATOM     19  H   UNL     1      29.726 170.640 164.527  1.00  0.00     0.211 HD
ENDBRANCH  14  18
BRANCH  15  20
ATOM     20  O   UNL     1      27.094 170.638 167.083  1.00  0.00    -0.385 OA
ATOM     21  H   UNL     1      26.577 169.860 167.469  1.00  0.00     0.211 HD
ENDBRANCH  15  20
ENDBRANCH   8   9
ENDBRANCH   7   8
ENDBRANCH   1   7
BRANCH   2  22
ATOM     22  O   UNL     1      28.130 164.894 166.602  1.00  0.00    -0.387 OA
ATOM     23  H   UNL     1      28.940 164.430 166.217  1.00  0.00     0.211 HD
ENDBRANCH   2  22
BRANCH   3  24
ATOM     24  O   UNL     1      30.507 165.570 169.150  1.00  0.00    -0.387 OA
ATOM     25  H   UNL     1      31.029 164.725 169.216  1.00  0.00     0.211 HD
ENDBRANCH   3  24
BRANCH   5  26
ATOM     26  O   UNL     1      29.888 168.185 169.316  1.00  0.00    -0.454 OA
BRANCH  26  27
ATOM     27  C   UNL     1      30.634 168.804 170.377  1.00  0.00     0.214 A 
ATOM     28  C   UNL     1      30.057 169.854 171.164  1.00  0.00     0.180 A 
ATOM     29  C   UNL     1      31.953 168.457 170.683  1.00  0.00     0.239 A 
ATOM     30  O   UNL     1      30.850 170.620 171.926  1.00  0.00    -0.452 OA
ATOM     31  C   UNL     1      32.790 169.364 171.373  1.00  0.00     0.111 A 
ATOM     32  O   UNL     1      32.383 167.308 170.401  1.00  0.00    -0.285 OA
ATOM     33  C   UNL     1      32.174 170.436 172.003  1.00  0.00     0.146 A 
ATOM     34  C   UNL     1      34.222 169.324 171.417  1.00  0.00     0.134 A 
ATOM     35  C   UNL     1      32.939 171.375 172.778  1.00  0.00     0.094 A 
ATOM     36  C   UNL     1      34.962 170.298 172.120  1.00  0.00     0.093 A 
ATOM     37  C   UNL     1      34.318 171.306 172.822  1.00  0.00     0.123 A 
BRANCH  28  38
ATOM     38  C   UNL     1      28.611 170.215 171.129  1.00  0.00     0.025 A 
ATOM     39  C   UNL     1      27.732 169.722 172.138  1.00  0.00     0.062 A 
ATOM     40  C   UNL     1      28.260 171.317 170.335  1.00  0.00     0.016 A 
ATOM     41  C   UNL     1      26.443 170.326 172.294  1.00  0.00     0.158 A 
ATOM     42  C   UNL     1      27.049 172.037 170.629  1.00  0.00     0.051 A 
ATOM     43  C   UNL     1      26.126 171.549 171.598  1.00  0.00     0.157 A 
BRANCH  41  44
ATOM     44  O   UNL     1      25.454 169.599 172.943  1.00  0.00    -0.504 OA
ATOM     45  H   UNL     1      24.779 170.104 173.563  1.00  0.00     0.293 HD
ENDBRANCH  41  44
BRANCH  43  46
ATOM     46  O   UNL     1      24.887 172.209 171.725  1.00  0.00    -0.504 OA
ATOM     47  H   UNL     1      24.049 171.715 171.775  1.00  0.00     0.293 HD
ENDBRANCH  43  46
ENDBRANCH  28  38
BRANCH  34  48
ATOM     48  O   UNL     1      35.007 168.443 170.689  1.00  0.00    -0.507 OA
ATOM     49  H   UNL     1      34.980 167.398 170.811  1.00  0.00     0.293 HD
ENDBRANCH  34  48
BRANCH  37  50
ATOM     50  O   UNL     1      35.050 172.308 173.466  1.00  0.00    -0.508 OA
ATOM     51  H   UNL     1      35.307 172.248 174.420  1.00  0.00     0.293 HD
ENDBRANCH  37  50
ENDBRANCH  26  27
ENDBRANCH   5  26
BRANCH   4  52
ATOM     52  O   UNL     1      32.234 167.041 167.357  1.00  0.00    -0.384 OA
ATOM     53  H   UNL     1      32.579 167.169 166.395  1.00  0.00     0.211 HD
ENDBRANCH   4  52
TORSDOF 16
ENDMDL
MODEL 9
REMARK VINA RESULT:    -4.457      2.936      8.131
REMARK INTER + INTRA:         -10.654
REMARK INTER:                  -7.414
REMARK INTRA:                  -3.240
REMARK UNBOUND:                -3.332
REMARK SMILES C[C@H]1O[C@H](OC[C@@H]2O[C@@H](Oc3c(-c4ccc(O)c(O)c4)oc4cc(O)cc(O)c4c3=O)[C@@H](O)[C@@H](O)[C@@H]2O)[C@@H](O)[C@@H](O)[C@H]1O
REMARK SMILES IDX 7 1 36 2 34 3 32 4 9 5 8 6 6 7 5 8 4 9 1 10 2 11 42 12 3 13
REMARK SMILES IDX 40 14 38 15 43 16 41 18 39 20 37 22 35 24 10 26 11 27 12 28
REMARK SMILES IDX 30 29 21 30 29 31 31 32 22 33 27 34 23 35 26 36 24 37 13 38
REMARK SMILES IDX 20 39 14 40 18 41 15 42 16 43 19 44 17 46 28 48 25 50 33 52
REMARK H PARENT 43 17 41 19 39 21 37 23 35 25 19 45 17 47 28 49 25 51 33 53
REMARK Flexibility Score: inf
ROOT
ATOM      1  C   UNL     1      30.387 167.089 168.694  1.00  0.00     0.180 C 
ATOM      2  C   UNL     1      31.139 167.109 167.262  1.00  0.00     0.177 C 
ATOM      3  C   UNL     1      30.124 167.171 166.046  1.00  0.00     0.180 C 
ATOM      4  C   UNL     1      28.675 166.855 166.506  1.00  0.00     0.214 C 
ATOM      5  C   UNL     1      28.368 167.804 167.672  1.00  0.00     0.339 C 
ATOM      6  O   UNL     1      28.995 167.262 168.780  1.00  0.00    -0.332 OA
ENDROOT
BRANCH   1   7
ATOM      7  C   UNL     1      30.689 165.893 169.614  1.00  0.00     0.198 C 
BRANCH   7   8
ATOM      8  O   UNL     1      31.920 165.985 170.314  1.00  0.00    -0.347 OA
BRANCH   8   9
ATOM      9  C   UNL     1      31.745 166.917 171.406  1.00  0.00     0.281 C 
ATOM     10  C   UNL     1      30.057 167.069 174.502  1.00  0.00     0.041 C 
ATOM     11  C   UNL     1      31.328 167.509 173.673  1.00  0.00     0.150 C 
ATOM     12  C   UNL     1      31.156 168.993 173.049  1.00  0.00     0.174 C 
ATOM     13  O   UNL     1      31.616 166.396 172.769  1.00  0.00    -0.344 OA
ATOM     14  C   UNL     1      32.022 169.278 171.762  1.00  0.00     0.179 C 
ATOM     15  C   UNL     1      32.817 168.036 171.404  1.00  0.00     0.202 C 
BRANCH  12  16
ATOM     16  O   UNL     1      29.787 169.341 172.781  1.00  0.00    -0.388 OA
ATOM     17  H   UNL     1      29.716 170.353 172.735  1.00  0.00     0.211 HD
ENDBRANCH  12  16
BRANCH  14  18
ATOM     18  O   UNL     1      31.293 169.609 170.617  1.00  0.00    -0.387 OA
ATOM     19  H   UNL     1      31.128 170.592 170.540  1.00  0.00     0.211 HD
ENDBRANCH  14  18
BRANCH  15  20
ATOM     20  O   UNL     1      33.550 168.237 170.183  1.00  0.00    -0.385 OA
ATOM     21  H   UNL     1      33.789 167.310 169.856  1.00  0.00     0.211 HD
ENDBRANCH  15  20
ENDBRANCH   8   9
ENDBRANCH   7   8
ENDBRANCH   1   7
BRANCH   2  22
ATOM     22  O   UNL     1      31.990 165.981 167.211  1.00  0.00    -0.387 OA
ATOM     23  H   UNL     1      31.460 165.187 167.539  1.00  0.00     0.211 HD
ENDBRANCH   2  22
BRANCH   3  24
ATOM     24  O   UNL     1      30.179 168.436 165.396  1.00  0.00    -0.387 OA
ATOM     25  H   UNL     1      30.475 168.279 164.458  1.00  0.00     0.211 HD
ENDBRANCH   3  24
BRANCH   5  26
ATOM     26  O   UNL     1      28.716 169.219 167.516  1.00  0.00    -0.454 OA
BRANCH  26  27
ATOM     27  C   UNL     1      28.091 170.383 168.081  1.00  0.00     0.214 A 
ATOM     28  C   UNL     1      27.361 171.297 167.254  1.00  0.00     0.180 A 
ATOM     29  C   UNL     1      28.182 170.715 169.436  1.00  0.00     0.239 A 
ATOM     30  O   UNL     1      27.056 172.515 167.725  1.00  0.00    -0.452 OA
ATOM     31  C   UNL     1      27.984 172.048 169.861  1.00  0.00     0.111 A 
ATOM     32  O   UNL     1      28.379 169.813 170.292  1.00  0.00    -0.285 OA
ATOM     33  C   UNL     1      27.389 172.917 168.958  1.00  0.00     0.146 A 
ATOM     34  C   UNL     1      28.410 172.607 171.111  1.00  0.00     0.134 A 
ATOM     35  C   UNL     1      27.095 174.275 169.324  1.00  0.00     0.094 A 
ATOM     36  C   UNL     1      28.179 173.964 171.425  1.00  0.00     0.093 A 
ATOM     37  C   UNL     1      27.497 174.788 170.542  1.00  0.00     0.123 A 
BRANCH  28  38
ATOM     38  C   UNL     1      26.980 171.011 165.841  1.00  0.00     0.025 A 
ATOM     39  C   UNL     1      27.895 171.304 164.787  1.00  0.00     0.062 A 
ATOM     40  C   UNL     1      25.908 170.128 165.649  1.00  0.00     0.016 A 
ATOM     41  C   UNL     1      27.670 170.733 163.492  1.00  0.00     0.158 A 
ATOM     42  C   UNL     1      25.803 169.411 164.405  1.00  0.00     0.051 A 
ATOM     43  C   UNL     1      26.670 169.709 163.315  1.00  0.00     0.157 A 
BRANCH  41  44
ATOM     44  O   UNL     1      28.272 171.337 162.397  1.00  0.00    -0.504 OA
ATOM     45  H   UNL     1      28.514 170.751 161.565  1.00  0.00     0.293 HD
ENDBRANCH  41  44
BRANCH  43  46
ATOM     46  O   UNL     1      26.414 169.088 162.076  1.00  0.00    -0.504 OA
ATOM     47  H   UNL     1      25.507 168.973 161.741  1.00  0.00     0.293 HD
ENDBRANCH  43  46
ENDBRANCH  28  38
BRANCH  34  48
ATOM     48  O   UNL     1      29.185 171.941 172.047  1.00  0.00    -0.507 OA
ATOM     49  H   UNL     1      29.234 170.893 172.126  1.00  0.00     0.293 HD
ENDBRANCH  34  48
BRANCH  37  50
ATOM     50  O   UNL     1      27.324 176.147 170.823  1.00  0.00    -0.508 OA
ATOM     51  H   UNL     1      27.771 176.591 171.587  1.00  0.00     0.293 HD
ENDBRANCH  37  50
ENDBRANCH  26  27
ENDBRANCH   5  26
BRANCH   4  52
ATOM     52  O   UNL     1      27.736 166.890 165.450  1.00  0.00    -0.384 OA
ATOM     53  H   UNL     1      28.052 166.146 164.812  1.00  0.00     0.211 HD
ENDBRANCH   4  52
TORSDOF 16
ENDMDL
