MODEL 1
REMARK VINA RESULT:    -5.273      0.000      0.000
REMARK INTER + INTRA:          -6.881
REMARK INTER:                  -6.506
REMARK INTRA:                  -0.376
REMARK UNBOUND:                -0.376
REMARK SMILES Oc1cc(O)c2cc(O)c(-c3cc(O)c(O)c(O)c3)[o+]c2c1
REMARK SMILES IDX 10 1 20 2 21 3 22 4 2 5 3 6 4 7 6 8 7 9 8 10 11 11 12 12
REMARK SMILES IDX 13 13 19 14 15 15 17 16 14 17 16 19 18 21 9 23 1 25 5 27
REMARK H PARENT 14 18 16 20 18 22 9 24 1 26 5 28
REMARK Flexibility Score: inf
ROOT
ATOM      1  C   UNL     1      44.925  32.916  48.748  1.00  0.00     0.402 A 
ATOM      2  O   UNL     1      44.837  31.663  49.188  1.00  0.00    -0.202 OA
ATOM      3  C   UNL     1      45.867  30.992  49.693  1.00  0.00     0.368 A 
ATOM      4  C   UNL     1      45.675  29.678  50.126  1.00  0.00     0.162 A 
ATOM      5  C   UNL     1      46.741  28.948  50.659  1.00  0.00     0.128 A 
ATOM      6  C   UNL     1      48.005  29.536  50.759  1.00  0.00     0.093 A 
ATOM      7  C   UNL     1      48.223  30.852  50.332  1.00  0.00     0.136 A 
ATOM      8  C   UNL     1      47.142  31.597  49.792  1.00  0.00     0.125 A 
ATOM      9  C   UNL     1      47.264  32.925  49.352  1.00  0.00     0.078 A 
ATOM     10  C   UNL     1      46.153  33.597  48.835  1.00  0.00     0.223 A 
ENDROOT
BRANCH   1  11
ATOM     11  C   UNL     1      43.708  33.552  48.195  1.00  0.00     0.091 A 
ATOM     12  C   UNL     1      43.343  33.389  46.848  1.00  0.00     0.068 A 
ATOM     13  C   UNL     1      42.175  33.982  46.350  1.00  0.00     0.162 A 
ATOM     14  C   UNL     1      42.868  34.289  49.046  1.00  0.00     0.068 A 
ATOM     15  C   UNL     1      41.353  34.734  47.200  1.00  0.00     0.200 A 
ATOM     16  C   UNL     1      41.699  34.885  48.553  1.00  0.00     0.162 A 
BRANCH  13  17
ATOM     17  O   UNL     1      41.821  33.824  45.012  1.00  0.00    -0.504 OA
ATOM     18  H   UNL     1      42.078  32.995  44.489  1.00  0.00     0.293 HD
ENDBRANCH  13  17
BRANCH  15  19
ATOM     19  O   UNL     1      40.196  35.320  46.686  1.00  0.00    -0.502 OA
ATOM     20  H   UNL     1      39.597  34.841  46.026  1.00  0.00     0.293 HD
ENDBRANCH  15  19
BRANCH  16  21
ATOM     21  O   UNL     1      40.880  35.626  49.405  1.00  0.00    -0.504 OA
ATOM     22  H   UNL     1      40.088  36.151  49.057  1.00  0.00     0.293 HD
ENDBRANCH  16  21
ENDBRANCH   1  11
BRANCH  10  23
ATOM     23  O   UNL     1      46.262  34.932  48.443  1.00  0.00    -0.500 OA
ATOM     24  H   UNL     1      46.082  35.223  47.490  1.00  0.00     0.294 HD
ENDBRANCH  10  23
BRANCH   5  25
ATOM     25  O   UNL     1      46.558  27.637  51.094  1.00  0.00    -0.507 OA
ATOM     26  H   UNL     1      46.939  27.312  51.974  1.00  0.00     0.293 HD
ENDBRANCH   5  25
BRANCH   7  27
ATOM     27  O   UNL     1      49.516  31.365  50.463  1.00  0.00    -0.507 OA
ATOM     28  H   UNL     1      50.353  30.888  50.158  1.00  0.00     0.293 HD
ENDBRANCH   7  27
TORSDOF 7
ENDMDL
MODEL 2
REMARK VINA RESULT:    -5.238      0.069      1.790
REMARK INTER + INTRA:          -6.838
REMARK INTER:                  -6.461
REMARK INTRA:                  -0.377
REMARK UNBOUND:                -0.376
REMARK SMILES Oc1cc(O)c2cc(O)c(-c3cc(O)c(O)c(O)c3)[o+]c2c1
REMARK SMILES IDX 10 1 20 2 21 3 22 4 2 5 3 6 4 7 6 8 7 9 8 10 11 11 12 12
REMARK SMILES IDX 13 13 19 14 15 15 17 16 14 17 16 19 18 21 9 23 1 25 5 27
REMARK H PARENT 14 18 16 20 18 22 9 24 1 26 5 28
REMARK Flexibility Score: inf
ROOT
ATOM      1  C   UNL     1      44.919  32.859  48.797  1.00  0.00     0.402 A 
ATOM      2  O   UNL     1      44.841  31.605  49.235  1.00  0.00    -0.202 OA
ATOM      3  C   UNL     1      45.882  30.934  49.718  1.00  0.00     0.368 A 
ATOM      4  C   UNL     1      45.700  29.618  50.152  1.00  0.00     0.162 A 
ATOM      5  C   UNL     1      46.777  28.888  50.661  1.00  0.00     0.128 A 
ATOM      6  C   UNL     1      48.042  29.477  50.736  1.00  0.00     0.093 A 
ATOM      7  C   UNL     1      48.251  30.793  50.308  1.00  0.00     0.136 A 
ATOM      8  C   UNL     1      47.158  31.539  49.792  1.00  0.00     0.125 A 
ATOM      9  C   UNL     1      47.271  32.868  49.352  1.00  0.00     0.078 A 
ATOM     10  C   UNL     1      46.149  33.541  48.860  1.00  0.00     0.223 A 
ENDROOT
BRANCH   1  11
ATOM     11  C   UNL     1      43.691  33.496  48.271  1.00  0.00     0.091 A 
ATOM     12  C   UNL     1      42.853  34.264  49.097  1.00  0.00     0.068 A 
ATOM     13  C   UNL     1      41.706  34.876  48.574  1.00  0.00     0.162 A 
ATOM     14  C   UNL     1      43.382  33.378  46.906  1.00  0.00     0.068 A 
ATOM     15  C   UNL     1      41.393  34.736  47.216  1.00  0.00     0.200 A 
ATOM     16  C   UNL     1      42.236  33.987  46.378  1.00  0.00     0.162 A 
BRANCH  13  17
ATOM     17  O   UNL     1      40.874  35.632  49.398  1.00  0.00    -0.504 OA
ATOM     18  H   UNL     1      40.398  36.459  49.057  1.00  0.00     0.293 HD
ENDBRANCH  13  17
BRANCH  15  19
ATOM     19  O   UNL     1      40.245  35.350  46.714  1.00  0.00    -0.502 OA
ATOM     20  H   UNL     1      39.903  35.169  45.778  1.00  0.00     0.293 HD
ENDBRANCH  15  19
BRANCH  16  21
ATOM     21  O   UNL     1      41.933  33.851  45.024  1.00  0.00    -0.504 OA
ATOM     22  H   UNL     1      41.258  34.451  44.567  1.00  0.00     0.293 HD
ENDBRANCH  16  21
ENDBRANCH   1  11
BRANCH  10  23
ATOM     23  O   UNL     1      46.249  34.876  48.469  1.00  0.00    -0.500 OA
ATOM     24  H   UNL     1      47.140  35.297  48.232  1.00  0.00     0.294 HD
ENDBRANCH  10  23
BRANCH   5  25
ATOM     25  O   UNL     1      46.603  27.576  51.096  1.00  0.00    -0.507 OA
ATOM     26  H   UNL     1      46.253  26.855  50.478  1.00  0.00     0.293 HD
ENDBRANCH   5  25
BRANCH   7  27
ATOM     27  O   UNL     1      49.546  31.307  50.413  1.00  0.00    -0.507 OA
ATOM     28  H   UNL     1      49.775  32.197  50.832  1.00  0.00     0.293 HD
ENDBRANCH   7  27
TORSDOF 7
ENDMDL
MODEL 3
REMARK VINA RESULT:    -4.922      2.410      3.723
REMARK INTER + INTRA:          -6.449
REMARK INTER:                  -6.165
REMARK INTRA:                  -0.284
REMARK UNBOUND:                -0.376
REMARK SMILES Oc1cc(O)c2cc(O)c(-c3cc(O)c(O)c(O)c3)[o+]c2c1
REMARK SMILES IDX 10 1 20 2 21 3 22 4 2 5 3 6 4 7 6 8 7 9 8 10 11 11 12 12
REMARK SMILES IDX 13 13 19 14 15 15 17 16 14 17 16 19 18 21 9 23 1 25 5 27
REMARK H PARENT 14 18 16 20 18 22 9 24 1 26 5 28
REMARK Flexibility Score: inf
ROOT
ATOM      1  C   UNL     1      44.999  32.088  48.611  1.00  0.00     0.402 A 
ATOM      2  O   UNL     1      45.341  31.218  49.558  1.00  0.00    -0.202 OA
ATOM      3  C   UNL     1      45.578  29.933  49.319  1.00  0.00     0.368 A 
ATOM      4  C   UNL     1      45.928  29.097  50.382  1.00  0.00     0.162 A 
ATOM      5  C   UNL     1      46.180  27.740  50.159  1.00  0.00     0.128 A 
ATOM      6  C   UNL     1      46.080  27.218  48.867  1.00  0.00     0.093 A 
ATOM      7  C   UNL     1      45.731  28.034  47.785  1.00  0.00     0.136 A 
ATOM      8  C   UNL     1      45.476  29.414  48.006  1.00  0.00     0.125 A 
ATOM      9  C   UNL     1      45.134  30.309  46.981  1.00  0.00     0.078 A 
ATOM     10  C   UNL     1      44.902  31.656  47.274  1.00  0.00     0.223 A 
ENDROOT
BRANCH   1  11
ATOM     11  C   UNL     1      44.750  33.493  49.005  1.00  0.00     0.091 A 
ATOM     12  C   UNL     1      43.615  33.854  49.750  1.00  0.00     0.068 A 
ATOM     13  C   UNL     1      43.409  35.187  50.132  1.00  0.00     0.162 A 
ATOM     14  C   UNL     1      45.694  34.479  48.677  1.00  0.00     0.068 A 
ATOM     15  C   UNL     1      44.345  36.169  49.782  1.00  0.00     0.200 A 
ATOM     16  C   UNL     1      45.493  35.814  49.056  1.00  0.00     0.162 A 
BRANCH  13  17
ATOM     17  O   UNL     1      42.279  35.542  50.865  1.00  0.00    -0.504 OA
ATOM     18  H   UNL     1      41.853  34.904  51.527  1.00  0.00     0.293 HD
ENDBRANCH  13  17
BRANCH  15  19
ATOM     19  O   UNL     1      44.122  37.491  50.168  1.00  0.00    -0.502 OA
ATOM     20  H   UNL     1      43.467  38.091  49.681  1.00  0.00     0.293 HD
ENDBRANCH  15  19
BRANCH  16  21
ATOM     21  O   UNL     1      46.431  36.786  48.712  1.00  0.00    -0.504 OA
ATOM     22  H   UNL     1      46.939  37.307  49.415  1.00  0.00     0.293 HD
ENDBRANCH  16  21
ENDBRANCH   1  11
BRANCH  10  23
ATOM     23  O   UNL     1      44.610  32.556  46.250  1.00  0.00    -0.500 OA
ATOM     24  H   UNL     1      43.657  32.821  46.028  1.00  0.00     0.294 HD
ENDBRANCH  10  23
BRANCH   5  25
ATOM     25  O   UNL     1      46.530  26.901  51.214  1.00  0.00    -0.507 OA
ATOM     26  H   UNL     1      46.737  25.920  51.065  1.00  0.00     0.293 HD
ENDBRANCH   5  25
BRANCH   7  27
ATOM     27  O   UNL     1      45.649  27.434  46.525  1.00  0.00    -0.507 OA
ATOM     28  H   UNL     1      46.303  27.597  45.773  1.00  0.00     0.293 HD
ENDBRANCH   7  27
TORSDOF 7
ENDMDL
MODEL 4
REMARK VINA RESULT:    -4.854      1.237      7.174
REMARK INTER + INTRA:          -6.365
REMARK INTER:                  -5.997
REMARK INTRA:                  -0.367
REMARK UNBOUND:                -0.376
REMARK SMILES Oc1cc(O)c2cc(O)c(-c3cc(O)c(O)c(O)c3)[o+]c2c1
REMARK SMILES IDX 10 1 20 2 21 3 22 4 2 5 3 6 4 7 6 8 7 9 8 10 11 11 12 12
REMARK SMILES IDX 13 13 19 14 15 15 17 16 14 17 16 19 18 21 9 23 1 25 5 27
REMARK H PARENT 14 18 16 20 18 22 9 24 1 26 5 28
REMARK Flexibility Score: inf
ROOT
ATOM      1  C   UNL     1      45.554  32.468  48.487  1.00  0.00     0.402 A 
ATOM      2  O   UNL     1      44.584  33.177  49.058  1.00  0.00    -0.202 OA
ATOM      3  C   UNL     1      43.538  33.654  48.391  1.00  0.00     0.368 A 
ATOM      4  C   UNL     1      42.571  34.391  49.080  1.00  0.00     0.162 A 
ATOM      5  C   UNL     1      41.462  34.907  48.402  1.00  0.00     0.128 A 
ATOM      6  C   UNL     1      41.321  34.684  47.030  1.00  0.00     0.093 A 
ATOM      7  C   UNL     1      42.275  33.949  46.317  1.00  0.00     0.136 A 
ATOM      8  C   UNL     1      43.402  33.422  47.002  1.00  0.00     0.125 A 
ATOM      9  C   UNL     1      44.401  32.662  46.372  1.00  0.00     0.078 A 
ATOM     10  C   UNL     1      45.480  32.172  47.112  1.00  0.00     0.223 A 
ENDROOT
BRANCH   1  11
ATOM     11  C   UNL     1      46.674  32.002  49.335  1.00  0.00     0.091 A 
ATOM     12  C   UNL     1      47.765  32.836  49.631  1.00  0.00     0.068 A 
ATOM     13  C   UNL     1      48.804  32.382  50.454  1.00  0.00     0.162 A 
ATOM     14  C   UNL     1      46.621  30.718  49.902  1.00  0.00     0.068 A 
ATOM     15  C   UNL     1      48.755  31.092  50.999  1.00  0.00     0.200 A 
ATOM     16  C   UNL     1      47.658  30.259  50.726  1.00  0.00     0.162 A 
BRANCH  13  17
ATOM     17  O   UNL     1      49.888  33.210  50.741  1.00  0.00    -0.504 OA
ATOM     18  H   UNL     1      50.796  32.831  50.984  1.00  0.00     0.293 HD
ENDBRANCH  13  17
BRANCH  15  19
ATOM     19  O   UNL     1      49.801  30.656  51.814  1.00  0.00    -0.502 OA
ATOM     20  H   UNL     1      49.678  30.487  52.805  1.00  0.00     0.293 HD
ENDBRANCH  15  19
BRANCH  16  21
ATOM     21  O   UNL     1      47.601  28.977  51.271  1.00  0.00    -0.504 OA
ATOM     22  H   UNL     1      47.116  28.791  52.140  1.00  0.00     0.293 HD
ENDBRANCH  16  21
ENDBRANCH   1  11
BRANCH  10  23
ATOM     23  O   UNL     1      46.447  31.376  46.498  1.00  0.00    -0.500 OA
ATOM     24  H   UNL     1      46.321  31.013  45.560  1.00  0.00     0.294 HD
ENDBRANCH  10  23
BRANCH   5  25
ATOM     25  O   UNL     1      40.494  35.642  49.082  1.00  0.00    -0.507 OA
ATOM     26  H   UNL     1      39.657  35.973  48.618  1.00  0.00     0.293 HD
ENDBRANCH   5  25
BRANCH   7  27
ATOM     27  O   UNL     1      42.062  33.774  44.947  1.00  0.00    -0.507 OA
ATOM     28  H   UNL     1      42.632  34.188  44.223  1.00  0.00     0.293 HD
ENDBRANCH   7  27
TORSDOF 7
ENDMDL
MODEL 5
REMARK VINA RESULT:    -4.845      1.894      6.673
REMARK INTER + INTRA:          -6.354
REMARK INTER:                  -6.076
REMARK INTRA:                  -0.278
REMARK UNBOUND:                -0.376
REMARK SMILES Oc1cc(O)c2cc(O)c(-c3cc(O)c(O)c(O)c3)[o+]c2c1
REMARK SMILES IDX 10 1 20 2 21 3 22 4 2 5 3 6 4 7 6 8 7 9 8 10 11 11 12 12
REMARK SMILES IDX 13 13 19 14 15 15 17 16 14 17 16 19 18 21 9 23 1 25 5 27
REMARK H PARENT 14 18 16 20 18 22 9 24 1 26 5 28
REMARK Flexibility Score: inf
ROOT
ATOM      1  C   UNL     1      45.382  31.657  48.988  1.00  0.00     0.402 A 
ATOM      2  O   UNL     1      44.170  32.208  48.970  1.00  0.00    -0.202 OA
ATOM      3  C   UNL     1      43.966  33.521  48.952  1.00  0.00     0.368 A 
ATOM      4  C   UNL     1      42.655  34.004  48.936  1.00  0.00     0.162 A 
ATOM      5  C   UNL     1      42.410  35.380  48.920  1.00  0.00     0.128 A 
ATOM      6  C   UNL     1      43.482  36.277  48.920  1.00  0.00     0.093 A 
ATOM      7  C   UNL     1      44.805  35.818  48.935  1.00  0.00     0.136 A 
ATOM      8  C   UNL     1      45.058  34.421  48.949  1.00  0.00     0.125 A 
ATOM      9  C   UNL     1      46.350  33.871  48.951  1.00  0.00     0.078 A 
ATOM     10  C   UNL     1      46.521  32.484  48.961  1.00  0.00     0.223 A 
ENDROOT
BRANCH   1  11
ATOM     11  C   UNL     1      45.479  30.180  49.018  1.00  0.00     0.091 A 
ATOM     12  C   UNL     1      46.000  29.504  50.135  1.00  0.00     0.068 A 
ATOM     13  C   UNL     1      46.063  28.104  50.152  1.00  0.00     0.162 A 
ATOM     14  C   UNL     1      44.992  29.434  47.934  1.00  0.00     0.068 A 
ATOM     15  C   UNL     1      45.595  27.367  49.056  1.00  0.00     0.200 A 
ATOM     16  C   UNL     1      45.054  28.034  47.945  1.00  0.00     0.162 A 
BRANCH  13  17
ATOM     17  O   UNL     1      46.586  27.437  51.258  1.00  0.00    -0.504 OA
ATOM     18  H   UNL     1      46.447  27.782  52.201  1.00  0.00     0.293 HD
ENDBRANCH  13  17
BRANCH  15  19
ATOM     19  O   UNL     1      45.670  25.974  49.090  1.00  0.00    -0.502 OA
ATOM     20  H   UNL     1      45.457  25.403  48.280  1.00  0.00     0.293 HD
ENDBRANCH  15  19
BRANCH  16  21
ATOM     21  O   UNL     1      44.580  27.305  46.855  1.00  0.00    -0.504 OA
ATOM     22  H   UNL     1      43.857  27.668  46.246  1.00  0.00     0.293 HD
ENDBRANCH  16  21
ENDBRANCH   1  11
BRANCH  10  23
ATOM     23  O   UNL     1      47.803  31.936  48.914  1.00  0.00    -0.500 OA
ATOM     24  H   UNL     1      47.954  30.949  48.738  1.00  0.00     0.294 HD
ENDBRANCH  10  23
BRANCH   5  25
ATOM     25  O   UNL     1      41.106  35.870  48.904  1.00  0.00    -0.507 OA
ATOM     26  H   UNL     1      40.671  36.247  49.737  1.00  0.00     0.293 HD
ENDBRANCH   5  25
BRANCH   7  27
ATOM     27  O   UNL     1      45.820  36.779  48.937  1.00  0.00    -0.507 OA
ATOM     28  H   UNL     1      46.647  36.736  48.360  1.00  0.00     0.293 HD
ENDBRANCH   7  27
TORSDOF 7
ENDMDL
MODEL 6
REMARK VINA RESULT:    -4.837      1.879      7.156
REMARK INTER + INTRA:          -6.343
REMARK INTER:                  -6.062
REMARK INTRA:                  -0.281
REMARK UNBOUND:                -0.376
REMARK SMILES Oc1cc(O)c2cc(O)c(-c3cc(O)c(O)c(O)c3)[o+]c2c1
REMARK SMILES IDX 10 1 20 2 21 3 22 4 2 5 3 6 4 7 6 8 7 9 8 10 11 11 12 12
REMARK SMILES IDX 13 13 19 14 15 15 17 16 14 17 16 19 18 21 9 23 1 25 5 27
REMARK H PARENT 14 18 16 20 18 22 9 24 1 26 5 28
REMARK Flexibility Score: inf
ROOT
ATOM      1  C   UNL     1      45.315  31.081  48.450  1.00  0.00     0.402 A 
ATOM      2  O   UNL     1      44.748  31.848  49.379  1.00  0.00    -0.202 OA
ATOM      3  C   UNL     1      44.098  32.973  49.099  1.00  0.00     0.368 A 
ATOM      4  C   UNL     1      43.539  33.712  50.145  1.00  0.00     0.162 A 
ATOM      5  C   UNL     1      42.853  34.901  49.881  1.00  0.00     0.128 A 
ATOM      6  C   UNL     1      42.726  35.351  48.564  1.00  0.00     0.093 A 
ATOM      7  C   UNL     1      43.277  34.629  47.499  1.00  0.00     0.136 A 
ATOM      8  C   UNL     1      43.973  33.420  47.763  1.00  0.00     0.125 A 
ATOM      9  C   UNL     1      44.546  32.624  46.758  1.00  0.00     0.078 A 
ATOM     10  C   UNL     1      45.213  31.443  47.094  1.00  0.00     0.223 A 
ENDROOT
BRANCH   1  11
ATOM     11  C   UNL     1      46.021  29.856  48.888  1.00  0.00     0.091 A 
ATOM     12  C   UNL     1      47.238  29.923  49.587  1.00  0.00     0.068 A 
ATOM     13  C   UNL     1      47.880  28.751  50.011  1.00  0.00     0.162 A 
ATOM     14  C   UNL     1      45.438  28.601  48.651  1.00  0.00     0.068 A 
ATOM     15  C   UNL     1      47.302  27.501  49.752  1.00  0.00     0.200 A 
ATOM     16  C   UNL     1      46.075  27.426  49.073  1.00  0.00     0.162 A 
BRANCH  13  17
ATOM     17  O   UNL     1      49.090  28.821  50.699  1.00  0.00    -0.504 OA
ATOM     18  H   UNL     1      49.163  28.560  51.675  1.00  0.00     0.293 HD
ENDBRANCH  13  17
BRANCH  15  19
ATOM     19  O   UNL     1      47.957  26.346  50.180  1.00  0.00    -0.502 OA
ATOM     20  H   UNL     1      47.454  25.506  50.440  1.00  0.00     0.293 HD
ENDBRANCH  15  19
BRANCH  16  21
ATOM     21  O   UNL     1      45.492  26.185  48.819  1.00  0.00    -0.504 OA
ATOM     22  H   UNL     1      45.652  25.389  49.424  1.00  0.00     0.293 HD
ENDBRANCH  16  21
ENDBRANCH   1  11
BRANCH  10  23
ATOM     23  O   UNL     1      45.739  30.627  46.093  1.00  0.00    -0.500 OA
ATOM     24  H   UNL     1      45.275  29.774  45.801  1.00  0.00     0.294 HD
ENDBRANCH  10  23
BRANCH   5  25
ATOM     25  O   UNL     1      42.293  35.642  50.918  1.00  0.00    -0.507 OA
ATOM     26  H   UNL     1      42.284  36.655  50.900  1.00  0.00     0.293 HD
ENDBRANCH   5  25
BRANCH   7  27
ATOM     27  O   UNL     1      43.109  35.150  46.213  1.00  0.00    -0.507 OA
ATOM     28  H   UNL     1      42.524  35.942  45.990  1.00  0.00     0.293 HD
ENDBRANCH   7  27
TORSDOF 7
ENDMDL
MODEL 7
REMARK VINA RESULT:    -4.771      1.620      3.546
REMARK INTER + INTRA:          -6.262
REMARK INTER:                  -5.936
REMARK INTRA:                  -0.326
REMARK UNBOUND:                -0.376
REMARK SMILES Oc1cc(O)c2cc(O)c(-c3cc(O)c(O)c(O)c3)[o+]c2c1
REMARK SMILES IDX 10 1 20 2 21 3 22 4 2 5 3 6 4 7 6 8 7 9 8 10 11 11 12 12
REMARK SMILES IDX 13 13 19 14 15 15 17 16 14 17 16 19 18 21 9 23 1 25 5 27
REMARK H PARENT 14 18 16 20 18 22 9 24 1 26 5 28
REMARK Flexibility Score: inf
ROOT
ATOM      1  C   UNL     1      45.869  32.293  49.363  1.00  0.00     0.402 A 
ATOM      2  O   UNL     1      46.978  33.006  49.538  1.00  0.00    -0.202 OA
ATOM      3  C   UNL     1      48.120  32.485  49.975  1.00  0.00     0.368 A 
ATOM      4  C   UNL     1      49.232  33.318  50.129  1.00  0.00     0.162 A 
ATOM      5  C   UNL     1      50.444  32.797  50.590  1.00  0.00     0.128 A 
ATOM      6  C   UNL     1      50.545  31.438  50.898  1.00  0.00     0.093 A 
ATOM      7  C   UNL     1      49.446  30.583  50.752  1.00  0.00     0.136 A 
ATOM      8  C   UNL     1      48.213  31.107  50.282  1.00  0.00     0.125 A 
ATOM      9  C   UNL     1      47.063  30.323  50.092  1.00  0.00     0.078 A 
ATOM     10  C   UNL     1      45.885  30.909  49.622  1.00  0.00     0.223 A 
ENDROOT
BRANCH   1  11
ATOM     11  C   UNL     1      44.655  32.990  48.881  1.00  0.00     0.091 A 
ATOM     12  C   UNL     1      43.898  33.814  49.731  1.00  0.00     0.068 A 
ATOM     13  C   UNL     1      42.764  34.482  49.249  1.00  0.00     0.162 A 
ATOM     14  C   UNL     1      44.282  32.874  47.532  1.00  0.00     0.068 A 
ATOM     15  C   UNL     1      42.386  34.344  47.907  1.00  0.00     0.200 A 
ATOM     16  C   UNL     1      43.149  33.540  47.045  1.00  0.00     0.162 A 
BRANCH  13  17
ATOM     17  O   UNL     1      42.012  35.293  50.097  1.00  0.00    -0.504 OA
ATOM     18  H   UNL     1      42.408  36.118  50.532  1.00  0.00     0.293 HD
ENDBRANCH  13  17
BRANCH  15  19
ATOM     19  O   UNL     1      41.252  35.014  47.446  1.00  0.00    -0.502 OA
ATOM     20  H   UNL     1      41.029  35.959  47.737  1.00  0.00     0.293 HD
ENDBRANCH  15  19
BRANCH  16  21
ATOM     21  O   UNL     1      42.781  33.404  45.707  1.00  0.00    -0.504 OA
ATOM     22  H   UNL     1      43.035  34.096  45.013  1.00  0.00     0.293 HD
ENDBRANCH  16  21
ENDBRANCH   1  11
BRANCH  10  23
ATOM     23  O   UNL     1      44.758  30.123  49.386  1.00  0.00    -0.500 OA
ATOM     24  H   UNL     1      44.695  29.508  48.583  1.00  0.00     0.294 HD
ENDBRANCH  10  23
BRANCH   5  25
ATOM     25  O   UNL     1      51.557  33.621  50.746  1.00  0.00    -0.507 OA
ATOM     26  H   UNL     1      51.667  34.215  51.559  1.00  0.00     0.293 HD
ENDBRANCH   5  25
BRANCH   7  27
ATOM     27  O   UNL     1      49.628  29.238  51.085  1.00  0.00    -0.507 OA
ATOM     28  H   UNL     1      48.877  28.586  51.257  1.00  0.00     0.293 HD
ENDBRANCH   7  27
TORSDOF 7
ENDMDL
MODEL 8
REMARK VINA RESULT:    -4.616      9.567     13.394
REMARK INTER + INTRA:          -6.071
REMARK INTER:                  -5.698
REMARK INTRA:                  -0.373
REMARK UNBOUND:                -0.376
REMARK SMILES Oc1cc(O)c2cc(O)c(-c3cc(O)c(O)c(O)c3)[o+]c2c1
REMARK SMILES IDX 10 1 20 2 21 3 22 4 2 5 3 6 4 7 6 8 7 9 8 10 11 11 12 12
REMARK SMILES IDX 13 13 19 14 15 15 17 16 14 17 16 19 18 21 9 23 1 25 5 27
REMARK H PARENT 14 18 16 20 18 22 9 24 1 26 5 28
REMARK Flexibility Score: inf
ROOT
ATOM      1  C   UNL     1      42.656  42.818  53.684  1.00  0.00     0.402 A 
ATOM      2  O   UNL     1      41.897  42.924  52.596  1.00  0.00    -0.202 OA
ATOM      3  C   UNL     1      40.649  43.380  52.618  1.00  0.00     0.368 A 
ATOM      4  C   UNL     1      39.931  43.450  51.421  1.00  0.00     0.162 A 
ATOM      5  C   UNL     1      38.616  43.923  51.415  1.00  0.00     0.128 A 
ATOM      6  C   UNL     1      38.017  44.326  52.611  1.00  0.00     0.093 A 
ATOM      7  C   UNL     1      38.715  44.265  53.823  1.00  0.00     0.136 A 
ATOM      8  C   UNL     1      40.052  43.788  53.834  1.00  0.00     0.125 A 
ATOM      9  C   UNL     1      40.832  43.705  54.998  1.00  0.00     0.078 A 
ATOM     10  C   UNL     1      42.144  43.228  54.930  1.00  0.00     0.223 A 
ENDROOT
BRANCH   1  11
ATOM     11  C   UNL     1      44.029  42.285  53.533  1.00  0.00     0.091 A 
ATOM     12  C   UNL     1      45.132  43.139  53.365  1.00  0.00     0.068 A 
ATOM     13  C   UNL     1      46.426  42.614  53.245  1.00  0.00     0.162 A 
ATOM     14  C   UNL     1      44.243  40.900  53.615  1.00  0.00     0.068 A 
ATOM     15  C   UNL     1      46.630  41.229  53.306  1.00  0.00     0.200 A 
ATOM     16  C   UNL     1      45.535  40.369  53.495  1.00  0.00     0.162 A 
BRANCH  13  17
ATOM     17  O   UNL     1      47.517  43.464  53.071  1.00  0.00    -0.504 OA
ATOM     18  H   UNL     1      48.049  43.475  52.209  1.00  0.00     0.293 HD
ENDBRANCH  13  17
BRANCH  15  19
ATOM     19  O   UNL     1      47.924  40.724  53.181  1.00  0.00    -0.502 OA
ATOM     20  H   UNL     1      48.688  41.283  52.820  1.00  0.00     0.293 HD
ENDBRANCH  15  19
BRANCH  16  21
ATOM     21  O   UNL     1      45.733  38.991  53.563  1.00  0.00    -0.504 OA
ATOM     22  H   UNL     1      44.958  38.347  53.665  1.00  0.00     0.293 HD
ENDBRANCH  16  21
ENDBRANCH   1  11
BRANCH  10  23
ATOM     23  O   UNL     1      42.936  43.191  56.078  1.00  0.00    -0.500 OA
ATOM     24  H   UNL     1      43.897  42.869  56.052  1.00  0.00     0.294 HD
ENDBRANCH  10  23
BRANCH   5  25
ATOM     25  O   UNL     1      37.894  43.997  50.226  1.00  0.00    -0.507 OA
ATOM     26  H   UNL     1      38.004  43.304  49.495  1.00  0.00     0.293 HD
ENDBRANCH   5  25
BRANCH   7  27
ATOM     27  O   UNL     1      38.043  44.684  54.975  1.00  0.00    -0.507 OA
ATOM     28  H   UNL     1      38.404  45.361  55.632  1.00  0.00     0.293 HD
ENDBRANCH   7  27
TORSDOF 7
ENDMDL
MODEL 9
REMARK VINA RESULT:    -4.598     10.779     13.681
REMARK INTER + INTRA:          -6.049
REMARK INTER:                  -5.689
REMARK INTRA:                  -0.360
REMARK UNBOUND:                -0.376
REMARK SMILES Oc1cc(O)c2cc(O)c(-c3cc(O)c(O)c(O)c3)[o+]c2c1
REMARK SMILES IDX 10 1 20 2 21 3 22 4 2 5 3 6 4 7 6 8 7 9 8 10 11 11 12 12
REMARK SMILES IDX 13 13 19 14 15 15 17 16 14 17 16 19 18 21 9 23 1 25 5 27
REMARK H PARENT 14 18 16 20 18 22 9 24 1 26 5 28
REMARK Flexibility Score: inf
ROOT
ATOM      1  C   UNL     1      43.388  43.049  54.759  1.00  0.00     0.402 A 
ATOM      2  O   UNL     1      42.358  43.466  54.026  1.00  0.00    -0.202 OA
ATOM      3  C   UNL     1      42.131  43.054  52.783  1.00  0.00     0.368 A 
ATOM      4  C   UNL     1      41.023  43.553  52.094  1.00  0.00     0.162 A 
ATOM      5  C   UNL     1      40.762  43.139  50.784  1.00  0.00     0.128 A 
ATOM      6  C   UNL     1      41.614  42.222  50.163  1.00  0.00     0.093 A 
ATOM      7  C   UNL     1      42.731  41.708  50.832  1.00  0.00     0.136 A 
ATOM      8  C   UNL     1      42.998  42.124  52.163  1.00  0.00     0.125 A 
ATOM      9  C   UNL     1      44.086  41.651  52.915  1.00  0.00     0.078 A 
ATOM     10  C   UNL     1      44.283  42.104  54.223  1.00  0.00     0.223 A 
ENDROOT
BRANCH   1  11
ATOM     11  C   UNL     1      43.539  43.590  56.128  1.00  0.00     0.091 A 
ATOM     12  C   UNL     1      44.468  44.605  56.415  1.00  0.00     0.068 A 
ATOM     13  C   UNL     1      44.580  45.119  57.714  1.00  0.00     0.162 A 
ATOM     14  C   UNL     1      42.701  43.122  57.152  1.00  0.00     0.068 A 
ATOM     15  C   UNL     1      43.755  44.631  58.736  1.00  0.00     0.200 A 
ATOM     16  C   UNL     1      42.809  43.632  58.453  1.00  0.00     0.162 A 
BRANCH  13  17
ATOM     17  O   UNL     1      45.507  46.121  57.997  1.00  0.00    -0.504 OA
ATOM     18  H   UNL     1      46.418  46.142  57.553  1.00  0.00     0.293 HD
ENDBRANCH  13  17
BRANCH  15  19
ATOM     19  O   UNL     1      43.884  45.152  60.024  1.00  0.00    -0.502 OA
ATOM     20  H   UNL     1      43.238  44.915  60.768  1.00  0.00     0.293 HD
ENDBRANCH  15  19
BRANCH  16  21
ATOM     21  O   UNL     1      41.980  43.148  59.464  1.00  0.00    -0.504 OA
ATOM     22  H   UNL     1      41.238  43.712  59.858  1.00  0.00     0.293 HD
ENDBRANCH  16  21
ENDBRANCH   1  11
BRANCH  10  23
ATOM     23  O   UNL     1      45.334  41.598  54.988  1.00  0.00    -0.500 OA
ATOM     24  H   UNL     1      46.278  41.956  54.899  1.00  0.00     0.294 HD
ENDBRANCH  10  23
BRANCH   5  25
ATOM     25  O   UNL     1      39.659  43.631  50.091  1.00  0.00    -0.507 OA
ATOM     26  H   UNL     1      38.715  43.347  50.326  1.00  0.00     0.293 HD
ENDBRANCH   5  25
BRANCH   7  27
ATOM     27  O   UNL     1      43.535  40.798  50.139  1.00  0.00    -0.507 OA
ATOM     28  H   UNL     1      43.283  39.837  49.957  1.00  0.00     0.293 HD
ENDBRANCH   7  27
TORSDOF 7
ENDMDL
