MODEL 1
REMARK VINA RESULT:    -0.775      0.000      0.000
REMARK INTER + INTRA:          -0.843
REMARK INTER:                  -0.843
REMARK INTRA:                   0.000
REMARK UNBOUND:                 0.000
REMARK SMILES Cc1cc(O)c2c(c1)C(=O)c1cc(O)cc(O)c1C2=O
REMARK SMILES IDX 1 1 2 2 8 3 7 4 6 5 4 6 3 7 19 8 20 9 18 10 11 11 9 12 10 13
REMARK SMILES IDX 12 14 13 15 15 16 16 17 5 18 17 20 14 22
REMARK H PARENT 5 19 17 21 14 23
REMARK Flexibility Score: inf
ROOT
ATOM      1  C   UNL     1      35.925  23.816  26.875  1.00  0.00     0.044 C 
ATOM      2  C   UNL     1      34.703  24.084  27.705  1.00  0.00    -0.047 A 
ATOM      3  C   UNL     1      34.823  24.309  29.082  1.00  0.00     0.016 A 
ATOM      4  C   UNL     1      33.682  24.524  29.875  1.00  0.00     0.038 A 
ATOM      5  C   UNL     1      32.403  24.507  29.281  1.00  0.00     0.076 A 
ATOM      6  C   UNL     1      32.285  24.254  27.896  1.00  0.00     0.127 A 
ATOM      7  C   UNL     1      33.432  24.040  27.122  1.00  0.00     0.050 A 
ATOM      8  C   UNL     1      31.209  24.778  30.127  1.00  0.00     0.201 C 
ATOM      9  O   UNL     1      30.128  25.125  29.580  1.00  0.00    -0.288 OA
ATOM     10  C   UNL     1      31.322  24.751  31.612  1.00  0.00     0.076 A 
ATOM     11  C   UNL     1      32.612  24.827  32.189  1.00  0.00     0.041 A 
ATOM     12  C   UNL     1      33.817  24.767  31.329  1.00  0.00     0.194 C 
ATOM     13  O   UNL     1      34.964  24.905  31.839  1.00  0.00    -0.289 OA
ATOM     14  C   UNL     1      32.749  24.951  33.582  1.00  0.00     0.059 A 
ATOM     15  C   UNL     1      31.622  24.985  34.407  1.00  0.00     0.120 A 
ATOM     16  C   UNL     1      30.352  24.862  33.848  1.00  0.00     0.093 A 
ATOM     17  C   UNL     1      30.187  24.711  32.468  1.00  0.00     0.131 A 
ENDROOT
BRANCH   6  18
ATOM     18  O   UNL     1      31.030  24.201  27.287  1.00  0.00    -0.507 OA
ATOM     19  H   UNL     1      30.841  23.579  26.510  1.00  0.00     0.293 HD
ENDBRANCH   6  18
BRANCH  17  20
ATOM     20  O   UNL     1      28.890  24.486  32.001  1.00  0.00    -0.507 OA
ATOM     21  H   UNL     1      28.060  24.839  32.456  1.00  0.00     0.293 HD
ENDBRANCH  17  20
BRANCH  15  22
ATOM     22  O   UNL     1      31.754  25.125  35.786  1.00  0.00    -0.508 OA
ATOM     23  H   UNL     1      32.661  25.096  36.238  1.00  0.00     0.293 HD
ENDBRANCH  15  22
TORSDOF 3
ENDMDL
MODEL 2
REMARK VINA RESULT:     0.449      1.320      5.494
REMARK INTER + INTRA:           0.488
REMARK INTER:                   0.488
REMARK INTRA:                   0.000
REMARK UNBOUND:                 0.000
REMARK SMILES Cc1cc(O)c2c(c1)C(=O)c1cc(O)cc(O)c1C2=O
REMARK SMILES IDX 1 1 2 2 8 3 7 4 6 5 4 6 3 7 19 8 20 9 18 10 11 11 9 12 10 13
REMARK SMILES IDX 12 14 13 15 15 16 16 17 5 18 17 20 14 22
REMARK H PARENT 5 19 17 21 14 23
REMARK Flexibility Score: inf
ROOT
ATOM      1  C   UNL     1      31.910  25.124  36.260  1.00  0.00     0.044 C 
ATOM      2  C   UNL     1      31.635  24.943  34.795  1.00  0.00    -0.047 A 
ATOM      3  C   UNL     1      32.690  24.941  33.875  1.00  0.00     0.016 A 
ATOM      4  C   UNL     1      32.440  24.810  32.498  1.00  0.00     0.038 A 
ATOM      5  C   UNL     1      31.114  24.684  32.035  1.00  0.00     0.076 A 
ATOM      6  C   UNL     1      30.050  24.712  32.965  1.00  0.00     0.127 A 
ATOM      7  C   UNL     1      30.318  24.846  34.333  1.00  0.00     0.050 A 
ATOM      8  C   UNL     1      30.869  24.504  30.579  1.00  0.00     0.201 C 
ATOM      9  O   UNL     1      29.767  24.034  30.190  1.00  0.00    -0.288 OA
ATOM     10  C   UNL     1      31.960  24.767  29.599  1.00  0.00     0.076 A 
ATOM     11  C   UNL     1      33.290  24.831  30.076  1.00  0.00     0.041 A 
ATOM     12  C   UNL     1      33.562  24.802  31.532  1.00  0.00     0.194 C 
ATOM     13  O   UNL     1      34.753  24.790  31.951  1.00  0.00    -0.289 OA
ATOM     14  C   UNL     1      34.356  24.932  29.164  1.00  0.00     0.059 A 
ATOM     15  C   UNL     1      34.113  24.985  27.789  1.00  0.00     0.120 A 
ATOM     16  C   UNL     1      32.803  24.970  27.318  1.00  0.00     0.093 A 
ATOM     17  C   UNL     1      31.723  24.897  28.202  1.00  0.00     0.131 A 
ENDROOT
BRANCH   6  18
ATOM     18  O   UNL     1      28.726  24.622  32.533  1.00  0.00    -0.507 OA
ATOM     19  H   UNL     1      28.368  25.204  31.785  1.00  0.00     0.293 HD
ENDBRANCH   6  18
BRANCH  17  20
ATOM     20  O   UNL     1      30.441  24.996  27.654  1.00  0.00    -0.507 OA
ATOM     21  H   UNL     1      29.758  24.254  27.686  1.00  0.00     0.293 HD
ENDBRANCH  17  20
BRANCH  15  22
ATOM     22  O   UNL     1      35.168  25.067  26.884  1.00  0.00    -0.508 OA
ATOM     23  H   UNL     1      35.051  25.489  25.970  1.00  0.00     0.293 HD
ENDBRANCH  15  22
TORSDOF 3
ENDMDL
