MODEL 1
REMARK VINA RESULT:    -4.757      0.000      0.000
REMARK INTER + INTRA:          -6.715
REMARK INTER:                  -6.147
REMARK INTRA:                  -0.567
REMARK UNBOUND:                -0.567
REMARK SMILES CCO[C@@H]1O[C@H](CO)[C@@H](O)[C@H](O)[C@@H]1O
REMARK SMILES IDX 4 1 13 2 11 3 9 4 6 5 5 6 3 7 2 8 1 9 14 10 12 12 7 14 8 15
REMARK SMILES IDX 10 17
REMARK H PARENT 14 11 12 13 8 16 10 18
REMARK Flexibility Score: inf
ROOT
ATOM      1  C   UNL     1      22.604   1.928  37.940  1.00  0.00     0.281 C 
ATOM      2  C   UNL     1      21.334   2.757  38.295  1.00  0.00     0.202 C 
ATOM      3  C   UNL     1      21.394   4.121  37.597  1.00  0.00     0.179 C 
ATOM      4  C   UNL     1      22.659   4.885  38.038  1.00  0.00     0.177 C 
ATOM      5  C   UNL     1      23.900   3.944  38.061  1.00  0.00     0.178 C 
ATOM      6  O   UNL     1      23.671   2.702  37.401  1.00  0.00    -0.341 OA
ENDROOT
BRANCH   1   7
ATOM      7  O   UNL     1      23.077   1.185  39.053  1.00  0.00    -0.350 OA
BRANCH   7   8
ATOM      8  C   UNL     1      22.791  -0.192  38.902  1.00  0.00     0.160 C 
ATOM      9  C   UNL     1      21.911  -0.646  40.055  1.00  0.00     0.035 C 
ENDBRANCH   7   8
ENDBRANCH   1   7
BRANCH   2  10
ATOM     10  O   UNL     1      21.231   2.924  39.689  1.00  0.00    -0.385 OA
ATOM     11  H   UNL     1      21.855   2.276  40.110  1.00  0.00     0.211 HD
ENDBRANCH   2  10
BRANCH   3  12
ATOM     12  O   UNL     1      20.226   4.870  37.829  1.00  0.00    -0.387 OA
ATOM     13  H   UNL     1      19.448   4.325  37.543  1.00  0.00     0.211 HD
ENDBRANCH   3  12
BRANCH   5  14
ATOM     14  C   UNL     1      24.492   3.762  39.472  1.00  0.00     0.191 C 
BRANCH  14  15
ATOM     15  O   UNL     1      23.669   4.385  40.418  1.00  0.00    -0.394 OA
ATOM     16  H   UNL     1      23.041   4.956  39.904  1.00  0.00     0.210 HD
ENDBRANCH  14  15
ENDBRANCH   5  14
BRANCH   4  17
ATOM     17  O   UNL     1      22.894   5.951  37.151  1.00  0.00    -0.387 OA
ATOM     18  H   UNL     1      23.544   6.557  37.594  1.00  0.00     0.211 HD
ENDBRANCH   4  17
TORSDOF 7
ENDMDL
MODEL 2
REMARK VINA RESULT:    -4.676     14.435     16.556
REMARK INTER + INTRA:          -6.611
REMARK INTER:                  -6.037
REMARK INTRA:                  -0.574
REMARK UNBOUND:                -0.567
REMARK SMILES CCO[C@@H]1O[C@H](CO)[C@@H](O)[C@H](O)[C@@H]1O
REMARK SMILES IDX 4 1 13 2 11 3 9 4 6 5 5 6 3 7 2 8 1 9 14 10 12 12 7 14 8 15
REMARK SMILES IDX 10 17
REMARK H PARENT 14 11 12 13 8 16 10 18
REMARK Flexibility Score: inf
ROOT
ATOM      1  C   UNL     1      38.108   1.279  43.638  1.00  0.00     0.281 C 
ATOM      2  C   UNL     1      38.853   1.829  44.891  1.00  0.00     0.202 C 
ATOM      3  C   UNL     1      38.583   0.917  46.095  1.00  0.00     0.179 C 
ATOM      4  C   UNL     1      37.069   0.845  46.375  1.00  0.00     0.177 C 
ATOM      5  C   UNL     1      36.264   0.679  45.051  1.00  0.00     0.178 C 
ATOM      6  O   UNL     1      37.084   0.336  43.938  1.00  0.00    -0.341 OA
ENDROOT
BRANCH   1   7
ATOM      7  O   UNL     1      37.568   2.325  42.845  1.00  0.00    -0.350 OA
BRANCH   7   8
ATOM      8  C   UNL     1      37.300   1.877  41.531  1.00  0.00     0.160 C 
ATOM      9  C   UNL     1      35.924   2.367  41.109  1.00  0.00     0.035 C 
ENDBRANCH   7   8
ENDBRANCH   1   7
BRANCH   2  10
ATOM     10  O   UNL     1      38.438   3.144  45.170  1.00  0.00    -0.385 OA
ATOM     11  H   UNL     1      38.086   3.151  46.099  1.00  0.00     0.211 HD
ENDBRANCH   2  10
BRANCH   3  12
ATOM     12  O   UNL     1      39.303   1.335  47.228  1.00  0.00    -0.387 OA
ATOM     13  H   UNL     1      38.860   0.959  48.033  1.00  0.00     0.211 HD
ENDBRANCH   3  12
BRANCH   5  14
ATOM     14  C   UNL     1      35.339   1.876  44.755  1.00  0.00     0.191 C 
BRANCH  14  15
ATOM     15  O   UNL     1      35.760   2.995  45.484  1.00  0.00    -0.394 OA
ATOM     16  H   UNL     1      36.744   3.045  45.370  1.00  0.00     0.210 HD
ENDBRANCH  14  15
ENDBRANCH   5  14
BRANCH   4  17
ATOM     17  O   UNL     1      36.802  -0.243  47.226  1.00  0.00    -0.387 OA
ATOM     18  H   UNL     1      37.181  -1.050  46.790  1.00  0.00     0.211 HD
ENDBRANCH   4  17
TORSDOF 7
ENDMDL
MODEL 3
REMARK VINA RESULT:    -4.654      1.956      3.806
REMARK INTER + INTRA:          -6.582
REMARK INTER:                  -6.019
REMARK INTRA:                  -0.563
REMARK UNBOUND:                -0.567
REMARK SMILES CCO[C@@H]1O[C@H](CO)[C@@H](O)[C@H](O)[C@@H]1O
REMARK SMILES IDX 4 1 13 2 11 3 9 4 6 5 5 6 3 7 2 8 1 9 14 10 12 12 7 14 8 15
REMARK SMILES IDX 10 17
REMARK H PARENT 14 11 12 13 8 16 10 18
REMARK Flexibility Score: inf
ROOT
ATOM      1  C   UNL     1      21.981   3.187  36.806  1.00  0.00     0.281 C 
ATOM      2  C   UNL     1      22.581   4.623  36.878  1.00  0.00     0.202 C 
ATOM      3  C   UNL     1      23.553   4.720  38.061  1.00  0.00     0.179 C 
ATOM      4  C   UNL     1      22.819   4.391  39.376  1.00  0.00     0.177 C 
ATOM      5  C   UNL     1      21.892   3.150  39.204  1.00  0.00     0.178 C 
ATOM      6  O   UNL     1      22.143   2.429  38.001  1.00  0.00    -0.341 OA
ENDROOT
BRANCH   1   7
ATOM      7  O   UNL     1      20.610   3.205  36.442  1.00  0.00    -0.350 OA
BRANCH   7   8
ATOM      8  C   UNL     1      20.414   2.614  35.172  1.00  0.00     0.160 C 
ATOM      9  C   UNL     1      20.259   3.712  34.132  1.00  0.00     0.035 C 
ENDBRANCH   7   8
ENDBRANCH   1   7
BRANCH   2  10
ATOM     10  O   UNL     1      21.554   5.577  37.010  1.00  0.00    -0.385 OA
ATOM     11  H   UNL     1      21.895   6.431  36.636  1.00  0.00     0.211 HD
ENDBRANCH   2  10
BRANCH   3  12
ATOM     12  O   UNL     1      24.176   5.979  38.113  1.00  0.00    -0.387 OA
ATOM     13  H   UNL     1      23.469   6.673  38.170  1.00  0.00     0.211 HD
ENDBRANCH   3  12
BRANCH   5  14
ATOM     14  C   UNL     1      20.399   3.484  39.391  1.00  0.00     0.191 C 
BRANCH  14  15
ATOM     15  O   UNL     1      20.241   4.860  39.597  1.00  0.00    -0.394 OA
ATOM     16  H   UNL     1      20.226   4.992  40.580  1.00  0.00     0.210 HD
ENDBRANCH  14  15
ENDBRANCH   5  14
BRANCH   4  17
ATOM     17  O   UNL     1      23.764   4.134  40.387  1.00  0.00    -0.387 OA
ATOM     18  H   UNL     1      23.803   3.148  40.502  1.00  0.00     0.211 HD
ENDBRANCH   4  17
TORSDOF 7
ENDMDL
MODEL 4
REMARK VINA RESULT:    -4.603      1.745      4.685
REMARK INTER + INTRA:          -6.516
REMARK INTER:                  -5.993
REMARK INTRA:                  -0.523
REMARK UNBOUND:                -0.567
REMARK SMILES CCO[C@@H]1O[C@H](CO)[C@@H](O)[C@H](O)[C@@H]1O
REMARK SMILES IDX 4 1 13 2 11 3 9 4 6 5 5 6 3 7 2 8 1 9 14 10 12 12 7 14 8 15
REMARK SMILES IDX 10 17
REMARK H PARENT 14 11 12 13 8 16 10 18
REMARK Flexibility Score: inf
ROOT
ATOM      1  C   UNL     1      23.160   4.612  36.963  1.00  0.00     0.281 C 
ATOM      2  C   UNL     1      23.968   4.524  38.292  1.00  0.00     0.202 C 
ATOM      3  C   UNL     1      23.919   3.090  38.833  1.00  0.00     0.179 C 
ATOM      4  C   UNL     1      22.458   2.666  39.078  1.00  0.00     0.177 C 
ATOM      5  C   UNL     1      21.543   3.105  37.895  1.00  0.00     0.178 C 
ATOM      6  O   UNL     1      22.276   3.517  36.746  1.00  0.00    -0.341 OA
ENDROOT
BRANCH   1   7
ATOM      7  O   UNL     1      22.435   5.829  36.866  1.00  0.00    -0.350 OA
BRANCH   7   8
ATOM      8  C   UNL     1      22.257   6.206  35.515  1.00  0.00     0.160 C 
ATOM      9  C   UNL     1      22.333   7.720  35.407  1.00  0.00     0.035 C 
ENDBRANCH   7   8
ENDBRANCH   1   7
BRANCH   2  10
ATOM     10  O   UNL     1      23.448   5.423  39.242  1.00  0.00    -0.385 OA
ATOM     11  H   UNL     1      22.726   5.940  38.795  1.00  0.00     0.211 HD
ENDBRANCH   2  10
BRANCH   3  12
ATOM     12  O   UNL     1      24.704   2.950  39.992  1.00  0.00    -0.387 OA
ATOM     13  H   UNL     1      25.388   3.669  39.992  1.00  0.00     0.211 HD
ENDBRANCH   3  12
BRANCH   5  14
ATOM     14  C   UNL     1      20.472   4.132  38.311  1.00  0.00     0.191 C 
BRANCH  14  15
ATOM     15  O   UNL     1      20.729   4.588  39.611  1.00  0.00    -0.394 OA
ATOM     16  H   UNL     1      20.453   3.854  40.220  1.00  0.00     0.210 HD
ENDBRANCH  14  15
ENDBRANCH   5  14
BRANCH   4  17
ATOM     17  O   UNL     1      22.395   1.269  39.227  1.00  0.00    -0.387 OA
ATOM     18  H   UNL     1      23.308   0.919  39.057  1.00  0.00     0.211 HD
ENDBRANCH   4  17
TORSDOF 7
ENDMDL
MODEL 5
REMARK VINA RESULT:    -4.505     14.250     16.321
REMARK INTER + INTRA:          -6.389
REMARK INTER:                  -5.848
REMARK INTRA:                  -0.541
REMARK UNBOUND:                -0.567
REMARK SMILES CCO[C@@H]1O[C@H](CO)[C@@H](O)[C@H](O)[C@@H]1O
REMARK SMILES IDX 4 1 13 2 11 3 9 4 6 5 5 6 3 7 2 8 1 9 14 10 12 12 7 14 8 15
REMARK SMILES IDX 10 17
REMARK H PARENT 14 11 12 13 8 16 10 18
REMARK Flexibility Score: inf
ROOT
ATOM      1  C   UNL     1      36.162   2.469  44.581  1.00  0.00     0.281 C 
ATOM      2  C   UNL     1      35.968   1.087  45.274  1.00  0.00     0.202 C 
ATOM      3  C   UNL     1      36.975   0.939  46.422  1.00  0.00     0.179 C 
ATOM      4  C   UNL     1      38.414   1.059  45.883  1.00  0.00     0.177 C 
ATOM      5  C   UNL     1      38.533   2.231  44.863  1.00  0.00     0.178 C 
ATOM      6  O   UNL     1      37.404   3.099  44.877  1.00  0.00    -0.341 OA
ENDROOT
BRANCH   1   7
ATOM      7  O   UNL     1      36.004   2.380  43.173  1.00  0.00    -0.350 OA
BRANCH   7   8
ATOM      8  C   UNL     1      34.818   3.026  42.754  1.00  0.00     0.160 C 
ATOM      9  C   UNL     1      35.157   4.431  42.282  1.00  0.00     0.035 C 
ENDBRANCH   7   8
ENDBRANCH   1   7
BRANCH   2  10
ATOM     10  O   UNL     1      36.131   0.045  44.342  1.00  0.00    -0.385 OA
ATOM     11  H   UNL     1      36.009  -0.810  44.833  1.00  0.00     0.211 HD
ENDBRANCH   2  10
BRANCH   3  12
ATOM     12  O   UNL     1      36.780  -0.263  47.125  1.00  0.00    -0.387 OA
ATOM     13  H   UNL     1      36.959  -0.093  48.086  1.00  0.00     0.211 HD
ENDBRANCH   3  12
BRANCH   5  14
ATOM     14  C   UNL     1      38.895   1.758  43.442  1.00  0.00     0.191 C 
BRANCH  14  15
ATOM     15  O   UNL     1      38.914   0.358  43.396  1.00  0.00    -0.394 OA
ATOM     16  H   UNL     1      39.320   0.116  42.524  1.00  0.00     0.210 HD
ENDBRANCH  14  15
ENDBRANCH   5  14
BRANCH   4  17
ATOM     17  O   UNL     1      39.298   1.277  46.955  1.00  0.00    -0.387 OA
ATOM     18  H   UNL     1      39.821   0.441  47.073  1.00  0.00     0.211 HD
ENDBRANCH   4  17
TORSDOF 7
ENDMDL
MODEL 6
REMARK VINA RESULT:    -4.501      1.090      1.544
REMARK INTER + INTRA:          -6.385
REMARK INTER:                  -5.841
REMARK INTRA:                  -0.544
REMARK UNBOUND:                -0.567
REMARK SMILES CCO[C@@H]1O[C@H](CO)[C@@H](O)[C@H](O)[C@@H]1O
REMARK SMILES IDX 4 1 13 2 11 3 9 4 6 5 5 6 3 7 2 8 1 9 14 10 12 12 7 14 8 15
REMARK SMILES IDX 10 17
REMARK H PARENT 14 11 12 13 8 16 10 18
REMARK Flexibility Score: inf
ROOT
ATOM      1  C   UNL     1      21.655   2.766  37.946  1.00  0.00     0.281 C 
ATOM      2  C   UNL     1      21.024   4.153  37.622  1.00  0.00     0.202 C 
ATOM      3  C   UNL     1      22.013   4.992  36.802  1.00  0.00     0.179 C 
ATOM      4  C   UNL     1      23.325   5.183  37.588  1.00  0.00     0.177 C 
ATOM      5  C   UNL     1      23.772   3.849  38.259  1.00  0.00     0.178 C 
ATOM      6  O   UNL     1      23.067   2.714  37.769  1.00  0.00    -0.341 OA
ENDROOT
BRANCH   1   7
ATOM      7  O   UNL     1      21.328   2.332  39.257  1.00  0.00    -0.350 OA
BRANCH   7   8
ATOM      8  C   UNL     1      20.533   1.163  39.221  1.00  0.00     0.160 C 
ATOM      9  C   UNL     1      21.418  -0.048  39.470  1.00  0.00     0.035 C 
ENDBRANCH   7   8
ENDBRANCH   1   7
BRANCH   2  10
ATOM     10  O   UNL     1      20.681   4.825  38.810  1.00  0.00    -0.385 OA
ATOM     11  H   UNL     1      21.506   5.259  39.152  1.00  0.00     0.211 HD
ENDBRANCH   2  10
BRANCH   3  12
ATOM     12  O   UNL     1      21.450   6.223  36.420  1.00  0.00    -0.387 OA
ATOM     13  H   UNL     1      22.155   6.919  36.484  1.00  0.00     0.211 HD
ENDBRANCH   3  12
BRANCH   5  14
ATOM     14  C   UNL     1      23.778   3.921  39.798  1.00  0.00     0.191 C 
BRANCH  14  15
ATOM     15  O   UNL     1      23.267   5.156  40.219  1.00  0.00    -0.394 OA
ATOM     16  H   UNL     1      23.309   5.755  39.429  1.00  0.00     0.210 HD
ENDBRANCH  14  15
ENDBRANCH   5  14
BRANCH   4  17
ATOM     17  O   UNL     1      24.332   5.631  36.716  1.00  0.00    -0.387 OA
ATOM     18  H   UNL     1      25.113   5.876  37.278  1.00  0.00     0.211 HD
ENDBRANCH   4  17
TORSDOF 7
ENDMDL
MODEL 7
REMARK VINA RESULT:    -4.377     14.220     16.354
REMARK INTER + INTRA:          -6.224
REMARK INTER:                  -5.653
REMARK INTRA:                  -0.571
REMARK UNBOUND:                -0.567
REMARK SMILES CCO[C@@H]1O[C@H](CO)[C@@H](O)[C@H](O)[C@@H]1O
REMARK SMILES IDX 4 1 13 2 11 3 9 4 6 5 5 6 3 7 2 8 1 9 14 10 12 12 7 14 8 15
REMARK SMILES IDX 10 17
REMARK H PARENT 14 11 12 13 8 16 10 18
REMARK Flexibility Score: inf
ROOT
ATOM      1  C   UNL     1      37.121   2.573  42.935  1.00  0.00     0.281 C 
ATOM      2  C   UNL     1      38.033   3.496  43.795  1.00  0.00     0.202 C 
ATOM      3  C   UNL     1      39.198   2.681  44.371  1.00  0.00     0.179 C 
ATOM      4  C   UNL     1      38.658   1.525  45.236  1.00  0.00     0.177 C 
ATOM      5  C   UNL     1      37.457   0.819  44.537  1.00  0.00     0.178 C 
ATOM      6  O   UNL     1      37.317   1.181  43.167  1.00  0.00    -0.341 OA
ENDROOT
BRANCH   1   7
ATOM      7  O   UNL     1      35.746   2.888  43.099  1.00  0.00    -0.350 OA
BRANCH   7   8
ATOM      8  C   UNL     1      35.194   3.390  41.899  1.00  0.00     0.160 C 
ATOM      9  C   UNL     1      35.010   4.894  42.027  1.00  0.00     0.035 C 
ENDBRANCH   7   8
ENDBRANCH   1   7
BRANCH   2  10
ATOM     10  O   UNL     1      37.291   4.090  44.833  1.00  0.00    -0.385 OA
ATOM     11  H   UNL     1      37.941   4.450  45.492  1.00  0.00     0.211 HD
ENDBRANCH   2  10
BRANCH   3  12
ATOM     12  O   UNL     1      40.090   3.496  45.090  1.00  0.00    -0.387 OA
ATOM     13  H   UNL     1      39.567   4.216  45.530  1.00  0.00     0.211 HD
ENDBRANCH   3  12
BRANCH   5  14
ATOM     14  C   UNL     1      36.138   0.957  45.321  1.00  0.00     0.191 C 
BRANCH  14  15
ATOM     15  O   UNL     1      36.331   1.781  46.437  1.00  0.00    -0.394 OA
ATOM     16  H   UNL     1      36.414   2.705  46.086  1.00  0.00     0.210 HD
ENDBRANCH  14  15
ENDBRANCH   5  14
BRANCH   4  17
ATOM     17  O   UNL     1      39.685   0.591  45.463  1.00  0.00    -0.387 OA
ATOM     18  H   UNL     1      39.252  -0.241  45.789  1.00  0.00     0.211 HD
ENDBRANCH   4  17
TORSDOF 7
ENDMDL
MODEL 8
REMARK VINA RESULT:    -4.330     13.776     15.656
REMARK INTER + INTRA:          -6.163
REMARK INTER:                  -5.648
REMARK INTRA:                  -0.514
REMARK UNBOUND:                -0.567
REMARK SMILES CCO[C@@H]1O[C@H](CO)[C@@H](O)[C@H](O)[C@@H]1O
REMARK SMILES IDX 4 1 13 2 11 3 9 4 6 5 5 6 3 7 2 8 1 9 14 10 12 12 7 14 8 15
REMARK SMILES IDX 10 17
REMARK H PARENT 14 11 12 13 8 16 10 18
REMARK Flexibility Score: inf
ROOT
ATOM      1  C   UNL     1      35.684   1.230  43.706  1.00  0.00     0.281 C 
ATOM      2  C   UNL     1      36.464   2.199  44.643  1.00  0.00     0.202 C 
ATOM      3  C   UNL     1      37.967   1.902  44.559  1.00  0.00     0.179 C 
ATOM      4  C   UNL     1      38.241   0.442  44.969  1.00  0.00     0.177 C 
ATOM      5  C   UNL     1      37.199  -0.523  44.327  1.00  0.00     0.178 C 
ATOM      6  O   UNL     1      36.433   0.090  43.296  1.00  0.00    -0.341 OA
ENDROOT
BRANCH   1   7
ATOM      7  O   UNL     1      34.460   0.807  44.286  1.00  0.00    -0.350 OA
BRANCH   7   8
ATOM      8  C   UNL     1      33.557   0.359  43.294  1.00  0.00     0.160 C 
ATOM      9  C   UNL     1      32.273   1.166  43.389  1.00  0.00     0.035 C 
ENDBRANCH   7   8
ENDBRANCH   1   7
BRANCH   2  10
ATOM     10  O   UNL     1      36.012   2.067  45.969  1.00  0.00    -0.385 OA
ATOM     11  H   UNL     1      35.376   1.305  45.990  1.00  0.00     0.211 HD
ENDBRANCH   2  10
BRANCH   3  12
ATOM     12  O   UNL     1      38.714   2.809  45.332  1.00  0.00    -0.387 OA
ATOM     13  H   UNL     1      39.075   3.508  44.727  1.00  0.00     0.211 HD
ENDBRANCH   3  12
BRANCH   5  14
ATOM     14  C   UNL     1      36.319  -1.239  45.371  1.00  0.00     0.191 C 
BRANCH  14  15
ATOM     15  O   UNL     1      36.715  -0.868  46.662  1.00  0.00    -0.394 OA
ATOM     16  H   UNL     1      37.583  -1.319  46.825  1.00  0.00     0.210 HD
ENDBRANCH  14  15
ENDBRANCH   5  14
BRANCH   4  17
ATOM     17  O   UNL     1      39.536   0.076  44.558  1.00  0.00    -0.387 OA
ATOM     18  H   UNL     1      39.454  -0.292  43.639  1.00  0.00     0.211 HD
ENDBRANCH   4  17
TORSDOF 7
ENDMDL
MODEL 9
REMARK VINA RESULT:    -4.288     15.103     16.095
REMARK INTER + INTRA:          -6.109
REMARK INTER:                  -5.590
REMARK INTRA:                  -0.519
REMARK UNBOUND:                -0.567
REMARK SMILES CCO[C@@H]1O[C@H](CO)[C@@H](O)[C@H](O)[C@@H]1O
REMARK SMILES IDX 4 1 13 2 11 3 9 4 6 5 5 6 3 7 2 8 1 9 14 10 12 12 7 14 8 15
REMARK SMILES IDX 10 17
REMARK H PARENT 14 11 12 13 8 16 10 18
REMARK Flexibility Score: inf
ROOT
ATOM      1  C   UNL     1      36.514   0.721  44.178  1.00  0.00     0.281 C 
ATOM      2  C   UNL     1      35.996   1.905  45.048  1.00  0.00     0.202 C 
ATOM      3  C   UNL     1      36.551   3.228  44.505  1.00  0.00     0.179 C 
ATOM      4  C   UNL     1      38.092   3.201  44.521  1.00  0.00     0.177 C 
ATOM      5  C   UNL     1      38.632   1.835  44.000  1.00  0.00     0.178 C 
ATOM      6  O   UNL     1      37.633   1.048  43.359  1.00  0.00    -0.341 OA
ENDROOT
BRANCH   1   7
ATOM      7  O   UNL     1      36.825  -0.418  44.967  1.00  0.00    -0.350 OA
BRANCH   7   8
ATOM      8  C   UNL     1      36.674  -1.608  44.220  1.00  0.00     0.160 C 
ATOM      9  C   UNL     1      35.618  -2.480  44.881  1.00  0.00     0.035 C 
ENDBRANCH   7   8
ENDBRANCH   1   7
BRANCH   2  10
ATOM     10  O   UNL     1      36.377   1.728  46.392  1.00  0.00    -0.385 OA
ATOM     11  H   UNL     1      35.974   0.875  46.703  1.00  0.00     0.211 HD
ENDBRANCH   2  10
BRANCH   3  12
ATOM     12  O   UNL     1      36.042   4.329  45.216  1.00  0.00    -0.387 OA
ATOM     13  H   UNL     1      35.938   4.063  46.167  1.00  0.00     0.211 HD
ENDBRANCH   3  12
BRANCH   5  14
ATOM     14  C   UNL     1      39.407   1.046  45.073  1.00  0.00     0.191 C 
BRANCH  14  15
ATOM     15  O   UNL     1      39.129   1.569  46.343  1.00  0.00    -0.394 OA
ATOM     16  H   UNL     1      38.574   2.377  46.193  1.00  0.00     0.210 HD
ENDBRANCH  14  15
ENDBRANCH   5  14
BRANCH   4  17
ATOM     17  O   UNL     1      38.586   4.240  43.711  1.00  0.00    -0.387 OA
ATOM     18  H   UNL     1      39.562   4.300  43.883  1.00  0.00     0.211 HD
ENDBRANCH   4  17
TORSDOF 7
ENDMDL
