MODEL 1
REMARK VINA RESULT:    -4.545      0.000      0.000
REMARK INTER + INTRA:         -14.712
REMARK INTER:                 -11.454
REMARK INTRA:                  -3.258
REMARK UNBOUND:                -3.258
REMARK SMILES CCCCCCCCCCCCCCCCCCCCCCCCCCCC(=O)[O-]
REMARK SMILES IDX 15 1 16 2 17 3 18 4 19 5 20 6 21 7 22 8 23 9 24 10 25 11
REMARK SMILES IDX 26 12 27 13 28 14 29 15 30 16 14 17 13 18 12 19 11 20 10 21
REMARK SMILES IDX 9 22 8 23 7 24 6 25 5 26 4 27 3 28 2 29 1 30
REMARK H PARENT
REMARK Flexibility Score: inf
ROOT
ATOM      1  C   UNL     1      87.560 123.068 129.733  1.00  0.00     0.000 C 
ENDROOT
BRANCH   1   2
ATOM      2  C   UNL     1      88.418 121.824 130.049  1.00  0.00     0.000 C 
BRANCH   2   3
ATOM      3  C   UNL     1      88.066 121.099 131.360  1.00  0.00     0.000 C 
BRANCH   3   4
ATOM      4  C   UNL     1      86.708 120.386 131.295  1.00  0.00     0.000 C 
BRANCH   4   5
ATOM      5  C   UNL     1      86.625 119.460 130.074  1.00  0.00     0.000 C 
BRANCH   5   6
ATOM      6  C   UNL     1      85.181 119.235 129.585  1.00  0.00     0.000 C 
BRANCH   6   7
ATOM      7  C   UNL     1      84.714 120.185 128.467  1.00  0.00     0.000 C 
BRANCH   7   8
ATOM      8  C   UNL     1      84.136 121.504 128.999  1.00  0.00     0.000 C 
BRANCH   8   9
ATOM      9  C   UNL     1      84.513 122.674 128.077  1.00  0.00     0.000 C 
BRANCH   9  10
ATOM     10  C   UNL     1      83.515 122.871 126.922  1.00  0.00     0.000 C 
BRANCH  10  11
ATOM     11  C   UNL     1      83.910 123.964 125.911  1.00  0.00     0.000 C 
BRANCH  11  12
ATOM     12  C   UNL     1      84.174 123.404 124.502  1.00  0.00     0.006 C 
BRANCH  12  13
ATOM     13  C   UNL     1      84.165 121.870 124.474  1.00  0.00     0.053 C 
BRANCH  13  14
ATOM     14  C   UNL     1      83.111 121.334 123.553  1.00  0.00     0.041 C 
ATOM     15  O   UNL     1      82.291 120.472 123.963  1.00  0.00    -0.550 OA
ATOM     16  O   UNL     1      83.017 121.807 122.249  1.00  0.00    -0.550 OA
ENDBRANCH  13  14
ENDBRANCH  12  13
ENDBRANCH  11  12
ENDBRANCH  10  11
ENDBRANCH   9  10
ENDBRANCH   8   9
ENDBRANCH   7   8
ENDBRANCH   6   7
ENDBRANCH   5   6
ENDBRANCH   4   5
ENDBRANCH   3   4
ENDBRANCH   2   3
ENDBRANCH   1   2
BRANCH   1  17
ATOM     17  C   UNL     1      87.350 124.034 130.913  1.00  0.00     0.000 C 
BRANCH  17  18
ATOM     18  C   UNL     1      86.161 124.981 130.699  1.00  0.00     0.000 C 
BRANCH  18  19
ATOM     19  C   UNL     1      86.224 125.638 129.311  1.00  0.00     0.000 C 
BRANCH  19  20
ATOM     20  C   UNL     1      84.826 125.923 128.723  1.00  0.00     0.000 C 
BRANCH  20  21
ATOM     21  C   UNL     1      83.776 126.357 129.767  1.00  0.00     0.000 C 
BRANCH  21  22
ATOM     22  C   UNL     1      82.678 125.321 130.068  1.00  0.00    -0.000 C 
BRANCH  22  23
ATOM     23  C   UNL     1      82.267 125.214 131.550  1.00  0.00    -0.000 C 
BRANCH  23  24
ATOM     24  C   UNL     1      83.029 126.181 132.481  1.00  0.00    -0.000 C 
BRANCH  24  25
ATOM     25  C   UNL     1      82.118 127.276 133.064  1.00  0.00    -0.000 C 
BRANCH  25  26
ATOM     26  C   UNL     1      82.535 128.690 132.630  1.00  0.00    -0.000 C 
BRANCH  26  27
ATOM     27  C   UNL     1      82.175 128.989 131.163  1.00  0.00    -0.000 C 
BRANCH  27  28
ATOM     28  C   UNL     1      81.922 130.493 130.919  1.00  0.00    -0.000 C 
BRANCH  28  29
ATOM     29  C   UNL     1      82.711 131.407 131.874  1.00  0.00    -0.003 C 
ATOM     30  C   UNL     1      83.166 132.710 131.216  1.00  0.00     0.004 C 
ENDBRANCH  28  29
ENDBRANCH  27  28
ENDBRANCH  26  27
ENDBRANCH  25  26
ENDBRANCH  24  25
ENDBRANCH  23  24
ENDBRANCH  22  23
ENDBRANCH  21  22
ENDBRANCH  20  21
ENDBRANCH  19  20
ENDBRANCH  18  19
ENDBRANCH  17  18
ENDBRANCH   1  17
TORSDOF 26
ENDMDL
MODEL 2
REMARK VINA RESULT:    -4.287      2.910      5.195
REMARK INTER + INTRA:         -14.060
REMARK INTER:                 -10.439
REMARK INTRA:                  -3.621
REMARK UNBOUND:                -3.258
REMARK SMILES CCCCCCCCCCCCCCCCCCCCCCCCCCCC(=O)[O-]
REMARK SMILES IDX 15 1 16 2 17 3 18 4 19 5 20 6 21 7 22 8 23 9 24 10 25 11
REMARK SMILES IDX 26 12 27 13 28 14 29 15 30 16 14 17 13 18 12 19 11 20 10 21
REMARK SMILES IDX 9 22 8 23 7 24 6 25 5 26 4 27 3 28 2 29 1 30
REMARK H PARENT
REMARK Flexibility Score: inf
ROOT
ATOM      1  C   UNL     1      83.829 123.572 129.689  1.00  0.00     0.000 C 
ENDROOT
BRANCH   1   2
ATOM      2  C   UNL     1      83.275 124.546 128.627  1.00  0.00     0.000 C 
BRANCH   2   3
ATOM      3  C   UNL     1      82.083 124.017 127.809  1.00  0.00     0.000 C 
BRANCH   3   4
ATOM      4  C   UNL     1      82.387 123.931 126.307  1.00  0.00     0.000 C 
BRANCH   4   5
ATOM      5  C   UNL     1      83.871 124.201 126.026  1.00  0.00     0.000 C 
BRANCH   5   6
ATOM      6  C   UNL     1      84.631 122.948 125.550  1.00  0.00     0.000 C 
BRANCH   6   7
ATOM      7  C   UNL     1      83.740 121.766 125.123  1.00  0.00     0.000 C 
BRANCH   7   8
ATOM      8  C   UNL     1      83.658 120.661 126.185  1.00  0.00     0.000 C 
BRANCH   8   9
ATOM      9  C   UNL     1      84.981 120.549 126.958  1.00  0.00     0.000 C 
BRANCH   9  10
ATOM     10  C   UNL     1      84.777 120.410 128.477  1.00  0.00     0.000 C 
BRANCH  10  11
ATOM     11  C   UNL     1      85.715 119.399 129.162  1.00  0.00     0.000 C 
BRANCH  11  12
ATOM     12  C   UNL     1      86.817 120.079 129.994  1.00  0.00     0.006 C 
BRANCH  12  13
ATOM     13  C   UNL     1      87.121 121.502 129.506  1.00  0.00     0.053 C 
BRANCH  13  14
ATOM     14  C   UNL     1      88.283 122.106 130.236  1.00  0.00     0.041 C 
ATOM     15  O   UNL     1      88.488 123.347 130.180  1.00  0.00    -0.550 OA
ATOM     16  O   UNL     1      89.123 121.303 130.998  1.00  0.00    -0.550 OA
ENDBRANCH  13  14
ENDBRANCH  12  13
ENDBRANCH  11  12
ENDBRANCH  10  11
ENDBRANCH   9  10
ENDBRANCH   8   9
ENDBRANCH   7   8
ENDBRANCH   6   7
ENDBRANCH   5   6
ENDBRANCH   4   5
ENDBRANCH   3   4
ENDBRANCH   2   3
ENDBRANCH   1   2
BRANCH   1  17
ATOM     17  C   UNL     1      82.769 122.714 130.404  1.00  0.00     0.000 C 
BRANCH  17  18
ATOM     18  C   UNL     1      83.368 121.834 131.510  1.00  0.00     0.000 C 
BRANCH  18  19
ATOM     19  C   UNL     1      83.978 122.694 132.628  1.00  0.00     0.000 C 
BRANCH  19  20
ATOM     20  C   UNL     1      85.519 122.622 132.661  1.00  0.00     0.000 C 
BRANCH  20  21
ATOM     21  C   UNL     1      86.207 123.951 133.033  1.00  0.00     0.000 C 
BRANCH  21  22
ATOM     22  C   UNL     1      85.707 125.190 132.268  1.00  0.00    -0.000 C 
BRANCH  22  23
ATOM     23  C   UNL     1      84.659 126.041 133.014  1.00  0.00    -0.000 C 
BRANCH  23  24
ATOM     24  C   UNL     1      83.404 126.363 132.173  1.00  0.00    -0.000 C 
BRANCH  24  25
ATOM     25  C   UNL     1      82.393 127.235 132.938  1.00  0.00    -0.000 C 
BRANCH  25  26
ATOM     26  C   UNL     1      82.593 128.738 132.685  1.00  0.00    -0.000 C 
BRANCH  26  27
ATOM     27  C   UNL     1      82.071 129.180 131.305  1.00  0.00    -0.000 C 
BRANCH  27  28
ATOM     28  C   UNL     1      82.922 130.317 130.697  1.00  0.00    -0.000 C 
BRANCH  28  29
ATOM     29  C   UNL     1      82.583 131.705 131.268  1.00  0.00    -0.003 C 
ATOM     30  C   UNL     1      83.493 132.114 132.427  1.00  0.00     0.004 C 
ENDBRANCH  28  29
ENDBRANCH  27  28
ENDBRANCH  26  27
ENDBRANCH  25  26
ENDBRANCH  24  25
ENDBRANCH  23  24
ENDBRANCH  22  23
ENDBRANCH  21  22
ENDBRANCH  20  21
ENDBRANCH  19  20
ENDBRANCH  18  19
ENDBRANCH  17  18
ENDBRANCH   1  17
TORSDOF 26
ENDMDL
MODEL 3
REMARK VINA RESULT:    -4.012      3.968      8.136
REMARK INTER + INTRA:         -13.368
REMARK INTER:                  -9.512
REMARK INTRA:                  -3.856
REMARK UNBOUND:                -3.258
REMARK SMILES CCCCCCCCCCCCCCCCCCCCCCCCCCCC(=O)[O-]
REMARK SMILES IDX 15 1 16 2 17 3 18 4 19 5 20 6 21 7 22 8 23 9 24 10 25 11
REMARK SMILES IDX 26 12 27 13 28 14 29 15 30 16 14 17 13 18 12 19 11 20 10 21
REMARK SMILES IDX 9 22 8 23 7 24 6 25 5 26 4 27 3 28 2 29 1 30
REMARK H PARENT
REMARK Flexibility Score: inf
ROOT
ATOM      1  C   UNL     1      82.363 122.783 128.951  1.00  0.00     0.000 C 
ENDROOT
BRANCH   1   2
ATOM      2  C   UNL     1      81.876 123.368 127.608  1.00  0.00     0.000 C 
BRANCH   2   3
ATOM      3  C   UNL     1      82.976 123.979 126.721  1.00  0.00     0.000 C 
BRANCH   3   4
ATOM      4  C   UNL     1      84.385 123.755 127.287  1.00  0.00     0.000 C 
BRANCH   4   5
ATOM      5  C   UNL     1      85.018 125.077 127.740  1.00  0.00     0.000 C 
BRANCH   5   6
ATOM      6  C   UNL     1      84.839 125.345 129.246  1.00  0.00     0.000 C 
BRANCH   6   7
ATOM      7  C   UNL     1      83.590 126.164 129.621  1.00  0.00     0.000 C 
BRANCH   7   8
ATOM      8  C   UNL     1      83.619 126.679 131.067  1.00  0.00     0.000 C 
BRANCH   8   9
ATOM      9  C   UNL     1      82.199 127.001 131.558  1.00  0.00     0.000 C 
BRANCH   9  10
ATOM     10  C   UNL     1      82.187 127.908 132.802  1.00  0.00     0.000 C 
BRANCH  10  11
ATOM     11  C   UNL     1      82.217 129.417 132.499  1.00  0.00     0.000 C 
BRANCH  11  12
ATOM     12  C   UNL     1      82.050 129.727 131.000  1.00  0.00     0.006 C 
BRANCH  12  13
ATOM     13  C   UNL     1      82.951 130.881 130.541  1.00  0.00     0.053 C 
BRANCH  13  14
ATOM     14  C   UNL     1      83.475 131.675 131.698  1.00  0.00     0.041 C 
ATOM     15  O   UNL     1      82.757 132.558 132.236  1.00  0.00    -0.550 OA
ATOM     16  O   UNL     1      84.746 131.422 132.200  1.00  0.00    -0.550 OA
ENDBRANCH  13  14
ENDBRANCH  12  13
ENDBRANCH  11  12
ENDBRANCH  10  11
ENDBRANCH   9  10
ENDBRANCH   8   9
ENDBRANCH   7   8
ENDBRANCH   6   7
ENDBRANCH   5   6
ENDBRANCH   4   5
ENDBRANCH   3   4
ENDBRANCH   2   3
ENDBRANCH   1   2
BRANCH   1  17
ATOM     17  C   UNL     1      82.103 121.277 129.142  1.00  0.00     0.000 C 
BRANCH  17  18
ATOM     18  C   UNL     1      82.998 120.405 128.252  1.00  0.00     0.000 C 
BRANCH  18  19
ATOM     19  C   UNL     1      84.121 119.752 129.073  1.00  0.00     0.000 C 
BRANCH  19  20
ATOM     20  C   UNL     1      85.215 120.758 129.491  1.00  0.00     0.000 C 
BRANCH  20  21
ATOM     21  C   UNL     1      86.009 120.346 130.747  1.00  0.00     0.000 C 
BRANCH  21  22
ATOM     22  C   UNL     1      85.687 121.145 132.023  1.00  0.00    -0.000 C 
BRANCH  22  23
ATOM     23  C   UNL     1      84.353 121.918 131.994  1.00  0.00    -0.000 C 
BRANCH  23  24
ATOM     24  C   UNL     1      84.518 123.451 132.068  1.00  0.00    -0.000 C 
BRANCH  24  25
ATOM     25  C   UNL     1      85.644 123.875 133.029  1.00  0.00    -0.000 C 
BRANCH  25  26
ATOM     26  C   UNL     1      86.674 124.804 132.367  1.00  0.00    -0.000 C 
BRANCH  26  27
ATOM     27  C   UNL     1      87.948 124.057 131.929  1.00  0.00    -0.000 C 
BRANCH  27  28
ATOM     28  C   UNL     1      88.021 123.878 130.397  1.00  0.00    -0.000 C 
BRANCH  28  29
ATOM     29  C   UNL     1      88.421 122.456 129.966  1.00  0.00    -0.003 C 
ATOM     30  C   UNL     1      89.192 121.698 131.047  1.00  0.00     0.004 C 
ENDBRANCH  28  29
ENDBRANCH  27  28
ENDBRANCH  26  27
ENDBRANCH  25  26
ENDBRANCH  24  25
ENDBRANCH  23  24
ENDBRANCH  22  23
ENDBRANCH  21  22
ENDBRANCH  20  21
ENDBRANCH  19  20
ENDBRANCH  18  19
ENDBRANCH  17  18
ENDBRANCH   1  17
TORSDOF 26
ENDMDL
MODEL 4
REMARK VINA RESULT:    -3.810      2.939      5.988
REMARK INTER + INTRA:         -12.860
REMARK INTER:                  -8.814
REMARK INTRA:                  -4.046
REMARK UNBOUND:                -3.258
REMARK SMILES CCCCCCCCCCCCCCCCCCCCCCCCCCCC(=O)[O-]
REMARK SMILES IDX 15 1 16 2 17 3 18 4 19 5 20 6 21 7 22 8 23 9 24 10 25 11
REMARK SMILES IDX 26 12 27 13 28 14 29 15 30 16 14 17 13 18 12 19 11 20 10 21
REMARK SMILES IDX 9 22 8 23 7 24 6 25 5 26 4 27 3 28 2 29 1 30
REMARK H PARENT
REMARK Flexibility Score: inf
ROOT
ATOM      1  C   UNL     1      84.657 124.067 126.111  1.00  0.00     0.000 C 
ENDROOT
BRANCH   1   2
ATOM      2  C   UNL     1      84.710 122.891 125.111  1.00  0.00     0.000 C 
BRANCH   2   3
ATOM      3  C   UNL     1      83.911 123.098 123.812  1.00  0.00     0.000 C 
BRANCH   3   4
ATOM      4  C   UNL     1      82.653 122.221 123.746  1.00  0.00     0.000 C 
BRANCH   4   5
ATOM      5  C   UNL     1      82.956 120.863 123.098  1.00  0.00     0.000 C 
BRANCH   5   6
ATOM      6  C   UNL     1      82.691 119.674 124.041  1.00  0.00     0.000 C 
BRANCH   6   7
ATOM      7  C   UNL     1      81.880 120.011 125.306  1.00  0.00     0.000 C 
BRANCH   7   8
ATOM      8  C   UNL     1      82.079 118.993 126.438  1.00  0.00     0.000 C 
BRANCH   8   9
ATOM      9  C   UNL     1      83.565 118.877 126.809  1.00  0.00     0.000 C 
BRANCH   9  10
ATOM     10  C   UNL     1      84.309 120.223 126.731  1.00  0.00     0.000 C 
BRANCH  10  11
ATOM     11  C   UNL     1      84.771 120.783 128.088  1.00  0.00     0.000 C 
BRANCH  11  12
ATOM     12  C   UNL     1      85.159 119.678 129.087  1.00  0.00     0.006 C 
BRANCH  12  13
ATOM     13  C   UNL     1      86.191 120.159 130.116  1.00  0.00     0.053 C 
BRANCH  13  14
ATOM     14  C   UNL     1      87.586 120.113 129.571  1.00  0.00     0.041 C 
ATOM     15  O   UNL     1      87.870 119.330 128.626  1.00  0.00    -0.550 OA
ATOM     16  O   UNL     1      88.566 120.951 130.088  1.00  0.00    -0.550 OA
ENDBRANCH  13  14
ENDBRANCH  12  13
ENDBRANCH  11  12
ENDBRANCH  10  11
ENDBRANCH   9  10
ENDBRANCH   8   9
ENDBRANCH   7   8
ENDBRANCH   6   7
ENDBRANCH   5   6
ENDBRANCH   4   5
ENDBRANCH   3   4
ENDBRANCH   2   3
ENDBRANCH   1   2
BRANCH   1  17
ATOM     17  C   UNL     1      83.248 124.438 126.609  1.00  0.00     0.000 C 
BRANCH  17  18
ATOM     18  C   UNL     1      82.357 123.209 126.836  1.00  0.00     0.000 C 
BRANCH  18  19
ATOM     19  C   UNL     1      81.922 123.108 128.306  1.00  0.00     0.000 C 
BRANCH  19  20
ATOM     20  C   UNL     1      82.081 124.442 129.066  1.00  0.00     0.000 C 
BRANCH  20  21
ATOM     21  C   UNL     1      82.452 124.283 130.555  1.00  0.00     0.000 C 
BRANCH  21  22
ATOM     22  C   UNL     1      82.104 125.484 131.454  1.00  0.00    -0.000 C 
BRANCH  22  23
ATOM     23  C   UNL     1      83.263 126.468 131.711  1.00  0.00    -0.000 C 
BRANCH  23  24
ATOM     24  C   UNL     1      84.001 126.227 133.046  1.00  0.00    -0.000 C 
BRANCH  24  25
ATOM     25  C   UNL     1      85.421 125.669 132.840  1.00  0.00    -0.000 C 
BRANCH  25  26
ATOM     26  C   UNL     1      85.493 124.145 133.019  1.00  0.00    -0.000 C 
BRANCH  26  27
ATOM     27  C   UNL     1      85.529 123.392 131.675  1.00  0.00    -0.000 C 
BRANCH  27  28
ATOM     28  C   UNL     1      86.700 123.852 130.781  1.00  0.00    -0.000 C 
BRANCH  28  29
ATOM     29  C   UNL     1      86.277 124.169 129.335  1.00  0.00    -0.003 C 
ATOM     30  C   UNL     1      85.768 125.599 129.161  1.00  0.00     0.004 C 
ENDBRANCH  28  29
ENDBRANCH  27  28
ENDBRANCH  26  27
ENDBRANCH  25  26
ENDBRANCH  24  25
ENDBRANCH  23  24
ENDBRANCH  22  23
ENDBRANCH  21  22
ENDBRANCH  20  21
ENDBRANCH  19  20
ENDBRANCH  18  19
ENDBRANCH  17  18
ENDBRANCH   1  17
TORSDOF 26
ENDMDL
MODEL 5
REMARK VINA RESULT:    -3.760      2.576      3.968
REMARK INTER + INTRA:         -12.733
REMARK INTER:                  -8.394
REMARK INTRA:                  -4.339
REMARK UNBOUND:                -3.258
REMARK SMILES CCCCCCCCCCCCCCCCCCCCCCCCCCCC(=O)[O-]
REMARK SMILES IDX 15 1 16 2 17 3 18 4 19 5 20 6 21 7 22 8 23 9 24 10 25 11
REMARK SMILES IDX 26 12 27 13 28 14 29 15 30 16 14 17 13 18 12 19 11 20 10 21
REMARK SMILES IDX 9 22 8 23 7 24 6 25 5 26 4 27 3 28 2 29 1 30
REMARK H PARENT
REMARK Flexibility Score: inf
ROOT
ATOM      1  C   UNL     1      86.862 122.027 129.130  1.00  0.00     0.000 C 
ENDROOT
BRANCH   1   2
ATOM      2  C   UNL     1      86.964 120.523 128.797  1.00  0.00     0.000 C 
BRANCH   2   3
ATOM      3  C   UNL     1      86.545 119.570 129.931  1.00  0.00     0.000 C 
BRANCH   3   4
ATOM      4  C   UNL     1      85.066 119.167 129.850  1.00  0.00     0.000 C 
BRANCH   4   5
ATOM      5  C   UNL     1      84.154 120.305 130.329  1.00  0.00     0.000 C 
BRANCH   5   6
ATOM      6  C   UNL     1      82.827 120.380 129.550  1.00  0.00     0.000 C 
BRANCH   6   7
ATOM      7  C   UNL     1      82.460 119.111 128.759  1.00  0.00     0.000 C 
BRANCH   7   8
ATOM      8  C   UNL     1      82.187 119.386 127.273  1.00  0.00     0.000 C 
BRANCH   8   9
ATOM      9  C   UNL     1      83.484 119.293 126.456  1.00  0.00     0.000 C 
BRANCH   9  10
ATOM     10  C   UNL     1      84.215 120.643 126.337  1.00  0.00     0.000 C 
BRANCH  10  11
ATOM     11  C   UNL     1      83.800 121.495 125.124  1.00  0.00     0.000 C 
BRANCH  11  12
ATOM     12  C   UNL     1      82.911 120.724 124.131  1.00  0.00     0.006 C 
BRANCH  12  13
ATOM     13  C   UNL     1      82.626 121.530 122.857  1.00  0.00     0.053 C 
BRANCH  13  14
ATOM     14  C   UNL     1      82.961 120.755 121.619  1.00  0.00     0.041 C 
ATOM     15  O   UNL     1      82.911 119.497 121.628  1.00  0.00    -0.550 OA
ATOM     16  O   UNL     1      83.303 121.422 120.449  1.00  0.00    -0.550 OA
ENDBRANCH  13  14
ENDBRANCH  12  13
ENDBRANCH  11  12
ENDBRANCH  10  11
ENDBRANCH   9  10
ENDBRANCH   8   9
ENDBRANCH   7   8
ENDBRANCH   6   7
ENDBRANCH   5   6
ENDBRANCH   4   5
ENDBRANCH   3   4
ENDBRANCH   2   3
ENDBRANCH   1   2
BRANCH   1  17
ATOM     17  C   UNL     1      88.119 122.641 129.773  1.00  0.00     0.000 C 
BRANCH  17  18
ATOM     18  C   UNL     1      87.800 123.470 131.025  1.00  0.00     0.000 C 
BRANCH  18  19
ATOM     19  C   UNL     1      87.100 122.611 132.089  1.00  0.00     0.000 C 
BRANCH  19  20
ATOM     20  C   UNL     1      86.058 123.406 132.904  1.00  0.00     0.000 C 
BRANCH  20  21
ATOM     21  C   UNL     1      84.973 124.092 132.048  1.00  0.00     0.000 C 
BRANCH  21  22
ATOM     22  C   UNL     1      83.546 123.542 132.227  1.00  0.00    -0.000 C 
BRANCH  22  23
ATOM     23  C   UNL     1      82.416 124.558 131.969  1.00  0.00    -0.000 C 
BRANCH  23  24
ATOM     24  C   UNL     1      82.705 125.534 130.807  1.00  0.00    -0.000 C 
BRANCH  24  25
ATOM     25  C   UNL     1      81.879 125.210 129.549  1.00  0.00    -0.000 C 
BRANCH  25  26
ATOM     26  C   UNL     1      81.918 123.719 129.179  1.00  0.00    -0.000 C 
BRANCH  26  27
ATOM     27  C   UNL     1      82.219 123.488 127.686  1.00  0.00    -0.000 C 
BRANCH  27  28
ATOM     28  C   UNL     1      83.243 124.503 127.133  1.00  0.00    -0.000 C 
BRANCH  28  29
ATOM     29  C   UNL     1      84.686 124.225 127.592  1.00  0.00    -0.003 C 
ATOM     30  C   UNL     1      85.368 125.450 128.201  1.00  0.00     0.004 C 
ENDBRANCH  28  29
ENDBRANCH  27  28
ENDBRANCH  26  27
ENDBRANCH  25  26
ENDBRANCH  24  25
ENDBRANCH  23  24
ENDBRANCH  22  23
ENDBRANCH  21  22
ENDBRANCH  20  21
ENDBRANCH  19  20
ENDBRANCH  18  19
ENDBRANCH  17  18
ENDBRANCH   1  17
TORSDOF 26
ENDMDL
MODEL 6
REMARK VINA RESULT:    -3.504      1.504      3.094
REMARK INTER + INTRA:         -12.086
REMARK INTER:                  -9.264
REMARK INTRA:                  -2.823
REMARK UNBOUND:                -3.258
REMARK SMILES CCCCCCCCCCCCCCCCCCCCCCCCCCCC(=O)[O-]
REMARK SMILES IDX 15 1 16 2 17 3 18 4 19 5 20 6 21 7 22 8 23 9 24 10 25 11
REMARK SMILES IDX 26 12 27 13 28 14 29 15 30 16 14 17 13 18 12 19 11 20 10 21
REMARK SMILES IDX 9 22 8 23 7 24 6 25 5 26 4 27 3 28 2 29 1 30
REMARK H PARENT
REMARK Flexibility Score: inf
ROOT
ATOM      1  C   UNL     1      85.702 125.946 128.166  1.00  0.00     0.000 C 
ENDROOT
BRANCH   1   2
ATOM      2  C   UNL     1      86.484 125.032 129.134  1.00  0.00     0.000 C 
BRANCH   2   3
ATOM      3  C   UNL     1      87.504 124.091 128.468  1.00  0.00     0.000 C 
BRANCH   3   4
ATOM      4  C   UNL     1      88.349 123.316 129.489  1.00  0.00     0.000 C 
BRANCH   4   5
ATOM      5  C   UNL     1      87.551 123.036 130.770  1.00  0.00     0.000 C 
BRANCH   5   6
ATOM      6  C   UNL     1      86.863 121.658 130.761  1.00  0.00     0.000 C 
BRANCH   6   7
ATOM      7  C   UNL     1      86.939 120.898 129.424  1.00  0.00     0.000 C 
BRANCH   7   8
ATOM      8  C   UNL     1      86.784 119.379 129.586  1.00  0.00     0.000 C 
BRANCH   8   9
ATOM      9  C   UNL     1      85.300 118.981 129.581  1.00  0.00     0.000 C 
BRANCH   9  10
ATOM     10  C   UNL     1      84.713 118.875 128.162  1.00  0.00     0.000 C 
BRANCH  10  11
ATOM     11  C   UNL     1      83.546 119.838 127.875  1.00  0.00     0.000 C 
BRANCH  11  12
ATOM     12  C   UNL     1      83.578 120.402 126.443  1.00  0.00     0.006 C 
BRANCH  12  13
ATOM     13  C   UNL     1      84.798 121.301 126.199  1.00  0.00     0.053 C 
BRANCH  13  14
ATOM     14  C   UNL     1      84.681 122.063 124.913  1.00  0.00     0.041 C 
ATOM     15  O   UNL     1      85.416 123.062 124.702  1.00  0.00    -0.550 OA
ATOM     16  O   UNL     1      83.779 121.653 123.938  1.00  0.00    -0.550 OA
ENDBRANCH  13  14
ENDBRANCH  12  13
ENDBRANCH  11  12
ENDBRANCH  10  11
ENDBRANCH   9  10
ENDBRANCH   8   9
ENDBRANCH   7   8
ENDBRANCH   6   7
ENDBRANCH   5   6
ENDBRANCH   4   5
ENDBRANCH   3   4
ENDBRANCH   2   3
ENDBRANCH   1   2
BRANCH   1  17
ATOM     17  C   UNL     1      84.446 125.313 127.540  1.00  0.00     0.000 C 
BRANCH  17  18
ATOM     18  C   UNL     1      83.541 124.639 128.580  1.00  0.00     0.000 C 
BRANCH  18  19
ATOM     19  C   UNL     1      83.950 123.174 128.799  1.00  0.00     0.000 C 
BRANCH  19  20
ATOM     20  C   UNL     1      83.866 122.748 130.280  1.00  0.00     0.000 C 
BRANCH  20  21
ATOM     21  C   UNL     1      83.649 123.915 131.264  1.00  0.00     0.000 C 
BRANCH  21  22
ATOM     22  C   UNL     1      82.409 123.796 132.168  1.00  0.00    -0.000 C 
BRANCH  22  23
ATOM     23  C   UNL     1      82.162 124.996 133.104  1.00  0.00    -0.000 C 
BRANCH  23  24
ATOM     24  C   UNL     1      81.895 126.323 132.361  1.00  0.00    -0.000 C 
BRANCH  24  25
ATOM     25  C   UNL     1      83.038 127.338 132.545  1.00  0.00    -0.000 C 
BRANCH  25  26
ATOM     26  C   UNL     1      82.549 128.795 132.522  1.00  0.00    -0.000 C 
BRANCH  26  27
ATOM     27  C   UNL     1      82.496 129.379 131.098  1.00  0.00    -0.000 C 
BRANCH  27  28
ATOM     28  C   UNL     1      82.803 130.892 131.076  1.00  0.00    -0.000 C 
BRANCH  28  29
ATOM     29  C   UNL     1      84.097 131.263 131.823  1.00  0.00    -0.003 C 
ATOM     30  C   UNL     1      83.855 132.192 133.013  1.00  0.00     0.004 C 
ENDBRANCH  28  29
ENDBRANCH  27  28
ENDBRANCH  26  27
ENDBRANCH  25  26
ENDBRANCH  24  25
ENDBRANCH  23  24
ENDBRANCH  22  23
ENDBRANCH  21  22
ENDBRANCH  20  21
ENDBRANCH  19  20
ENDBRANCH  18  19
ENDBRANCH  17  18
ENDBRANCH   1  17
TORSDOF 26
ENDMDL
MODEL 7
REMARK VINA RESULT:    -3.335      3.883      8.750
REMARK INTER + INTRA:         -11.662
REMARK INTER:                 -10.398
REMARK INTRA:                  -1.264
REMARK UNBOUND:                -3.258
REMARK SMILES CCCCCCCCCCCCCCCCCCCCCCCCCCCC(=O)[O-]
REMARK SMILES IDX 15 1 16 2 17 3 18 4 19 5 20 6 21 7 22 8 23 9 24 10 25 11
REMARK SMILES IDX 26 12 27 13 28 14 29 15 30 16 14 17 13 18 12 19 11 20 10 21
REMARK SMILES IDX 9 22 8 23 7 24 6 25 5 26 4 27 3 28 2 29 1 30
REMARK H PARENT
REMARK Flexibility Score: inf
ROOT
ATOM      1  C   UNL     1      84.838 122.843 125.681  1.00  0.00     0.000 C 
ENDROOT
BRANCH   1   2
ATOM      2  C   UNL     1      83.653 123.553 126.371  1.00  0.00     0.000 C 
BRANCH   2   3
ATOM      3  C   UNL     1      83.946 124.099 127.781  1.00  0.00     0.000 C 
BRANCH   3   4
ATOM      4  C   UNL     1      85.302 124.811 127.869  1.00  0.00     0.000 C 
BRANCH   4   5
ATOM      5  C   UNL     1      85.440 125.579 129.191  1.00  0.00     0.000 C 
BRANCH   5   6
ATOM      6  C   UNL     1      84.656 124.931 130.348  1.00  0.00     0.000 C 
BRANCH   6   7
ATOM      7  C   UNL     1      84.064 125.918 131.371  1.00  0.00     0.000 C 
BRANCH   7   8
ATOM      8  C   UNL     1      83.609 125.239 132.670  1.00  0.00     0.000 C 
BRANCH   8   9
ATOM      9  C   UNL     1      82.148 125.592 132.986  1.00  0.00     0.000 C 
BRANCH   9  10
ATOM     10  C   UNL     1      81.875 127.106 132.945  1.00  0.00     0.000 C 
BRANCH  10  11
ATOM     11  C   UNL     1      83.137 127.988 132.966  1.00  0.00     0.000 C 
BRANCH  11  12
ATOM     12  C   UNL     1      82.814 129.485 133.122  1.00  0.00     0.006 C 
BRANCH  12  13
ATOM     13  C   UNL     1      82.602 130.179 131.770  1.00  0.00     0.053 C 
BRANCH  13  14
ATOM     14  C   UNL     1      82.670 131.671 131.892  1.00  0.00     0.041 C 
ATOM     15  O   UNL     1      82.261 132.239 132.938  1.00  0.00    -0.550 OA
ATOM     16  O   UNL     1      83.211 132.431 130.862  1.00  0.00    -0.550 OA
ENDBRANCH  13  14
ENDBRANCH  12  13
ENDBRANCH  11  12
ENDBRANCH  10  11
ENDBRANCH   9  10
ENDBRANCH   8   9
ENDBRANCH   7   8
ENDBRANCH   6   7
ENDBRANCH   5   6
ENDBRANCH   4   5
ENDBRANCH   3   4
ENDBRANCH   2   3
ENDBRANCH   1   2
BRANCH   1  17
ATOM     17  C   UNL     1      84.830 122.903 124.143  1.00  0.00     0.000 C 
BRANCH  17  18
ATOM     18  C   UNL     1      83.686 122.089 123.524  1.00  0.00     0.000 C 
BRANCH  18  19
ATOM     19  C   UNL     1      82.635 121.723 124.584  1.00  0.00     0.000 C 
BRANCH  19  20
ATOM     20  C   UNL     1      82.053 120.308 124.380  1.00  0.00     0.000 C 
BRANCH  20  21
ATOM     21  C   UNL     1      82.750 119.211 125.210  1.00  0.00     0.000 C 
BRANCH  21  22
ATOM     22  C   UNL     1      82.707 119.409 126.736  1.00  0.00    -0.000 C 
BRANCH  22  23
ATOM     23  C   UNL     1      84.051 119.800 127.384  1.00  0.00    -0.000 C 
BRANCH  23  24
ATOM     24  C   UNL     1      83.988 119.927 128.922  1.00  0.00    -0.000 C 
BRANCH  24  25
ATOM     25  C   UNL     1      84.993 120.958 129.467  1.00  0.00    -0.000 C 
BRANCH  25  26
ATOM     26  C   UNL     1      86.393 120.364 129.690  1.00  0.00    -0.000 C 
BRANCH  26  27
ATOM     27  C   UNL     1      86.889 120.548 131.136  1.00  0.00    -0.000 C 
BRANCH  27  28
ATOM     28  C   UNL     1      88.223 121.323 131.201  1.00  0.00    -0.000 C 
BRANCH  28  29
ATOM     29  C   UNL     1      88.265 122.546 130.268  1.00  0.00    -0.003 C 
ATOM     30  C   UNL     1      88.266 123.875 131.024  1.00  0.00     0.004 C 
ENDBRANCH  28  29
ENDBRANCH  27  28
ENDBRANCH  26  27
ENDBRANCH  25  26
ENDBRANCH  24  25
ENDBRANCH  23  24
ENDBRANCH  22  23
ENDBRANCH  21  22
ENDBRANCH  20  21
ENDBRANCH  19  20
ENDBRANCH  18  19
ENDBRANCH  17  18
ENDBRANCH   1  17
TORSDOF 26
ENDMDL
MODEL 8
REMARK VINA RESULT:    -3.331      2.648      6.679
REMARK INTER + INTRA:         -11.653
REMARK INTER:                  -8.256
REMARK INTRA:                  -3.397
REMARK UNBOUND:                -3.258
REMARK SMILES CCCCCCCCCCCCCCCCCCCCCCCCCCCC(=O)[O-]
REMARK SMILES IDX 15 1 16 2 17 3 18 4 19 5 20 6 21 7 22 8 23 9 24 10 25 11
REMARK SMILES IDX 26 12 27 13 28 14 29 15 30 16 14 17 13 18 12 19 11 20 10 21
REMARK SMILES IDX 9 22 8 23 7 24 6 25 5 26 4 27 3 28 2 29 1 30
REMARK H PARENT
REMARK Flexibility Score: inf
ROOT
ATOM      1  C   UNL     1      83.894 125.651 131.717  1.00  0.00     0.000 C 
ENDROOT
BRANCH   1   2
ATOM      2  C   UNL     1      82.813 124.714 132.300  1.00  0.00     0.000 C 
BRANCH   2   3
ATOM      3  C   UNL     1      81.875 124.070 131.262  1.00  0.00     0.000 C 
BRANCH   3   4
ATOM      4  C   UNL     1      82.282 122.634 130.907  1.00  0.00     0.000 C 
BRANCH   4   5
ATOM      5  C   UNL     1      82.701 122.524 129.435  1.00  0.00     0.000 C 
BRANCH   5   6
ATOM      6  C   UNL     1      84.076 123.157 129.151  1.00  0.00     0.000 C 
BRANCH   6   7
ATOM      7  C   UNL     1      84.380 123.421 127.665  1.00  0.00     0.000 C 
BRANCH   7   8
ATOM      8  C   UNL     1      83.115 123.547 126.804  1.00  0.00     0.000 C 
BRANCH   8   9
ATOM      9  C   UNL     1      83.432 123.265 125.327  1.00  0.00     0.000 C 
BRANCH   9  10
ATOM     10  C   UNL     1      83.481 121.761 125.001  1.00  0.00     0.000 C 
BRANCH  10  11
ATOM     11  C   UNL     1      82.358 121.268 124.070  1.00  0.00     0.000 C 
BRANCH  11  12
ATOM     12  C   UNL     1      82.649 119.881 123.470  1.00  0.00     0.006 C 
BRANCH  12  13
ATOM     13  C   UNL     1      82.019 119.704 122.081  1.00  0.00     0.053 C 
BRANCH  13  14
ATOM     14  C   UNL     1      82.995 120.001 120.984  1.00  0.00     0.041 C 
ATOM     15  O   UNL     1      83.483 119.062 120.302  1.00  0.00    -0.550 OA
ATOM     16  O   UNL     1      83.347 121.314 120.697  1.00  0.00    -0.550 OA
ENDBRANCH  13  14
ENDBRANCH  12  13
ENDBRANCH  11  12
ENDBRANCH  10  11
ENDBRANCH   9  10
ENDBRANCH   8   9
ENDBRANCH   7   8
ENDBRANCH   6   7
ENDBRANCH   5   6
ENDBRANCH   4   5
ENDBRANCH   3   4
ENDBRANCH   2   3
ENDBRANCH   1   2
BRANCH   1  17
ATOM     17  C   UNL     1      85.332 125.359 132.182  1.00  0.00     0.000 C 
BRANCH  17  18
ATOM     18  C   UNL     1      85.443 124.052 132.979  1.00  0.00     0.000 C 
BRANCH  18  19
ATOM     19  C   UNL     1      86.816 123.395 132.771  1.00  0.00     0.000 C 
BRANCH  19  20
ATOM     20  C   UNL     1      87.719 124.195 131.807  1.00  0.00     0.000 C 
BRANCH  20  21
ATOM     21  C   UNL     1      88.767 123.342 131.064  1.00  0.00     0.000 C 
BRANCH  21  22
ATOM     22  C   UNL     1      88.578 121.818 131.179  1.00  0.00    -0.000 C 
BRANCH  22  23
ATOM     23  C   UNL     1      87.886 121.151 129.973  1.00  0.00    -0.000 C 
BRANCH  23  24
ATOM     24  C   UNL     1      86.620 120.349 130.345  1.00  0.00    -0.000 C 
BRANCH  24  25
ATOM     25  C   UNL     1      86.604 118.948 129.706  1.00  0.00    -0.000 C 
BRANCH  25  26
ATOM     26  C   UNL     1      86.148 118.968 128.239  1.00  0.00    -0.000 C 
BRANCH  26  27
ATOM     27  C   UNL     1      84.938 119.894 128.008  1.00  0.00    -0.000 C 
BRANCH  27  28
ATOM     28  C   UNL     1      83.597 119.176 128.271  1.00  0.00    -0.000 C 
BRANCH  28  29
ATOM     29  C   UNL     1      83.317 118.933 129.765  1.00  0.00    -0.003 C 
ATOM     30  C   UNL     1      81.875 119.248 130.163  1.00  0.00     0.004 C 
ENDBRANCH  28  29
ENDBRANCH  27  28
ENDBRANCH  26  27
ENDBRANCH  25  26
ENDBRANCH  24  25
ENDBRANCH  23  24
ENDBRANCH  22  23
ENDBRANCH  21  22
ENDBRANCH  20  21
ENDBRANCH  19  20
ENDBRANCH  18  19
ENDBRANCH  17  18
ENDBRANCH   1  17
TORSDOF 26
ENDMDL
