MODEL 1
REMARK VINA RESULT:    -3.311      0.000      0.000
REMARK INTER + INTRA:          -3.601
REMARK INTER:                  -3.601
REMARK INTRA:                   0.000
REMARK UNBOUND:                 0.000
REMARK SMILES [NH3+]CC(=O)[O-]
REMARK SMILES IDX 2 1 1 2 3 6 4 7 5 8
REMARK H PARENT 1 3 1 4 1 5
REMARK Flexibility Score: inf
ROOT
ATOM      1  C   UNL     1      13.740  36.372  11.786  1.00  0.00     0.312 C 
ENDROOT
BRANCH   1   2
ATOM      2  N   UNL     1      12.735  37.425  11.909  1.00  0.00    -0.353 N 
ATOM      3  H   UNL     1      11.861  37.122  11.422  1.00  0.00     0.344 HD
ATOM      4  H   UNL     1      12.519  37.598  12.918  1.00  0.00     0.344 HD
ATOM      5  H   UNL     1      13.082  38.307  11.465  1.00  0.00     0.344 HD
ENDBRANCH   1   2
BRANCH   1   6
ATOM      6  C   UNL     1      13.815  35.563  13.043  1.00  0.00     0.096 C 
ATOM      7  O   UNL     1      12.861  35.580  13.865  1.00  0.00    -0.544 OA
ATOM      8  O   UNL     1      14.960  34.831  13.333  1.00  0.00    -0.544 OA
ENDBRANCH   1   6
TORSDOF 2
ENDMDL
MODEL 2
REMARK VINA RESULT:    -3.258     10.314     10.863
REMARK INTER + INTRA:          -3.543
REMARK INTER:                  -3.543
REMARK INTRA:                   0.000
REMARK UNBOUND:                 0.000
REMARK SMILES [NH3+]CC(=O)[O-]
REMARK SMILES IDX 2 1 1 2 3 6 4 7 5 8
REMARK H PARENT 1 3 1 4 1 5
REMARK Flexibility Score: inf
ROOT
ATOM      1  C   UNL     1       4.717  39.880  13.007  1.00  0.00     0.312 C 
ENDROOT
BRANCH   1   2
ATOM      2  N   UNL     1       5.140  39.020  14.110  1.00  0.00    -0.353 N 
ATOM      3  H   UNL     1       4.430  39.073  14.876  1.00  0.00     0.344 HD
ATOM      4  H   UNL     1       5.213  38.029  13.784  1.00  0.00     0.344 HD
ATOM      5  H   UNL     1       6.064  39.340  14.481  1.00  0.00     0.344 HD
ENDBRANCH   1   2
BRANCH   1   6
ATOM      6  C   UNL     1       3.284  39.625  12.658  1.00  0.00     0.096 C 
ATOM      7  O   UNL     1       2.855  38.445  12.564  1.00  0.00    -0.544 OA
ATOM      8  O   UNL     1       2.433  40.690  12.386  1.00  0.00    -0.544 OA
ENDBRANCH   1   6
TORSDOF 2
ENDMDL
MODEL 3
REMARK VINA RESULT:    -3.222      1.895      2.197
REMARK INTER + INTRA:          -3.504
REMARK INTER:                  -3.504
REMARK INTRA:                   0.000
REMARK UNBOUND:                 0.000
REMARK SMILES [NH3+]CC(=O)[O-]
REMARK SMILES IDX 2 1 1 2 3 6 4 7 5 8
REMARK H PARENT 1 3 1 4 1 5
REMARK Flexibility Score: inf
ROOT
ATOM      1  C   UNL     1      13.854  35.341  13.058  1.00  0.00     0.312 C 
ENDROOT
BRANCH   1   2
ATOM      2  N   UNL     1      12.683  36.043  13.579  1.00  0.00    -0.353 N 
ATOM      3  H   UNL     1      11.878  35.895  12.928  1.00  0.00     0.344 HD
ATOM      4  H   UNL     1      12.430  35.668  14.522  1.00  0.00     0.344 HD
ATOM      5  H   UNL     1      12.880  37.068  13.647  1.00  0.00     0.344 HD
ENDBRANCH   1   2
BRANCH   1   6
ATOM      6  C   UNL     1      13.851  33.910  13.500  1.00  0.00     0.096 C 
ATOM      7  O   UNL     1      14.422  33.578  14.572  1.00  0.00    -0.544 OA
ATOM      8  O   UNL     1      13.264  32.936  12.703  1.00  0.00    -0.544 OA
ENDBRANCH   1   6
TORSDOF 2
ENDMDL
MODEL 4
REMARK VINA RESULT:    -3.044     10.380     10.854
REMARK INTER + INTRA:          -3.311
REMARK INTER:                  -3.311
REMARK INTRA:                   0.000
REMARK UNBOUND:                 0.000
REMARK SMILES [NH3+]CC(=O)[O-]
REMARK SMILES IDX 2 1 1 2 3 6 4 7 5 8
REMARK H PARENT 1 3 1 4 1 5
REMARK Flexibility Score: inf
ROOT
ATOM      1  C   UNL     1       2.535  38.172  12.551  1.00  0.00     0.312 C 
ENDROOT
BRANCH   1   2
ATOM      2  N   UNL     1       3.064  37.183  11.614  1.00  0.00    -0.353 N 
ATOM      3  H   UNL     1       2.748  36.231  11.908  1.00  0.00     0.344 HD
ATOM      4  H   UNL     1       2.707  37.376  10.650  1.00  0.00     0.344 HD
ATOM      5  H   UNL     1       4.110  37.209  11.616  1.00  0.00     0.344 HD
ENDBRANCH   1   2
BRANCH   1   6
ATOM      6  C   UNL     1       3.468  39.336  12.673  1.00  0.00     0.096 C 
ATOM      7  O   UNL     1       3.131  40.468  12.237  1.00  0.00    -0.544 OA
ATOM      8  O   UNL     1       4.732  39.160  13.222  1.00  0.00    -0.544 OA
ENDBRANCH   1   6
TORSDOF 2
ENDMDL
MODEL 5
REMARK VINA RESULT:    -2.886      3.098      3.498
REMARK INTER + INTRA:          -3.139
REMARK INTER:                  -3.139
REMARK INTRA:                   0.000
REMARK UNBOUND:                 0.000
REMARK SMILES [NH3+]CC(=O)[O-]
REMARK SMILES IDX 2 1 1 2 3 6 4 7 5 8
REMARK H PARENT 1 3 1 4 1 5
REMARK Flexibility Score: inf
ROOT
ATOM      1  C   UNL     1      13.685  33.797  14.176  1.00  0.00     0.312 C 
ENDROOT
BRANCH   1   2
ATOM      2  N   UNL     1      13.136  34.988  13.531  1.00  0.00    -0.353 N 
ATOM      3  H   UNL     1      12.512  34.693  12.745  1.00  0.00     0.344 HD
ATOM      4  H   UNL     1      12.576  35.542  14.219  1.00  0.00     0.344 HD
ATOM      5  H   UNL     1      13.910  35.578  13.147  1.00  0.00     0.344 HD
ENDBRANCH   1   2
BRANCH   1   6
ATOM      6  C   UNL     1      13.244  32.558  13.461  1.00  0.00     0.096 C 
ATOM      7  O   UNL     1      13.563  32.375  12.256  1.00  0.00    -0.544 OA
ATOM      8  O   UNL     1      12.438  31.630  14.108  1.00  0.00    -0.544 OA
ENDBRANCH   1   6
TORSDOF 2
ENDMDL
MODEL 6
REMARK VINA RESULT:    -2.869      9.960     10.477
REMARK INTER + INTRA:          -3.120
REMARK INTER:                  -3.120
REMARK INTRA:                   0.000
REMARK UNBOUND:                 0.000
REMARK SMILES [NH3+]CC(=O)[O-]
REMARK SMILES IDX 2 1 1 2 3 6 4 7 5 8
REMARK H PARENT 1 3 1 4 1 5
REMARK Flexibility Score: inf
ROOT
ATOM      1  C   UNL     1       2.942  39.143  12.618  1.00  0.00     0.312 C 
ENDROOT
BRANCH   1   2
ATOM      2  N   UNL     1       3.160  37.794  12.099  1.00  0.00    -0.353 N 
ATOM      3  H   UNL     1       2.247  37.402  11.773  1.00  0.00     0.344 HD
ATOM      4  H   UNL     1       3.824  37.823  11.292  1.00  0.00     0.344 HD
ATOM      5  H   UNL     1       3.544  37.177  12.852  1.00  0.00     0.344 HD
ENDBRANCH   1   2
BRANCH   1   6
ATOM      6  C   UNL     1       4.247  39.802  12.941  1.00  0.00     0.096 C 
ATOM      7  O   UNL     1       5.071  39.234  13.705  1.00  0.00    -0.544 OA
ATOM      8  O   UNL     1       4.531  41.066  12.440  1.00  0.00    -0.544 OA
ENDBRANCH   1   6
TORSDOF 2
ENDMDL
MODEL 7
REMARK VINA RESULT:    -2.847      3.506      3.907
REMARK INTER + INTRA:          -3.096
REMARK INTER:                  -3.096
REMARK INTRA:                   0.000
REMARK UNBOUND:                 0.000
REMARK SMILES [NH3+]CC(=O)[O-]
REMARK SMILES IDX 2 1 1 2 3 6 4 7 5 8
REMARK H PARENT 1 3 1 4 1 5
REMARK Flexibility Score: inf
ROOT
ATOM      1  C   UNL     1      12.902  32.382  13.231  1.00  0.00     0.312 C 
ENDROOT
BRANCH   1   2
ATOM      2  N   UNL     1      12.130  31.607  14.200  1.00  0.00    -0.353 N 
ATOM      3  H   UNL     1      11.299  31.191  13.720  1.00  0.00     0.344 HD
ATOM      4  H   UNL     1      12.717  30.834  14.590  1.00  0.00     0.344 HD
ATOM      5  H   UNL     1      11.799  32.227  14.974  1.00  0.00     0.344 HD
ENDBRANCH   1   2
BRANCH   1   6
ATOM      6  C   UNL     1      13.617  33.510  13.906  1.00  0.00     0.096 C 
ATOM      7  O   UNL     1      14.735  33.316  14.452  1.00  0.00    -0.544 OA
ATOM      8  O   UNL     1      13.025  34.765  13.979  1.00  0.00    -0.544 OA
ENDBRANCH   1   6
TORSDOF 2
ENDMDL
MODEL 8
REMARK VINA RESULT:    -2.677     14.129     14.457
REMARK INTER + INTRA:          -2.912
REMARK INTER:                  -2.912
REMARK INTRA:                   0.000
REMARK UNBOUND:                 0.000
REMARK SMILES [NH3+]CC(=O)[O-]
REMARK SMILES IDX 2 1 1 2 3 6 4 7 5 8
REMARK H PARENT 1 3 1 4 1 5
REMARK Flexibility Score: inf
ROOT
ATOM      1  C   UNL     1       6.726  47.508   9.343  1.00  0.00     0.312 C 
ENDROOT
BRANCH   1   2
ATOM      2  N   UNL     1       6.756  48.663   8.449  1.00  0.00    -0.353 N 
ATOM      3  H   UNL     1       7.549  49.287   8.724  1.00  0.00     0.344 HD
ATOM      4  H   UNL     1       6.900  48.348   7.462  1.00  0.00     0.344 HD
ATOM      5  H   UNL     1       5.862  49.199   8.523  1.00  0.00     0.344 HD
ENDBRANCH   1   2
BRANCH   1   6
ATOM      6  C   UNL     1       5.314  47.120   9.658  1.00  0.00     0.096 C 
ATOM      7  O   UNL     1       4.610  47.846  10.409  1.00  0.00    -0.544 OA
ATOM      8  O   UNL     1       4.792  45.932   9.163  1.00  0.00    -0.544 OA
ENDBRANCH   1   6
TORSDOF 2
ENDMDL
MODEL 9
REMARK VINA RESULT:    -2.671     14.133     14.498
REMARK INTER + INTRA:          -2.905
REMARK INTER:                  -2.905
REMARK INTRA:                   0.000
REMARK UNBOUND:                 0.000
REMARK SMILES [NH3+]CC(=O)[O-]
REMARK SMILES IDX 2 1 1 2 3 6 4 7 5 8
REMARK H PARENT 1 3 1 4 1 5
REMARK Flexibility Score: inf
ROOT
ATOM      1  C   UNL     1       6.724  47.461   9.304  1.00  0.00     0.312 C 
ENDROOT
BRANCH   1   2
ATOM      2  N   UNL     1       6.732  48.661   8.471  1.00  0.00    -0.353 N 
ATOM      3  H   UNL     1       6.410  49.476   9.042  1.00  0.00     0.344 HD
ATOM      4  H   UNL     1       7.700  48.851   8.125  1.00  0.00     0.344 HD
ATOM      5  H   UNL     1       6.083  48.539   7.659  1.00  0.00     0.344 HD
ENDBRANCH   1   2
BRANCH   1   6
ATOM      6  C   UNL     1       5.321  47.060   9.640  1.00  0.00     0.096 C 
ATOM      7  O   UNL     1       4.829  46.007   9.155  1.00  0.00    -0.544 OA
ATOM      8  O   UNL     1       4.538  47.876  10.447  1.00  0.00    -0.544 OA
ENDBRANCH   1   6
TORSDOF 2
ENDMDL
