MODEL 1
REMARK VINA RESULT:     0.000      0.000      0.000
REMARK INTER + INTRA:          -2.842
REMARK INTER:                   0.000
REMARK INTRA:                  -2.842
REMARK UNBOUND:                -2.842
REMARK SMILES CCCCCCCCCCCCCCC(=O)[O-]
REMARK SMILES IDX 9 1 10 2 11 3 12 4 13 5 14 6 15 7 16 8 17 9 8 10 7 11 6 12
REMARK SMILES IDX 5 13 4 14 3 15 2 16 1 17
REMARK H PARENT
REMARK Flexibility Score: inf
ROOT
ATOM      1  C   UNL     1     172.733 188.423 189.714  1.00  0.00     0.000 C 
ENDROOT
BRANCH   1   2
ATOM      2  C   UNL     1     172.441 186.948 190.037  1.00  0.00     0.000 C 
BRANCH   2   3
ATOM      3  C   UNL     1     173.710 186.156 190.392  1.00  0.00     0.000 C 
BRANCH   3   4
ATOM      4  C   UNL     1     173.729 184.755 189.764  1.00  0.00     0.000 C 
BRANCH   4   5
ATOM      5  C   UNL     1     172.367 184.412 189.148  1.00  0.00     0.006 C 
BRANCH   5   6
ATOM      6  C   UNL     1     172.537 183.647 187.831  1.00  0.00     0.053 C 
BRANCH   6   7
ATOM      7  C   UNL     1     171.250 183.629 187.067  1.00  0.00     0.041 C 
ATOM      8  O   UNL     1     170.286 184.351 187.433  1.00  0.00    -0.550 OA
ATOM      9  O   UNL     1     171.099 182.777 185.980  1.00  0.00    -0.550 OA
ENDBRANCH   6   7
ENDBRANCH   5   6
ENDBRANCH   4   5
ENDBRANCH   3   4
ENDBRANCH   2   3
ENDBRANCH   1   2
BRANCH   1  10
ATOM     10  C   UNL     1     172.514 188.747 188.220  1.00  0.00     0.000 C 
BRANCH  10  11
ATOM     11  C   UNL     1     171.746 187.653 187.460  1.00  0.00    -0.000 C 
BRANCH  11  12
ATOM     12  C   UNL     1     172.550 187.064 186.289  1.00  0.00    -0.000 C 
BRANCH  12  13
ATOM     13  C   UNL     1     174.033 187.467 186.325  1.00  0.00    -0.000 C 
BRANCH  13  14
ATOM     14  C   UNL     1     174.961 186.279 186.625  1.00  0.00    -0.000 C 
BRANCH  14  15
ATOM     15  C   UNL     1     176.099 186.647 187.591  1.00  0.00    -0.000 C 
BRANCH  15  16
ATOM     16  C   UNL     1     176.165 188.153 187.882  1.00  0.00    -0.003 C 
ATOM     17  C   UNL     1     176.475 188.414 189.354  1.00  0.00     0.004 C 
ENDBRANCH  15  16
ENDBRANCH  14  15
ENDBRANCH  13  14
ENDBRANCH  12  13
ENDBRANCH  11  12
ENDBRANCH  10  11
ENDBRANCH   1  10
TORSDOF 13
ENDMDL
MODEL 2
REMARK VINA RESULT:     0.001     11.287     13.573
REMARK INTER + INTRA:          -2.841
REMARK INTER:                   0.000
REMARK INTRA:                  -2.841
REMARK UNBOUND:                -2.842
REMARK SMILES CCCCCCCCCCCCCCC(=O)[O-]
REMARK SMILES IDX 9 1 10 2 11 3 12 4 13 5 14 6 15 7 16 8 17 9 8 10 7 11 6 12
REMARK SMILES IDX 5 13 4 14 3 15 2 16 1 17
REMARK H PARENT
REMARK Flexibility Score: inf
ROOT
ATOM      1  C   UNL     1     165.325 193.138 188.810  1.00  0.00     0.000 C 
ENDROOT
BRANCH   1   2
ATOM      2  C   UNL     1     164.770 193.936 187.618  1.00  0.00     0.000 C 
BRANCH   2   3
ATOM      3  C   UNL     1     164.419 193.043 186.418  1.00  0.00     0.000 C 
BRANCH   3   4
ATOM      4  C   UNL     1     163.081 193.425 185.767  1.00  0.00     0.000 C 
BRANCH   4   5
ATOM      5  C   UNL     1     162.588 194.782 186.282  1.00  0.00     0.006 C 
BRANCH   5   6
ATOM      6  C   UNL     1     161.075 194.763 186.519  1.00  0.00     0.053 C 
BRANCH   6   7
ATOM      7  C   UNL     1     160.651 195.970 187.295  1.00  0.00     0.041 C 
ATOM      8  O   UNL     1     159.444 196.328 187.301  1.00  0.00    -0.550 OA
ATOM      9  O   UNL     1     161.599 196.730 187.971  1.00  0.00    -0.550 OA
ENDBRANCH   6   7
ENDBRANCH   5   6
ENDBRANCH   4   5
ENDBRANCH   3   4
ENDBRANCH   2   3
ENDBRANCH   1   2
BRANCH   1  10
ATOM     10  C   UNL     1     164.389 193.195 190.037  1.00  0.00     0.000 C 
BRANCH  10  11
ATOM     11  C   UNL     1     163.247 194.215 189.891  1.00  0.00    -0.000 C 
BRANCH  11  12
ATOM     12  C   UNL     1     161.855 193.564 189.949  1.00  0.00    -0.000 C 
BRANCH  12  13
ATOM     13  C   UNL     1     161.906 192.036 189.788  1.00  0.00    -0.000 C 
BRANCH  13  14
ATOM     14  C   UNL     1     161.309 191.563 188.452  1.00  0.00    -0.000 C 
BRANCH  14  15
ATOM     15  C   UNL     1     162.140 190.448 187.796  1.00  0.00    -0.000 C 
BRANCH  15  16
ATOM     16  C   UNL     1     163.272 189.941 188.700  1.00  0.00    -0.003 C 
ATOM     17  C   UNL     1     164.520 189.612 187.886  1.00  0.00     0.004 C 
ENDBRANCH  15  16
ENDBRANCH  14  15
ENDBRANCH  13  14
ENDBRANCH  12  13
ENDBRANCH  11  12
ENDBRANCH  10  11
ENDBRANCH   1  10
TORSDOF 13
ENDMDL
MODEL 3
REMARK VINA RESULT:     0.004      2.762      4.617
REMARK INTER + INTRA:          -2.834
REMARK INTER:                   0.000
REMARK INTRA:                  -2.834
REMARK UNBOUND:                -2.842
REMARK SMILES CCCCCCCCCCCCCCC(=O)[O-]
REMARK SMILES IDX 9 1 10 2 11 3 12 4 13 5 14 6 15 7 16 8 17 9 8 10 7 11 6 12
REMARK SMILES IDX 5 13 4 14 3 15 2 16 1 17
REMARK H PARENT
REMARK Flexibility Score: inf
ROOT
ATOM      1  C   UNL     1     173.763 190.272 185.672  1.00  0.00     0.000 C 
ENDROOT
BRANCH   1   2
ATOM      2  C   UNL     1     174.608 189.058 186.095  1.00  0.00     0.000 C 
BRANCH   2   3
ATOM      3  C   UNL     1     175.398 188.449 184.925  1.00  0.00     0.000 C 
BRANCH   3   4
ATOM      4  C   UNL     1     175.356 186.914 184.918  1.00  0.00     0.000 C 
BRANCH   4   5
ATOM      5  C   UNL     1     174.800 186.375 186.241  1.00  0.00     0.006 C 
BRANCH   5   6
ATOM      6  C   UNL     1     173.863 185.186 186.000  1.00  0.00     0.053 C 
BRANCH   6   7
ATOM      7  C   UNL     1     172.957 184.987 187.174  1.00  0.00     0.041 C 
ATOM      8  O   UNL     1     171.975 184.203 187.091  1.00  0.00    -0.550 OA
ATOM      9  O   UNL     1     173.167 185.707 188.344  1.00  0.00    -0.550 OA
ENDBRANCH   6   7
ENDBRANCH   5   6
ENDBRANCH   4   5
ENDBRANCH   3   4
ENDBRANCH   2   3
ENDBRANCH   1   2
BRANCH   1  10
ATOM     10  C   UNL     1     172.251 190.026 185.866  1.00  0.00     0.000 C 
BRANCH  10  11
ATOM     11  C   UNL     1     171.932 188.711 186.597  1.00  0.00    -0.000 C 
BRANCH  11  12
ATOM     12  C   UNL     1     171.050 187.765 185.764  1.00  0.00    -0.000 C 
BRANCH  12  13
ATOM     13  C   UNL     1     171.087 188.088 184.262  1.00  0.00    -0.000 C 
BRANCH  13  14
ATOM     14  C   UNL     1     171.924 187.077 183.460  1.00  0.00    -0.000 C 
BRANCH  14  15
ATOM     15  C   UNL     1     172.776 187.748 182.371  1.00  0.00    -0.000 C 
BRANCH  15  16
ATOM     16  C   UNL     1     172.511 189.256 182.256  1.00  0.00    -0.003 C 
ATOM     17  C   UNL     1     173.791 190.014 181.913  1.00  0.00     0.004 C 
ENDBRANCH  15  16
ENDBRANCH  14  15
ENDBRANCH  13  14
ENDBRANCH  12  13
ENDBRANCH  11  12
ENDBRANCH  10  11
ENDBRANCH   1  10
TORSDOF 13
ENDMDL
MODEL 4
REMARK VINA RESULT:     0.011      9.775     11.905
REMARK INTER + INTRA:          -2.822
REMARK INTER:                  -0.003
REMARK INTRA:                  -2.819
REMARK UNBOUND:                -2.842
REMARK SMILES CCCCCCCCCCCCCCC(=O)[O-]
REMARK SMILES IDX 9 1 10 2 11 3 12 4 13 5 14 6 15 7 16 8 17 9 8 10 7 11 6 12
REMARK SMILES IDX 5 13 4 14 3 15 2 16 1 17
REMARK H PARENT
REMARK Flexibility Score: inf
ROOT
ATOM      1  C   UNL     1     173.198 194.349 186.834  1.00  0.00     0.000 C 
ENDROOT
BRANCH   1   2
ATOM      2  C   UNL     1     173.228 194.845 185.378  1.00  0.00     0.000 C 
BRANCH   2   3
ATOM      3  C   UNL     1     174.185 196.031 185.176  1.00  0.00     0.000 C 
BRANCH   3   4
ATOM      4  C   UNL     1     173.566 197.153 184.328  1.00  0.00     0.000 C 
BRANCH   4   5
ATOM      5  C   UNL     1     172.370 196.633 183.521  1.00  0.00     0.006 C 
BRANCH   5   6
ATOM      6  C   UNL     1     171.181 197.595 183.621  1.00  0.00     0.053 C 
BRANCH   6   7
ATOM      7  C   UNL     1     171.548 198.939 183.078  1.00  0.00     0.041 C 
ATOM      8  O   UNL     1     171.873 199.067 181.868  1.00  0.00    -0.550 OA
ATOM      9  O   UNL     1     171.581 200.044 183.921  1.00  0.00    -0.550 OA
ENDBRANCH   6   7
ENDBRANCH   5   6
ENDBRANCH   4   5
ENDBRANCH   3   4
ENDBRANCH   2   3
ENDBRANCH   1   2
BRANCH   1  10
ATOM     10  C   UNL     1     171.812 194.542 187.486  1.00  0.00     0.000 C 
BRANCH  10  11
ATOM     11  C   UNL     1     170.725 194.997 186.497  1.00  0.00    -0.000 C 
BRANCH  11  12
ATOM     12  C   UNL     1     170.070 196.328 186.901  1.00  0.00    -0.000 C 
BRANCH  12  13
ATOM     13  C   UNL     1     170.927 197.136 187.888  1.00  0.00    -0.000 C 
BRANCH  13  14
ATOM     14  C   UNL     1     171.583 198.362 187.233  1.00  0.00    -0.000 C 
BRANCH  14  15
ATOM     15  C   UNL     1     173.036 198.569 187.691  1.00  0.00    -0.000 C 
BRANCH  15  16
ATOM     16  C   UNL     1     173.450 197.601 188.807  1.00  0.00    -0.003 C 
ATOM     17  C   UNL     1     174.902 197.160 188.642  1.00  0.00     0.004 C 
ENDBRANCH  15  16
ENDBRANCH  14  15
ENDBRANCH  13  14
ENDBRANCH  12  13
ENDBRANCH  11  12
ENDBRANCH  10  11
ENDBRANCH   1  10
TORSDOF 13
ENDMDL
MODEL 5
REMARK VINA RESULT:     0.016      6.162      8.619
REMARK INTER + INTRA:          -2.814
REMARK INTER:                   0.000
REMARK INTRA:                  -2.814
REMARK UNBOUND:                -2.842
REMARK SMILES CCCCCCCCCCCCCCC(=O)[O-]
REMARK SMILES IDX 9 1 10 2 11 3 12 4 13 5 14 6 15 7 16 8 17 9 8 10 7 11 6 12
REMARK SMILES IDX 5 13 4 14 3 15 2 16 1 17
REMARK H PARENT
REMARK Flexibility Score: inf
ROOT
ATOM      1  C   UNL     1     168.686 190.427 188.541  1.00  0.00     0.000 C 
ENDROOT
BRANCH   1   2
ATOM      2  C   UNL     1     169.715 191.560 188.696  1.00  0.00     0.000 C 
BRANCH   2   3
ATOM      3  C   UNL     1     170.537 191.442 189.990  1.00  0.00     0.000 C 
BRANCH   3   4
ATOM      4  C   UNL     1     170.109 192.460 191.058  1.00  0.00     0.000 C 
BRANCH   4   5
ATOM      5  C   UNL     1     170.189 191.847 192.461  1.00  0.00     0.006 C 
BRANCH   5   6
ATOM      6  C   UNL     1     170.775 190.433 192.411  1.00  0.00     0.053 C 
BRANCH   6   7
ATOM      7  C   UNL     1     170.069 189.538 193.380  1.00  0.00     0.041 C 
ATOM      8  O   UNL     1     170.102 188.288 193.229  1.00  0.00    -0.550 OA
ATOM      9  O   UNL     1     169.331 190.087 194.422  1.00  0.00    -0.550 OA
ENDBRANCH   6   7
ENDBRANCH   5   6
ENDBRANCH   4   5
ENDBRANCH   3   4
ENDBRANCH   2   3
ENDBRANCH   1   2
BRANCH   1  10
ATOM     10  C   UNL     1     169.073 189.174 189.355  1.00  0.00     0.000 C 
BRANCH  10  11
ATOM     11  C   UNL     1     167.996 188.740 190.364  1.00  0.00    -0.000 C 
BRANCH  11  12
ATOM     12  C   UNL     1     166.848 189.757 190.485  1.00  0.00    -0.000 C 
BRANCH  12  13
ATOM     13  C   UNL     1     166.796 190.433 191.864  1.00  0.00    -0.000 C 
BRANCH  13  14
ATOM     14  C   UNL     1     166.504 191.940 191.772  1.00  0.00    -0.000 C 
BRANCH  14  15
ATOM     15  C   UNL     1     166.053 192.369 190.366  1.00  0.00    -0.000 C 
BRANCH  15  16
ATOM     16  C   UNL     1     166.789 193.619 189.863  1.00  0.00    -0.003 C 
ATOM     17  C   UNL     1     166.711 193.728 188.343  1.00  0.00     0.004 C 
ENDBRANCH  15  16
ENDBRANCH  14  15
ENDBRANCH  13  14
ENDBRANCH  12  13
ENDBRANCH  11  12
ENDBRANCH  10  11
ENDBRANCH   1  10
TORSDOF 13
ENDMDL
MODEL 6
REMARK VINA RESULT:     0.019      3.021      4.131
REMARK INTER + INTRA:          -2.808
REMARK INTER:                   0.000
REMARK INTRA:                  -2.808
REMARK UNBOUND:                -2.842
REMARK SMILES CCCCCCCCCCCCCCC(=O)[O-]
REMARK SMILES IDX 9 1 10 2 11 3 12 4 13 5 14 6 15 7 16 8 17 9 8 10 7 11 6 12
REMARK SMILES IDX 5 13 4 14 3 15 2 16 1 17
REMARK H PARENT
REMARK Flexibility Score: inf
ROOT
ATOM      1  C   UNL     1     170.403 188.065 190.577  1.00  0.00     0.000 C 
ENDROOT
BRANCH   1   2
ATOM      2  C   UNL     1     171.411 187.490 191.587  1.00  0.00     0.000 C 
BRANCH   2   3
ATOM      3  C   UNL     1     172.817 188.090 191.430  1.00  0.00     0.000 C 
BRANCH   3   4
ATOM      4  C   UNL     1     173.927 187.033 191.526  1.00  0.00     0.000 C 
BRANCH   4   5
ATOM      5  C   UNL     1     173.374 185.705 192.057  1.00  0.00     0.006 C 
BRANCH   5   6
ATOM      6  C   UNL     1     173.964 184.518 191.290  1.00  0.00     0.053 C 
BRANCH   6   7
ATOM      7  C   UNL     1     175.459 184.541 191.359  1.00  0.00     0.041 C 
ATOM      8  O   UNL     1     176.140 184.634 190.304  1.00  0.00    -0.550 OA
ATOM      9  O   UNL     1     176.100 184.410 192.585  1.00  0.00    -0.550 OA
ENDBRANCH   6   7
ENDBRANCH   5   6
ENDBRANCH   4   5
ENDBRANCH   3   4
ENDBRANCH   2   3
ENDBRANCH   1   2
BRANCH   1  10
ATOM     10  C   UNL     1     169.948 187.012 189.543  1.00  0.00     0.000 C 
BRANCH  10  11
ATOM     11  C   UNL     1     170.316 185.570 189.932  1.00  0.00    -0.000 C 
BRANCH  11  12
ATOM     12  C   UNL     1     171.197 184.876 188.881  1.00  0.00    -0.000 C 
BRANCH  12  13
ATOM     13  C   UNL     1     171.775 185.857 187.848  1.00  0.00    -0.000 C 
BRANCH  13  14
ATOM     14  C   UNL     1     173.295 186.037 187.990  1.00  0.00    -0.000 C 
BRANCH  14  15
ATOM     15  C   UNL     1     173.732 187.505 187.851  1.00  0.00    -0.000 C 
BRANCH  15  16
ATOM     16  C   UNL     1     172.585 188.425 187.409  1.00  0.00    -0.003 C 
ATOM     17  C   UNL     1     172.652 189.770 188.127  1.00  0.00     0.004 C 
ENDBRANCH  15  16
ENDBRANCH  14  15
ENDBRANCH  13  14
ENDBRANCH  12  13
ENDBRANCH  11  12
ENDBRANCH  10  11
ENDBRANCH   1  10
TORSDOF 13
ENDMDL
MODEL 7
REMARK VINA RESULT:     0.022      4.693      7.408
REMARK INTER + INTRA:          -2.802
REMARK INTER:                   0.000
REMARK INTRA:                  -2.802
REMARK UNBOUND:                -2.842
REMARK SMILES CCCCCCCCCCCCCCC(=O)[O-]
REMARK SMILES IDX 9 1 10 2 11 3 12 4 13 5 14 6 15 7 16 8 17 9 8 10 7 11 6 12
REMARK SMILES IDX 5 13 4 14 3 15 2 16 1 17
REMARK H PARENT
REMARK Flexibility Score: inf
ROOT
ATOM      1  C   UNL     1     169.108 187.991 186.223  1.00  0.00     0.000 C 
ENDROOT
BRANCH   1   2
ATOM      2  C   UNL     1     169.509 188.916 185.061  1.00  0.00     0.000 C 
BRANCH   2   3
ATOM      3  C   UNL     1     170.952 189.431 185.184  1.00  0.00     0.000 C 
BRANCH   3   4
ATOM      4  C   UNL     1     171.047 190.960 185.068  1.00  0.00     0.000 C 
BRANCH   4   5
ATOM      5  C   UNL     1     172.259 191.493 185.840  1.00  0.00     0.006 C 
BRANCH   5   6
ATOM      6  C   UNL     1     173.015 190.354 186.532  1.00  0.00     0.053 C 
BRANCH   6   7
ATOM      7  C   UNL     1     173.742 190.863 187.736  1.00  0.00     0.041 C 
ATOM      8  O   UNL     1     173.379 191.935 188.289  1.00  0.00    -0.550 OA
ATOM      9  O   UNL     1     174.852 190.180 188.219  1.00  0.00    -0.550 OA
ENDBRANCH   6   7
ENDBRANCH   5   6
ENDBRANCH   4   5
ENDBRANCH   3   4
ENDBRANCH   2   3
ENDBRANCH   1   2
BRANCH   1  10
ATOM     10  C   UNL     1     170.099 188.075 187.404  1.00  0.00     0.000 C 
BRANCH  10  11
ATOM     11  C   UNL     1     169.516 188.764 188.649  1.00  0.00    -0.000 C 
BRANCH  11  12
ATOM     12  C   UNL     1     170.377 189.940 189.138  1.00  0.00    -0.000 C 
BRANCH  12  13
ATOM     13  C   UNL     1     169.865 191.300 188.636  1.00  0.00    -0.000 C 
BRANCH  13  14
ATOM     14  C   UNL     1     168.351 191.299 188.367  1.00  0.00    -0.000 C 
BRANCH  14  15
ATOM     15  C   UNL     1     168.001 191.798 186.956  1.00  0.00    -0.000 C 
BRANCH  15  16
ATOM     16  C   UNL     1     166.787 191.076 186.356  1.00  0.00    -0.003 C 
ATOM     17  C   UNL     1     166.219 190.050 187.333  1.00  0.00     0.004 C 
ENDBRANCH  15  16
ENDBRANCH  14  15
ENDBRANCH  13  14
ENDBRANCH  12  13
ENDBRANCH  11  12
ENDBRANCH  10  11
ENDBRANCH   1  10
TORSDOF 13
ENDMDL
MODEL 8
REMARK VINA RESULT:     0.025      5.255      7.534
REMARK INTER + INTRA:          -2.798
REMARK INTER:                   0.000
REMARK INTRA:                  -2.798
REMARK UNBOUND:                -2.842
REMARK SMILES CCCCCCCCCCCCCCC(=O)[O-]
REMARK SMILES IDX 9 1 10 2 11 3 12 4 13 5 14 6 15 7 16 8 17 9 8 10 7 11 6 12
REMARK SMILES IDX 5 13 4 14 3 15 2 16 1 17
REMARK H PARENT
REMARK Flexibility Score: inf
ROOT
ATOM      1  C   UNL     1     166.822 187.441 182.743  1.00  0.00     0.000 C 
ENDROOT
BRANCH   1   2
ATOM      2  C   UNL     1     165.729 188.062 183.629  1.00  0.00     0.000 C 
BRANCH   2   3
ATOM      3  C   UNL     1     165.828 187.613 185.096  1.00  0.00     0.000 C 
BRANCH   3   4
ATOM      4  C   UNL     1     166.214 188.760 186.042  1.00  0.00     0.000 C 
BRANCH   4   5
ATOM      5  C   UNL     1     167.198 188.278 187.115  1.00  0.00     0.006 C 
BRANCH   5   6
ATOM      6  C   UNL     1     167.293 186.748 187.125  1.00  0.00     0.053 C 
BRANCH   6   7
ATOM      7  C   UNL     1     168.713 186.314 187.311  1.00  0.00     0.041 C 
ATOM      8  O   UNL     1     169.090 185.187 186.896  1.00  0.00    -0.550 OA
ATOM      9  O   UNL     1     169.608 187.135 187.988  1.00  0.00    -0.550 OA
ENDBRANCH   6   7
ENDBRANCH   5   6
ENDBRANCH   4   5
ENDBRANCH   3   4
ENDBRANCH   2   3
ENDBRANCH   1   2
BRANCH   1  10
ATOM     10  C   UNL     1     167.546 186.271 183.444  1.00  0.00     0.000 C 
BRANCH  10  11
ATOM     11  C   UNL     1     169.066 186.472 183.563  1.00  0.00    -0.000 C 
BRANCH  11  12
ATOM     12  C   UNL     1     169.488 187.942 183.399  1.00  0.00    -0.000 C 
BRANCH  12  13
ATOM     13  C   UNL     1     170.029 188.554 184.701  1.00  0.00    -0.000 C 
BRANCH  13  14
ATOM     14  C   UNL     1     169.600 190.019 184.888  1.00  0.00    -0.000 C 
BRANCH  14  15
ATOM     15  C   UNL     1     168.665 190.508 183.769  1.00  0.00    -0.000 C 
BRANCH  15  16
ATOM     16  C   UNL     1     167.720 191.625 184.232  1.00  0.00    -0.003 C 
ATOM     17  C   UNL     1     166.452 191.660 183.382  1.00  0.00     0.004 C 
ENDBRANCH  15  16
ENDBRANCH  14  15
ENDBRANCH  13  14
ENDBRANCH  12  13
ENDBRANCH  11  12
ENDBRANCH  10  11
ENDBRANCH   1  10
TORSDOF 13
ENDMDL
MODEL 9
REMARK VINA RESULT:     0.027      6.366      8.854
REMARK INTER + INTRA:          -2.795
REMARK INTER:                   0.000
REMARK INTRA:                  -2.795
REMARK UNBOUND:                -2.842
REMARK SMILES CCCCCCCCCCCCCCC(=O)[O-]
REMARK SMILES IDX 9 1 10 2 11 3 12 4 13 5 14 6 15 7 16 8 17 9 8 10 7 11 6 12
REMARK SMILES IDX 5 13 4 14 3 15 2 16 1 17
REMARK H PARENT
REMARK Flexibility Score: inf
ROOT
ATOM      1  C   UNL     1     169.486 187.965 186.139  1.00  0.00     0.000 C 
ENDROOT
BRANCH   1   2
ATOM      2  C   UNL     1     170.150 188.066 184.755  1.00  0.00     0.000 C 
BRANCH   2   3
ATOM      3  C   UNL     1     169.870 189.407 184.059  1.00  0.00     0.000 C 
BRANCH   3   4
ATOM      4  C   UNL     1     169.400 189.234 182.607  1.00  0.00     0.000 C 
BRANCH   4   5
ATOM      5  C   UNL     1     168.328 190.271 182.250  1.00  0.00     0.006 C 
BRANCH   5   6
ATOM      6  C   UNL     1     168.367 191.457 183.219  1.00  0.00     0.053 C 
BRANCH   6   7
ATOM      7  C   UNL     1     167.112 192.264 183.109  1.00  0.00     0.041 C 
ATOM      8  O   UNL     1     166.152 191.850 182.407  1.00  0.00    -0.550 OA
ATOM      9  O   UNL     1     167.021 193.498 183.742  1.00  0.00    -0.550 OA
ENDBRANCH   6   7
ENDBRANCH   5   6
ENDBRANCH   4   5
ENDBRANCH   3   4
ENDBRANCH   2   3
ENDBRANCH   1   2
BRANCH   1  10
ATOM     10  C   UNL     1     168.485 189.113 186.389  1.00  0.00     0.000 C 
BRANCH  10  11
ATOM     11  C   UNL     1     167.015 188.660 186.379  1.00  0.00    -0.000 C 
BRANCH  11  12
ATOM     12  C   UNL     1     166.122 189.552 185.501  1.00  0.00    -0.000 C 
BRANCH  12  13
ATOM     13  C   UNL     1     165.600 188.824 184.252  1.00  0.00    -0.000 C 
BRANCH  13  14
ATOM     14  C   UNL     1     165.931 187.323 184.262  1.00  0.00    -0.000 C 
BRANCH  14  15
ATOM     15  C   UNL     1     166.663 186.871 182.987  1.00  0.00    -0.000 C 
BRANCH  15  16
ATOM     16  C   UNL     1     167.703 185.775 183.257  1.00  0.00    -0.003 C 
ATOM     17  C   UNL     1     167.542 185.199 184.661  1.00  0.00     0.004 C 
ENDBRANCH  15  16
ENDBRANCH  14  15
ENDBRANCH  13  14
ENDBRANCH  12  13
ENDBRANCH  11  12
ENDBRANCH  10  11
ENDBRANCH   1  10
TORSDOF 13
ENDMDL
