MODEL 1
REMARK VINA RESULT:    -1.433      0.000      0.000
REMARK INTER + INTRA:          -2.072
REMARK INTER:                  -1.851
REMARK INTRA:                  -0.221
REMARK UNBOUND:                -0.221
REMARK SMILES CCCCCCC(=O)[O-]
REMARK SMILES IDX 5 1 6 2 7 3 8 4 9 5 4 6 3 7 2 8 1 9
REMARK H PARENT
REMARK Flexibility Score: inf
ROOT
ATOM      1  C   UNL     1      30.880 -10.281  16.566  1.00  0.00     0.006 C 
ENDROOT
BRANCH   1   2
ATOM      2  C   UNL     1      29.710 -10.763  17.428  1.00  0.00     0.053 C 
BRANCH   2   3
ATOM      3  C   UNL     1      29.755 -10.123  18.779  1.00  0.00     0.041 C 
ATOM      4  O   UNL     1      28.692  -9.948  19.434  1.00  0.00    -0.550 OA
ATOM      5  O   UNL     1      30.963  -9.673  19.297  1.00  0.00    -0.550 OA
ENDBRANCH   2   3
ENDBRANCH   1   2
BRANCH   1   6
ATOM      6  C   UNL     1      31.003 -11.122  15.287  1.00  0.00     0.000 C 
BRANCH   6   7
ATOM      7  C   UNL     1      30.418 -10.416  14.054  1.00  0.00    -0.000 C 
BRANCH   7   8
ATOM      8  C   UNL     1      29.168 -11.123  13.507  1.00  0.00    -0.003 C 
ATOM      9  C   UNL     1      27.944 -10.214  13.590  1.00  0.00     0.004 C 
ENDBRANCH   7   8
ENDBRANCH   6   7
ENDBRANCH   1   6
TORSDOF 5
ENDMDL
MODEL 2
REMARK VINA RESULT:    -1.370      3.325      5.198
REMARK INTER + INTRA:          -1.991
REMARK INTER:                  -1.887
REMARK INTRA:                  -0.103
REMARK UNBOUND:                -0.221
REMARK SMILES CCCCCCC(=O)[O-]
REMARK SMILES IDX 5 1 6 2 7 3 8 4 9 5 4 6 3 7 2 8 1 9
REMARK H PARENT
REMARK Flexibility Score: inf
ROOT
ATOM      1  C   UNL     1      30.010 -10.300  15.737  1.00  0.00     0.006 C 
ENDROOT
BRANCH   1   2
ATOM      2  C   UNL     1      30.458 -11.082  14.499  1.00  0.00     0.053 C 
BRANCH   2   3
ATOM      3  C   UNL     1      29.489 -10.886  13.376  1.00  0.00     0.041 C 
ATOM      4  O   UNL     1      28.248 -10.939  13.593  1.00  0.00    -0.550 OA
ATOM      5  O   UNL     1      29.952 -10.695  12.081  1.00  0.00    -0.550 OA
ENDBRANCH   2   3
ENDBRANCH   1   2
BRANCH   1   6
ATOM      6  C   UNL     1      30.299 -11.092  17.021  1.00  0.00     0.000 C 
BRANCH   6   7
ATOM      7  C   UNL     1      29.932 -10.313  18.294  1.00  0.00    -0.000 C 
BRANCH   7   8
ATOM      8  C   UNL     1      31.124  -9.540  18.878  1.00  0.00    -0.003 C 
ATOM      9  C   UNL     1      31.001  -9.405  20.393  1.00  0.00     0.004 C 
ENDBRANCH   7   8
ENDBRANCH   6   7
ENDBRANCH   1   6
TORSDOF 5
ENDMDL
MODEL 3
REMARK VINA RESULT:    -1.356      1.280      2.097
REMARK INTER + INTRA:          -1.973
REMARK INTER:                  -1.786
REMARK INTRA:                  -0.187
REMARK UNBOUND:                -0.221
REMARK SMILES CCCCCCC(=O)[O-]
REMARK SMILES IDX 5 1 6 2 7 3 8 4 9 5 4 6 3 7 2 8 1 9
REMARK H PARENT
REMARK Flexibility Score: inf
ROOT
ATOM      1  C   UNL     1      28.659 -10.744  17.852  1.00  0.00     0.006 C 
ENDROOT
BRANCH   1   2
ATOM      2  C   UNL     1      28.453 -11.123  19.322  1.00  0.00     0.053 C 
BRANCH   2   3
ATOM      3  C   UNL     1      28.906 -10.015  20.218  1.00  0.00     0.041 C 
ATOM      4  O   UNL     1      28.392  -8.869  20.117  1.00  0.00    -0.550 OA
ATOM      5  O   UNL     1      29.930 -10.231  21.131  1.00  0.00    -0.550 OA
ENDBRANCH   2   3
ENDBRANCH   1   2
BRANCH   1   6
ATOM      6  C   UNL     1      30.115 -10.979  17.422  1.00  0.00     0.000 C 
BRANCH   6   7
ATOM      7  C   UNL     1      30.491 -10.202  16.151  1.00  0.00    -0.000 C 
BRANCH   7   8
ATOM      8  C   UNL     1      30.775 -11.125  14.957  1.00  0.00    -0.003 C 
ATOM      9  C   UNL     1      29.653 -11.046  13.924  1.00  0.00     0.004 C 
ENDBRANCH   7   8
ENDBRANCH   6   7
ENDBRANCH   1   6
TORSDOF 5
ENDMDL
MODEL 4
REMARK VINA RESULT:    -1.352      1.756      2.288
REMARK INTER + INTRA:          -1.967
REMARK INTER:                  -1.779
REMARK INTRA:                  -0.189
REMARK UNBOUND:                -0.221
REMARK SMILES CCCCCCC(=O)[O-]
REMARK SMILES IDX 5 1 6 2 7 3 8 4 9 5 4 6 3 7 2 8 1 9
REMARK H PARENT
REMARK Flexibility Score: inf
ROOT
ATOM      1  C   UNL     1      29.232 -10.046  14.797  1.00  0.00     0.006 C 
ENDROOT
BRANCH   1   2
ATOM      2  C   UNL     1      30.136 -10.915  15.676  1.00  0.00     0.053 C 
BRANCH   2   3
ATOM      3  C   UNL     1      29.842 -10.680  17.124  1.00  0.00     0.041 C 
ATOM      4  O   UNL     1      28.660 -10.769  17.553  1.00  0.00    -0.550 OA
ATOM      5  O   UNL     1      30.863 -10.314  17.992  1.00  0.00    -0.550 OA
ENDBRANCH   2   3
ENDBRANCH   1   2
BRANCH   1   6
ATOM      6  C   UNL     1      30.062  -9.202  13.819  1.00  0.00     0.000 C 
BRANCH   6   7
ATOM      7  C   UNL     1      31.105 -10.034  13.055  1.00  0.00    -0.000 C 
BRANCH   7   8
ATOM      8  C   UNL     1      31.080  -9.768  11.542  1.00  0.00    -0.003 C 
ATOM      9  C   UNL     1      29.839 -10.379  10.898  1.00  0.00     0.004 C 
ENDBRANCH   7   8
ENDBRANCH   6   7
ENDBRANCH   1   6
TORSDOF 5
ENDMDL
MODEL 5
REMARK VINA RESULT:    -1.317      1.696      2.043
REMARK INTER + INTRA:          -1.922
REMARK INTER:                  -1.651
REMARK INTRA:                  -0.271
REMARK UNBOUND:                -0.221
REMARK SMILES CCCCCCC(=O)[O-]
REMARK SMILES IDX 5 1 6 2 7 3 8 4 9 5 4 6 3 7 2 8 1 9
REMARK H PARENT
REMARK Flexibility Score: inf
ROOT
ATOM      1  C   UNL     1      30.385 -10.295  17.487  1.00  0.00     0.006 C 
ENDROOT
BRANCH   1   2
ATOM      2  C   UNL     1      29.233 -11.035  18.174  1.00  0.00     0.053 C 
BRANCH   2   3
ATOM      3  C   UNL     1      27.928 -10.370  17.869  1.00  0.00     0.041 C 
ATOM      4  O   UNL     1      27.884  -9.393  17.075  1.00  0.00    -0.550 OA
ATOM      5  O   UNL     1      26.765 -10.797  18.499  1.00  0.00    -0.550 OA
ENDBRANCH   2   3
ENDBRANCH   1   2
BRANCH   1   6
ATOM      6  C   UNL     1      30.921 -11.101  16.294  1.00  0.00     0.000 C 
BRANCH   6   7
ATOM      7  C   UNL     1      31.124 -10.240  15.038  1.00  0.00    -0.000 C 
BRANCH   7   8
ATOM      8  C   UNL     1      30.382 -10.797  13.814  1.00  0.00    -0.003 C 
ATOM      9  C   UNL     1      29.006 -10.154  13.667  1.00  0.00     0.004 C 
ENDBRANCH   7   8
ENDBRANCH   6   7
ENDBRANCH   1   6
TORSDOF 5
ENDMDL
MODEL 6
REMARK VINA RESULT:    -1.294      2.936      6.079
REMARK INTER + INTRA:          -1.892
REMARK INTER:                  -1.713
REMARK INTRA:                  -0.179
REMARK UNBOUND:                -0.221
REMARK SMILES CCCCCCC(=O)[O-]
REMARK SMILES IDX 5 1 6 2 7 3 8 4 9 5 4 6 3 7 2 8 1 9
REMARK H PARENT
REMARK Flexibility Score: inf
ROOT
ATOM      1  C   UNL     1      30.279  -8.969  19.357  1.00  0.00     0.006 C 
ENDROOT
BRANCH   1   2
ATOM      2  C   UNL     1      30.924  -9.705  18.180  1.00  0.00     0.053 C 
BRANCH   2   3
ATOM      3  C   UNL     1      29.967 -10.693  17.592  1.00  0.00     0.041 C 
ATOM      4  O   UNL     1      30.134 -11.115  16.417  1.00  0.00    -0.550 OA
ATOM      5  O   UNL     1      28.861 -11.111  18.321  1.00  0.00    -0.550 OA
ENDBRANCH   2   3
ENDBRANCH   1   2
BRANCH   1   6
ATOM      6  C   UNL     1      31.028  -9.262  20.666  1.00  0.00     0.000 C 
BRANCH   6   7
ATOM      7  C   UNL     1      30.234 -10.176  21.612  1.00  0.00    -0.000 C 
BRANCH   7   8
ATOM      8  C   UNL     1      29.893  -9.494  22.945  1.00  0.00    -0.003 C 
ATOM      9  C   UNL     1      31.125  -9.394  23.841  1.00  0.00     0.004 C 
ENDBRANCH   7   8
ENDBRANCH   6   7
ENDBRANCH   1   6
TORSDOF 5
ENDMDL
MODEL 7
REMARK VINA RESULT:    -1.289      2.125      3.003
REMARK INTER + INTRA:          -1.887
REMARK INTER:                  -1.585
REMARK INTRA:                  -0.302
REMARK UNBOUND:                -0.221
REMARK SMILES CCCCCCC(=O)[O-]
REMARK SMILES IDX 5 1 6 2 7 3 8 4 9 5 4 6 3 7 2 8 1 9
REMARK H PARENT
REMARK Flexibility Score: inf
ROOT
ATOM      1  C   UNL     1      29.680 -10.821  14.262  1.00  0.00     0.006 C 
ENDROOT
BRANCH   1   2
ATOM      2  C   UNL     1      30.902 -11.125  15.134  1.00  0.00     0.053 C 
BRANCH   2   3
ATOM      3  C   UNL     1      30.797 -10.418  16.448  1.00  0.00     0.041 C 
ATOM      4  O   UNL     1      30.424 -11.043  17.477  1.00  0.00    -0.550 OA
ATOM      5  O   UNL     1      31.062  -9.057  16.530  1.00  0.00    -0.550 OA
ENDBRANCH   2   3
ENDBRANCH   1   2
BRANCH   1   6
ATOM      6  C   UNL     1      30.104 -10.438  12.837  1.00  0.00     0.000 C 
BRANCH   6   7
ATOM      7  C   UNL     1      29.857  -8.955  12.522  1.00  0.00    -0.000 C 
BRANCH   7   8
ATOM      8  C   UNL     1      31.109  -8.090  12.730  1.00  0.00    -0.003 C 
ATOM      9  C   UNL     1      30.836  -6.957  13.716  1.00  0.00     0.004 C 
ENDBRANCH   7   8
ENDBRANCH   6   7
ENDBRANCH   1   6
TORSDOF 5
ENDMDL
MODEL 8
REMARK VINA RESULT:    -1.251      3.175      4.596
REMARK INTER + INTRA:          -1.837
REMARK INTER:                  -1.588
REMARK INTRA:                  -0.249
REMARK UNBOUND:                -0.221
REMARK SMILES CCCCCCC(=O)[O-]
REMARK SMILES IDX 5 1 6 2 7 3 8 4 9 5 4 6 3 7 2 8 1 9
REMARK H PARENT
REMARK Flexibility Score: inf
ROOT
ATOM      1  C   UNL     1      29.099  -9.561  20.689  1.00  0.00     0.006 C 
ENDROOT
BRANCH   1   2
ATOM      2  C   UNL     1      30.379  -9.689  21.519  1.00  0.00     0.053 C 
BRANCH   2   3
ATOM      3  C   UNL     1      30.050  -9.927  22.959  1.00  0.00     0.041 C 
ATOM      4  O   UNL     1      30.972 -10.092  23.801  1.00  0.00    -0.550 OA
ATOM      5  O   UNL     1      28.724 -10.015  23.365  1.00  0.00    -0.550 OA
ENDBRANCH   2   3
ENDBRANCH   1   2
BRANCH   1   6
ATOM      6  C   UNL     1      28.831 -10.845  19.890  1.00  0.00     0.000 C 
BRANCH   6   7
ATOM      7  C   UNL     1      28.570 -10.573  18.400  1.00  0.00    -0.000 C 
BRANCH   7   8
ATOM      8  C   UNL     1      29.682 -11.125  17.496  1.00  0.00    -0.003 C 
ATOM      9  C   UNL     1      30.850 -10.147  17.404  1.00  0.00     0.004 C 
ENDBRANCH   7   8
ENDBRANCH   6   7
ENDBRANCH   1   6
TORSDOF 5
ENDMDL
MODEL 9
REMARK VINA RESULT:     0.849      1.369      2.594
REMARK INTER + INTRA:           0.876
REMARK INTER:                   1.115
REMARK INTRA:                  -0.239
REMARK UNBOUND:                -0.221
REMARK SMILES CCCCCCC(=O)[O-]
REMARK SMILES IDX 5 1 6 2 7 3 8 4 9 5 4 6 3 7 2 8 1 9
REMARK H PARENT
REMARK Flexibility Score: inf
ROOT
ATOM      1  C   UNL     1      29.012  -9.794  18.401  1.00  0.00     0.006 C 
ENDROOT
BRANCH   1   2
ATOM      2  C   UNL     1      30.276  -9.615  19.246  1.00  0.00     0.053 C 
BRANCH   2   3
ATOM      3  C   UNL     1      30.015  -9.996  20.668  1.00  0.00     0.041 C 
ATOM      4  O   UNL     1      30.869  -9.743  21.559  1.00  0.00    -0.550 OA
ATOM      5  O   UNL     1      28.851 -10.675  21.005  1.00  0.00    -0.550 OA
ENDBRANCH   2   3
ENDBRANCH   1   2
BRANCH   1   6
ATOM      6  C   UNL     1      29.265 -10.750  17.227  1.00  0.00     0.000 C 
BRANCH   6   7
ATOM      7  C   UNL     1      30.759 -10.915  16.907  1.00  0.00    -0.000 C 
BRANCH   7   8
ATOM      8  C   UNL     1      31.024 -11.125  15.409  1.00  0.00    -0.003 C 
ATOM      9  C   UNL     1      29.779 -10.813  14.583  1.00  0.00     0.004 C 
ENDBRANCH   7   8
ENDBRANCH   6   7
ENDBRANCH   1   6
TORSDOF 5
ENDMDL
