MODEL 1
REMARK VINA RESULT:    -4.355      0.000      0.000
REMARK INTER + INTRA:          -6.051
REMARK INTER:                  -5.755
REMARK INTRA:                  -0.295
REMARK UNBOUND:                -0.295
REMARK SMILES CCCCCCCO
REMARK SMILES IDX 5 1 4 2 3 3 2 4 1 5 6 6 7 7 8 8
REMARK H PARENT 8 9
REMARK Flexibility Score: inf
ROOT
ATOM      1  C   UNL     1      19.818  -5.353  17.250  1.00  0.00     0.002 C 
ENDROOT
BRANCH   1   2
ATOM      2  C   UNL     1      18.764  -4.235  17.146  1.00  0.00     0.000 C 
BRANCH   2   3
ATOM      3  C   UNL     1      18.756  -3.543  15.775  1.00  0.00    -0.000 C 
BRANCH   3   4
ATOM      4  C   UNL     1      20.179  -3.173  15.340  1.00  0.00    -0.003 C 
ATOM      5  C   UNL     1      20.523  -3.799  13.992  1.00  0.00     0.004 C 
ENDBRANCH   3   4
ENDBRANCH   2   3
ENDBRANCH   1   2
BRANCH   1   6
ATOM      6  C   UNL     1      19.451  -6.660  16.524  1.00  0.00     0.028 C 
BRANCH   6   7
ATOM      7  C   UNL     1      20.578  -7.183  15.625  1.00  0.00     0.156 C 
BRANCH   7   8
ATOM      8  O   UNL     1      20.454  -8.569  15.454  1.00  0.00    -0.396 OA
ATOM      9  H   UNL     1      19.744  -8.710  14.775  1.00  0.00     0.210 HD
ENDBRANCH   7   8
ENDBRANCH   6   7
ENDBRANCH   1   6
TORSDOF 6
ENDMDL
MODEL 2
REMARK VINA RESULT:    -4.351      1.546      2.492
REMARK INTER + INTRA:          -6.046
REMARK INTER:                  -5.729
REMARK INTRA:                  -0.317
REMARK UNBOUND:                -0.295
REMARK SMILES CCCCCCCO
REMARK SMILES IDX 5 1 4 2 3 3 2 4 1 5 6 6 7 7 8 8
REMARK H PARENT 8 9
REMARK Flexibility Score: inf
ROOT
ATOM      1  C   UNL     1      21.604  -5.293  14.602  1.00  0.00     0.002 C 
ENDROOT
BRANCH   1   2
ATOM      2  C   UNL     1      20.694  -4.104  14.241  1.00  0.00     0.000 C 
BRANCH   2   3
ATOM      3  C   UNL     1      20.662  -3.022  15.330  1.00  0.00    -0.000 C 
BRANCH   3   4
ATOM      4  C   UNL     1      19.367  -3.102  16.145  1.00  0.00    -0.003 C 
ATOM      5  C   UNL     1      18.253  -3.771  15.346  1.00  0.00     0.004 C 
ENDBRANCH   3   4
ENDBRANCH   2   3
ENDBRANCH   1   2
BRANCH   1   6
ATOM      6  C   UNL     1      20.892  -6.467  15.298  1.00  0.00     0.028 C 
BRANCH   6   7
ATOM      7  C   UNL     1      21.071  -6.460  16.821  1.00  0.00     0.156 C 
BRANCH   7   8
ATOM      8  O   UNL     1      22.339  -6.953  17.160  1.00  0.00    -0.396 OA
ATOM      9  H   UNL     1      22.774  -6.260  17.721  1.00  0.00     0.210 HD
ENDBRANCH   7   8
ENDBRANCH   6   7
ENDBRANCH   1   6
TORSDOF 6
ENDMDL
MODEL 3
REMARK VINA RESULT:    -4.331      1.693      2.802
REMARK INTER + INTRA:          -6.019
REMARK INTER:                  -5.710
REMARK INTRA:                  -0.309
REMARK UNBOUND:                -0.295
REMARK SMILES CCCCCCCO
REMARK SMILES IDX 5 1 4 2 3 3 2 4 1 5 6 6 7 7 8 8
REMARK H PARENT 8 9
REMARK Flexibility Score: inf
ROOT
ATOM      1  C   UNL     1      21.166  -5.310  14.594  1.00  0.00     0.002 C 
ENDROOT
BRANCH   1   2
ATOM      2  C   UNL     1      20.659  -3.916  14.178  1.00  0.00     0.000 C 
BRANCH   2   3
ATOM      3  C   UNL     1      20.174  -3.076  15.368  1.00  0.00    -0.000 C 
BRANCH   3   4
ATOM      4  C   UNL     1      18.770  -3.507  15.808  1.00  0.00    -0.003 C 
ATOM      5  C   UNL     1      18.781  -4.051  17.233  1.00  0.00     0.004 C 
ENDBRANCH   3   4
ENDBRANCH   2   3
ENDBRANCH   1   2
BRANCH   1   6
ATOM      6  C   UNL     1      22.066  -5.327  15.843  1.00  0.00     0.028 C 
BRANCH   6   7
ATOM      7  C   UNL     1      21.675  -6.416  16.849  1.00  0.00     0.156 C 
BRANCH   7   8
ATOM      8  O   UNL     1      22.808  -7.145  17.236  1.00  0.00    -0.396 OA
ATOM      9  H   UNL     1      23.488  -6.482  17.525  1.00  0.00     0.210 HD
ENDBRANCH   7   8
ENDBRANCH   6   7
ENDBRANCH   1   6
TORSDOF 6
ENDMDL
MODEL 4
REMARK VINA RESULT:    -4.182      1.534      3.365
REMARK INTER + INTRA:          -5.822
REMARK INTER:                  -5.474
REMARK INTRA:                  -0.348
REMARK UNBOUND:                -0.295
REMARK SMILES CCCCCCCO
REMARK SMILES IDX 5 1 4 2 3 3 2 4 1 5 6 6 7 7 8 8
REMARK H PARENT 8 9
REMARK Flexibility Score: inf
ROOT
ATOM      1  C   UNL     1      18.873  -3.434  15.927  1.00  0.00     0.002 C 
ENDROOT
BRANCH   1   2
ATOM      2  C   UNL     1      18.912  -4.206  17.259  1.00  0.00     0.000 C 
BRANCH   2   3
ATOM      3  C   UNL     1      19.894  -5.387  17.239  1.00  0.00    -0.000 C 
BRANCH   3   4
ATOM      4  C   UNL     1      19.278  -6.600  16.533  1.00  0.00    -0.003 C 
ATOM      5  C   UNL     1      20.333  -7.375  15.749  1.00  0.00     0.004 C 
ENDBRANCH   3   4
ENDBRANCH   2   3
ENDBRANCH   1   2
BRANCH   1   6
ATOM      6  C   UNL     1      20.252  -3.143  15.305  1.00  0.00     0.028 C 
BRANCH   6   7
ATOM      7  C   UNL     1      20.437  -3.790  13.928  1.00  0.00     0.156 C 
BRANCH   7   8
ATOM      8  O   UNL     1      21.524  -4.675  13.953  1.00  0.00    -0.396 OA
ATOM      9  H   UNL     1      21.219  -5.488  14.434  1.00  0.00     0.210 HD
ENDBRANCH   7   8
ENDBRANCH   6   7
ENDBRANCH   1   6
TORSDOF 6
ENDMDL
MODEL 5
REMARK VINA RESULT:    -4.151      2.628      3.360
REMARK INTER + INTRA:          -5.781
REMARK INTER:                  -5.555
REMARK INTRA:                  -0.226
REMARK UNBOUND:                -0.295
REMARK SMILES CCCCCCCO
REMARK SMILES IDX 5 1 4 2 3 3 2 4 1 5 6 6 7 7 8 8
REMARK H PARENT 8 9
REMARK Flexibility Score: inf
ROOT
ATOM      1  C   UNL     1      21.674  -5.244  14.648  1.00  0.00     0.002 C 
ENDROOT
BRANCH   1   2
ATOM      2  C   UNL     1      20.803  -4.012  14.339  1.00  0.00     0.000 C 
BRANCH   2   3
ATOM      3  C   UNL     1      20.549  -3.134  15.573  1.00  0.00    -0.000 C 
BRANCH   3   4
ATOM      4  C   UNL     1      19.260  -3.553  16.288  1.00  0.00    -0.003 C 
ATOM      5  C   UNL     1      18.174  -3.936  15.287  1.00  0.00     0.004 C 
ENDBRANCH   3   4
ENDBRANCH   2   3
ENDBRANCH   1   2
BRANCH   1   6
ATOM      6  C   UNL     1      22.846  -4.986  15.613  1.00  0.00     0.028 C 
BRANCH   6   7
ATOM      7  C   UNL     1      24.208  -5.356  15.014  1.00  0.00     0.156 C 
BRANCH   7   8
ATOM      8  O   UNL     1      24.046  -5.836  13.707  1.00  0.00    -0.396 OA
ATOM      9  H   UNL     1      24.650  -5.301  13.129  1.00  0.00     0.210 HD
ENDBRANCH   7   8
ENDBRANCH   6   7
ENDBRANCH   1   6
TORSDOF 6
ENDMDL
MODEL 6
REMARK VINA RESULT:    -4.144      1.819      2.377
REMARK INTER + INTRA:          -5.772
REMARK INTER:                  -5.524
REMARK INTRA:                  -0.247
REMARK UNBOUND:                -0.295
REMARK SMILES CCCCCCCO
REMARK SMILES IDX 5 1 4 2 3 3 2 4 1 5 6 6 7 7 8 8
REMARK H PARENT 8 9
REMARK Flexibility Score: inf
ROOT
ATOM      1  C   UNL     1      19.599  -6.028  15.426  1.00  0.00     0.002 C 
ENDROOT
BRANCH   1   2
ATOM      2  C   UNL     1      19.479  -5.705  16.927  1.00  0.00     0.000 C 
BRANCH   2   3
ATOM      3  C   UNL     1      19.017  -4.264  17.194  1.00  0.00    -0.000 C 
BRANCH   3   4
ATOM      4  C   UNL     1      19.004  -3.443  15.901  1.00  0.00    -0.003 C 
ATOM      5  C   UNL     1      20.107  -2.389  15.905  1.00  0.00     0.004 C 
ENDBRANCH   3   4
ENDBRANCH   2   3
ENDBRANCH   1   2
BRANCH   1   6
ATOM      6  C   UNL     1      21.003  -6.464  14.967  1.00  0.00     0.028 C 
BRANCH   6   7
ATOM      7  C   UNL     1      21.967  -5.286  14.784  1.00  0.00     0.156 C 
BRANCH   7   8
ATOM      8  O   UNL     1      23.033  -5.660  13.953  1.00  0.00    -0.396 OA
ATOM      9  H   UNL     1      23.194  -4.900  13.336  1.00  0.00     0.210 HD
ENDBRANCH   7   8
ENDBRANCH   6   7
ENDBRANCH   1   6
TORSDOF 6
ENDMDL
MODEL 7
REMARK VINA RESULT:    -4.141      3.123      3.954
REMARK INTER + INTRA:          -5.768
REMARK INTER:                  -5.525
REMARK INTRA:                  -0.244
REMARK UNBOUND:                -0.295
REMARK SMILES CCCCCCCO
REMARK SMILES IDX 5 1 4 2 3 3 2 4 1 5 6 6 7 7 8 8
REMARK H PARENT 8 9
REMARK Flexibility Score: inf
ROOT
ATOM      1  C   UNL     1      22.155  -4.937  15.279  1.00  0.00     0.002 C 
ENDROOT
BRANCH   1   2
ATOM      2  C   UNL     1      20.904  -4.509  14.490  1.00  0.00     0.000 C 
BRANCH   2   3
ATOM      3  C   UNL     1      20.227  -3.259  15.072  1.00  0.00    -0.000 C 
BRANCH   3   4
ATOM      4  C   UNL     1      18.816  -3.584  15.574  1.00  0.00    -0.003 C 
ATOM      5  C   UNL     1      18.829  -3.960  17.053  1.00  0.00     0.004 C 
ENDBRANCH   3   4
ENDBRANCH   2   3
ENDBRANCH   1   2
BRANCH   1   6
ATOM      6  C   UNL     1      22.480  -4.064  16.504  1.00  0.00     0.028 C 
BRANCH   6   7
ATOM      7  C   UNL     1      23.986  -3.861  16.714  1.00  0.00     0.156 C 
BRANCH   7   8
ATOM      8  O   UNL     1      24.239  -3.471  18.037  1.00  0.00    -0.396 OA
ATOM      9  H   UNL     1      23.451  -3.748  18.572  1.00  0.00     0.210 HD
ENDBRANCH   7   8
ENDBRANCH   6   7
ENDBRANCH   1   6
TORSDOF 6
ENDMDL
MODEL 8
REMARK VINA RESULT:    -4.077      2.133      2.889
REMARK INTER + INTRA:          -5.684
REMARK INTER:                  -5.335
REMARK INTRA:                  -0.349
REMARK UNBOUND:                -0.295
REMARK SMILES CCCCCCCO
REMARK SMILES IDX 5 1 4 2 3 3 2 4 1 5 6 6 7 7 8 8
REMARK H PARENT 8 9
REMARK Flexibility Score: inf
ROOT
ATOM      1  C   UNL     1      20.996  -3.119  15.549  1.00  0.00     0.002 C 
ENDROOT
BRANCH   1   2
ATOM      2  C   UNL     1      19.817  -2.741  16.465  1.00  0.00     0.000 C 
BRANCH   2   3
ATOM      3  C   UNL     1      18.739  -3.833  16.536  1.00  0.00    -0.000 C 
BRANCH   3   4
ATOM      4  C   UNL     1      18.443  -4.401  15.144  1.00  0.00    -0.003 C 
ATOM      5  C   UNL     1      18.645  -5.913  15.110  1.00  0.00     0.004 C 
ENDBRANCH   3   4
ENDBRANCH   2   3
ENDBRANCH   1   2
BRANCH   1   6
ATOM      6  C   UNL     1      22.050  -4.037  16.194  1.00  0.00     0.028 C 
BRANCH   6   7
ATOM      7  C   UNL     1      22.633  -5.062  15.213  1.00  0.00     0.156 C 
BRANCH   7   8
ATOM      8  O   UNL     1      21.910  -5.045  14.012  1.00  0.00    -0.396 OA
ATOM      9  H   UNL     1      21.093  -5.588  14.163  1.00  0.00     0.210 HD
ENDBRANCH   7   8
ENDBRANCH   6   7
ENDBRANCH   1   6
TORSDOF 6
ENDMDL
MODEL 9
REMARK VINA RESULT:    -4.057      1.543      2.173
REMARK INTER + INTRA:          -5.657
REMARK INTER:                  -5.265
REMARK INTRA:                  -0.392
REMARK UNBOUND:                -0.295
REMARK SMILES CCCCCCCO
REMARK SMILES IDX 5 1 4 2 3 3 2 4 1 5 6 6 7 7 8 8
REMARK H PARENT 8 9
REMARK Flexibility Score: inf
ROOT
ATOM      1  C   UNL     1      21.328  -4.819  16.970  1.00  0.00     0.002 C 
ENDROOT
BRANCH   1   2
ATOM      2  C   UNL     1      21.624  -3.532  16.177  1.00  0.00     0.000 C 
BRANCH   2   3
ATOM      3  C   UNL     1      20.357  -2.737  15.829  1.00  0.00    -0.000 C 
BRANCH   3   4
ATOM      4  C   UNL     1      19.105  -3.439  16.366  1.00  0.00    -0.003 C 
ATOM      5  C   UNL     1      18.144  -3.795  15.235  1.00  0.00     0.004 C 
ENDBRANCH   3   4
ENDBRANCH   2   3
ENDBRANCH   1   2
BRANCH   1   6
ATOM      6  C   UNL     1      21.733  -6.125  16.261  1.00  0.00     0.028 C 
BRANCH   6   7
ATOM      7  C   UNL     1      20.572  -6.780  15.503  1.00  0.00     0.156 C 
BRANCH   7   8
ATOM      8  O   UNL     1      20.443  -6.207  14.231  1.00  0.00    -0.396 OA
ATOM      9  H   UNL     1      19.481  -6.259  13.990  1.00  0.00     0.210 HD
ENDBRANCH   7   8
ENDBRANCH   6   7
ENDBRANCH   1   6
TORSDOF 6
ENDMDL
