MODEL 1
REMARK VINA RESULT:    -3.562      0.000      0.000
REMARK INTER + INTRA:          -6.528
REMARK INTER:                  -5.436
REMARK INTRA:                  -1.092
REMARK UNBOUND:                -1.092
REMARK SMILES CCCCCCCCCCC(=O)[O-]
REMARK SMILES IDX 7 1 8 2 9 3 10 4 11 5 12 6 13 7 6 8 5 9 4 10 3 11 2 12 1 13
REMARK H PARENT
REMARK Flexibility Score: inf
ROOT
ATOM      1  C   UNL     1      28.781  13.531 -17.035  1.00  0.00     0.000 C 
ENDROOT
BRANCH   1   2
ATOM      2  C   UNL     1      29.672  14.413 -16.147  1.00  0.00     0.000 C 
BRANCH   2   3
ATOM      3  C   UNL     1      29.883  13.820 -14.745  1.00  0.00     0.006 C 
BRANCH   3   4
ATOM      4  C   UNL     1      28.568  13.392 -14.080  1.00  0.00     0.053 C 
BRANCH   4   5
ATOM      5  C   UNL     1      28.296  14.235 -12.874  1.00  0.00     0.041 C 
ATOM      6  O   UNL     1      28.193  13.701 -11.738  1.00  0.00    -0.550 OA
ATOM      7  O   UNL     1      28.204  15.615 -12.997  1.00  0.00    -0.550 OA
ENDBRANCH   4   5
ENDBRANCH   3   4
ENDBRANCH   2   3
ENDBRANCH   1   2
BRANCH   1   8
ATOM      8  C   UNL     1      29.469  13.224 -18.371  1.00  0.00     0.000 C 
BRANCH   8   9
ATOM      9  C   UNL     1      30.760  12.420 -18.154  1.00  0.00    -0.000 C 
BRANCH   9  10
ATOM     10  C   UNL     1      30.718  11.038 -18.826  1.00  0.00    -0.000 C 
BRANCH  10  11
ATOM     11  C   UNL     1      30.510   9.898 -17.819  1.00  0.00    -0.000 C 
BRANCH  11  12
ATOM     12  C   UNL     1      30.705  10.393 -16.381  1.00  0.00    -0.003 C 
ATOM     13  C   UNL     1      29.490  10.070 -15.516  1.00  0.00     0.004 C 
ENDBRANCH  11  12
ENDBRANCH  10  11
ENDBRANCH   9  10
ENDBRANCH   8   9
ENDBRANCH   1   8
TORSDOF 9
ENDMDL
MODEL 2
REMARK VINA RESULT:    -3.531      2.317      3.791
REMARK INTER + INTRA:          -6.480
REMARK INTER:                  -5.591
REMARK INTRA:                  -0.889
REMARK UNBOUND:                -1.092
REMARK SMILES CCCCCCCCCCC(=O)[O-]
REMARK SMILES IDX 7 1 8 2 9 3 10 4 11 5 12 6 13 7 6 8 5 9 4 10 3 11 2 12 1 13
REMARK H PARENT
REMARK Flexibility Score: inf
ROOT
ATOM      1  C   UNL     1      29.229  11.818 -14.109  1.00  0.00     0.000 C 
ENDROOT
BRANCH   1   2
ATOM      2  C   UNL     1      29.169  13.010 -13.142  1.00  0.00     0.000 C 
BRANCH   2   3
ATOM      3  C   UNL     1      27.772  13.647 -13.072  1.00  0.00     0.006 C 
BRANCH   3   4
ATOM      4  C   UNL     1      27.495  14.320 -11.721  1.00  0.00     0.053 C 
BRANCH   4   5
ATOM      5  C   UNL     1      26.477  13.542 -10.951  1.00  0.00     0.041 C 
ATOM      6  O   UNL     1      26.592  12.294 -10.827  1.00  0.00    -0.550 OA
ATOM      7  O   UNL     1      25.426  14.201 -10.325  1.00  0.00    -0.550 OA
ENDBRANCH   4   5
ENDBRANCH   3   4
ENDBRANCH   2   3
ENDBRANCH   1   2
BRANCH   1   8
ATOM      8  C   UNL     1      29.731  12.256 -15.490  1.00  0.00     0.000 C 
BRANCH   8   9
ATOM      9  C   UNL     1      28.561  12.655 -16.401  1.00  0.00    -0.000 C 
BRANCH   9  10
ATOM     10  C   UNL     1      28.942  13.744 -17.415  1.00  0.00    -0.000 C 
BRANCH  10  11
ATOM     11  C   UNL     1      30.234  14.481 -17.034  1.00  0.00    -0.000 C 
BRANCH  11  12
ATOM     12  C   UNL     1      29.940  15.931 -16.632  1.00  0.00    -0.003 C 
ATOM     13  C   UNL     1      29.900  16.086 -15.114  1.00  0.00     0.004 C 
ENDBRANCH  11  12
ENDBRANCH  10  11
ENDBRANCH   9  10
ENDBRANCH   8   9
ENDBRANCH   1   8
TORSDOF 9
ENDMDL
MODEL 3
REMARK VINA RESULT:    -3.510     18.051     19.806
REMARK INTER + INTRA:          -6.448
REMARK INTER:                  -5.354
REMARK INTRA:                  -1.094
REMARK UNBOUND:                -1.092
REMARK SMILES CCCCCCCCCCC(=O)[O-]
REMARK SMILES IDX 7 1 8 2 9 3 10 4 11 5 12 6 13 7 6 8 5 9 4 10 3 11 2 12 1 13
REMARK H PARENT
REMARK Flexibility Score: inf
ROOT
ATOM      1  C   UNL     1      16.528  -1.513 -11.803  1.00  0.00     0.000 C 
ENDROOT
BRANCH   1   2
ATOM      2  C   UNL     1      15.822  -0.164 -11.600  1.00  0.00     0.000 C 
BRANCH   2   3
ATOM      3  C   UNL     1      14.439  -0.112 -12.269  1.00  0.00     0.006 C 
BRANCH   3   4
ATOM      4  C   UNL     1      14.127  -1.377 -13.080  1.00  0.00     0.053 C 
BRANCH   4   5
ATOM      5  C   UNL     1      12.878  -1.188 -13.880  1.00  0.00     0.041 C 
ATOM      6  O   UNL     1      12.940  -0.751 -15.060  1.00  0.00    -0.550 OA
ATOM      7  O   UNL     1      11.647  -1.541 -13.341  1.00  0.00    -0.550 OA
ENDBRANCH   4   5
ENDBRANCH   3   4
ENDBRANCH   2   3
ENDBRANCH   1   2
BRANCH   1   8
ATOM      8  C   UNL     1      17.897  -1.526 -11.111  1.00  0.00     0.000 C 
BRANCH   8   9
ATOM      9  C   UNL     1      19.034  -1.584 -12.142  1.00  0.00    -0.000 C 
BRANCH   9  10
ATOM     10  C   UNL     1      18.533  -1.439 -13.587  1.00  0.00    -0.000 C 
BRANCH  10  11
ATOM     11  C   UNL     1      18.774  -0.034 -14.160  1.00  0.00    -0.000 C 
BRANCH  11  12
ATOM     12  C   UNL     1      17.510   0.506 -14.839  1.00  0.00    -0.003 C 
ATOM     13  C   UNL     1      16.720  -0.615 -15.506  1.00  0.00     0.004 C 
ENDBRANCH  11  12
ENDBRANCH  10  11
ENDBRANCH   9  10
ENDBRANCH   8   9
ENDBRANCH   1   8
TORSDOF 9
ENDMDL
MODEL 4
REMARK VINA RESULT:    -3.477      1.251      2.944
REMARK INTER + INTRA:          -6.398
REMARK INTER:                  -5.260
REMARK INTRA:                  -1.138
REMARK UNBOUND:                -1.092
REMARK SMILES CCCCCCCCCCC(=O)[O-]
REMARK SMILES IDX 7 1 8 2 9 3 10 4 11 5 12 6 13 7 6 8 5 9 4 10 3 11 2 12 1 13
REMARK H PARENT
REMARK Flexibility Score: inf
ROOT
ATOM      1  C   UNL     1      30.532  11.782 -14.595  1.00  0.00     0.000 C 
ENDROOT
BRANCH   1   2
ATOM      2  C   UNL     1      29.919  12.790 -13.611  1.00  0.00     0.000 C 
BRANCH   2   3
ATOM      3  C   UNL     1      28.516  13.253 -14.034  1.00  0.00     0.006 C 
BRANCH   3   4
ATOM      4  C   UNL     1      27.638  13.648 -12.839  1.00  0.00     0.053 C 
BRANCH   4   5
ATOM      5  C   UNL     1      27.811  15.099 -12.522  1.00  0.00     0.041 C 
ATOM      6  O   UNL     1      27.488  15.544 -11.389  1.00  0.00    -0.550 OA
ATOM      7  O   UNL     1      28.376  15.953 -13.460  1.00  0.00    -0.550 OA
ENDBRANCH   4   5
ENDBRANCH   3   4
ENDBRANCH   2   3
ENDBRANCH   1   2
BRANCH   1   8
ATOM      8  C   UNL     1      29.563  11.477 -15.744  1.00  0.00     0.000 C 
BRANCH   8   9
ATOM      9  C   UNL     1      30.321  11.277 -17.065  1.00  0.00    -0.000 C 
BRANCH   9  10
ATOM     10  C   UNL     1      30.307  12.532 -17.953  1.00  0.00    -0.000 C 
BRANCH  10  11
ATOM     11  C   UNL     1      29.081  13.421 -17.700  1.00  0.00    -0.000 C 
BRANCH  11  12
ATOM     12  C   UNL     1      29.489  14.894 -17.578  1.00  0.00    -0.003 C 
ATOM     13  C   UNL     1      30.608  15.075 -16.556  1.00  0.00     0.004 C 
ENDBRANCH  11  12
ENDBRANCH  10  11
ENDBRANCH   9  10
ENDBRANCH   8   9
ENDBRANCH   1   8
TORSDOF 9
ENDMDL
MODEL 5
REMARK VINA RESULT:    -3.459      3.419      5.640
REMARK INTER + INTRA:          -6.371
REMARK INTER:                  -5.938
REMARK INTRA:                  -0.433
REMARK UNBOUND:                -1.092
REMARK SMILES CCCCCCCCCCC(=O)[O-]
REMARK SMILES IDX 7 1 8 2 9 3 10 4 11 5 12 6 13 7 6 8 5 9 4 10 3 11 2 12 1 13
REMARK H PARENT
REMARK Flexibility Score: inf
ROOT
ATOM      1  C   UNL     1      26.243  13.090 -11.508  1.00  0.00     0.000 C 
ENDROOT
BRANCH   1   2
ATOM      2  C   UNL     1      25.639  14.137 -10.561  1.00  0.00     0.000 C 
BRANCH   2   3
ATOM      3  C   UNL     1      24.348  14.762 -11.114  1.00  0.00     0.006 C 
BRANCH   3   4
ATOM      4  C   UNL     1      24.556  15.442 -12.474  1.00  0.00     0.053 C 
BRANCH   4   5
ATOM      5  C   UNL     1      23.332  16.205 -12.867  1.00  0.00     0.041 C 
ATOM      6  O   UNL     1      22.577  16.692 -11.984  1.00  0.00    -0.550 OA
ATOM      7  O   UNL     1      23.050  16.423 -14.210  1.00  0.00    -0.550 OA
ENDBRANCH   4   5
ENDBRANCH   3   4
ENDBRANCH   2   3
ENDBRANCH   1   2
BRANCH   1   8
ATOM      8  C   UNL     1      27.766  13.247 -11.602  1.00  0.00     0.000 C 
BRANCH   8   9
ATOM      9  C   UNL     1      28.177  13.819 -12.966  1.00  0.00    -0.000 C 
BRANCH   9  10
ATOM     10  C   UNL     1      29.023  12.836 -13.791  1.00  0.00    -0.000 C 
BRANCH  10  11
ATOM     11  C   UNL     1      28.526  12.698 -15.238  1.00  0.00    -0.000 C 
BRANCH  11  12
ATOM     12  C   UNL     1      29.213  13.718 -16.153  1.00  0.00    -0.003 C 
ATOM     13  C   UNL     1      28.943  13.412 -17.623  1.00  0.00     0.004 C 
ENDBRANCH  11  12
ENDBRANCH  10  11
ENDBRANCH   9  10
ENDBRANCH   8   9
ENDBRANCH   1   8
TORSDOF 9
ENDMDL
MODEL 6
REMARK VINA RESULT:    -3.444      1.314      3.238
REMARK INTER + INTRA:          -6.348
REMARK INTER:                  -5.121
REMARK INTRA:                  -1.227
REMARK UNBOUND:                -1.092
REMARK SMILES CCCCCCCCCCC(=O)[O-]
REMARK SMILES IDX 7 1 8 2 9 3 10 4 11 5 12 6 13 7 6 8 5 9 4 10 3 11 2 12 1 13
REMARK H PARENT
REMARK Flexibility Score: inf
ROOT
ATOM      1  C   UNL     1      29.139  11.488 -15.700  1.00  0.00     0.000 C 
ENDROOT
BRANCH   1   2
ATOM      2  C   UNL     1      29.887  11.497 -14.358  1.00  0.00     0.000 C 
BRANCH   2   3
ATOM      3  C   UNL     1      29.744  12.831 -13.609  1.00  0.00     0.006 C 
BRANCH   3   4
ATOM      4  C   UNL     1      28.364  13.473 -13.802  1.00  0.00     0.053 C 
BRANCH   4   5
ATOM      5  C   UNL     1      27.665  13.612 -12.487  1.00  0.00     0.041 C 
ATOM      6  O   UNL     1      26.515  14.122 -12.430  1.00  0.00    -0.550 OA
ATOM      7  O   UNL     1      28.264  13.134 -11.328  1.00  0.00    -0.550 OA
ENDBRANCH   4   5
ENDBRANCH   3   4
ENDBRANCH   2   3
ENDBRANCH   1   2
BRANCH   1   8
ATOM      8  C   UNL     1      30.109  11.275 -16.869  1.00  0.00     0.000 C 
BRANCH   8   9
ATOM      9  C   UNL     1      29.991  12.409 -17.897  1.00  0.00    -0.000 C 
BRANCH   9  10
ATOM     10  C   UNL     1      28.963  13.476 -17.488  1.00  0.00    -0.000 C 
BRANCH  10  11
ATOM     11  C   UNL     1      29.553  14.893 -17.478  1.00  0.00    -0.000 C 
BRANCH  11  12
ATOM     12  C   UNL     1      30.672  15.014 -16.436  1.00  0.00    -0.003 C 
ATOM     13  C   UNL     1      30.372  16.122 -15.431  1.00  0.00     0.004 C 
ENDBRANCH  11  12
ENDBRANCH  10  11
ENDBRANCH   9  10
ENDBRANCH   8   9
ENDBRANCH   1   8
TORSDOF 9
ENDMDL
MODEL 7
REMARK VINA RESULT:    -3.404      1.952      2.665
REMARK INTER + INTRA:          -6.287
REMARK INTER:                  -5.379
REMARK INTRA:                  -0.909
REMARK UNBOUND:                -1.092
REMARK SMILES CCCCCCCCCCC(=O)[O-]
REMARK SMILES IDX 7 1 8 2 9 3 10 4 11 5 12 6 13 7 6 8 5 9 4 10 3 11 2 12 1 13
REMARK H PARENT
REMARK Flexibility Score: inf
ROOT
ATOM      1  C   UNL     1      28.449  12.403 -16.189  1.00  0.00     0.000 C 
ENDROOT
BRANCH   1   2
ATOM      2  C   UNL     1      28.937  12.483 -14.735  1.00  0.00     0.000 C 
BRANCH   2   3
ATOM      3  C   UNL     1      30.425  12.127 -14.589  1.00  0.00     0.006 C 
BRANCH   3   4
ATOM      4  C   UNL     1      30.659  10.933 -13.655  1.00  0.00     0.053 C 
BRANCH   4   5
ATOM      5  C   UNL     1      30.153  11.238 -12.282  1.00  0.00     0.041 C 
ATOM      6  O   UNL     1      30.696  12.141 -11.592  1.00  0.00    -0.550 OA
ATOM      7  O   UNL     1      29.049  10.560 -11.781  1.00  0.00    -0.550 OA
ENDBRANCH   4   5
ENDBRANCH   3   4
ENDBRANCH   2   3
ENDBRANCH   1   2
BRANCH   1   8
ATOM      8  C   UNL     1      28.903  13.630 -16.990  1.00  0.00     0.000 C 
BRANCH   8   9
ATOM      9  C   UNL     1      29.493  13.215 -18.346  1.00  0.00    -0.000 C 
BRANCH   9  10
ATOM     10  C   UNL     1      30.794  12.409 -18.206  1.00  0.00    -0.000 C 
BRANCH  10  11
ATOM     11  C   UNL     1      30.681  10.996 -18.795  1.00  0.00    -0.000 C 
BRANCH  11  12
ATOM     12  C   UNL     1      30.743   9.934 -17.690  1.00  0.00    -0.003 C 
ATOM     13  C   UNL     1      30.231   8.587 -18.190  1.00  0.00     0.004 C 
ENDBRANCH  11  12
ENDBRANCH  10  11
ENDBRANCH   9  10
ENDBRANCH   8   9
ENDBRANCH   1   8
TORSDOF 9
ENDMDL
MODEL 8
REMARK VINA RESULT:    -3.393      3.113      5.978
REMARK INTER + INTRA:          -6.270
REMARK INTER:                  -5.648
REMARK INTRA:                  -0.623
REMARK UNBOUND:                -1.092
REMARK SMILES CCCCCCCCCCC(=O)[O-]
REMARK SMILES IDX 7 1 8 2 9 3 10 4 11 5 12 6 13 7 6 8 5 9 4 10 3 11 2 12 1 13
REMARK H PARENT
REMARK Flexibility Score: inf
ROOT
ATOM      1  C   UNL     1      29.809  15.064 -15.157  1.00  0.00     0.000 C 
ENDROOT
BRANCH   1   2
ATOM      2  C   UNL     1      29.675  14.970 -16.685  1.00  0.00     0.000 C 
BRANCH   2   3
ATOM      3  C   UNL     1      29.077  13.633 -17.147  1.00  0.00     0.006 C 
BRANCH   3   4
ATOM      4  C   UNL     1      29.794  13.056 -18.375  1.00  0.00     0.053 C 
BRANCH   4   5
ATOM      5  C   UNL     1      30.306  11.682 -18.082  1.00  0.00     0.041 C 
ATOM      6  O   UNL     1      30.651  10.920 -19.023  1.00  0.00    -0.550 OA
ATOM      7  O   UNL     1      30.449  11.259 -16.767  1.00  0.00    -0.550 OA
ENDBRANCH   4   5
ENDBRANCH   3   4
ENDBRANCH   2   3
ENDBRANCH   1   2
BRANCH   1   8
ATOM      8  C   UNL     1      29.477  13.722 -14.493  1.00  0.00     0.000 C 
BRANCH   8   9
ATOM      9  C   UNL     1      28.516  13.915 -13.311  1.00  0.00    -0.000 C 
BRANCH   9  10
ATOM     10  C   UNL     1      28.187  15.394 -13.050  1.00  0.00    -0.000 C 
BRANCH  10  11
ATOM     11  C   UNL     1      27.044  15.576 -12.041  1.00  0.00    -0.000 C 
BRANCH  11  12
ATOM     12  C   UNL     1      26.065  14.398 -12.103  1.00  0.00    -0.003 C 
ATOM     13  C   UNL     1      25.883  13.758 -10.730  1.00  0.00     0.004 C 
ENDBRANCH  11  12
ENDBRANCH  10  11
ENDBRANCH   9  10
ENDBRANCH   8   9
ENDBRANCH   1   8
TORSDOF 9
ENDMDL
MODEL 9
REMARK VINA RESULT:    -3.369      2.476      4.293
REMARK INTER + INTRA:          -6.233
REMARK INTER:                  -5.600
REMARK INTRA:                  -0.633
REMARK UNBOUND:                -1.092
REMARK SMILES CCCCCCCCCCC(=O)[O-]
REMARK SMILES IDX 7 1 8 2 9 3 10 4 11 5 12 6 13 7 6 8 5 9 4 10 3 11 2 12 1 13
REMARK H PARENT
REMARK Flexibility Score: inf
ROOT
ATOM      1  C   UNL     1      29.118  11.075 -12.280  1.00  0.00     0.000 C 
ENDROOT
BRANCH   1   2
ATOM      2  C   UNL     1      28.615  11.411 -10.868  1.00  0.00     0.000 C 
BRANCH   2   3
ATOM      3  C   UNL     1      27.219  12.053 -10.872  1.00  0.00     0.006 C 
BRANCH   3   4
ATOM      4  C   UNL     1      27.222  13.471 -11.460  1.00  0.00     0.053 C 
BRANCH   4   5
ATOM      5  C   UNL     1      25.906  14.138 -11.219  1.00  0.00     0.041 C 
ATOM      6  O   UNL     1      25.416  14.174 -10.060  1.00  0.00    -0.550 OA
ATOM      7  O   UNL     1      25.242  14.764 -12.266  1.00  0.00    -0.550 OA
ENDBRANCH   4   5
ENDBRANCH   3   4
ENDBRANCH   2   3
ENDBRANCH   1   2
BRANCH   1   8
ATOM      8  C   UNL     1      30.321  11.948 -12.658  1.00  0.00     0.000 C 
BRANCH   8   9
ATOM      9  C   UNL     1      30.182  12.488 -14.089  1.00  0.00    -0.000 C 
BRANCH   9  10
ATOM     10  C   UNL     1      29.241  11.636 -14.956  1.00  0.00    -0.000 C 
BRANCH  10  11
ATOM     11  C   UNL     1      28.433  12.477 -15.955  1.00  0.00    -0.000 C 
BRANCH  11  12
ATOM     12  C   UNL     1      29.324  13.520 -16.640  1.00  0.00    -0.003 C 
ATOM     13  C   UNL     1      29.996  12.941 -17.881  1.00  0.00     0.004 C 
ENDBRANCH  11  12
ENDBRANCH  10  11
ENDBRANCH   9  10
ENDBRANCH   8   9
ENDBRANCH   1   8
TORSDOF 9
ENDMDL
