MODEL 1
REMARK VINA RESULT:     3.591      0.000      0.000
REMARK INTER + INTRA:           5.786
REMARK INTER:                   6.530
REMARK INTRA:                  -0.744
REMARK UNBOUND:                -0.744
REMARK SMILES CCCCCC=CCC=CCCCCCCCC(=O)[O-]
REMARK SMILES IDX 11 1 12 2 13 3 14 4 15 5 16 6 17 7 18 8 19 9 20 10 10 11
REMARK SMILES IDX 9 12 8 13 7 14 6 15 5 16 4 17 3 18 2 19 1 20
REMARK H PARENT
REMARK Flexibility Score: inf
ROOT
ATOM      1  C   UNL     1      30.634  17.259   5.135  1.00  0.00     0.027 C 
ENDROOT
BRANCH   1   2
ATOM      2  C   UNL     1      30.484  17.081   6.652  1.00  0.00     0.004 C 
BRANCH   2   3
ATOM      3  C   UNL     1      29.562  15.909   7.019  1.00  0.00     0.000 C 
BRANCH   3   4
ATOM      4  C   UNL     1      29.623  15.555   8.514  1.00  0.00     0.000 C 
BRANCH   4   5
ATOM      5  C   UNL     1      29.562  16.793   9.427  1.00  0.00     0.000 C 
BRANCH   5   6
ATOM      6  C   UNL     1      28.155  17.389   9.616  1.00  0.00     0.006 C 
BRANCH   6   7
ATOM      7  C   UNL     1      28.079  18.387  10.779  1.00  0.00     0.053 C 
BRANCH   7   8
ATOM      8  C   UNL     1      27.377  19.638  10.352  1.00  0.00     0.041 C 
ATOM      9  O   UNL     1      27.543  20.709  10.996  1.00  0.00    -0.550 OA
ATOM     10  O   UNL     1      26.573  19.633   9.219  1.00  0.00    -0.550 OA
ENDBRANCH   7   8
ENDBRANCH   6   7
ENDBRANCH   5   6
ENDBRANCH   4   5
ENDBRANCH   3   4
ENDBRANCH   2   3
ENDBRANCH   1   2
BRANCH   1  11
ATOM     11  C   UNL     1      30.425  18.698   4.742  1.00  0.00    -0.031 C 
ATOM     12  C   UNL     1      29.709  19.105   3.676  1.00  0.00    -0.027 C 
BRANCH  12  13
ATOM     13  C   UNL     1      28.958  18.187   2.744  1.00  0.00     0.054 C 
BRANCH  13  14
ATOM     14  C   UNL     1      28.379  18.938   1.570  1.00  0.00    -0.027 C 
ATOM     15  C   UNL     1      28.174  18.417   0.347  1.00  0.00    -0.031 C 
BRANCH  15  16
ATOM     16  C   UNL     1      28.410  16.974  -0.030  1.00  0.00     0.027 C 
BRANCH  16  17
ATOM     17  C   UNL     1      28.033  16.678  -1.492  1.00  0.00     0.004 C 
BRANCH  17  18
ATOM     18  C   UNL     1      28.474  15.290  -1.995  1.00  0.00     0.000 C 
BRANCH  18  19
ATOM     19  C   UNL     1      29.723  15.347  -2.887  1.00  0.00    -0.003 C 
ATOM     20  C   UNL     1      30.996  15.372  -2.046  1.00  0.00     0.004 C 
ENDBRANCH  18  19
ENDBRANCH  17  18
ENDBRANCH  16  17
ENDBRANCH  15  16
ENDBRANCH  13  14
ENDBRANCH  12  13
ENDBRANCH   1  11
TORSDOF 14
ENDMDL
MODEL 2
REMARK VINA RESULT:     3.867      4.296      9.985
REMARK INTER + INTRA:           6.287
REMARK INTER:                   6.589
REMARK INTRA:                  -0.302
REMARK UNBOUND:                -0.744
REMARK SMILES CCCCCC=CCC=CCCCCCCCC(=O)[O-]
REMARK SMILES IDX 11 1 12 2 13 3 14 4 15 5 16 6 17 7 18 8 19 9 20 10 10 11
REMARK SMILES IDX 9 12 8 13 7 14 6 15 5 16 4 17 3 18 2 19 1 20
REMARK H PARENT
REMARK Flexibility Score: inf
ROOT
ATOM      1  C   UNL     1      29.598  18.833   4.276  1.00  0.00     0.027 C 
ENDROOT
BRANCH   1   2
ATOM      2  C   UNL     1      28.843  18.058   3.187  1.00  0.00     0.004 C 
BRANCH   2   3
ATOM      3  C   UNL     1      29.194  18.541   1.772  1.00  0.00     0.000 C 
BRANCH   3   4
ATOM      4  C   UNL     1      27.948  18.897   0.944  1.00  0.00     0.000 C 
BRANCH   4   5
ATOM      5  C   UNL     1      27.717  17.935  -0.236  1.00  0.00     0.000 C 
BRANCH   5   6
ATOM      6  C   UNL     1      28.910  17.021  -0.569  1.00  0.00     0.006 C 
BRANCH   6   7
ATOM      7  C   UNL     1      28.590  15.993  -1.663  1.00  0.00     0.053 C 
BRANCH   7   8
ATOM      8  C   UNL     1      29.844  15.547  -2.346  1.00  0.00     0.041 C 
ATOM      9  O   UNL     1      29.968  15.680  -3.594  1.00  0.00    -0.550 OA
ATOM     10  O   UNL     1      30.893  15.022  -1.602  1.00  0.00    -0.550 OA
ENDBRANCH   7   8
ENDBRANCH   6   7
ENDBRANCH   5   6
ENDBRANCH   4   5
ENDBRANCH   3   4
ENDBRANCH   2   3
ENDBRANCH   1   2
BRANCH   1  11
ATOM     11  C   UNL     1      30.821  18.074   4.722  1.00  0.00    -0.031 C 
ATOM     12  C   UNL     1      30.872  17.272   5.803  1.00  0.00    -0.027 C 
BRANCH  12  13
ATOM     13  C   UNL     1      29.701  16.964   6.702  1.00  0.00     0.054 C 
BRANCH  13  14
ATOM     14  C   UNL     1      29.708  15.525   7.153  1.00  0.00    -0.027 C 
ATOM     15  C   UNL     1      29.142  15.068   8.285  1.00  0.00    -0.031 C 
BRANCH  15  16
ATOM     16  C   UNL     1      28.334  15.906   9.247  1.00  0.00     0.027 C 
BRANCH  16  17
ATOM     17  C   UNL     1      29.027  17.235   9.596  1.00  0.00     0.004 C 
BRANCH  17  18
ATOM     18  C   UNL     1      28.275  18.093  10.631  1.00  0.00     0.000 C 
BRANCH  18  19
ATOM     19  C   UNL     1      27.401  19.178   9.986  1.00  0.00    -0.003 C 
ATOM     20  C   UNL     1      27.187  20.349  10.941  1.00  0.00     0.004 C 
ENDBRANCH  18  19
ENDBRANCH  17  18
ENDBRANCH  16  17
ENDBRANCH  15  16
ENDBRANCH  13  14
ENDBRANCH  12  13
ENDBRANCH   1  11
TORSDOF 14
ENDMDL
MODEL 3
REMARK VINA RESULT:     4.048      4.665      9.711
REMARK INTER + INTRA:           6.617
REMARK INTER:                   7.249
REMARK INTRA:                  -0.632
REMARK UNBOUND:                -0.744
REMARK SMILES CCCCCC=CCC=CCCCCCCCC(=O)[O-]
REMARK SMILES IDX 11 1 12 2 13 3 14 4 15 5 16 6 17 7 18 8 19 9 20 10 10 11
REMARK SMILES IDX 9 12 8 13 7 14 6 15 5 16 4 17 3 18 2 19 1 20
REMARK H PARENT
REMARK Flexibility Score: inf
ROOT
ATOM      1  C   UNL     1      29.381  18.384   4.190  1.00  0.00     0.027 C 
ENDROOT
BRANCH   1   2
ATOM      2  C   UNL     1      29.425  18.829   2.721  1.00  0.00     0.004 C 
BRANCH   2   3
ATOM      3  C   UNL     1      28.466  18.024   1.833  1.00  0.00     0.000 C 
BRANCH   3   4
ATOM      4  C   UNL     1      28.072  18.779   0.553  1.00  0.00     0.000 C 
BRANCH   4   5
ATOM      5  C   UNL     1      27.755  17.839  -0.624  1.00  0.00     0.000 C 
BRANCH   5   6
ATOM      6  C   UNL     1      28.568  16.531  -0.646  1.00  0.00     0.006 C 
BRANCH   6   7
ATOM      7  C   UNL     1      28.499  15.805  -1.996  1.00  0.00     0.053 C 
BRANCH   7   8
ATOM      8  C   UNL     1      29.874  15.476  -2.485  1.00  0.00     0.041 C 
ATOM      9  O   UNL     1      30.142  15.544  -3.716  1.00  0.00    -0.550 OA
ATOM     10  O   UNL     1      30.872  15.135  -1.580  1.00  0.00    -0.550 OA
ENDBRANCH   7   8
ENDBRANCH   6   7
ENDBRANCH   5   6
ENDBRANCH   4   5
ENDBRANCH   3   4
ENDBRANCH   2   3
ENDBRANCH   1   2
BRANCH   1  11
ATOM     11  C   UNL     1      30.766  18.356   4.782  1.00  0.00    -0.031 C 
ATOM     12  C   UNL     1      31.139  17.585   5.822  1.00  0.00    -0.027 C 
BRANCH  12  13
ATOM     13  C   UNL     1      30.245  16.590   6.519  1.00  0.00     0.054 C 
BRANCH  13  14
ATOM     14  C   UNL     1      30.143  16.873   7.998  1.00  0.00    -0.027 C 
ATOM     15  C   UNL     1      29.438  16.138   8.876  1.00  0.00    -0.031 C 
BRANCH  15  16
ATOM     16  C   UNL     1      28.700  14.863   8.543  1.00  0.00     0.027 C 
BRANCH  16  17
ATOM     17  C   UNL     1      27.574  14.555   9.545  1.00  0.00     0.004 C 
BRANCH  17  18
ATOM     18  C   UNL     1      26.168  14.485   8.921  1.00  0.00     0.000 C 
BRANCH  18  19
ATOM     19  C   UNL     1      25.928  13.191   8.130  1.00  0.00    -0.003 C 
ATOM     20  C   UNL     1      24.447  12.822   8.117  1.00  0.00     0.004 C 
ENDBRANCH  18  19
ENDBRANCH  17  18
ENDBRANCH  16  17
ENDBRANCH  15  16
ENDBRANCH  13  14
ENDBRANCH  12  13
ENDBRANCH   1  11
TORSDOF 14
ENDMDL
MODEL 4
REMARK VINA RESULT:     4.272      2.374      2.943
REMARK INTER + INTRA:           7.024
REMARK INTER:                   7.774
REMARK INTRA:                  -0.750
REMARK UNBOUND:                -0.744
REMARK SMILES CCCCCC=CCC=CCCCCCCCC(=O)[O-]
REMARK SMILES IDX 11 1 12 2 13 3 14 4 15 5 16 6 17 7 18 8 19 9 20 10 10 11
REMARK SMILES IDX 9 12 8 13 7 14 6 15 5 16 4 17 3 18 2 19 1 20
REMARK H PARENT
REMARK Flexibility Score: inf
ROOT
ATOM      1  C   UNL     1      30.540  18.540   4.613  1.00  0.00     0.027 C 
ENDROOT
BRANCH   1   2
ATOM      2  C   UNL     1      31.121  17.742   5.788  1.00  0.00     0.004 C 
BRANCH   2   3
ATOM      3  C   UNL     1      30.054  16.920   6.526  1.00  0.00     0.000 C 
BRANCH   3   4
ATOM      4  C   UNL     1      30.346  16.786   8.029  1.00  0.00     0.000 C 
BRANCH   4   5
ATOM      5  C   UNL     1      29.104  16.392   8.849  1.00  0.00     0.000 C 
BRANCH   5   6
ATOM      6  C   UNL     1      28.525  15.004   8.521  1.00  0.00     0.006 C 
BRANCH   6   7
ATOM      7  C   UNL     1      27.462  14.546   9.528  1.00  0.00     0.053 C 
BRANCH   7   8
ATOM      8  C   UNL     1      26.268  13.992   8.816  1.00  0.00     0.041 C 
ATOM      9  O   UNL     1      26.402  13.042   7.998  1.00  0.00    -0.550 OA
ATOM     10  O   UNL     1      25.001  14.496   9.086  1.00  0.00    -0.550 OA
ENDBRANCH   7   8
ENDBRANCH   6   7
ENDBRANCH   5   6
ENDBRANCH   4   5
ENDBRANCH   3   4
ENDBRANCH   2   3
ENDBRANCH   1   2
BRANCH   1  11
ATOM     11  C   UNL     1      29.211  17.974   4.187  1.00  0.00    -0.031 C 
ATOM     12  C   UNL     1      28.690  18.089   2.950  1.00  0.00    -0.027 C 
BRANCH  12  13
ATOM     13  C   UNL     1      29.380  18.753   1.785  1.00  0.00     0.054 C 
BRANCH  13  14
ATOM     14  C   UNL     1      28.394  19.196   0.732  1.00  0.00    -0.027 C 
ATOM     15  C   UNL     1      27.872  18.400  -0.218  1.00  0.00    -0.031 C 
BRANCH  15  16
ATOM     16  C   UNL     1      28.120  16.916  -0.337  1.00  0.00     0.027 C 
BRANCH  16  17
ATOM     17  C   UNL     1      27.867  16.388  -1.760  1.00  0.00     0.004 C 
BRANCH  17  18
ATOM     18  C   UNL     1      28.662  15.119  -2.120  1.00  0.00     0.000 C 
BRANCH  18  19
ATOM     19  C   UNL     1      29.927  15.417  -2.936  1.00  0.00    -0.003 C 
ATOM     20  C   UNL     1      31.176  15.330  -2.063  1.00  0.00     0.004 C 
ENDBRANCH  18  19
ENDBRANCH  17  18
ENDBRANCH  16  17
ENDBRANCH  15  16
ENDBRANCH  13  14
ENDBRANCH  12  13
ENDBRANCH   1  11
TORSDOF 14
ENDMDL
MODEL 5
REMARK VINA RESULT:     4.276      1.067      1.457
REMARK INTER + INTRA:           7.031
REMARK INTER:                   7.924
REMARK INTRA:                  -0.893
REMARK UNBOUND:                -0.744
REMARK SMILES CCCCCC=CCC=CCCCCCCCC(=O)[O-]
REMARK SMILES IDX 11 1 12 2 13 3 14 4 15 5 16 6 17 7 18 8 19 9 20 10 10 11
REMARK SMILES IDX 9 12 8 13 7 14 6 15 5 16 4 17 3 18 2 19 1 20
REMARK H PARENT
REMARK Flexibility Score: inf
ROOT
ATOM      1  C   UNL     1      30.441  18.527   4.493  1.00  0.00     0.027 C 
ENDROOT
BRANCH   1   2
ATOM      2  C   UNL     1      31.100  17.697   5.604  1.00  0.00     0.004 C 
BRANCH   2   3
ATOM      3  C   UNL     1      30.115  16.732   6.280  1.00  0.00     0.000 C 
BRANCH   3   4
ATOM      4  C   UNL     1      30.117  16.864   7.812  1.00  0.00     0.000 C 
BRANCH   4   5
ATOM      5  C   UNL     1      29.423  15.684   8.517  1.00  0.00     0.000 C 
BRANCH   5   6
ATOM      6  C   UNL     1      28.210  16.069   9.382  1.00  0.00     0.006 C 
BRANCH   6   7
ATOM      7  C   UNL     1      27.789  17.534   9.205  1.00  0.00     0.053 C 
BRANCH   7   8
ATOM      8  C   UNL     1      28.164  18.337  10.411  1.00  0.00     0.041 C 
ATOM      9  O   UNL     1      29.168  18.013  11.102  1.00  0.00    -0.550 OA
ATOM     10  O   UNL     1      27.432  19.469  10.749  1.00  0.00    -0.550 OA
ENDBRANCH   7   8
ENDBRANCH   6   7
ENDBRANCH   5   6
ENDBRANCH   4   5
ENDBRANCH   3   4
ENDBRANCH   2   3
ENDBRANCH   1   2
BRANCH   1  11
ATOM     11  C   UNL     1      29.106  17.943   4.110  1.00  0.00    -0.031 C 
ATOM     12  C   UNL     1      28.537  18.065   2.896  1.00  0.00    -0.027 C 
BRANCH  12  13
ATOM     13  C   UNL     1      29.170  18.757   1.715  1.00  0.00     0.054 C 
BRANCH  13  14
ATOM     14  C   UNL     1      28.156  19.069   0.642  1.00  0.00    -0.027 C 
ATOM     15  C   UNL     1      27.780  18.223  -0.333  1.00  0.00    -0.031 C 
BRANCH  15  16
ATOM     16  C   UNL     1      28.247  16.793  -0.466  1.00  0.00     0.027 C 
BRANCH  16  17
ATOM     17  C   UNL     1      27.830  16.159  -1.805  1.00  0.00     0.004 C 
BRANCH  17  18
ATOM     18  C   UNL     1      28.889  15.231  -2.428  1.00  0.00     0.000 C 
BRANCH  18  19
ATOM     19  C   UNL     1      30.222  15.248  -1.666  1.00  0.00    -0.003 C 
ATOM     20  C   UNL     1      31.404  15.271  -2.631  1.00  0.00     0.004 C 
ENDBRANCH  18  19
ENDBRANCH  17  18
ENDBRANCH  16  17
ENDBRANCH  15  16
ENDBRANCH  13  14
ENDBRANCH  12  13
ENDBRANCH   1  11
TORSDOF 14
ENDMDL
MODEL 6
REMARK VINA RESULT:     5.145      5.283      6.756
REMARK INTER + INTRA:           8.612
REMARK INTER:                   9.171
REMARK INTRA:                  -0.559
REMARK UNBOUND:                -0.744
REMARK SMILES CCCCCC=CCC=CCCCCCCCC(=O)[O-]
REMARK SMILES IDX 11 1 12 2 13 3 14 4 15 5 16 6 17 7 18 8 19 9 20 10 10 11
REMARK SMILES IDX 9 12 8 13 7 14 6 15 5 16 4 17 3 18 2 19 1 20
REMARK H PARENT
REMARK Flexibility Score: inf
ROOT
ATOM      1  C   UNL     1      28.767  14.804   8.893  1.00  0.00     0.027 C 
ENDROOT
BRANCH   1   2
ATOM      2  C   UNL     1      27.243  14.848   9.073  1.00  0.00     0.004 C 
BRANCH   2   3
ATOM      3  C   UNL     1      26.546  13.608   8.493  1.00  0.00     0.000 C 
BRANCH   3   4
ATOM      4  C   UNL     1      25.014  13.692   8.589  1.00  0.00     0.000 C 
BRANCH   4   5
ATOM      5  C   UNL     1      24.307  12.469   7.977  1.00  0.00     0.000 C 
BRANCH   5   6
ATOM      6  C   UNL     1      22.873  12.231   8.484  1.00  0.00     0.006 C 
BRANCH   6   7
ATOM      7  C   UNL     1      22.797  11.167   9.587  1.00  0.00     0.053 C 
BRANCH   7   8
ATOM      8  C   UNL     1      21.596  10.294   9.393  1.00  0.00     0.041 C 
ATOM      9  O   UNL     1      21.686   9.047   9.555  1.00  0.00    -0.550 OA
ATOM     10  O   UNL     1      20.368  10.861   9.075  1.00  0.00    -0.550 OA
ENDBRANCH   7   8
ENDBRANCH   6   7
ENDBRANCH   5   6
ENDBRANCH   4   5
ENDBRANCH   3   4
ENDBRANCH   2   3
ENDBRANCH   1   2
BRANCH   1  11
ATOM     11  C   UNL     1      29.368  16.170   9.093  1.00  0.00    -0.031 C 
ATOM     12  C   UNL     1      29.913  16.919   8.114  1.00  0.00    -0.027 C 
BRANCH  12  13
ATOM     13  C   UNL     1      29.956  16.530   6.658  1.00  0.00     0.054 C 
BRANCH  13  14
ATOM     14  C   UNL     1      30.997  17.317   5.901  1.00  0.00    -0.027 C 
ATOM     15  C   UNL     1      30.744  18.123   4.854  1.00  0.00    -0.031 C 
BRANCH  15  16
ATOM     16  C   UNL     1      29.369  18.438   4.317  1.00  0.00     0.027 C 
BRANCH  16  17
ATOM     17  C   UNL     1      29.393  18.827   2.829  1.00  0.00     0.004 C 
BRANCH  17  18
ATOM     18  C   UNL     1      28.448  17.998   1.938  1.00  0.00     0.000 C 
BRANCH  18  19
ATOM     19  C   UNL     1      28.532  18.385   0.455  1.00  0.00    -0.003 C 
ATOM     20  C   UNL     1      28.088  17.231  -0.439  1.00  0.00     0.004 C 
ENDBRANCH  18  19
ENDBRANCH  17  18
ENDBRANCH  16  17
ENDBRANCH  15  16
ENDBRANCH  13  14
ENDBRANCH  12  13
ENDBRANCH   1  11
TORSDOF 14
ENDMDL
MODEL 7
REMARK VINA RESULT:     5.501      5.086      9.344
REMARK INTER + INTRA:           9.260
REMARK INTER:                   9.876
REMARK INTRA:                  -0.616
REMARK UNBOUND:                -0.744
REMARK SMILES CCCCCC=CCC=CCCCCCCCC(=O)[O-]
REMARK SMILES IDX 11 1 12 2 13 3 14 4 15 5 16 6 17 7 18 8 19 9 20 10 10 11
REMARK SMILES IDX 9 12 8 13 7 14 6 15 5 16 4 17 3 18 2 19 1 20
REMARK H PARENT
REMARK Flexibility Score: inf
ROOT
ATOM      1  C   UNL     1      29.725  16.823   6.621  1.00  0.00     0.027 C 
ENDROOT
BRANCH   1   2
ATOM      2  C   UNL     1      30.970  17.214   5.813  1.00  0.00     0.004 C 
BRANCH   2   3
ATOM      3  C   UNL     1      30.685  18.329   4.796  1.00  0.00     0.000 C 
BRANCH   3   4
ATOM      4  C   UNL     1      29.319  18.166   4.109  1.00  0.00     0.000 C 
BRANCH   4   5
ATOM      5  C   UNL     1      29.252  18.859   2.736  1.00  0.00     0.000 C 
BRANCH   5   6
ATOM      6  C   UNL     1      28.386  18.137   1.688  1.00  0.00     0.006 C 
BRANCH   6   7
ATOM      7  C   UNL     1      29.041  18.090   0.300  1.00  0.00     0.053 C 
BRANCH   7   8
ATOM      8  C   UNL     1      28.105  17.490  -0.701  1.00  0.00     0.041 C 
ATOM      9  O   UNL     1      28.359  16.366  -1.212  1.00  0.00    -0.550 OA
ATOM     10  O   UNL     1      26.931  18.152  -1.040  1.00  0.00    -0.550 OA
ENDBRANCH   7   8
ENDBRANCH   6   7
ENDBRANCH   5   6
ENDBRANCH   4   5
ENDBRANCH   3   4
ENDBRANCH   2   3
ENDBRANCH   1   2
BRANCH   1  11
ATOM     11  C   UNL     1      30.063  16.665   8.081  1.00  0.00    -0.031 C 
ATOM     12  C   UNL     1      29.482  15.777   8.910  1.00  0.00    -0.027 C 
BRANCH  12  13
ATOM     13  C   UNL     1      28.444  14.765   8.495  1.00  0.00     0.054 C 
BRANCH  13  14
ATOM     14  C   UNL     1      27.193  14.876   9.331  1.00  0.00    -0.027 C 
ATOM     15  C   UNL     1      26.066  14.168   9.130  1.00  0.00    -0.031 C 
BRANCH  15  16
ATOM     16  C   UNL     1      25.898  13.087   8.090  1.00  0.00     0.027 C 
BRANCH  16  17
ATOM     17  C   UNL     1      24.419  12.768   7.807  1.00  0.00     0.004 C 
BRANCH  17  18
ATOM     18  C   UNL     1      23.617  12.317   9.042  1.00  0.00     0.000 C 
BRANCH  18  19
ATOM     19  C   UNL     1      22.323  11.575   8.677  1.00  0.00    -0.003 C 
ATOM     20  C   UNL     1      22.056  10.429   9.648  1.00  0.00     0.004 C 
ENDBRANCH  18  19
ENDBRANCH  17  18
ENDBRANCH  16  17
ENDBRANCH  15  16
ENDBRANCH  13  14
ENDBRANCH  12  13
ENDBRANCH   1  11
TORSDOF 14
ENDMDL
MODEL 8
REMARK VINA RESULT:     6.226      4.312      9.820
REMARK INTER + INTRA:          10.578
REMARK INTER:                  11.324
REMARK INTRA:                  -0.746
REMARK UNBOUND:                -0.744
REMARK SMILES CCCCCC=CCC=CCCCCCCCC(=O)[O-]
REMARK SMILES IDX 11 1 12 2 13 3 14 4 15 5 16 6 17 7 18 8 19 9 20 10 10 11
REMARK SMILES IDX 9 12 8 13 7 14 6 15 5 16 4 17 3 18 2 19 1 20
REMARK H PARENT
REMARK Flexibility Score: inf
ROOT
ATOM      1  C   UNL     1      29.407  19.059   1.796  1.00  0.00     0.027 C 
ENDROOT
BRANCH   1   2
ATOM      2  C   UNL     1      28.727  19.047   0.420  1.00  0.00     0.004 C 
BRANCH   2   3
ATOM      3  C   UNL     1      28.393  17.627  -0.059  1.00  0.00     0.000 C 
BRANCH   3   4
ATOM      4  C   UNL     1      27.301  17.610  -1.141  1.00  0.00     0.000 C 
BRANCH   4   5
ATOM      5  C   UNL     1      27.334  16.338  -2.008  1.00  0.00     0.000 C 
BRANCH   5   6
ATOM      6  C   UNL     1      28.502  15.381  -1.707  1.00  0.00     0.006 C 
BRANCH   6   7
ATOM      7  C   UNL     1      29.520  15.300  -2.852  1.00  0.00     0.053 C 
BRANCH   7   8
ATOM      8  C   UNL     1      30.917  15.321  -2.316  1.00  0.00     0.041 C 
ATOM      9  O   UNL     1      31.189  15.992  -1.284  1.00  0.00    -0.550 OA
ATOM     10  O   UNL     1      31.909  14.566  -2.929  1.00  0.00    -0.550 OA
ENDBRANCH   7   8
ENDBRANCH   6   7
ENDBRANCH   5   6
ENDBRANCH   4   5
ENDBRANCH   3   4
ENDBRANCH   2   3
ENDBRANCH   1   2
BRANCH   1  11
ATOM     11  C   UNL     1      28.714  18.115   2.744  1.00  0.00    -0.031 C 
ATOM     12  C   UNL     1      29.064  17.926   4.031  1.00  0.00    -0.027 C 
BRANCH  12  13
ATOM     13  C   UNL     1      30.168  18.670   4.739  1.00  0.00     0.054 C 
BRANCH  13  14
ATOM     14  C   UNL     1      31.154  17.726   5.381  1.00  0.00    -0.027 C 
ATOM     15  C   UNL     1      30.898  16.956   6.453  1.00  0.00    -0.031 C 
BRANCH  15  16
ATOM     16  C   UNL     1      29.558  16.846   7.140  1.00  0.00     0.027 C 
BRANCH  16  17
ATOM     17  C   UNL     1      29.687  16.495   8.632  1.00  0.00     0.004 C 
BRANCH  17  18
ATOM     18  C   UNL     1      28.351  16.179   9.331  1.00  0.00     0.000 C 
BRANCH  18  19
ATOM     19  C   UNL     1      28.020  14.680   9.338  1.00  0.00    -0.003 C 
ATOM     20  C   UNL     1      26.596  14.431   8.848  1.00  0.00     0.004 C 
ENDBRANCH  18  19
ENDBRANCH  17  18
ENDBRANCH  16  17
ENDBRANCH  15  16
ENDBRANCH  13  14
ENDBRANCH  12  13
ENDBRANCH   1  11
TORSDOF 14
ENDMDL
MODEL 9
REMARK VINA RESULT:     6.238      5.689      9.456
REMARK INTER + INTRA:          10.599
REMARK INTER:                  11.275
REMARK INTRA:                  -0.675
REMARK UNBOUND:                -0.744
REMARK SMILES CCCCCC=CCC=CCCCCCCCC(=O)[O-]
REMARK SMILES IDX 11 1 12 2 13 3 14 4 15 5 16 6 17 7 18 8 19 9 20 10 10 11
REMARK SMILES IDX 9 12 8 13 7 14 6 15 5 16 4 17 3 18 2 19 1 20
REMARK H PARENT
REMARK Flexibility Score: inf
ROOT
ATOM      1  C   UNL     1      28.563  16.356   8.867  1.00  0.00     0.027 C 
ENDROOT
BRANCH   1   2
ATOM      2  C   UNL     1      29.827  16.906   8.192  1.00  0.00     0.004 C 
BRANCH   2   3
ATOM      3  C   UNL     1      30.049  16.317   6.791  1.00  0.00     0.000 C 
BRANCH   3   4
ATOM      4  C   UNL     1      30.659  17.334   5.812  1.00  0.00     0.000 C 
BRANCH   4   5
ATOM      5  C   UNL     1      29.605  18.247   5.161  1.00  0.00     0.000 C 
BRANCH   5   6
ATOM      6  C   UNL     1      29.769  18.446   3.643  1.00  0.00     0.006 C 
BRANCH   6   7
ATOM      7  C   UNL     1      28.494  18.117   2.855  1.00  0.00     0.053 C 
BRANCH   7   8
ATOM      8  C   UNL     1      28.675  18.439   1.405  1.00  0.00     0.041 C 
ATOM      9  O   UNL     1      29.070  19.584   1.055  1.00  0.00    -0.550 OA
ATOM     10  O   UNL     1      28.450  17.463   0.442  1.00  0.00    -0.550 OA
ENDBRANCH   7   8
ENDBRANCH   6   7
ENDBRANCH   5   6
ENDBRANCH   4   5
ENDBRANCH   3   4
ENDBRANCH   2   3
ENDBRANCH   1   2
BRANCH   1  11
ATOM     11  C   UNL     1      28.761  14.923   9.287  1.00  0.00    -0.031 C 
ATOM     12  C   UNL     1      27.775  14.011   9.392  1.00  0.00    -0.027 C 
BRANCH  12  13
ATOM     13  C   UNL     1      26.328  14.268   9.052  1.00  0.00     0.054 C 
BRANCH  13  14
ATOM     14  C   UNL     1      25.861  13.400   7.910  1.00  0.00    -0.027 C 
ATOM     15  C   UNL     1      24.741  12.656   7.914  1.00  0.00    -0.031 C 
BRANCH  15  16
ATOM     16  C   UNL     1      23.722  12.632   9.029  1.00  0.00     0.027 C 
BRANCH  16  17
ATOM     17  C   UNL     1      22.597  11.613   8.777  1.00  0.00     0.004 C 
BRANCH  17  18
ATOM     18  C   UNL     1      22.277  10.707   9.980  1.00  0.00     0.000 C 
BRANCH  18  19
ATOM     19  C   UNL     1      21.165   9.691   9.685  1.00  0.00    -0.003 C 
ATOM     20  C   UNL     1      21.738   8.286   9.515  1.00  0.00     0.004 C 
ENDBRANCH  18  19
ENDBRANCH  17  18
ENDBRANCH  16  17
ENDBRANCH  15  16
ENDBRANCH  13  14
ENDBRANCH  12  13
ENDBRANCH   1  11
TORSDOF 14
ENDMDL
