MODEL 1
REMARK VINA RESULT:    -7.454      0.000      0.000
REMARK INTER + INTRA:         -14.126
REMARK INTER:                 -12.248
REMARK INTRA:                  -1.878
REMARK UNBOUND:                -1.878
REMARK SMILES C[C@@H]1O[C@H](OC[C@@H]2O[C@H](Oc3c(-c4ccc(O)c(O)c4)oc4cc(O)cc(O)c4c3=O)[C@H](O)[C@H](O)[C@H]2O)[C@H](O)[C@H](O)[C@H]1O
REMARK SMILES IDX 7 1 36 2 34 3 32 4 9 5 8 6 6 7 5 8 4 9 1 10 2 11 42 12 3 13
REMARK SMILES IDX 40 14 38 15 43 16 41 18 39 20 37 22 35 24 10 26 11 27 12 28
REMARK SMILES IDX 30 29 21 30 29 31 31 32 22 33 27 34 23 35 26 36 24 37 13 38
REMARK SMILES IDX 20 39 14 40 18 41 15 42 16 43 19 44 17 46 28 48 25 50 33 52
REMARK H PARENT 43 17 41 19 39 21 37 23 35 25 19 45 17 47 28 49 25 51 33 53
REMARK Flexibility Score: inf
ROOT
ATOM      1  C   UNL     1      55.667   8.913  80.783  1.00  0.00     0.180 C 
ATOM      2  C   UNL     1      55.028   9.756  81.887  1.00  0.00     0.177 C 
ATOM      3  C   UNL     1      55.136   9.107  83.302  1.00  0.00     0.180 C 
ATOM      4  C   UNL     1      55.463   7.562  83.269  1.00  0.00     0.214 C 
ATOM      5  C   UNL     1      55.644   6.862  81.872  1.00  0.00     0.339 C 
ATOM      6  O   UNL     1      55.095   7.638  80.793  1.00  0.00    -0.332 OA
ENDROOT
BRANCH   1   7
ATOM      7  C   UNL     1      55.346   9.532  79.404  1.00  0.00     0.198 C 
BRANCH   7   8
ATOM      8  O   UNL     1      54.112   8.955  78.909  1.00  0.00    -0.347 OA
BRANCH   8   9
ATOM      9  C   UNL     1      53.078   9.934  78.814  1.00  0.00     0.281 C 
ATOM     10  C   UNL     1      53.869   8.894  76.055  1.00  0.00     0.041 C 
ATOM     11  C   UNL     1      52.912  10.046  76.477  1.00  0.00     0.150 C 
ATOM     12  C   UNL     1      51.412   9.665  76.370  1.00  0.00     0.174 C 
ATOM     13  O   UNL     1      53.284  10.718  77.650  1.00  0.00    -0.344 OA
ATOM     14  C   UNL     1      50.699   9.937  77.720  1.00  0.00     0.179 C 
ATOM     15  C   UNL     1      51.560   9.475  78.945  1.00  0.00     0.202 C 
BRANCH  12  16
ATOM     16  O   UNL     1      50.778  10.399  75.342  1.00  0.00    -0.388 OA
ATOM     17  H   UNL     1      49.821  10.082  75.364  1.00  0.00     0.211 HD
ENDBRANCH  12  16
BRANCH  14  18
ATOM     18  O   UNL     1      49.431   9.345  77.748  1.00  0.00    -0.387 OA
ATOM     19  H   UNL     1      49.160   9.121  78.708  1.00  0.00     0.211 HD
ENDBRANCH  14  18
BRANCH  15  20
ATOM     20  O   UNL     1      51.372   8.139  79.272  1.00  0.00    -0.385 OA
ATOM     21  H   UNL     1      51.427   8.005  80.273  1.00  0.00     0.211 HD
ENDBRANCH  15  20
ENDBRANCH   8   9
ENDBRANCH   7   8
ENDBRANCH   1   7
BRANCH   2  22
ATOM     22  O   UNL     1      55.591  11.073  81.930  1.00  0.00    -0.387 OA
ATOM     23  H   UNL     1      56.566  11.006  82.101  1.00  0.00     0.211 HD
ENDBRANCH   2  22
BRANCH   3  24
ATOM     24  O   UNL     1      53.997   9.338  84.125  1.00  0.00    -0.387 OA
ATOM     25  H   UNL     1      53.207   8.828  83.783  1.00  0.00     0.211 HD
ENDBRANCH   3  24
BRANCH   5  26
ATOM     26  O   UNL     1      55.080   5.549  81.888  1.00  0.00    -0.454 OA
BRANCH  26  27
ATOM     27  C   UNL     1      54.340   4.883  80.861  1.00  0.00     0.214 A 
ATOM     28  C   UNL     1      54.934   4.676  79.578  1.00  0.00     0.180 A 
ATOM     29  C   UNL     1      53.008   4.429  81.042  1.00  0.00     0.239 A 
ATOM     30  O   UNL     1      54.273   3.987  78.649  1.00  0.00    -0.452 OA
ATOM     31  C   UNL     1      52.257   4.069  79.910  1.00  0.00     0.111 A 
ATOM     32  O   UNL     1      52.665   3.882  82.159  1.00  0.00    -0.285 OA
ATOM     33  C   UNL     1      52.946   3.705  78.758  1.00  0.00     0.146 A 
ATOM     34  C   UNL     1      50.860   4.060  79.939  1.00  0.00     0.134 A 
ATOM     35  C   UNL     1      52.252   3.109  77.726  1.00  0.00     0.094 A 
ATOM     36  C   UNL     1      50.155   3.472  78.906  1.00  0.00     0.093 A 
ATOM     37  C   UNL     1      50.861   2.935  77.807  1.00  0.00     0.123 A 
BRANCH  28  38
ATOM     38  C   UNL     1      56.266   5.212  79.224  1.00  0.00     0.025 A 
ATOM     39  C   UNL     1      56.352   6.252  78.281  1.00  0.00     0.062 A 
ATOM     40  C   UNL     1      57.418   4.759  79.857  1.00  0.00     0.016 A 
ATOM     41  C   UNL     1      57.587   6.861  78.020  1.00  0.00     0.158 A 
ATOM     42  C   UNL     1      58.653   5.402  79.644  1.00  0.00     0.051 A 
ATOM     43  C   UNL     1      58.754   6.436  78.705  1.00  0.00     0.157 A 
BRANCH  41  44
ATOM     44  O   UNL     1      57.583   7.871  77.045  1.00  0.00    -0.504 OA
ATOM     45  H   UNL     1      57.376   7.711  76.063  1.00  0.00     0.293 HD
ENDBRANCH  41  44
BRANCH  43  46
ATOM     46  O   UNL     1      59.995   7.018  78.500  1.00  0.00    -0.504 OA
ATOM     47  H   UNL     1      60.122   7.822  77.904  1.00  0.00     0.293 HD
ENDBRANCH  43  46
ENDBRANCH  28  38
BRANCH  34  48
ATOM     48  O   UNL     1      50.159   4.969  80.770  1.00  0.00    -0.507 OA
ATOM     49  H   UNL     1      50.639   5.455  81.561  1.00  0.00     0.293 HD
ENDBRANCH  34  48
BRANCH  37  50
ATOM     50  O   UNL     1      50.173   2.236  76.801  1.00  0.00    -0.508 OA
ATOM     51  H   UNL     1      49.723   1.340  76.965  1.00  0.00     0.293 HD
ENDBRANCH  37  50
ENDBRANCH  26  27
ENDBRANCH   5  26
BRANCH   4  52
ATOM     52  O   UNL     1      54.458   6.889  84.056  1.00  0.00    -0.384 OA
ATOM     53  H   UNL     1      54.762   5.996  84.193  1.00  0.00     0.211 HD
ENDBRANCH   4  52
TORSDOF 16
ENDMDL
MODEL 2
REMARK VINA RESULT:    -7.388      2.157      4.430
REMARK INTER + INTRA:         -14.016
REMARK INTER:                 -11.048
REMARK INTRA:                  -2.969
REMARK UNBOUND:                -1.878
REMARK SMILES C[C@@H]1O[C@H](OC[C@@H]2O[C@H](Oc3c(-c4ccc(O)c(O)c4)oc4cc(O)cc(O)c4c3=O)[C@H](O)[C@H](O)[C@H]2O)[C@H](O)[C@H](O)[C@H]1O
REMARK SMILES IDX 7 1 36 2 34 3 32 4 9 5 8 6 6 7 5 8 4 9 1 10 2 11 42 12 3 13
REMARK SMILES IDX 40 14 38 15 43 16 41 18 39 20 37 22 35 24 10 26 11 27 12 28
REMARK SMILES IDX 30 29 21 30 29 31 31 32 22 33 27 34 23 35 26 36 24 37 13 38
REMARK SMILES IDX 20 39 14 40 18 41 15 42 16 43 19 44 17 46 28 48 25 50 33 52
REMARK H PARENT 43 17 41 19 39 21 37 23 35 25 19 45 17 47 28 49 25 51 33 53
REMARK Flexibility Score: inf
ROOT
ATOM      1  C   UNL     1      54.440   7.732  78.890  1.00  0.00     0.180 C 
ATOM      2  C   UNL     1      53.443   8.858  78.615  1.00  0.00     0.177 C 
ATOM      3  C   UNL     1      53.356   9.904  79.771  1.00  0.00     0.180 C 
ATOM      4  C   UNL     1      53.947   9.386  81.141  1.00  0.00     0.214 C 
ATOM      5  C   UNL     1      54.542   7.931  81.201  1.00  0.00     0.339 C 
ATOM      6  O   UNL     1      54.111   7.115  80.099  1.00  0.00    -0.332 OA
ENDROOT
BRANCH   1   7
ATOM      7  C   UNL     1      54.319   6.651  77.792  1.00  0.00     0.198 C 
BRANCH   7   8
ATOM      8  O   UNL     1      53.686   5.477  78.361  1.00  0.00    -0.347 OA
BRANCH   8   9
ATOM      9  C   UNL     1      52.330   5.357  77.936  1.00  0.00     0.281 C 
ATOM     10  C   UNL     1      53.598   2.614  78.366  1.00  0.00     0.041 C 
ATOM     11  C   UNL     1      52.215   3.019  77.780  1.00  0.00     0.150 C 
ATOM     12  C   UNL     1      51.045   2.815  78.778  1.00  0.00     0.174 C 
ATOM     13  O   UNL     1      52.208   4.233  77.079  1.00  0.00    -0.344 OA
ATOM     14  C   UNL     1      50.238   4.131  78.924  1.00  0.00     0.179 C 
ATOM     15  C   UNL     1      51.170   5.386  79.025  1.00  0.00     0.202 C 
BRANCH  12  16
ATOM     16  O   UNL     1      50.188   1.778  78.345  1.00  0.00    -0.388 OA
ATOM     17  H   UNL     1      50.704   0.933  78.535  1.00  0.00     0.211 HD
ENDBRANCH  12  16
BRANCH  14  18
ATOM     18  O   UNL     1      49.364   4.067  80.016  1.00  0.00    -0.387 OA
ATOM     19  H   UNL     1      49.644   4.734  80.739  1.00  0.00     0.211 HD
ENDBRANCH  14  18
BRANCH  15  20
ATOM     20  O   UNL     1      51.584   5.658  80.323  1.00  0.00    -0.385 OA
ATOM     21  H   UNL     1      51.631   4.807  80.868  1.00  0.00     0.211 HD
ENDBRANCH  15  20
ENDBRANCH   8   9
ENDBRANCH   7   8
ENDBRANCH   1   7
BRANCH   2  22
ATOM     22  O   UNL     1      53.746   9.536  77.389  1.00  0.00    -0.387 OA
ATOM     23  H   UNL     1      54.379  10.276  77.574  1.00  0.00     0.211 HD
ENDBRANCH   2  22
BRANCH   3  24
ATOM     24  O   UNL     1      52.044  10.419  79.977  1.00  0.00    -0.387 OA
ATOM     25  H   UNL     1      51.877  10.573  80.951  1.00  0.00     0.211 HD
ENDBRANCH   3  24
BRANCH   5  26
ATOM     26  O   UNL     1      54.224   7.308  82.447  1.00  0.00    -0.454 OA
BRANCH  26  27
ATOM     27  C   UNL     1      54.130   5.912  82.748  1.00  0.00     0.214 A 
ATOM     28  C   UNL     1      55.253   5.059  82.524  1.00  0.00     0.180 A 
ATOM     29  C   UNL     1      52.944   5.310  83.244  1.00  0.00     0.239 A 
ATOM     30  O   UNL     1      55.187   3.776  82.878  1.00  0.00    -0.452 OA
ATOM     31  C   UNL     1      52.836   3.910  83.221  1.00  0.00     0.111 A 
ATOM     32  O   UNL     1      52.233   5.929  84.125  1.00  0.00    -0.285 OA
ATOM     33  C   UNL     1      54.011   3.165  83.188  1.00  0.00     0.146 A 
ATOM     34  C   UNL     1      51.591   3.276  83.246  1.00  0.00     0.134 A 
ATOM     35  C   UNL     1      53.947   1.808  83.420  1.00  0.00     0.094 A 
ATOM     36  C   UNL     1      51.517   1.915  83.471  1.00  0.00     0.093 A 
ATOM     37  C   UNL     1      52.710   1.174  83.618  1.00  0.00     0.123 A 
BRANCH  28  38
ATOM     38  C   UNL     1      56.502   5.539  81.895  1.00  0.00     0.025 A 
ATOM     39  C   UNL     1      56.725   5.270  80.532  1.00  0.00     0.062 A 
ATOM     40  C   UNL     1      57.418   6.309  82.604  1.00  0.00     0.016 A 
ATOM     41  C   UNL     1      57.838   5.819  79.883  1.00  0.00     0.158 A 
ATOM     42  C   UNL     1      58.508   6.912  81.947  1.00  0.00     0.051 A 
ATOM     43  C   UNL     1      58.744   6.649  80.591  1.00  0.00     0.157 A 
BRANCH  41  44
ATOM     44  O   UNL     1      57.995   5.475  78.531  1.00  0.00    -0.504 OA
ATOM     45  H   UNL     1      57.232   5.445  77.859  1.00  0.00     0.293 HD
ENDBRANCH  41  44
BRANCH  43  46
ATOM     46  O   UNL     1      59.848   7.234  79.992  1.00  0.00    -0.504 OA
ATOM     47  H   UNL     1      60.348   6.792  79.234  1.00  0.00     0.293 HD
ENDBRANCH  43  46
ENDBRANCH  28  38
BRANCH  34  48
ATOM     48  O   UNL     1      50.462   3.902  82.660  1.00  0.00    -0.507 OA
ATOM     49  H   UNL     1      49.497   3.543  82.835  1.00  0.00     0.293 HD
ENDBRANCH  34  48
BRANCH  37  50
ATOM     50  O   UNL     1      52.656  -0.188  83.956  1.00  0.00    -0.508 OA
ATOM     51  H   UNL     1      52.303  -0.898  83.321  1.00  0.00     0.293 HD
ENDBRANCH  37  50
ENDBRANCH  26  27
ENDBRANCH   5  26
BRANCH   4  52
ATOM     52  O   UNL     1      52.929   9.569  82.147  1.00  0.00    -0.384 OA
ATOM     53  H   UNL     1      53.195   9.060  82.909  1.00  0.00     0.211 HD
ENDBRANCH   4  52
TORSDOF 16
ENDMDL
MODEL 3
REMARK VINA RESULT:    -7.023      2.030      6.282
REMARK INTER + INTRA:         -13.416
REMARK INTER:                 -10.017
REMARK INTRA:                  -3.399
REMARK UNBOUND:                -1.878
REMARK SMILES C[C@@H]1O[C@H](OC[C@@H]2O[C@H](Oc3c(-c4ccc(O)c(O)c4)oc4cc(O)cc(O)c4c3=O)[C@H](O)[C@H](O)[C@H]2O)[C@H](O)[C@H](O)[C@H]1O
REMARK SMILES IDX 7 1 36 2 34 3 32 4 9 5 8 6 6 7 5 8 4 9 1 10 2 11 42 12 3 13
REMARK SMILES IDX 40 14 38 15 43 16 41 18 39 20 37 22 35 24 10 26 11 27 12 28
REMARK SMILES IDX 30 29 21 30 29 31 31 32 22 33 27 34 23 35 26 36 24 37 13 38
REMARK SMILES IDX 20 39 14 40 18 41 15 42 16 43 19 44 17 46 28 48 25 50 33 52
REMARK H PARENT 43 17 41 19 39 21 37 23 35 25 19 45 17 47 28 49 25 51 33 53
REMARK Flexibility Score: inf
ROOT
ATOM      1  C   UNL     1      56.152   5.805  82.158  1.00  0.00     0.180 C 
ATOM      2  C   UNL     1      56.581   6.922  83.109  1.00  0.00     0.177 C 
ATOM      3  C   UNL     1      55.393   7.547  83.905  1.00  0.00     0.180 C 
ATOM      4  C   UNL     1      53.976   7.240  83.278  1.00  0.00     0.214 C 
ATOM      5  C   UNL     1      53.907   6.367  81.971  1.00  0.00     0.339 C 
ATOM      6  O   UNL     1      55.172   6.294  81.291  1.00  0.00    -0.332 OA
ENDROOT
BRANCH   1   7
ATOM      7  C   UNL     1      57.351   5.381  81.279  1.00  0.00     0.198 C 
BRANCH   7   8
ATOM      8  O   UNL     1      57.262   6.068  80.006  1.00  0.00    -0.347 OA
BRANCH   8   9
ATOM      9  C   UNL     1      58.499   6.687  79.658  1.00  0.00     0.281 C 
ATOM     10  C   UNL     1      56.532   6.766  77.325  1.00  0.00     0.041 C 
ATOM     11  C   UNL     1      58.032   7.171  77.411  1.00  0.00     0.150 C 
ATOM     12  C   UNL     1      58.248   8.705  77.493  1.00  0.00     0.174 C 
ATOM     13  O   UNL     1      58.797   6.404  78.301  1.00  0.00    -0.344 OA
ATOM     14  C   UNL     1      59.127   9.050  78.723  1.00  0.00     0.179 C 
ATOM     15  C   UNL     1      58.717   8.228  79.991  1.00  0.00     0.202 C 
BRANCH  12  16
ATOM     16  O   UNL     1      58.863   9.191  76.317  1.00  0.00    -0.388 OA
ATOM     17  H   UNL     1      58.275   9.958  76.028  1.00  0.00     0.211 HD
ENDBRANCH  12  16
BRANCH  14  18
ATOM     18  O   UNL     1      59.103  10.425  78.988  1.00  0.00    -0.387 OA
ATOM     19  H   UNL     1      58.221  10.836  78.673  1.00  0.00     0.211 HD
ENDBRANCH  14  18
BRANCH  15  20
ATOM     20  O   UNL     1      57.699   8.824  80.724  1.00  0.00    -0.385 OA
ATOM     21  H   UNL     1      57.234   8.142  81.309  1.00  0.00     0.211 HD
ENDBRANCH  15  20
ENDBRANCH   8   9
ENDBRANCH   7   8
ENDBRANCH   1   7
BRANCH   2  22
ATOM     22  O   UNL     1      57.578   6.467  84.033  1.00  0.00    -0.387 OA
ATOM     23  H   UNL     1      57.135   6.150  84.861  1.00  0.00     0.211 HD
ENDBRANCH   2  22
BRANCH   3  24
ATOM     24  O   UNL     1      55.527   8.948  84.124  1.00  0.00    -0.387 OA
ATOM     25  H   UNL     1      54.635   9.398  84.075  1.00  0.00     0.211 HD
ENDBRANCH   3  24
BRANCH   5  26
ATOM     26  O   UNL     1      52.889   6.854  81.093  1.00  0.00    -0.454 OA
BRANCH  26  27
ATOM     27  C   UNL     1      53.038   7.529  79.841  1.00  0.00     0.214 A 
ATOM     28  C   UNL     1      52.619   6.890  78.634  1.00  0.00     0.180 A 
ATOM     29  C   UNL     1      53.618   8.819  79.727  1.00  0.00     0.239 A 
ATOM     30  O   UNL     1      52.687   7.552  77.480  1.00  0.00    -0.452 OA
ATOM     31  C   UNL     1      54.006   9.276  78.456  1.00  0.00     0.111 A 
ATOM     32  O   UNL     1      53.345   9.724  80.606  1.00  0.00    -0.285 OA
ATOM     33  C   UNL     1      53.394   8.707  77.343  1.00  0.00     0.146 A 
ATOM     34  C   UNL     1      54.965  10.281  78.306  1.00  0.00     0.134 A 
ATOM     35  C   UNL     1      53.563   9.304  76.112  1.00  0.00     0.094 A 
ATOM     36  C   UNL     1      55.146  10.880  77.074  1.00  0.00     0.093 A 
ATOM     37  C   UNL     1      54.394  10.426  75.969  1.00  0.00     0.123 A 
BRANCH  28  38
ATOM     38  C   UNL     1      52.117   5.500  78.605  1.00  0.00     0.025 A 
ATOM     39  C   UNL     1      50.865   5.216  79.180  1.00  0.00     0.062 A 
ATOM     40  C   UNL     1      52.822   4.491  77.958  1.00  0.00     0.016 A 
ATOM     41  C   UNL     1      50.311   3.935  79.056  1.00  0.00     0.158 A 
ATOM     42  C   UNL     1      52.249   3.217  77.778  1.00  0.00     0.051 A 
ATOM     43  C   UNL     1      51.005   2.919  78.349  1.00  0.00     0.157 A 
BRANCH  41  44
ATOM     44  O   UNL     1      49.072   3.735  79.684  1.00  0.00    -0.504 OA
ATOM     45  H   UNL     1      48.903   3.028  80.395  1.00  0.00     0.293 HD
ENDBRANCH  41  44
BRANCH  43  46
ATOM     46  O   UNL     1      50.493   1.643  78.180  1.00  0.00    -0.504 OA
ATOM     47  H   UNL     1      50.716   0.884  78.807  1.00  0.00     0.293 HD
ENDBRANCH  43  46
ENDBRANCH  28  38
BRANCH  34  48
ATOM     48  O   UNL     1      56.007  10.417  79.256  1.00  0.00    -0.507 OA
ATOM     49  H   UNL     1      55.800  10.477  80.279  1.00  0.00     0.293 HD
ENDBRANCH  34  48
BRANCH  37  50
ATOM     50  O   UNL     1      54.482  11.092  74.736  1.00  0.00    -0.508 OA
ATOM     51  H   UNL     1      55.232  10.920  74.071  1.00  0.00     0.293 HD
ENDBRANCH  37  50
ENDBRANCH  26  27
ENDBRANCH   5  26
BRANCH   4  52
ATOM     52  O   UNL     1      53.302   8.501  83.092  1.00  0.00    -0.384 OA
ATOM     53  H   UNL     1      52.411   8.393  83.415  1.00  0.00     0.211 HD
ENDBRANCH   4  52
TORSDOF 16
ENDMDL
MODEL 4
REMARK VINA RESULT:    -6.867      2.318      4.741
REMARK INTER + INTRA:         -13.161
REMARK INTER:                  -9.014
REMARK INTRA:                  -4.147
REMARK UNBOUND:                -1.878
REMARK SMILES C[C@@H]1O[C@H](OC[C@@H]2O[C@H](Oc3c(-c4ccc(O)c(O)c4)oc4cc(O)cc(O)c4c3=O)[C@H](O)[C@H](O)[C@H]2O)[C@H](O)[C@H](O)[C@H]1O
REMARK SMILES IDX 7 1 36 2 34 3 32 4 9 5 8 6 6 7 5 8 4 9 1 10 2 11 42 12 3 13
REMARK SMILES IDX 40 14 38 15 43 16 41 18 39 20 37 22 35 24 10 26 11 27 12 28
REMARK SMILES IDX 30 29 21 30 29 31 31 32 22 33 27 34 23 35 26 36 24 37 13 38
REMARK SMILES IDX 20 39 14 40 18 41 15 42 16 43 19 44 17 46 28 48 25 50 33 52
REMARK H PARENT 43 17 41 19 39 21 37 23 35 25 19 45 17 47 28 49 25 51 33 53
REMARK Flexibility Score: inf
ROOT
ATOM      1  C   UNL     1      55.548   9.589  79.576  1.00  0.00     0.180 C 
ATOM      2  C   UNL     1      54.132  10.095  79.297  1.00  0.00     0.177 C 
ATOM      3  C   UNL     1      53.500  10.858  80.503  1.00  0.00     0.180 C 
ATOM      4  C   UNL     1      54.224  10.583  81.880  1.00  0.00     0.214 C 
ATOM      5  C   UNL     1      55.462   9.612  81.896  1.00  0.00     0.339 C 
ATOM      6  O   UNL     1      55.530   8.788  80.720  1.00  0.00    -0.332 OA
ENDROOT
BRANCH   1   7
ATOM      7  C   UNL     1      56.017   8.688  78.411  1.00  0.00     0.198 C 
BRANCH   7   8
ATOM      8  O   UNL     1      56.017   7.309  78.858  1.00  0.00    -0.347 OA
BRANCH   8   9
ATOM      9  C   UNL     1      55.189   6.492  78.032  1.00  0.00     0.281 C 
ATOM     10  C   UNL     1      56.844   4.796  79.956  1.00  0.00     0.041 C 
ATOM     11  C   UNL     1      55.912   4.389  78.778  1.00  0.00     0.150 C 
ATOM     12  C   UNL     1      54.529   3.863  79.246  1.00  0.00     0.174 C 
ATOM     13  O   UNL     1      55.884   5.298  77.711  1.00  0.00    -0.344 OA
ATOM     14  C   UNL     1      53.396   4.653  78.542  1.00  0.00     0.179 C 
ATOM     15  C   UNL     1      53.694   6.190  78.488  1.00  0.00     0.202 C 
BRANCH  12  16
ATOM     16  O   UNL     1      54.394   2.485  78.965  1.00  0.00    -0.388 OA
ATOM     17  H   UNL     1      55.247   2.075  79.312  1.00  0.00     0.211 HD
ENDBRANCH  12  16
BRANCH  14  18
ATOM     18  O   UNL     1      52.158   4.404  79.147  1.00  0.00    -0.387 OA
ATOM     19  H   UNL     1      51.774   3.512  78.825  1.00  0.00     0.211 HD
ENDBRANCH  14  18
BRANCH  15  20
ATOM     20  O   UNL     1      53.274   6.869  79.624  1.00  0.00    -0.385 OA
ATOM     21  H   UNL     1      53.751   6.521  80.445  1.00  0.00     0.211 HD
ENDBRANCH  15  20
ENDBRANCH   8   9
ENDBRANCH   7   8
ENDBRANCH   1   7
BRANCH   2  22
ATOM     22  O   UNL     1      54.098  10.937  78.138  1.00  0.00    -0.387 OA
ATOM     23  H   UNL     1      53.154  11.092  77.875  1.00  0.00     0.211 HD
ENDBRANCH   2  22
BRANCH   3  24
ATOM     24  O   UNL     1      52.100  10.639  80.646  1.00  0.00    -0.387 OA
ATOM     25  H   UNL     1      51.592  11.146  79.949  1.00  0.00     0.211 HD
ENDBRANCH   3  24
BRANCH   5  26
ATOM     26  O   UNL     1      55.456   8.808  83.078  1.00  0.00    -0.454 OA
BRANCH  26  27
ATOM     27  C   UNL     1      55.385   7.384  83.187  1.00  0.00     0.214 A 
ATOM     28  C   UNL     1      56.587   6.612  83.213  1.00  0.00     0.180 A 
ATOM     29  C   UNL     1      54.156   6.677  83.246  1.00  0.00     0.239 A 
ATOM     30  O   UNL     1      56.519   5.293  83.394  1.00  0.00    -0.452 OA
ATOM     31  C   UNL     1      54.166   5.287  83.044  1.00  0.00     0.111 A 
ATOM     32  O   UNL     1      53.178   7.151  83.941  1.00  0.00    -0.285 OA
ATOM     33  C   UNL     1      55.354   4.601  83.278  1.00  0.00     0.146 A 
ATOM     34  C   UNL     1      53.017   4.604  82.635  1.00  0.00     0.134 A 
ATOM     35  C   UNL     1      55.328   3.223  83.335  1.00  0.00     0.094 A 
ATOM     36  C   UNL     1      52.985   3.223  82.682  1.00  0.00     0.093 A 
ATOM     37  C   UNL     1      54.138   2.519  83.093  1.00  0.00     0.123 A 
BRANCH  28  38
ATOM     38  C   UNL     1      57.923   7.217  83.033  1.00  0.00     0.025 A 
ATOM     39  C   UNL     1      58.374   7.498  81.730  1.00  0.00     0.062 A 
ATOM     40  C   UNL     1      58.706   7.579  84.124  1.00  0.00     0.016 A 
ATOM     41  C   UNL     1      59.580   8.183  81.538  1.00  0.00     0.158 A 
ATOM     42  C   UNL     1      59.891   8.318  83.944  1.00  0.00     0.051 A 
ATOM     43  C   UNL     1      60.353   8.601  82.652  1.00  0.00     0.157 A 
BRANCH  41  44
ATOM     44  O   UNL     1      59.964   8.395  80.205  1.00  0.00    -0.504 OA
ATOM     45  H   UNL     1      59.390   8.878  79.518  1.00  0.00     0.293 HD
ENDBRANCH  41  44
BRANCH  43  46
ATOM     46  O   UNL     1      61.542   9.300  82.519  1.00  0.00    -0.504 OA
ATOM     47  H   UNL     1      62.424   8.838  82.354  1.00  0.00     0.293 HD
ENDBRANCH  43  46
ENDBRANCH  28  38
BRANCH  34  48
ATOM     48  O   UNL     1      52.059   5.250  81.814  1.00  0.00    -0.507 OA
ATOM     49  H   UNL     1      51.326   4.703  81.310  1.00  0.00     0.293 HD
ENDBRANCH  34  48
BRANCH  37  50
ATOM     50  O   UNL     1      54.092   1.125  83.254  1.00  0.00    -0.508 OA
ATOM     51  H   UNL     1      53.245   0.583  83.108  1.00  0.00     0.293 HD
ENDBRANCH  37  50
ENDBRANCH  26  27
ENDBRANCH   5  26
BRANCH   4  52
ATOM     52  O   UNL     1      53.219  10.153  82.820  1.00  0.00    -0.384 OA
ATOM     53  H   UNL     1      53.032   9.237  82.630  1.00  0.00     0.211 HD
ENDBRANCH   4  52
TORSDOF 16
ENDMDL
MODEL 5
REMARK VINA RESULT:    -6.747      2.051      7.164
REMARK INTER + INTRA:         -12.963
REMARK INTER:                  -9.064
REMARK INTRA:                  -3.899
REMARK UNBOUND:                -1.878
REMARK SMILES C[C@@H]1O[C@H](OC[C@@H]2O[C@H](Oc3c(-c4ccc(O)c(O)c4)oc4cc(O)cc(O)c4c3=O)[C@H](O)[C@H](O)[C@H]2O)[C@H](O)[C@H](O)[C@H]1O
REMARK SMILES IDX 7 1 36 2 34 3 32 4 9 5 8 6 6 7 5 8 4 9 1 10 2 11 42 12 3 13
REMARK SMILES IDX 40 14 38 15 43 16 41 18 39 20 37 22 35 24 10 26 11 27 12 28
REMARK SMILES IDX 30 29 21 30 29 31 31 32 22 33 27 34 23 35 26 36 24 37 13 38
REMARK SMILES IDX 20 39 14 40 18 41 15 42 16 43 19 44 17 46 28 48 25 50 33 52
REMARK H PARENT 43 17 41 19 39 21 37 23 35 25 19 45 17 47 28 49 25 51 33 53
REMARK Flexibility Score: inf
ROOT
ATOM      1  C   UNL     1      53.158   5.219  79.143  1.00  0.00     0.180 C 
ATOM      2  C   UNL     1      53.405   3.779  79.594  1.00  0.00     0.177 C 
ATOM      3  C   UNL     1      52.815   3.463  81.005  1.00  0.00     0.180 C 
ATOM      4  C   UNL     1      52.488   4.751  81.860  1.00  0.00     0.214 C 
ATOM      5  C   UNL     1      52.774   6.163  81.230  1.00  0.00     0.339 C 
ATOM      6  O   UNL     1      53.668   6.093  80.106  1.00  0.00    -0.332 OA
ENDROOT
BRANCH   1   7
ATOM      7  C   UNL     1      53.936   5.495  77.836  1.00  0.00     0.198 C 
BRANCH   7   8
ATOM      8  O   UNL     1      55.089   6.317  78.144  1.00  0.00    -0.347 OA
BRANCH   8   9
ATOM      9  C   UNL     1      56.309   5.621  77.894  1.00  0.00     0.281 C 
ATOM     10  C   UNL     1      56.815   8.590  78.392  1.00  0.00     0.041 C 
ATOM     11  C   UNL     1      57.776   7.451  77.944  1.00  0.00     0.150 C 
ATOM     12  C   UNL     1      58.690   6.937  79.087  1.00  0.00     0.174 C 
ATOM     13  O   UNL     1      57.180   6.459  77.152  1.00  0.00    -0.344 OA
ATOM     14  C   UNL     1      58.556   5.398  79.220  1.00  0.00     0.179 C 
ATOM     15  C   UNL     1      57.067   4.924  79.108  1.00  0.00     0.202 C 
BRANCH  12  16
ATOM     16  O   UNL     1      60.040   7.277  78.844  1.00  0.00    -0.388 OA
ATOM     17  H   UNL     1      60.112   8.237  79.144  1.00  0.00     0.211 HD
ENDBRANCH  12  16
BRANCH  14  18
ATOM     18  O   UNL     1      59.137   4.943  80.410  1.00  0.00    -0.387 OA
ATOM     19  H   UNL     1      60.064   4.551  80.229  1.00  0.00     0.211 HD
ENDBRANCH  14  18
BRANCH  15  20
ATOM     20  O   UNL     1      56.391   4.949  80.320  1.00  0.00    -0.385 OA
ATOM     21  H   UNL     1      56.985   4.615  81.068  1.00  0.00     0.211 HD
ENDBRANCH  15  20
ENDBRANCH   8   9
ENDBRANCH   7   8
ENDBRANCH   1   7
BRANCH   2  22
ATOM     22  O   UNL     1      52.885   2.838  78.646  1.00  0.00    -0.387 OA
ATOM     23  H   UNL     1      53.638   2.428  78.148  1.00  0.00     0.211 HD
ENDBRANCH   2  22
BRANCH   3  24
ATOM     24  O   UNL     1      53.616   2.569  81.771  1.00  0.00    -0.387 OA
ATOM     25  H   UNL     1      54.401   3.049  82.164  1.00  0.00     0.211 HD
ENDBRANCH   3  24
BRANCH   5  26
ATOM     26  O   UNL     1      53.274   7.065  82.219  1.00  0.00    -0.454 OA
BRANCH  26  27
ATOM     27  C   UNL     1      54.563   7.683  82.293  1.00  0.00     0.214 A 
ATOM     28  C   UNL     1      54.793   8.927  81.630  1.00  0.00     0.180 A 
ATOM     29  C   UNL     1      55.658   7.100  82.982  1.00  0.00     0.239 A 
ATOM     30  O   UNL     1      55.969   9.538  81.766  1.00  0.00    -0.452 OA
ATOM     31  C   UNL     1      56.948   7.606  82.752  1.00  0.00     0.111 A 
ATOM     32  O   UNL     1      55.462   6.514  84.115  1.00  0.00    -0.285 OA
ATOM     33  C   UNL     1      57.063   8.908  82.275  1.00  0.00     0.146 A 
ATOM     34  C   UNL     1      58.086   6.836  83.006  1.00  0.00     0.134 A 
ATOM     35  C   UNL     1      58.302   9.514  82.282  1.00  0.00     0.094 A 
ATOM     36  C   UNL     1      59.333   7.433  83.009  1.00  0.00     0.093 A 
ATOM     37  C   UNL     1      59.441   8.806  82.699  1.00  0.00     0.123 A 
BRANCH  28  38
ATOM     38  C   UNL     1      53.773   9.573  80.777  1.00  0.00     0.025 A 
ATOM     39  C   UNL     1      53.588   9.104  79.464  1.00  0.00     0.062 A 
ATOM     40  C   UNL     1      52.950  10.580  81.271  1.00  0.00     0.016 A 
ATOM     41  C   UNL     1      52.547   9.614  78.678  1.00  0.00     0.158 A 
ATOM     42  C   UNL     1      51.866  11.058  80.510  1.00  0.00     0.051 A 
ATOM     43  C   UNL     1      51.672  10.602  79.199  1.00  0.00     0.157 A 
BRANCH  41  44
ATOM     44  O   UNL     1      52.454   9.108  77.371  1.00  0.00    -0.504 OA
ATOM     45  H   UNL     1      52.369   8.119  77.150  1.00  0.00     0.293 HD
ENDBRANCH  41  44
BRANCH  43  46
ATOM     46  O   UNL     1      50.615  11.124  78.472  1.00  0.00    -0.504 OA
ATOM     47  H   UNL     1      49.653  10.904  78.684  1.00  0.00     0.293 HD
ENDBRANCH  43  46
ENDBRANCH  28  38
BRANCH  34  48
ATOM     48  O   UNL     1      58.039   5.427  82.864  1.00  0.00    -0.507 OA
ATOM     49  H   UNL     1      58.778   4.819  83.283  1.00  0.00     0.293 HD
ENDBRANCH  34  48
BRANCH  37  50
ATOM     50  O   UNL     1      60.681   9.456  82.802  1.00  0.00    -0.508 OA
ATOM     51  H   UNL     1      60.768  10.436  83.060  1.00  0.00     0.293 HD
ENDBRANCH  37  50
ENDBRANCH  26  27
ENDBRANCH   5  26
BRANCH   4  52
ATOM     52  O   UNL     1      53.157   4.608  83.130  1.00  0.00    -0.384 OA
ATOM     53  H   UNL     1      52.481   4.599  83.802  1.00  0.00     0.211 HD
ENDBRANCH   4  52
TORSDOF 16
ENDMDL
MODEL 6
REMARK VINA RESULT:    -6.610      1.682      5.297
REMARK INTER + INTRA:         -12.738
REMARK INTER:                 -10.802
REMARK INTRA:                  -1.935
REMARK UNBOUND:                -1.878
REMARK SMILES C[C@@H]1O[C@H](OC[C@@H]2O[C@H](Oc3c(-c4ccc(O)c(O)c4)oc4cc(O)cc(O)c4c3=O)[C@H](O)[C@H](O)[C@H]2O)[C@H](O)[C@H](O)[C@H]1O
REMARK SMILES IDX 7 1 36 2 34 3 32 4 9 5 8 6 6 7 5 8 4 9 1 10 2 11 42 12 3 13
REMARK SMILES IDX 40 14 38 15 43 16 41 18 39 20 37 22 35 24 10 26 11 27 12 28
REMARK SMILES IDX 30 29 21 30 29 31 31 32 22 33 27 34 23 35 26 36 24 37 13 38
REMARK SMILES IDX 20 39 14 40 18 41 15 42 16 43 19 44 17 46 28 48 25 50 33 52
REMARK H PARENT 43 17 41 19 39 21 37 23 35 25 19 45 17 47 28 49 25 51 33 53
REMARK Flexibility Score: inf
ROOT
ATOM      1  C   UNL     1      55.100   4.789  81.297  1.00  0.00     0.180 C 
ATOM      2  C   UNL     1      56.316   4.645  82.213  1.00  0.00     0.177 C 
ATOM      3  C   UNL     1      56.474   5.826  83.222  1.00  0.00     0.180 C 
ATOM      4  C   UNL     1      55.653   7.115  82.824  1.00  0.00     0.214 C 
ATOM      5  C   UNL     1      54.791   7.081  81.509  1.00  0.00     0.339 C 
ATOM      6  O   UNL     1      55.176   6.013  80.627  1.00  0.00    -0.332 OA
ENDROOT
BRANCH   1   7
ATOM      7  C   UNL     1      55.132   3.687  80.214  1.00  0.00     0.198 C 
BRANCH   7   8
ATOM      8  O   UNL     1      53.772   3.272  79.930  1.00  0.00    -0.347 OA
BRANCH   8   9
ATOM      9  C   UNL     1      52.863   4.369  80.009  1.00  0.00     0.281 C 
ATOM     10  C   UNL     1      52.072   2.440  77.780  1.00  0.00     0.041 C 
ATOM     11  C   UNL     1      51.502   3.833  78.176  1.00  0.00     0.150 C 
ATOM     12  C   UNL     1      50.160   3.747  78.949  1.00  0.00     0.174 C 
ATOM     13  O   UNL     1      52.447   4.725  78.701  1.00  0.00    -0.344 OA
ATOM     14  C   UNL     1      50.265   4.535  80.280  1.00  0.00     0.179 C 
ATOM     15  C   UNL     1      51.628   4.282  81.009  1.00  0.00     0.202 C 
BRANCH  12  16
ATOM     16  O   UNL     1      49.098   4.264  78.173  1.00  0.00    -0.388 OA
ATOM     17  H   UNL     1      49.330   5.238  78.052  1.00  0.00     0.211 HD
ENDBRANCH  12  16
BRANCH  14  18
ATOM     18  O   UNL     1      49.185   4.243  81.124  1.00  0.00    -0.387 OA
ATOM     19  H   UNL     1      49.288   3.310  81.529  1.00  0.00     0.211 HD
ENDBRANCH  14  18
BRANCH  15  20
ATOM     20  O   UNL     1      51.610   3.164  81.832  1.00  0.00    -0.385 OA
ATOM     21  H   UNL     1      52.462   2.629  81.726  1.00  0.00     0.211 HD
ENDBRANCH  15  20
ENDBRANCH   8   9
ENDBRANCH   7   8
ENDBRANCH   1   7
BRANCH   2  22
ATOM     22  O   UNL     1      56.279   3.409  82.938  1.00  0.00    -0.387 OA
ATOM     23  H   UNL     1      55.426   3.350  83.440  1.00  0.00     0.211 HD
ENDBRANCH   2  22
BRANCH   3  24
ATOM     24  O   UNL     1      57.829   6.180  83.478  1.00  0.00    -0.387 OA
ATOM     25  H   UNL     1      58.450   5.610  82.940  1.00  0.00     0.211 HD
ENDBRANCH   3  24
BRANCH   5  26
ATOM     26  O   UNL     1      54.850   8.340  80.834  1.00  0.00    -0.454 OA
BRANCH  26  27
ATOM     27  C   UNL     1      54.303   8.696  79.561  1.00  0.00     0.214 A 
ATOM     28  C   UNL     1      55.151   8.747  78.413  1.00  0.00     0.180 A 
ATOM     29  C   UNL     1      52.938   9.037  79.377  1.00  0.00     0.239 A 
ATOM     30  O   UNL     1      54.624   9.003  77.216  1.00  0.00    -0.452 OA
ATOM     31  C   UNL     1      52.553   9.664  78.181  1.00  0.00     0.111 A 
ATOM     32  O   UNL     1      52.024   8.372  80.000  1.00  0.00    -0.285 OA
ATOM     33  C   UNL     1      53.365   9.494  77.064  1.00  0.00     0.146 A 
ATOM     34  C   UNL     1      51.382  10.424  78.103  1.00  0.00     0.134 A 
ATOM     35  C   UNL     1      52.888   9.878  75.828  1.00  0.00     0.094 A 
ATOM     36  C   UNL     1      50.901  10.820  76.870  1.00  0.00     0.093 A 
ATOM     37  C   UNL     1      51.632  10.495  75.706  1.00  0.00     0.123 A 
BRANCH  28  38
ATOM     38  C   UNL     1      56.612   8.538  78.494  1.00  0.00     0.025 A 
ATOM     39  C   UNL     1      57.437   9.622  78.847  1.00  0.00     0.062 A 
ATOM     40  C   UNL     1      57.173   7.280  78.303  1.00  0.00     0.016 A 
ATOM     41  C   UNL     1      58.808   9.422  79.052  1.00  0.00     0.158 A 
ATOM     42  C   UNL     1      58.540   7.057  78.563  1.00  0.00     0.051 A 
ATOM     43  C   UNL     1      59.373   8.128  78.910  1.00  0.00     0.157 A 
BRANCH  41  44
ATOM     44  O   UNL     1      59.557  10.565  79.373  1.00  0.00    -0.504 OA
ATOM     45  H   UNL     1      59.684  11.356  78.747  1.00  0.00     0.293 HD
ENDBRANCH  41  44
BRANCH  43  46
ATOM     46  O   UNL     1      60.718   7.872  79.123  1.00  0.00    -0.504 OA
ATOM     47  H   UNL     1      61.389   7.854  78.369  1.00  0.00     0.293 HD
ENDBRANCH  43  46
ENDBRANCH  28  38
BRANCH  34  48
ATOM     48  O   UNL     1      50.912  11.125  79.241  1.00  0.00    -0.507 OA
ATOM     49  H   UNL     1      49.893  11.155  79.472  1.00  0.00     0.293 HD
ENDBRANCH  34  48
BRANCH  37  50
ATOM     50  O   UNL     1      51.106  10.790  74.438  1.00  0.00    -0.508 OA
ATOM     51  H   UNL     1      51.294  11.666  73.957  1.00  0.00     0.293 HD
ENDBRANCH  37  50
ENDBRANCH  26  27
ENDBRANCH   5  26
BRANCH   4  52
ATOM     52  O   UNL     1      56.572   8.227  82.809  1.00  0.00    -0.384 OA
ATOM     53  H   UNL     1      56.668   8.523  83.710  1.00  0.00     0.211 HD
ENDBRANCH   4  52
TORSDOF 16
ENDMDL
MODEL 7
REMARK VINA RESULT:    -6.113      2.075      4.779
REMARK INTER + INTRA:         -11.922
REMARK INTER:                 -10.294
REMARK INTRA:                  -1.627
REMARK UNBOUND:                -1.878
REMARK SMILES C[C@@H]1O[C@H](OC[C@@H]2O[C@H](Oc3c(-c4ccc(O)c(O)c4)oc4cc(O)cc(O)c4c3=O)[C@H](O)[C@H](O)[C@H]2O)[C@H](O)[C@H](O)[C@H]1O
REMARK SMILES IDX 7 1 36 2 34 3 32 4 9 5 8 6 6 7 5 8 4 9 1 10 2 11 42 12 3 13
REMARK SMILES IDX 40 14 38 15 43 16 41 18 39 20 37 22 35 24 10 26 11 27 12 28
REMARK SMILES IDX 30 29 21 30 29 31 31 32 22 33 27 34 23 35 26 36 24 37 13 38
REMARK SMILES IDX 20 39 14 40 18 41 15 42 16 43 19 44 17 46 28 48 25 50 33 52
REMARK H PARENT 43 17 41 19 39 21 37 23 35 25 19 45 17 47 28 49 25 51 33 53
REMARK Flexibility Score: inf
ROOT
ATOM      1  C   UNL     1      58.023   7.592  80.379  1.00  0.00     0.180 C 
ATOM      2  C   UNL     1      58.653   8.062  81.690  1.00  0.00     0.177 C 
ATOM      3  C   UNL     1      58.272   7.171  82.914  1.00  0.00     0.180 C 
ATOM      4  C   UNL     1      57.002   6.264  82.668  1.00  0.00     0.214 C 
ATOM      5  C   UNL     1      56.281   6.342  81.273  1.00  0.00     0.339 C 
ATOM      6  O   UNL     1      56.636   7.525  80.537  1.00  0.00    -0.332 OA
ENDROOT
BRANCH   1   7
ATOM      7  C   UNL     1      58.293   8.633  79.269  1.00  0.00     0.198 C 
BRANCH   7   8
ATOM      8  O   UNL     1      57.535   8.266  78.089  1.00  0.00    -0.347 OA
BRANCH   8   9
ATOM      9  C   UNL     1      56.152   8.584  78.237  1.00  0.00     0.281 C 
ATOM     10  C   UNL     1      57.514  10.475  76.267  1.00  0.00     0.041 C 
ATOM     11  C   UNL     1      56.079  10.487  76.869  1.00  0.00     0.150 C 
ATOM     12  C   UNL     1      54.997   9.976  75.881  1.00  0.00     0.174 C 
ATOM     13  O   UNL     1      55.988   9.991  78.177  1.00  0.00    -0.344 OA
ATOM     14  C   UNL     1      54.174   8.839  76.541  1.00  0.00     0.179 C 
ATOM     15  C   UNL     1      55.082   7.834  77.328  1.00  0.00     0.202 C 
BRANCH  12  16
ATOM     16  O   UNL     1      54.133  11.025  75.494  1.00  0.00    -0.388 OA
ATOM     17  H   UNL     1      53.232  10.582  75.396  1.00  0.00     0.211 HD
ENDBRANCH  12  16
BRANCH  14  18
ATOM     18  O   UNL     1      53.392   8.169  75.592  1.00  0.00    -0.387 OA
ATOM     19  H   UNL     1      53.875   8.129  74.692  1.00  0.00     0.211 HD
ENDBRANCH  14  18
BRANCH  15  20
ATOM     20  O   UNL     1      55.591   6.817  76.532  1.00  0.00    -0.385 OA
ATOM     21  H   UNL     1      55.053   5.969  76.648  1.00  0.00     0.211 HD
ENDBRANCH  15  20
ENDBRANCH   8   9
ENDBRANCH   7   8
ENDBRANCH   1   7
BRANCH   2  22
ATOM     22  O   UNL     1      60.080   8.133  81.587  1.00  0.00    -0.387 OA
ATOM     23  H   UNL     1      60.487   7.618  82.330  1.00  0.00     0.211 HD
ENDBRANCH   2  22
BRANCH   3  24
ATOM     24  O   UNL     1      58.112   7.903  84.125  1.00  0.00    -0.387 OA
ATOM     25  H   UNL     1      58.971   7.930  84.636  1.00  0.00     0.211 HD
ENDBRANCH   3  24
BRANCH   5  26
ATOM     26  O   UNL     1      54.864   6.252  81.431  1.00  0.00    -0.454 OA
BRANCH  26  27
ATOM     27  C   UNL     1      53.840   6.963  80.730  1.00  0.00     0.214 A 
ATOM     28  C   UNL     1      53.101   6.310  79.696  1.00  0.00     0.180 A 
ATOM     29  C   UNL     1      53.529   8.323  80.992  1.00  0.00     0.239 A 
ATOM     30  O   UNL     1      52.097   6.950  79.099  1.00  0.00    -0.452 OA
ATOM     31  C   UNL     1      52.740   9.026  80.067  1.00  0.00     0.111 A 
ATOM     32  O   UNL     1      53.511   8.751  82.209  1.00  0.00    -0.285 OA
ATOM     33  C   UNL     1      51.911   8.292  79.224  1.00  0.00     0.146 A 
ATOM     34  C   UNL     1      52.769  10.422  79.999  1.00  0.00     0.134 A 
ATOM     35  C   UNL     1      50.949   8.955  78.492  1.00  0.00     0.094 A 
ATOM     36  C   UNL     1      51.813  11.095  79.263  1.00  0.00     0.093 A 
ATOM     37  C   UNL     1      50.850  10.355  78.542  1.00  0.00     0.123 A 
BRANCH  28  38
ATOM     38  C   UNL     1      53.413   4.938  79.243  1.00  0.00     0.025 A 
ATOM     39  C   UNL     1      52.371   4.128  78.756  1.00  0.00     0.062 A 
ATOM     40  C   UNL     1      54.721   4.465  79.221  1.00  0.00     0.016 A 
ATOM     41  C   UNL     1      52.659   2.872  78.205  1.00  0.00     0.158 A 
ATOM     42  C   UNL     1      55.026   3.229  78.617  1.00  0.00     0.051 A 
ATOM     43  C   UNL     1      53.998   2.411  78.132  1.00  0.00     0.157 A 
BRANCH  41  44
ATOM     44  O   UNL     1      51.554   2.122  77.770  1.00  0.00    -0.504 OA
ATOM     45  H   UNL     1      51.556   1.109  77.679  1.00  0.00     0.293 HD
ENDBRANCH  41  44
BRANCH  43  46
ATOM     46  O   UNL     1      54.338   1.187  77.579  1.00  0.00    -0.504 OA
ATOM     47  H   UNL     1      54.503   0.366  78.143  1.00  0.00     0.293 HD
ENDBRANCH  43  46
ENDBRANCH  28  38
BRANCH  34  48
ATOM     48  O   UNL     1      53.956  11.125  80.323  1.00  0.00    -0.507 OA
ATOM     49  H   UNL     1      54.881  10.822  79.943  1.00  0.00     0.293 HD
ENDBRANCH  34  48
BRANCH  37  50
ATOM     50  O   UNL     1      49.806  11.017  77.877  1.00  0.00    -0.508 OA
ATOM     51  H   UNL     1      48.828  10.887  78.123  1.00  0.00     0.293 HD
ENDBRANCH  37  50
ENDBRANCH  26  27
ENDBRANCH   5  26
BRANCH   4  52
ATOM     52  O   UNL     1      56.074   6.518  83.743  1.00  0.00    -0.384 OA
ATOM     53  H   UNL     1      56.538   7.035  84.397  1.00  0.00     0.211 HD
ENDBRANCH   4  52
TORSDOF 16
ENDMDL
MODEL 8
REMARK VINA RESULT:    -6.052      2.060      6.317
REMARK INTER + INTRA:         -11.822
REMARK INTER:                  -9.298
REMARK INTRA:                  -2.524
REMARK UNBOUND:                -1.878
REMARK SMILES C[C@@H]1O[C@H](OC[C@@H]2O[C@H](Oc3c(-c4ccc(O)c(O)c4)oc4cc(O)cc(O)c4c3=O)[C@H](O)[C@H](O)[C@H]2O)[C@H](O)[C@H](O)[C@H]1O
REMARK SMILES IDX 7 1 36 2 34 3 32 4 9 5 8 6 6 7 5 8 4 9 1 10 2 11 42 12 3 13
REMARK SMILES IDX 40 14 38 15 43 16 41 18 39 20 37 22 35 24 10 26 11 27 12 28
REMARK SMILES IDX 30 29 21 30 29 31 31 32 22 33 27 34 23 35 26 36 24 37 13 38
REMARK SMILES IDX 20 39 14 40 18 41 15 42 16 43 19 44 17 46 28 48 25 50 33 52
REMARK H PARENT 43 17 41 19 39 21 37 23 35 25 19 45 17 47 28 49 25 51 33 53
REMARK Flexibility Score: inf
ROOT
ATOM      1  C   UNL     1      57.576   8.721  78.455  1.00  0.00     0.180 C 
ATOM      2  C   UNL     1      57.407   9.447  77.120  1.00  0.00     0.177 C 
ATOM      3  C   UNL     1      56.574  10.763  77.233  1.00  0.00     0.180 C 
ATOM      4  C   UNL     1      55.713  10.859  78.553  1.00  0.00     0.214 C 
ATOM      5  C   UNL     1      55.781   9.671  79.583  1.00  0.00     0.339 C 
ATOM      6  O   UNL     1      56.314   8.469  79.001  1.00  0.00    -0.332 OA
ENDROOT
BRANCH   1   7
ATOM      7  C   UNL     1      58.240   7.346  78.219  1.00  0.00     0.198 C 
BRANCH   7   8
ATOM      8  O   UNL     1      58.531   6.741  79.504  1.00  0.00    -0.347 OA
BRANCH   8   9
ATOM      9  C   UNL     1      58.250   5.342  79.499  1.00  0.00     0.281 C 
ATOM     10  C   UNL     1      58.354   6.437  82.347  1.00  0.00     0.041 C 
ATOM     11  C   UNL     1      58.225   4.979  81.817  1.00  0.00     0.150 C 
ATOM     12  C   UNL     1      56.781   4.421  81.910  1.00  0.00     0.174 C 
ATOM     13  O   UNL     1      58.892   4.734  80.608  1.00  0.00    -0.344 OA
ATOM     14  C   UNL     1      56.328   3.891  80.525  1.00  0.00     0.179 C 
ATOM     15  C   UNL     1      56.741   4.855  79.361  1.00  0.00     0.202 C 
BRANCH  12  16
ATOM     16  O   UNL     1      56.704   3.381  82.865  1.00  0.00    -0.388 OA
ATOM     17  H   UNL     1      55.843   3.559  83.359  1.00  0.00     0.211 HD
ENDBRANCH  12  16
BRANCH  14  18
ATOM     18  O   UNL     1      54.948   3.647  80.507  1.00  0.00    -0.387 OA
ATOM     19  H   UNL     1      54.485   4.149  81.268  1.00  0.00     0.211 HD
ENDBRANCH  14  18
BRANCH  15  20
ATOM     20  O   UNL     1      55.814   5.861  79.127  1.00  0.00    -0.385 OA
ATOM     21  H   UNL     1      56.186   6.761  79.399  1.00  0.00     0.211 HD
ENDBRANCH  15  20
ENDBRANCH   8   9
ENDBRANCH   7   8
ENDBRANCH   1   7
BRANCH   2  22
ATOM     22  O   UNL     1      58.676   9.744  76.524  1.00  0.00    -0.387 OA
ATOM     23  H   UNL     1      59.221   8.916  76.486  1.00  0.00     0.211 HD
ENDBRANCH   2  22
BRANCH   3  24
ATOM     24  O   UNL     1      55.746  11.012  76.101  1.00  0.00    -0.387 OA
ATOM     25  H   UNL     1      56.064  11.820  75.604  1.00  0.00     0.211 HD
ENDBRANCH   3  24
BRANCH   5  26
ATOM     26  O   UNL     1      54.496   9.428  80.158  1.00  0.00    -0.454 OA
BRANCH  26  27
ATOM     27  C   UNL     1      53.819   8.180  80.334  1.00  0.00     0.214 A 
ATOM     28  C   UNL     1      52.832   7.767  79.387  1.00  0.00     0.180 A 
ATOM     29  C   UNL     1      54.060   7.322  81.438  1.00  0.00     0.239 A 
ATOM     30  O   UNL     1      52.260   6.570  79.512  1.00  0.00    -0.452 OA
ATOM     31  C   UNL     1      53.151   6.284  81.699  1.00  0.00     0.111 A 
ATOM     32  O   UNL     1      55.266   7.153  81.865  1.00  0.00    -0.285 OA
ATOM     33  C   UNL     1      52.360   5.829  80.648  1.00  0.00     0.146 A 
ATOM     34  C   UNL     1      53.049   5.709  82.969  1.00  0.00     0.134 A 
ATOM     35  C   UNL     1      51.651   4.657  80.806  1.00  0.00     0.094 A 
ATOM     36  C   UNL     1      52.335   4.538  83.138  1.00  0.00     0.093 A 
ATOM     37  C   UNL     1      51.671   3.968  82.030  1.00  0.00     0.123 A 
BRANCH  28  38
ATOM     38  C   UNL     1      52.399   8.627  78.265  1.00  0.00     0.025 A 
ATOM     39  C   UNL     1      53.141   8.611  77.070  1.00  0.00     0.062 A 
ATOM     40  C   UNL     1      51.238   9.388  78.344  1.00  0.00     0.016 A 
ATOM     41  C   UNL     1      52.684   9.320  75.952  1.00  0.00     0.158 A 
ATOM     42  C   UNL     1      50.740  10.056  77.209  1.00  0.00     0.051 A 
ATOM     43  C   UNL     1      51.471  10.053  76.014  1.00  0.00     0.157 A 
BRANCH  41  44
ATOM     44  O   UNL     1      53.502   9.270  74.812  1.00  0.00    -0.504 OA
ATOM     45  H   UNL     1      53.411   8.573  74.077  1.00  0.00     0.293 HD
ENDBRANCH  41  44
BRANCH  43  46
ATOM     46  O   UNL     1      50.963  10.753  74.931  1.00  0.00    -0.504 OA
ATOM     47  H   UNL     1      51.161  10.489  73.978  1.00  0.00     0.293 HD
ENDBRANCH  43  46
ENDBRANCH  28  38
BRANCH  34  48
ATOM     48  O   UNL     1      53.307   6.487  84.125  1.00  0.00    -0.507 OA
ATOM     49  H   UNL     1      52.570   6.636  84.850  1.00  0.00     0.293 HD
ENDBRANCH  34  48
BRANCH  37  50
ATOM     50  O   UNL     1      51.033   2.724  82.154  1.00  0.00    -0.508 OA
ATOM     51  H   UNL     1      50.266   2.437  81.551  1.00  0.00     0.293 HD
ENDBRANCH  37  50
ENDBRANCH  26  27
ENDBRANCH   5  26
BRANCH   4  52
ATOM     52  O   UNL     1      54.350  11.125  78.163  1.00  0.00    -0.384 OA
ATOM     53  H   UNL     1      54.376  11.830  77.521  1.00  0.00     0.211 HD
ENDBRANCH   4  52
TORSDOF 16
ENDMDL
MODEL 9
REMARK VINA RESULT:    -5.920      2.399      6.821
REMARK INTER + INTRA:         -11.605
REMARK INTER:                  -9.584
REMARK INTRA:                  -2.021
REMARK UNBOUND:                -1.878
REMARK SMILES C[C@@H]1O[C@H](OC[C@@H]2O[C@H](Oc3c(-c4ccc(O)c(O)c4)oc4cc(O)cc(O)c4c3=O)[C@H](O)[C@H](O)[C@H]2O)[C@H](O)[C@H](O)[C@H]1O
REMARK SMILES IDX 7 1 36 2 34 3 32 4 9 5 8 6 6 7 5 8 4 9 1 10 2 11 42 12 3 13
REMARK SMILES IDX 40 14 38 15 43 16 41 18 39 20 37 22 35 24 10 26 11 27 12 28
REMARK SMILES IDX 30 29 21 30 29 31 31 32 22 33 27 34 23 35 26 36 24 37 13 38
REMARK SMILES IDX 20 39 14 40 18 41 15 42 16 43 19 44 17 46 28 48 25 50 33 52
REMARK H PARENT 43 17 41 19 39 21 37 23 35 25 19 45 17 47 28 49 25 51 33 53
REMARK Flexibility Score: inf
ROOT
ATOM      1  C   UNL     1      51.936   5.718  79.462  1.00  0.00     0.180 C 
ATOM      2  C   UNL     1      51.372   4.751  78.420  1.00  0.00     0.177 C 
ATOM      3  C   UNL     1      51.966   3.312  78.526  1.00  0.00     0.180 C 
ATOM      4  C   UNL     1      53.310   3.238  79.352  1.00  0.00     0.214 C 
ATOM      5  C   UNL     1      53.890   4.566  79.964  1.00  0.00     0.339 C 
ATOM      6  O   UNL     1      53.329   5.742  79.355  1.00  0.00    -0.332 OA
ENDROOT
BRANCH   1   7
ATOM      7  C   UNL     1      51.443   7.151  79.163  1.00  0.00     0.198 C 
BRANCH   7   8
ATOM      8  O   UNL     1      52.336   8.096  79.804  1.00  0.00    -0.347 OA
BRANCH   8   9
ATOM      9  C   UNL     1      52.562   9.241  78.984  1.00  0.00     0.281 C 
ATOM     10  C   UNL     1      54.863   8.815  80.944  1.00  0.00     0.041 C 
ATOM     11  C   UNL     1      54.567   9.978  79.954  1.00  0.00     0.150 C 
ATOM     12  C   UNL     1      55.436   9.923  78.669  1.00  0.00     0.174 C 
ATOM     13  O   UNL     1      53.206  10.245  79.752  1.00  0.00    -0.344 OA
ATOM     14  C   UNL     1      54.527   9.968  77.414  1.00  0.00     0.179 C 
ATOM     15  C   UNL     1      53.264   9.054  77.568  1.00  0.00     0.202 C 
BRANCH  12  16
ATOM     16  O   UNL     1      56.349  11.001  78.634  1.00  0.00    -0.388 OA
ATOM     17  H   UNL     1      55.925  11.707  79.216  1.00  0.00     0.211 HD
ENDBRANCH  12  16
BRANCH  14  18
ATOM     18  O   UNL     1      55.248   9.635  76.260  1.00  0.00    -0.387 OA
ATOM     19  H   UNL     1      55.329   8.620  76.168  1.00  0.00     0.211 HD
ENDBRANCH  14  18
BRANCH  15  20
ATOM     20  O   UNL     1      53.490   7.738  77.189  1.00  0.00    -0.385 OA
ATOM     21  H   UNL     1      54.446   7.613  76.884  1.00  0.00     0.211 HD
ENDBRANCH  15  20
ENDBRANCH   8   9
ENDBRANCH   7   8
ENDBRANCH   1   7
BRANCH   2  22
ATOM     22  O   UNL     1      49.943   4.677  78.497  1.00  0.00    -0.387 OA
ATOM     23  H   UNL     1      49.550   5.469  78.047  1.00  0.00     0.211 HD
ENDBRANCH   2  22
BRANCH   3  24
ATOM     24  O   UNL     1      52.142   2.673  77.265  1.00  0.00    -0.387 OA
ATOM     25  H   UNL     1      51.837   1.721  77.308  1.00  0.00     0.211 HD
ENDBRANCH   3  24
BRANCH   5  26
ATOM     26  O   UNL     1      55.316   4.582  79.876  1.00  0.00    -0.454 OA
BRANCH  26  27
ATOM     27  C   UNL     1      56.259   5.189  80.765  1.00  0.00     0.214 A 
ATOM     28  C   UNL     1      56.118   5.017  82.176  1.00  0.00     0.180 A 
ATOM     29  C   UNL     1      57.335   5.995  80.311  1.00  0.00     0.239 A 
ATOM     30  O   UNL     1      57.041   5.518  82.995  1.00  0.00    -0.452 OA
ATOM     31  C   UNL     1      58.019   6.794  81.242  1.00  0.00     0.111 A 
ATOM     32  O   UNL     1      57.990   5.652  79.254  1.00  0.00    -0.285 OA
ATOM     33  C   UNL     1      57.967   6.426  82.583  1.00  0.00     0.146 A 
ATOM     34  C   UNL     1      58.747   7.918  80.840  1.00  0.00     0.134 A 
ATOM     35  C   UNL     1      58.826   7.032  83.475  1.00  0.00     0.094 A 
ATOM     36  C   UNL     1      59.604   8.536  81.729  1.00  0.00     0.093 A 
ATOM     37  C   UNL     1      59.692   8.054  83.053  1.00  0.00     0.123 A 
BRANCH  28  38
ATOM     38  C   UNL     1      54.970   4.307  82.779  1.00  0.00     0.025 A 
ATOM     39  C   UNL     1      53.863   5.054  83.219  1.00  0.00     0.062 A 
ATOM     40  C   UNL     1      54.936   2.918  82.849  1.00  0.00     0.016 A 
ATOM     41  C   UNL     1      52.714   4.398  83.679  1.00  0.00     0.158 A 
ATOM     42  C   UNL     1      53.765   2.249  83.255  1.00  0.00     0.051 A 
ATOM     43  C   UNL     1      52.657   2.980  83.700  1.00  0.00     0.157 A 
BRANCH  41  44
ATOM     44  O   UNL     1      51.669   5.223  84.125  1.00  0.00    -0.504 OA
ATOM     45  H   UNL     1      50.756   4.879  84.411  1.00  0.00     0.293 HD
ENDBRANCH  41  44
BRANCH  43  46
ATOM     46  O   UNL     1      51.537   2.283  84.125  1.00  0.00    -0.504 OA
ATOM     47  H   UNL     1      51.531   1.738  84.974  1.00  0.00     0.293 HD
ENDBRANCH  43  46
ENDBRANCH  28  38
BRANCH  34  48
ATOM     48  O   UNL     1      58.336   8.663  79.706  1.00  0.00    -0.507 OA
ATOM     49  H   UNL     1      58.969   9.369  79.268  1.00  0.00     0.293 HD
ENDBRANCH  34  48
BRANCH  37  50
ATOM     50  O   UNL     1      60.635   8.596  83.940  1.00  0.00    -0.508 OA
ATOM     51  H   UNL     1      60.793   8.220  84.872  1.00  0.00     0.293 HD
ENDBRANCH  37  50
ENDBRANCH  26  27
ENDBRANCH   5  26
BRANCH   4  52
ATOM     52  O   UNL     1      54.292   2.581  78.525  1.00  0.00    -0.384 OA
ATOM     53  H   UNL     1      54.875   3.258  78.191  1.00  0.00     0.211 HD
ENDBRANCH   4  52
TORSDOF 16
ENDMDL
