MODEL 1
REMARK VINA RESULT:    -4.246      0.000      0.000
REMARK INTER + INTRA:          -5.434
REMARK INTER:                  -5.239
REMARK INTRA:                  -0.195
REMARK UNBOUND:                -0.195
REMARK SMILES C=CC[C@H](C)C(=O)CC
REMARK SMILES IDX 4 1 5 2 6 3 7 4 8 5 9 6 3 7 2 8 1 9
REMARK H PARENT
REMARK Flexibility Score: inf
ROOT
ATOM      1  C   UNL     1     255.183 260.986 245.930  1.00  0.00     0.057 C 
ATOM      2  C   UNL     1     254.792 260.065 244.766  1.00  0.00     0.016 C 
ENDROOT
BRANCH   1   3
ATOM      3  C   UNL     1     256.675 261.236 245.911  1.00  0.00     0.135 C 
ATOM      4  O   UNL     1     257.270 261.454 246.956  1.00  0.00    -0.299 OA
BRANCH   3   5
ATOM      5  C   UNL     1     257.433 261.263 244.612  1.00  0.00     0.072 C 
ATOM      6  C   UNL     1     258.925 261.064 244.854  1.00  0.00     0.012 C 
ENDBRANCH   3   5
ENDBRANCH   1   3
BRANCH   1   7
ATOM      7  C   UNL     1     254.762 260.396 247.292  1.00  0.00     0.038 C 
BRANCH   7   8
ATOM      8  C   UNL     1     253.643 261.173 247.931  1.00  0.00    -0.034 C 
ATOM      9  C   UNL     1     252.470 261.354 247.315  1.00  0.00     0.004 C 
ENDBRANCH   7   8
ENDBRANCH   1   7
TORSDOF 4
ENDMDL
MODEL 2
REMARK VINA RESULT:    -4.104      1.210      2.002
REMARK INTER + INTRA:          -5.259
REMARK INTER:                  -4.974
REMARK INTRA:                  -0.285
REMARK UNBOUND:                -0.195
REMARK SMILES C=CC[C@H](C)C(=O)CC
REMARK SMILES IDX 4 1 5 2 6 3 7 4 8 5 9 6 3 7 2 8 1 9
REMARK H PARENT
REMARK Flexibility Score: inf
ROOT
ATOM      1  C   UNL     1     256.335 260.305 247.955  1.00  0.00     0.057 C 
ATOM      2  C   UNL     1     256.175 260.948 249.340  1.00  0.00     0.016 C 
ENDROOT
BRANCH   1   3
ATOM      3  C   UNL     1     257.221 261.170 247.085  1.00  0.00     0.135 C 
ATOM      4  O   UNL     1     258.304 261.550 247.506  1.00  0.00    -0.299 OA
BRANCH   3   5
ATOM      5  C   UNL     1     256.766 261.608 245.720  1.00  0.00     0.072 C 
ATOM      6  C   UNL     1     257.799 261.235 244.663  1.00  0.00     0.012 C 
ENDBRANCH   3   5
ENDBRANCH   1   3
BRANCH   1   7
ATOM      7  C   UNL     1     254.972 260.084 247.267  1.00  0.00     0.038 C 
BRANCH   7   8
ATOM      8  C   UNL     1     253.872 260.893 247.901  1.00  0.00    -0.034 C 
ATOM      9  C   UNL     1     252.785 261.261 247.217  1.00  0.00     0.004 C 
ENDBRANCH   7   8
ENDBRANCH   1   7
TORSDOF 4
ENDMDL
MODEL 3
REMARK VINA RESULT:    -4.072      1.638      4.378
REMARK INTER + INTRA:          -5.219
REMARK INTER:                  -5.030
REMARK INTRA:                  -0.189
REMARK UNBOUND:                -0.195
REMARK SMILES C=CC[C@H](C)C(=O)CC
REMARK SMILES IDX 4 1 5 2 6 3 7 4 8 5 9 6 3 7 2 8 1 9
REMARK H PARENT
REMARK Flexibility Score: inf
ROOT
ATOM      1  C   UNL     1     256.399 261.375 245.990  1.00  0.00     0.057 C 
ATOM      2  C   UNL     1     257.102 261.006 247.304  1.00  0.00     0.016 C 
ENDROOT
BRANCH   1   3
ATOM      3  C   UNL     1     255.167 260.516 245.807  1.00  0.00     0.135 C 
ATOM      4  O   UNL     1     254.844 260.144 244.687  1.00  0.00    -0.299 OA
BRANCH   3   5
ATOM      5  C   UNL     1     254.305 260.147 246.983  1.00  0.00     0.072 C 
ATOM      6  C   UNL     1     253.144 261.123 247.128  1.00  0.00     0.012 C 
ENDBRANCH   3   5
ENDBRANCH   1   3
BRANCH   1   7
ATOM      7  C   UNL     1     257.337 261.222 244.776  1.00  0.00     0.038 C 
BRANCH   7   8
ATOM      8  C   UNL     1     258.243 262.412 244.600  1.00  0.00    -0.034 C 
ATOM      9  C   UNL     1     257.850 263.649 244.917  1.00  0.00     0.004 C 
ENDBRANCH   7   8
ENDBRANCH   1   7
TORSDOF 4
ENDMDL
MODEL 4
REMARK VINA RESULT:    -4.062      1.608      2.432
REMARK INTER + INTRA:          -5.206
REMARK INTER:                  -4.939
REMARK INTRA:                  -0.267
REMARK UNBOUND:                -0.195
REMARK SMILES C=CC[C@H](C)C(=O)CC
REMARK SMILES IDX 4 1 5 2 6 3 7 4 8 5 9 6 3 7 2 8 1 9
REMARK H PARENT
REMARK Flexibility Score: inf
ROOT
ATOM      1  C   UNL     1     254.319 260.323 247.202  1.00  0.00     0.057 C 
ATOM      2  C   UNL     1     255.093 260.741 248.461  1.00  0.00     0.016 C 
ENDROOT
BRANCH   1   3
ATOM      3  C   UNL     1     255.175 260.543 245.974  1.00  0.00     0.135 C 
ATOM      4  O   UNL     1     254.819 260.095 244.894  1.00  0.00    -0.299 OA
BRANCH   3   5
ATOM      5  C   UNL     1     256.486 261.273 246.073  1.00  0.00     0.072 C 
ATOM      6  C   UNL     1     257.268 261.156 244.769  1.00  0.00     0.012 C 
ENDBRANCH   3   5
ENDBRANCH   1   3
BRANCH   1   7
ATOM      7  C   UNL     1     252.990 261.095 247.066  1.00  0.00     0.038 C 
BRANCH   7   8
ATOM      8  C   UNL     1     251.796 260.178 247.049  1.00  0.00    -0.034 C 
ATOM      9  C   UNL     1     251.923 258.860 246.869  1.00  0.00     0.004 C 
ENDBRANCH   7   8
ENDBRANCH   1   7
TORSDOF 4
ENDMDL
MODEL 5
REMARK VINA RESULT:    -4.054      1.876      3.950
REMARK INTER + INTRA:          -5.197
REMARK INTER:                  -4.868
REMARK INTRA:                  -0.329
REMARK UNBOUND:                -0.195
REMARK SMILES C=CC[C@H](C)C(=O)CC
REMARK SMILES IDX 4 1 5 2 6 3 7 4 8 5 9 6 3 7 2 8 1 9
REMARK H PARENT
REMARK Flexibility Score: inf
ROOT
ATOM      1  C   UNL     1     254.831 259.938 246.794  1.00  0.00     0.057 C 
ATOM      2  C   UNL     1     253.909 258.789 246.362  1.00  0.00     0.016 C 
ENDROOT
BRANCH   1   3
ATOM      3  C   UNL     1     254.152 260.770 247.860  1.00  0.00     0.135 C 
ATOM      4  O   UNL     1     253.128 261.383 247.595  1.00  0.00    -0.299 OA
BRANCH   3   5
ATOM      5  C   UNL     1     254.747 260.889 249.236  1.00  0.00     0.072 C 
ATOM      6  C   UNL     1     256.202 260.435 249.235  1.00  0.00     0.012 C 
ENDBRANCH   3   5
ENDBRANCH   1   3
BRANCH   1   7
ATOM      7  C   UNL     1     255.230 260.830 245.600  1.00  0.00     0.038 C 
BRANCH   7   8
ATOM      8  C   UNL     1     256.663 261.286 245.682  1.00  0.00    -0.034 C 
ATOM      9  C   UNL     1     257.476 261.244 244.622  1.00  0.00     0.004 C 
ENDBRANCH   7   8
ENDBRANCH   1   7
TORSDOF 4
ENDMDL
MODEL 6
REMARK VINA RESULT:    -4.033      5.815      7.666
REMARK INTER + INTRA:          -5.170
REMARK INTER:                  -4.975
REMARK INTRA:                  -0.195
REMARK UNBOUND:                -0.195
REMARK SMILES C=CC[C@H](C)C(=O)CC
REMARK SMILES IDX 4 1 5 2 6 3 7 4 8 5 9 6 3 7 2 8 1 9
REMARK H PARENT
REMARK Flexibility Score: inf
ROOT
ATOM      1  C   UNL     1     249.679 259.589 247.240  1.00  0.00     0.057 C 
ATOM      2  C   UNL     1     251.173 259.354 246.975  1.00  0.00     0.016 C 
ENDROOT
BRANCH   1   3
ATOM      3  C   UNL     1     248.892 258.345 246.889  1.00  0.00     0.135 C 
ATOM      4  O   UNL     1     249.053 257.320 247.536  1.00  0.00    -0.299 OA
BRANCH   3   5
ATOM      5  C   UNL     1     247.942 258.340 245.724  1.00  0.00     0.072 C 
ATOM      6  C   UNL     1     246.909 257.229 245.875  1.00  0.00     0.012 C 
ENDBRANCH   3   5
ENDBRANCH   1   3
BRANCH   1   7
ATOM      7  C   UNL     1     249.140 260.798 246.446  1.00  0.00     0.038 C 
BRANCH   7   8
ATOM      8  C   UNL     1     249.869 262.072 246.780  1.00  0.00    -0.034 C 
ATOM      9  C   UNL     1     249.676 263.196 246.083  1.00  0.00     0.004 C 
ENDBRANCH   7   8
ENDBRANCH   1   7
TORSDOF 4
ENDMDL
MODEL 7
REMARK VINA RESULT:    -3.986      5.955      7.812
REMARK INTER + INTRA:          -5.113
REMARK INTER:                  -4.586
REMARK INTRA:                  -0.527
REMARK UNBOUND:                -0.195
REMARK SMILES C=CC[C@H](C)C(=O)CC
REMARK SMILES IDX 4 1 5 2 6 3 7 4 8 5 9 6 3 7 2 8 1 9
REMARK H PARENT
REMARK Flexibility Score: inf
ROOT
ATOM      1  C   UNL     1     254.710 261.936 253.806  1.00  0.00     0.057 C 
ATOM      2  C   UNL     1     256.187 262.122 254.181  1.00  0.00     0.016 C 
ENDROOT
BRANCH   1   3
ATOM      3  C   UNL     1     254.301 260.496 254.024  1.00  0.00     0.135 C 
ATOM      4  O   UNL     1     253.119 260.186 253.988  1.00  0.00    -0.299 OA
BRANCH   3   5
ATOM      5  C   UNL     1     255.330 259.443 254.330  1.00  0.00     0.072 C 
ATOM      6  C   UNL     1     255.523 258.515 253.136  1.00  0.00     0.012 C 
ENDBRANCH   3   5
ENDBRANCH   1   3
BRANCH   1   7
ATOM      7  C   UNL     1     254.434 262.350 252.345  1.00  0.00     0.038 C 
BRANCH   7   8
ATOM      8  C   UNL     1     255.485 261.838 251.398  1.00  0.00    -0.034 C 
ATOM      9  C   UNL     1     255.179 261.035 250.374  1.00  0.00     0.004 C 
ENDBRANCH   7   8
ENDBRANCH   1   7
TORSDOF 4
ENDMDL
MODEL 8
REMARK VINA RESULT:    -3.945      2.918      4.246
REMARK INTER + INTRA:          -5.062
REMARK INTER:                  -4.659
REMARK INTRA:                  -0.403
REMARK UNBOUND:                -0.195
REMARK SMILES C=CC[C@H](C)C(=O)CC
REMARK SMILES IDX 4 1 5 2 6 3 7 4 8 5 9 6 3 7 2 8 1 9
REMARK H PARENT
REMARK Flexibility Score: inf
ROOT
ATOM      1  C   UNL     1     258.205 261.053 247.388  1.00  0.00     0.057 C 
ATOM      2  C   UNL     1     257.120 261.055 248.474  1.00  0.00     0.016 C 
ENDROOT
BRANCH   1   3
ATOM      3  C   UNL     1     259.538 260.668 247.993  1.00  0.00     0.135 C 
ATOM      4  O   UNL     1     260.122 261.450 248.728  1.00  0.00    -0.299 OA
BRANCH   3   5
ATOM      5  C   UNL     1     260.176 259.346 247.665  1.00  0.00     0.072 C 
ATOM      6  C   UNL     1     260.762 259.365 246.258  1.00  0.00     0.012 C 
ENDBRANCH   3   5
ENDBRANCH   1   3
BRANCH   1   7
ATOM      7  C   UNL     1     258.317 262.424 246.689  1.00  0.00     0.038 C 
BRANCH   7   8
ATOM      8  C   UNL     1     257.822 262.383 245.268  1.00  0.00    -0.034 C 
ATOM      9  C   UNL     1     257.704 261.233 244.597  1.00  0.00     0.004 C 
ENDBRANCH   7   8
ENDBRANCH   1   7
TORSDOF 4
ENDMDL
MODEL 9
REMARK VINA RESULT:    -3.941      2.959      4.178
REMARK INTER + INTRA:          -5.057
REMARK INTER:                  -4.596
REMARK INTRA:                  -0.461
REMARK UNBOUND:                -0.195
REMARK SMILES C=CC[C@H](C)C(=O)CC
REMARK SMILES IDX 4 1 5 2 6 3 7 4 8 5 9 6 3 7 2 8 1 9
REMARK H PARENT
REMARK Flexibility Score: inf
ROOT
ATOM      1  C   UNL     1     254.235 259.613 246.492  1.00  0.00     0.057 C 
ATOM      2  C   UNL     1     254.533 259.929 245.020  1.00  0.00     0.016 C 
ENDROOT
BRANCH   1   3
ATOM      3  C   UNL     1     253.096 258.622 246.586  1.00  0.00     0.135 C 
ATOM      4  O   UNL     1     251.940 259.020 246.590  1.00  0.00    -0.299 OA
BRANCH   3   5
ATOM      5  C   UNL     1     253.369 257.149 246.720  1.00  0.00     0.072 C 
ATOM      6  C   UNL     1     254.493 256.897 247.719  1.00  0.00     0.012 C 
ENDBRANCH   3   5
ENDBRANCH   1   3
BRANCH   1   7
ATOM      7  C   UNL     1     253.896 260.888 247.293  1.00  0.00     0.038 C 
BRANCH   7   8
ATOM      8  C   UNL     1     254.450 260.849 248.692  1.00  0.00    -0.034 C 
ATOM      9  C   UNL     1     255.696 260.435 248.944  1.00  0.00     0.004 C 
ENDBRANCH   7   8
ENDBRANCH   1   7
TORSDOF 4
ENDMDL
