MODEL 1
REMARK VINA RESULT:     8.510      0.000      0.000
REMARK INTER + INTRA:          14.310
REMARK INTER:                  12.241
REMARK INTRA:                   2.069
REMARK UNBOUND:                 2.069
REMARK SMILES O=c1c(O[C@H]2O[C@@H](CO)[C@H](O)[C@H](O)[C@H]2O)c(-c2ccc(O)cc2)oc2cc(O)cc(O)c12
REMARK SMILES IDX 4 1 3 2 16 3 24 4 2 5 25 6 1 7 32 8 26 9 30 10 27 11 29 12
REMARK SMILES IDX 17 13 18 14 19 15 20 16 23 17 22 18 21 19 31 21 28 23 5 25
REMARK SMILES IDX 14 26 6 27 12 28 7 29 10 30 15 31 13 33 8 35 9 36 11 38
REMARK H PARENT 21 20 31 22 28 24 15 32 13 34 9 37 11 39
REMARK Flexibility Score: inf
ROOT
ATOM      1  O   UNL     1      12.026 -12.950  30.691  1.00  0.00    -0.454 OA
ENDROOT
BRANCH   1   2
ATOM      2  C   UNL     1      12.407 -13.761  29.604  1.00  0.00     0.214 A 
ATOM      3  C   UNL     1      11.781 -13.559  28.340  1.00  0.00     0.180 A 
ATOM      4  O   UNL     1      12.301 -14.140  27.260  1.00  0.00    -0.452 OA
ATOM      5  C   UNL     1      13.383 -14.783  29.696  1.00  0.00     0.239 A 
ATOM      6  C   UNL     1      13.315 -14.996  27.296  1.00  0.00     0.146 A 
ATOM      7  O   UNL     1      13.827 -15.155  30.811  1.00  0.00    -0.285 OA
ATOM      8  C   UNL     1      13.839 -15.427  28.529  1.00  0.00     0.111 A 
ATOM      9  C   UNL     1      13.797 -15.552  26.109  1.00  0.00     0.094 A 
ATOM     10  C   UNL     1      14.725 -16.533  28.555  1.00  0.00     0.134 A 
ATOM     11  C   UNL     1      14.750 -16.570  26.130  1.00  0.00     0.123 A 
ATOM     12  C   UNL     1      15.181 -17.089  27.355  1.00  0.00     0.093 A 
BRANCH   3  13
ATOM     13  C   UNL     1      10.453 -12.869  28.163  1.00  0.00     0.021 A 
ATOM     14  C   UNL     1      10.210 -11.810  27.248  1.00  0.00     0.016 A 
ATOM     15  C   UNL     1       9.163 -10.884  27.485  1.00  0.00     0.047 A 
ATOM     16  C   UNL     1       8.349 -11.018  28.617  1.00  0.00     0.115 A 
ATOM     17  C   UNL     1       9.468 -13.102  29.150  1.00  0.00     0.016 A 
ATOM     18  C   UNL     1       8.476 -12.151  29.424  1.00  0.00     0.047 A 
BRANCH  16  19
ATOM     19  O   UNL     1       7.390 -10.048  28.913  1.00  0.00    -0.508 OA
ATOM     20  H   UNL     1       7.209  -9.278  28.278  1.00  0.00     0.293 HD
ENDBRANCH  16  19
ENDBRANCH   3  13
BRANCH  10  21
ATOM     21  O   UNL     1      15.114 -17.105  29.774  1.00  0.00    -0.507 OA
ATOM     22  H   UNL     1      14.520 -17.777  30.266  1.00  0.00     0.293 HD
ENDBRANCH  10  21
BRANCH  11  23
ATOM     23  O   UNL     1      15.185 -17.125  24.933  1.00  0.00    -0.508 OA
ATOM     24  H   UNL     1      15.639 -18.039  24.917  1.00  0.00     0.293 HD
ENDBRANCH  11  23
ENDBRANCH   1   2
BRANCH   1  25
ATOM     25  C   UNL     1      11.722 -11.549  30.720  1.00  0.00     0.339 C 
ATOM     26  C   UNL     1      12.316 -10.897  29.456  1.00  0.00     0.214 C 
ATOM     27  O   UNL     1      12.280 -10.996  31.896  1.00  0.00    -0.332 OA
ATOM     28  C   UNL     1      12.004  -9.384  29.409  1.00  0.00     0.180 C 
ATOM     29  C   UNL     1      12.272  -9.563  31.953  1.00  0.00     0.179 C 
ATOM     30  C   UNL     1      11.540  -8.845  30.777  1.00  0.00     0.177 C 
BRANCH  26  31
ATOM     31  O   UNL     1      13.703 -11.096  29.431  1.00  0.00    -0.384 OA
ATOM     32  H   UNL     1      14.131 -10.262  29.758  1.00  0.00     0.211 HD
ENDBRANCH  26  31
BRANCH  28  33
ATOM     33  O   UNL     1      11.016  -9.146  28.425  1.00  0.00    -0.387 OA
ATOM     34  H   UNL     1      10.627  -8.245  28.596  1.00  0.00     0.211 HD
ENDBRANCH  28  33
BRANCH  29  35
ATOM     35  C   UNL     1      13.731  -9.091  32.125  1.00  0.00     0.191 C 
BRANCH  35  36
ATOM     36  O   UNL     1      14.632 -10.177  32.124  1.00  0.00    -0.394 OA
ATOM     37  H   UNL     1      14.447 -10.696  31.287  1.00  0.00     0.210 HD
ENDBRANCH  35  36
ENDBRANCH  29  35
BRANCH  30  38
ATOM     38  O   UNL     1      10.145  -9.031  30.919  1.00  0.00    -0.387 OA
ATOM     39  H   UNL     1       9.698  -8.469  30.229  1.00  0.00     0.211 HD
ENDBRANCH  30  38
ENDBRANCH   1  25
TORSDOF 11
ENDMDL
MODEL 2
REMARK VINA RESULT:    10.124      8.776     11.742
REMARK INTER + INTRA:          16.633
REMARK INTER:                  17.884
REMARK INTRA:                  -1.251
REMARK UNBOUND:                 2.069
REMARK SMILES O=c1c(O[C@H]2O[C@@H](CO)[C@H](O)[C@H](O)[C@H]2O)c(-c2ccc(O)cc2)oc2cc(O)cc(O)c12
REMARK SMILES IDX 4 1 3 2 16 3 24 4 2 5 25 6 1 7 32 8 26 9 30 10 27 11 29 12
REMARK SMILES IDX 17 13 18 14 19 15 20 16 23 17 22 18 21 19 31 21 28 23 5 25
REMARK SMILES IDX 14 26 6 27 12 28 7 29 10 30 15 31 13 33 8 35 9 36 11 38
REMARK H PARENT 21 20 31 22 28 24 15 32 13 34 9 37 11 39
REMARK Flexibility Score: inf
ROOT
ATOM      1  O   UNL     1      15.340  -2.306  28.165  1.00  0.00    -0.454 OA
ENDROOT
BRANCH   1   2
ATOM      2  C   UNL     1      15.214  -3.473  27.385  1.00  0.00     0.214 A 
ATOM      3  C   UNL     1      16.374  -4.014  26.761  1.00  0.00     0.180 A 
ATOM      4  O   UNL     1      16.315  -5.237  26.236  1.00  0.00    -0.452 OA
ATOM      5  C   UNL     1      13.984  -4.143  27.176  1.00  0.00     0.239 A 
ATOM      6  C   UNL     1      15.201  -5.955  26.156  1.00  0.00     0.146 A 
ATOM      7  O   UNL     1      12.895  -3.618  27.519  1.00  0.00    -0.285 OA
ATOM      8  C   UNL     1      13.967  -5.398  26.538  1.00  0.00     0.111 A 
ATOM      9  C   UNL     1      15.238  -7.232  25.591  1.00  0.00     0.094 A 
ATOM     10  C   UNL     1      12.769  -6.071  26.192  1.00  0.00     0.134 A 
ATOM     11  C   UNL     1      14.062  -7.941  25.347  1.00  0.00     0.123 A 
ATOM     12  C   UNL     1      12.826  -7.342  25.609  1.00  0.00     0.093 A 
BRANCH   3  13
ATOM     13  C   UNL     1      17.629  -3.224  26.496  1.00  0.00     0.021 A 
ATOM     14  C   UNL     1      18.762  -3.196  27.352  1.00  0.00     0.016 A 
ATOM     15  C   UNL     1      19.643  -2.087  27.339  1.00  0.00     0.047 A 
ATOM     16  C   UNL     1      19.412  -1.015  26.466  1.00  0.00     0.115 A 
ATOM     17  C   UNL     1      17.572  -2.246  25.477  1.00  0.00     0.016 A 
ATOM     18  C   UNL     1      18.402  -1.117  25.508  1.00  0.00     0.047 A 
BRANCH  16  19
ATOM     19  O   UNL     1      20.211   0.128  26.526  1.00  0.00    -0.508 OA
ATOM     20  H   UNL     1      20.813   0.306  27.324  1.00  0.00     0.293 HD
ENDBRANCH  16  19
ENDBRANCH   3  13
BRANCH  10  21
ATOM     21  O   UNL     1      11.524  -5.456  26.388  1.00  0.00    -0.507 OA
ATOM     22  H   UNL     1      10.862  -5.797  27.090  1.00  0.00     0.293 HD
ENDBRANCH  10  21
BRANCH  11  23
ATOM     23  O   UNL     1      14.130  -9.196  24.755  1.00  0.00    -0.508 OA
ATOM     24  H   UNL     1      13.889  -9.321  23.771  1.00  0.00     0.293 HD
ENDBRANCH  11  23
ENDBRANCH   1   2
BRANCH   1  25
ATOM     25  C   UNL     1      15.338  -0.932  27.756  1.00  0.00     0.339 C 
ATOM     26  C   UNL     1      14.169  -0.217  28.463  1.00  0.00     0.214 C 
ATOM     27  O   UNL     1      15.195  -0.886  26.350  1.00  0.00    -0.332 OA
ATOM     28  C   UNL     1      14.121   1.282  28.084  1.00  0.00     0.180 C 
ATOM     29  C   UNL     1      14.933   0.417  25.811  1.00  0.00     0.179 C 
ATOM     30  C   UNL     1      14.972   1.592  26.836  1.00  0.00     0.177 C 
BRANCH  26  31
ATOM     31  O   UNL     1      12.959  -0.833  28.113  1.00  0.00    -0.384 OA
ATOM     32  H   UNL     1      13.059  -1.805  28.286  1.00  0.00     0.211 HD
ENDBRANCH  26  31
BRANCH  28  33
ATOM     33  O   UNL     1      14.563   2.051  29.186  1.00  0.00    -0.387 OA
ATOM     34  H   UNL     1      14.817   1.421  29.913  1.00  0.00     0.211 HD
ENDBRANCH  28  33
BRANCH  29  35
ATOM     35  C   UNL     1      13.602   0.345  25.034  1.00  0.00     0.191 C 
BRANCH  35  36
ATOM     36  O   UNL     1      12.866  -0.811  25.369  1.00  0.00    -0.394 OA
ATOM     37  H   UNL     1      11.911  -0.519  25.464  1.00  0.00     0.210 HD
ENDBRANCH  35  36
ENDBRANCH  29  35
BRANCH  30  38
ATOM     38  O   UNL     1      16.314   1.829  27.216  1.00  0.00    -0.387 OA
ATOM     39  H   UNL     1      16.352   1.789  28.211  1.00  0.00     0.211 HD
ENDBRANCH  30  38
ENDBRANCH   1  25
TORSDOF 11
ENDMDL
MODEL 3
REMARK VINA RESULT:    10.209      3.671      6.412
REMARK INTER + INTRA:          16.754
REMARK INTER:                  16.126
REMARK INTRA:                   0.629
REMARK UNBOUND:                 2.069
REMARK SMILES O=c1c(O[C@H]2O[C@@H](CO)[C@H](O)[C@H](O)[C@H]2O)c(-c2ccc(O)cc2)oc2cc(O)cc(O)c12
REMARK SMILES IDX 4 1 3 2 16 3 24 4 2 5 25 6 1 7 32 8 26 9 30 10 27 11 29 12
REMARK SMILES IDX 17 13 18 14 19 15 20 16 23 17 22 18 21 19 31 21 28 23 5 25
REMARK SMILES IDX 14 26 6 27 12 28 7 29 10 30 15 31 13 33 8 35 9 36 11 38
REMARK H PARENT 21 20 31 22 28 24 15 32 13 34 9 37 11 39
REMARK Flexibility Score: inf
ROOT
ATOM      1  O   UNL     1      11.986  -9.086  28.524  1.00  0.00    -0.454 OA
ENDROOT
BRANCH   1   2
ATOM      2  C   UNL     1      12.689  -8.988  27.306  1.00  0.00     0.214 A 
ATOM      3  C   UNL     1      13.153 -10.179  26.679  1.00  0.00     0.180 A 
ATOM      4  O   UNL     1      13.593 -10.120  25.423  1.00  0.00    -0.452 OA
ATOM      5  C   UNL     1      12.971  -7.757  26.664  1.00  0.00     0.239 A 
ATOM      6  C   UNL     1      13.731  -8.991  24.740  1.00  0.00     0.146 A 
ATOM      7  O   UNL     1      12.776  -6.662  27.251  1.00  0.00    -0.285 OA
ATOM      8  C   UNL     1      13.515  -7.750  25.366  1.00  0.00     0.111 A 
ATOM      9  C   UNL     1      14.196  -9.029  23.423  1.00  0.00     0.094 A 
ATOM     10  C   UNL     1      13.929  -6.563  24.710  1.00  0.00     0.134 A 
ATOM     11  C   UNL     1      14.504  -7.853  22.738  1.00  0.00     0.123 A 
ATOM     12  C   UNL     1      14.410  -6.623  23.398  1.00  0.00     0.093 A 
BRANCH   3  13
ATOM     13  C   UNL     1      13.349 -11.486  27.403  1.00  0.00     0.021 A 
ATOM     14  C   UNL     1      14.559 -11.890  28.028  1.00  0.00     0.016 A 
ATOM     15  C   UNL     1      14.848 -13.265  28.210  1.00  0.00     0.047 A 
ATOM     16  C   UNL     1      13.931 -14.238  27.791  1.00  0.00     0.115 A 
ATOM     17  C   UNL     1      12.361 -12.481  27.217  1.00  0.00     0.016 A 
ATOM     18  C   UNL     1      12.672 -13.842  27.334  1.00  0.00     0.047 A 
BRANCH  16  19
ATOM     19  O   UNL     1      14.257 -15.593  27.867  1.00  0.00    -0.508 OA
ATOM     20  H   UNL     1      13.682 -16.297  27.414  1.00  0.00     0.293 HD
ENDBRANCH  16  19
ENDBRANCH   3  13
BRANCH  10  21
ATOM     21  O   UNL     1      13.902  -5.332  25.381  1.00  0.00    -0.507 OA
ATOM     22  H   UNL     1      14.739  -4.750  25.465  1.00  0.00     0.293 HD
ENDBRANCH  10  21
BRANCH  11  23
ATOM     23  O   UNL     1      14.994  -7.926  21.440  1.00  0.00    -0.508 OA
ATOM     24  H   UNL     1      15.768  -7.330  21.142  1.00  0.00     0.293 HD
ENDBRANCH  11  23
ENDBRANCH   1   2
BRANCH   1  25
ATOM     25  C   UNL     1      11.195 -10.167  29.034  1.00  0.00     0.339 C 
ATOM     26  C   UNL     1      10.102  -9.579  29.948  1.00  0.00     0.214 C 
ATOM     27  O   UNL     1      12.044 -11.045  29.746  1.00  0.00    -0.332 OA
ATOM     28  C   UNL     1       9.191 -10.692  30.517  1.00  0.00     0.180 C 
ATOM     29  C   UNL     1      11.369 -12.046  30.519  1.00  0.00     0.179 C 
ATOM     30  C   UNL     1       9.817 -12.091  30.357  1.00  0.00     0.177 C 
BRANCH  26  31
ATOM     31  O   UNL     1      10.699  -8.871  31.001  1.00  0.00    -0.384 OA
ATOM     32  H   UNL     1      10.018  -8.766  31.715  1.00  0.00     0.211 HD
ENDBRANCH  26  31
BRANCH  28  33
ATOM     33  O   UNL     1       7.935 -10.637  29.869  1.00  0.00    -0.387 OA
ATOM     34  H   UNL     1       7.792 -11.508  29.409  1.00  0.00     0.211 HD
ENDBRANCH  28  33
BRANCH  29  35
ATOM     35  C   UNL     1      11.811 -11.882  31.988  1.00  0.00     0.191 C 
BRANCH  35  36
ATOM     36  O   UNL     1      12.805 -10.890  32.125  1.00  0.00    -0.394 OA
ATOM     37  H   UNL     1      12.430 -10.200  32.748  1.00  0.00     0.210 HD
ENDBRANCH  35  36
ENDBRANCH  29  35
BRANCH  30  38
ATOM     38  O   UNL     1       9.502 -12.616  29.082  1.00  0.00    -0.387 OA
ATOM     39  H   UNL     1      10.315 -13.081  28.744  1.00  0.00     0.211 HD
ENDBRANCH  30  38
ENDBRANCH   1  25
TORSDOF 11
ENDMDL
MODEL 4
REMARK VINA RESULT:    10.571      3.318      6.500
REMARK INTER + INTRA:          17.275
REMARK INTER:                  17.589
REMARK INTRA:                  -0.314
REMARK UNBOUND:                 2.069
REMARK SMILES O=c1c(O[C@H]2O[C@@H](CO)[C@H](O)[C@H](O)[C@H]2O)c(-c2ccc(O)cc2)oc2cc(O)cc(O)c12
REMARK SMILES IDX 4 1 3 2 16 3 24 4 2 5 25 6 1 7 32 8 26 9 30 10 27 11 29 12
REMARK SMILES IDX 17 13 18 14 19 15 20 16 23 17 22 18 21 19 31 21 28 23 5 25
REMARK SMILES IDX 14 26 6 27 12 28 7 29 10 30 15 31 13 33 8 35 9 36 11 38
REMARK H PARENT 21 20 31 22 28 24 15 32 13 34 9 37 11 39
REMARK Flexibility Score: inf
ROOT
ATOM      1  O   UNL     1      12.282 -10.260  28.920  1.00  0.00    -0.454 OA
ENDROOT
BRANCH   1   2
ATOM      2  C   UNL     1      12.893  -9.886  27.706  1.00  0.00     0.214 A 
ATOM      3  C   UNL     1      13.589 -10.873  26.951  1.00  0.00     0.180 A 
ATOM      4  O   UNL     1      13.951 -10.595  25.700  1.00  0.00    -0.452 OA
ATOM      5  C   UNL     1      12.862  -8.568  27.190  1.00  0.00     0.239 A 
ATOM      6  C   UNL     1      13.802  -9.403  25.134  1.00  0.00     0.146 A 
ATOM      7  O   UNL     1      12.449  -7.609  27.889  1.00  0.00    -0.285 OA
ATOM      8  C   UNL     1      13.336  -8.311  25.889  1.00  0.00     0.111 A 
ATOM      9  C   UNL     1      14.207  -9.207  23.813  1.00  0.00     0.094 A 
ATOM     10  C   UNL     1      13.442  -7.004  25.351  1.00  0.00     0.134 A 
ATOM     11  C   UNL     1      14.212  -7.932  23.246  1.00  0.00     0.123 A 
ATOM     12  C   UNL     1      13.870  -6.826  24.031  1.00  0.00     0.093 A 
BRANCH   3  13
ATOM     13  C   UNL     1      14.106 -12.164  27.533  1.00  0.00     0.021 A 
ATOM     14  C   UNL     1      14.083 -13.417  26.865  1.00  0.00     0.016 A 
ATOM     15  C   UNL     1      14.076 -14.624  27.607  1.00  0.00     0.047 A 
ATOM     16  C   UNL     1      14.111 -14.590  29.007  1.00  0.00     0.115 A 
ATOM     17  C   UNL     1      14.380 -12.182  28.920  1.00  0.00     0.016 A 
ATOM     18  C   UNL     1      14.306 -13.371  29.658  1.00  0.00     0.047 A 
BRANCH  16  19
ATOM     19  O   UNL     1      13.994 -15.770  29.744  1.00  0.00    -0.508 OA
ATOM     20  H   UNL     1      13.097 -16.074  30.108  1.00  0.00     0.293 HD
ENDBRANCH  16  19
ENDBRANCH   3  13
BRANCH  10  21
ATOM     21  O   UNL     1      13.166  -5.882  26.145  1.00  0.00    -0.507 OA
ATOM     22  H   UNL     1      12.584  -5.114  25.803  1.00  0.00     0.293 HD
ENDBRANCH  10  21
BRANCH  11  23
ATOM     23  O   UNL     1      14.652  -7.765  21.940  1.00  0.00    -0.508 OA
ATOM     24  H   UNL     1      13.985  -7.659  21.174  1.00  0.00     0.293 HD
ENDBRANCH  11  23
ENDBRANCH   1   2
BRANCH   1  25
ATOM     25  C   UNL     1      10.911 -10.579  29.189  1.00  0.00     0.339 C 
ATOM     26  C   UNL     1      10.871 -11.840  30.075  1.00  0.00     0.214 C 
ATOM     27  O   UNL     1      10.253 -10.795  27.957  1.00  0.00    -0.332 OA
ATOM     28  C   UNL     1       9.416 -12.230  30.427  1.00  0.00     0.180 C 
ATOM     29  C   UNL     1       8.938 -11.358  28.063  1.00  0.00     0.179 C 
ATOM     30  C   UNL     1       8.391 -11.526  29.515  1.00  0.00     0.177 C 
BRANCH  26  31
ATOM     31  O   UNL     1      11.499 -12.903  29.410  1.00  0.00    -0.384 OA
ATOM     32  H   UNL     1      11.032 -13.031  28.544  1.00  0.00     0.211 HD
ENDBRANCH  26  31
BRANCH  28  33
ATOM     33  O   UNL     1       9.168 -11.914  31.783  1.00  0.00    -0.387 OA
ATOM     34  H   UNL     1       9.309 -10.935  31.897  1.00  0.00     0.211 HD
ENDBRANCH  28  33
BRANCH  29  35
ATOM     35  C   UNL     1       8.926 -12.677  27.263  1.00  0.00     0.191 C 
BRANCH  35  36
ATOM     36  O   UNL     1      10.231 -13.094  26.928  1.00  0.00    -0.394 OA
ATOM     37  H   UNL     1      10.196 -13.386  25.969  1.00  0.00     0.210 HD
ENDBRANCH  35  36
ENDBRANCH  29  35
BRANCH  30  38
ATOM     38  O   UNL     1       8.077 -10.251  30.040  1.00  0.00    -0.387 OA
ATOM     39  H   UNL     1       7.178 -10.001  29.691  1.00  0.00     0.211 HD
ENDBRANCH  30  38
ENDBRANCH   1  25
TORSDOF 11
ENDMDL
MODEL 5
REMARK VINA RESULT:    11.173      9.118     11.927
REMARK INTER + INTRA:          18.141
REMARK INTER:                  16.882
REMARK INTRA:                   1.260
REMARK UNBOUND:                 2.069
REMARK SMILES O=c1c(O[C@H]2O[C@@H](CO)[C@H](O)[C@H](O)[C@H]2O)c(-c2ccc(O)cc2)oc2cc(O)cc(O)c12
REMARK SMILES IDX 4 1 3 2 16 3 24 4 2 5 25 6 1 7 32 8 26 9 30 10 27 11 29 12
REMARK SMILES IDX 17 13 18 14 19 15 20 16 23 17 22 18 21 19 31 21 28 23 5 25
REMARK SMILES IDX 14 26 6 27 12 28 7 29 10 30 15 31 13 33 8 35 9 36 11 38
REMARK H PARENT 21 20 31 22 28 24 15 32 13 34 9 37 11 39
REMARK Flexibility Score: inf
ROOT
ATOM      1  O   UNL     1      14.699  -1.852  28.148  1.00  0.00    -0.454 OA
ENDROOT
BRANCH   1   2
ATOM      2  C   UNL     1      14.794  -3.066  27.438  1.00  0.00     0.214 A 
ATOM      3  C   UNL     1      16.074  -3.507  26.996  1.00  0.00     0.180 A 
ATOM      4  O   UNL     1      16.210  -4.755  26.550  1.00  0.00    -0.452 OA
ATOM      5  C   UNL     1      13.677  -3.879  27.127  1.00  0.00     0.239 A 
ATOM      6  C   UNL     1      15.196  -5.596  26.384  1.00  0.00     0.146 A 
ATOM      7  O   UNL     1      12.505  -3.461  27.301  1.00  0.00    -0.285 OA
ATOM      8  C   UNL     1      13.872  -5.160  26.576  1.00  0.00     0.111 A 
ATOM      9  C   UNL     1      15.436  -6.889  25.914  1.00  0.00     0.094 A 
ATOM     10  C   UNL     1      12.804  -5.980  26.135  1.00  0.00     0.134 A 
ATOM     11  C   UNL     1      14.381  -7.737  25.578  1.00  0.00     0.123 A 
ATOM     12  C   UNL     1      13.066  -7.265  25.648  1.00  0.00     0.093 A 
BRANCH   3  13
ATOM     13  C   UNL     1      17.264  -2.598  26.831  1.00  0.00     0.021 A 
ATOM     14  C   UNL     1      17.469  -1.727  25.728  1.00  0.00     0.016 A 
ATOM     15  C   UNL     1      18.778  -1.322  25.368  1.00  0.00     0.047 A 
ATOM     16  C   UNL     1      19.880  -1.764  26.111  1.00  0.00     0.115 A 
ATOM     17  C   UNL     1      18.369  -2.821  27.685  1.00  0.00     0.016 A 
ATOM     18  C   UNL     1      19.670  -2.477  27.292  1.00  0.00     0.047 A 
BRANCH  16  19
ATOM     19  O   UNL     1      21.178  -1.458  25.696  1.00  0.00    -0.508 OA
ATOM     20  H   UNL     1      21.500  -1.694  24.763  1.00  0.00     0.293 HD
ENDBRANCH  16  19
ENDBRANCH   3  13
BRANCH  10  21
ATOM     21  O   UNL     1      11.487  -5.497  26.138  1.00  0.00    -0.507 OA
ATOM     22  H   UNL     1      10.716  -6.047  26.525  1.00  0.00     0.293 HD
ENDBRANCH  10  21
BRANCH  11  23
ATOM     23  O   UNL     1      14.653  -9.006  25.083  1.00  0.00    -0.508 OA
ATOM     24  H   UNL     1      15.570  -9.433  25.222  1.00  0.00     0.293 HD
ENDBRANCH  11  23
ENDBRANCH   1   2
BRANCH   1  25
ATOM     25  C   UNL     1      14.375  -0.540  27.670  1.00  0.00     0.339 C 
ATOM     26  C   UNL     1      15.574  -0.010  26.858  1.00  0.00     0.214 C 
ATOM     27  O   UNL     1      14.102   0.286  28.784  1.00  0.00    -0.332 OA
ATOM     28  C   UNL     1      15.283   1.398  26.289  1.00  0.00     0.180 C 
ATOM     29  C   UNL     1      13.998   1.685  28.489  1.00  0.00     0.179 C 
ATOM     30  C   UNL     1      14.075   2.064  26.977  1.00  0.00     0.177 C 
BRANCH  26  31
ATOM     31  O   UNL     1      16.712   0.034  27.675  1.00  0.00    -0.384 OA
ATOM     32  H   UNL     1      16.514   0.645  28.432  1.00  0.00     0.211 HD
ENDBRANCH  26  31
BRANCH  28  33
ATOM     33  O   UNL     1      15.063   1.297  24.896  1.00  0.00    -0.387 OA
ATOM     34  H   UNL     1      15.503   0.462  24.578  1.00  0.00     0.211 HD
ENDBRANCH  28  33
BRANCH  29  35
ATOM     35  C   UNL     1      15.047   2.425  29.345  1.00  0.00     0.191 C 
BRANCH  35  36
ATOM     36  O   UNL     1      14.448   3.125  30.413  1.00  0.00    -0.394 OA
ATOM     37  H   UNL     1      13.857   3.821  29.997  1.00  0.00     0.210 HD
ENDBRANCH  35  36
ENDBRANCH  29  35
BRANCH  30  38
ATOM     38  O   UNL     1      12.878   1.663  26.340  1.00  0.00    -0.387 OA
ATOM     39  H   UNL     1      13.040   0.765  25.941  1.00  0.00     0.211 HD
ENDBRANCH  30  38
ENDBRANCH   1  25
TORSDOF 11
ENDMDL
