MODEL 1
REMARK VINA RESULT:    -3.357      0.000      0.000
REMARK INTER + INTRA:          -3.995
REMARK INTER:                  -3.946
REMARK INTRA:                  -0.049
REMARK UNBOUND:                -0.049
REMARK SMILES CCCCC(=O)[O-]
REMARK SMILES IDX 4 1 5 2 6 3 7 4 3 5 2 6 1 7
REMARK H PARENT
REMARK Flexibility Score: inf
ROOT
ATOM      1  C   UNL     1      18.326 -10.051  14.116  1.00  0.00     0.053 C 
ENDROOT
BRANCH   1   2
ATOM      2  C   UNL     1      18.461  -8.635  14.586  1.00  0.00     0.041 C 
ATOM      3  O   UNL     1      17.471  -7.859  14.552  1.00  0.00    -0.550 OA
ATOM      4  O   UNL     1      19.690  -8.164  15.031  1.00  0.00    -0.550 OA
ENDBRANCH   1   2
BRANCH   1   5
ATOM      5  C   UNL     1      17.227 -10.196  13.055  1.00  0.00     0.006 C 
BRANCH   5   6
ATOM      6  C   UNL     1      17.700 -11.001  11.835  1.00  0.00    -0.003 C 
ATOM      7  C   UNL     1      18.975 -11.778  12.151  1.00  0.00     0.004 C 
ENDBRANCH   5   6
ENDBRANCH   1   5
TORSDOF 3
ENDMDL
MODEL 2
REMARK VINA RESULT:    -3.289      7.171      8.236
REMARK INTER + INTRA:          -3.916
REMARK INTER:                  -3.866
REMARK INTRA:                  -0.049
REMARK UNBOUND:                -0.049
REMARK SMILES CCCCC(=O)[O-]
REMARK SMILES IDX 4 1 5 2 6 3 7 4 3 5 2 6 1 7
REMARK H PARENT
REMARK Flexibility Score: inf
ROOT
ATOM      1  C   UNL     1      10.935 -12.181  14.368  1.00  0.00     0.053 C 
ENDROOT
BRANCH   1   2
ATOM      2  C   UNL     1      12.356 -11.969  14.790  1.00  0.00     0.041 C 
ATOM      3  O   UNL     1      12.786 -12.491  15.851  1.00  0.00    -0.550 OA
ATOM      4  O   UNL     1      13.197 -11.168  14.027  1.00  0.00    -0.550 OA
ENDBRANCH   1   2
BRANCH   1   5
ATOM      5  C   UNL     1      10.078 -10.931  14.606  1.00  0.00     0.006 C 
BRANCH   5   6
ATOM      6  C   UNL     1       9.351 -10.975  15.958  1.00  0.00    -0.003 C 
ATOM      7  C   UNL     1       8.566  -9.688  16.202  1.00  0.00     0.004 C 
ENDBRANCH   5   6
ENDBRANCH   1   5
TORSDOF 3
ENDMDL
MODEL 3
REMARK VINA RESULT:    -3.177      8.181     10.220
REMARK INTER + INTRA:          -3.783
REMARK INTER:                  -3.744
REMARK INTRA:                  -0.039
REMARK UNBOUND:                -0.049
REMARK SMILES CCCCC(=O)[O-]
REMARK SMILES IDX 4 1 5 2 6 3 7 4 3 5 2 6 1 7
REMARK H PARENT
REMARK Flexibility Score: inf
ROOT
ATOM      1  C   UNL     1      18.747  -4.169  21.225  1.00  0.00     0.053 C 
ENDROOT
BRANCH   1   2
ATOM      2  C   UNL     1      18.679  -4.668  19.815  1.00  0.00     0.041 C 
ATOM      3  O   UNL     1      19.736  -4.890  19.170  1.00  0.00    -0.550 OA
ATOM      4  O   UNL     1      17.446  -4.857  19.201  1.00  0.00    -0.550 OA
ENDBRANCH   1   2
BRANCH   1   5
ATOM      5  C   UNL     1      19.861  -3.129  21.408  1.00  0.00     0.006 C 
BRANCH   5   6
ATOM      6  C   UNL     1      20.732  -3.423  22.639  1.00  0.00    -0.003 C 
ATOM      7  C   UNL     1      21.026  -2.146  23.422  1.00  0.00     0.004 C 
ENDBRANCH   5   6
ENDBRANCH   1   5
TORSDOF 3
ENDMDL
MODEL 4
REMARK VINA RESULT:    -3.172      3.007      3.979
REMARK INTER + INTRA:          -3.777
REMARK INTER:                  -3.736
REMARK INTRA:                  -0.041
REMARK UNBOUND:                -0.049
REMARK SMILES CCCCC(=O)[O-]
REMARK SMILES IDX 4 1 5 2 6 3 7 4 3 5 2 6 1 7
REMARK H PARENT
REMARK Flexibility Score: inf
ROOT
ATOM      1  C   UNL     1      17.663 -10.885  11.935  1.00  0.00     0.053 C 
ENDROOT
BRANCH   1   2
ATOM      2  C   UNL     1      18.745 -11.902  11.743  1.00  0.00     0.041 C 
ATOM      3  O   UNL     1      18.999 -12.346  10.593  1.00  0.00    -0.550 OA
ATOM      4  O   UNL     1      19.451 -12.385  12.838  1.00  0.00    -0.550 OA
ENDBRANCH   1   2
BRANCH   1   5
ATOM      5  C   UNL     1      17.781 -10.178  13.293  1.00  0.00     0.006 C 
BRANCH   5   6
ATOM      6  C   UNL     1      18.766  -9.001  13.251  1.00  0.00    -0.003 C 
ATOM      7  C   UNL     1      18.930  -8.372  14.632  1.00  0.00     0.004 C 
ENDBRANCH   5   6
ENDBRANCH   1   5
TORSDOF 3
ENDMDL
MODEL 5
REMARK VINA RESULT:    -3.166      7.538      8.428
REMARK INTER + INTRA:          -3.770
REMARK INTER:                  -3.719
REMARK INTRA:                  -0.051
REMARK UNBOUND:                -0.049
REMARK SMILES CCCCC(=O)[O-]
REMARK SMILES IDX 4 1 5 2 6 3 7 4 3 5 2 6 1 7
REMARK H PARENT
REMARK Flexibility Score: inf
ROOT
ATOM      1  C   UNL     1       9.841 -10.865  14.670  1.00  0.00     0.053 C 
ENDROOT
BRANCH   1   2
ATOM      2  C   UNL     1       9.323 -10.753  16.070  1.00  0.00     0.041 C 
ATOM      3  O   UNL     1       9.575 -11.654  16.913  1.00  0.00    -0.550 OA
ATOM      4  O   UNL     1       8.534  -9.670  16.437  1.00  0.00    -0.550 OA
ENDBRANCH   1   2
BRANCH   1   5
ATOM      5  C   UNL     1      10.820 -12.037  14.517  1.00  0.00     0.006 C 
BRANCH   5   6
ATOM      6  C   UNL     1      12.268 -11.563  14.324  1.00  0.00    -0.003 C 
ATOM      7  C   UNL     1      13.261 -12.618  14.805  1.00  0.00     0.004 C 
ENDBRANCH   5   6
ENDBRANCH   1   5
TORSDOF 3
ENDMDL
MODEL 6
REMARK VINA RESULT:    -3.152      9.645     11.537
REMARK INTER + INTRA:          -3.754
REMARK INTER:                  -3.656
REMARK INTRA:                  -0.099
REMARK UNBOUND:                -0.049
REMARK SMILES CCCCC(=O)[O-]
REMARK SMILES IDX 4 1 5 2 6 3 7 4 3 5 2 6 1 7
REMARK H PARENT
REMARK Flexibility Score: inf
ROOT
ATOM      1  C   UNL     1      20.231  -3.274  21.759  1.00  0.00     0.053 C 
ENDROOT
BRANCH   1   2
ATOM      2  C   UNL     1      21.064  -3.411  20.522  1.00  0.00     0.041 C 
ATOM      3  O   UNL     1      22.071  -2.675  20.351  1.00  0.00    -0.550 OA
ATOM      4  O   UNL     1      20.710  -4.331  19.543  1.00  0.00    -0.550 OA
ENDBRANCH   1   2
BRANCH   1   5
ATOM      5  C   UNL     1      21.096  -3.227  23.026  1.00  0.00     0.006 C 
BRANCH   5   6
ATOM      6  C   UNL     1      21.071  -1.845  23.695  1.00  0.00    -0.003 C 
ATOM      7  C   UNL     1      19.972  -0.967  23.103  1.00  0.00     0.004 C 
ENDBRANCH   5   6
ENDBRANCH   1   5
TORSDOF 3
ENDMDL
MODEL 7
REMARK VINA RESULT:    -3.134      6.436      7.303
REMARK INTER + INTRA:          -3.733
REMARK INTER:                  -3.657
REMARK INTRA:                  -0.076
REMARK UNBOUND:                -0.049
REMARK SMILES CCCCC(=O)[O-]
REMARK SMILES IDX 4 1 5 2 6 3 7 4 3 5 2 6 1 7
REMARK H PARENT
REMARK Flexibility Score: inf
ROOT
ATOM      1  C   UNL     1      13.567 -12.786  14.756  1.00  0.00     0.053 C 
ENDROOT
BRANCH   1   2
ATOM      2  C   UNL     1      13.439 -13.394  16.118  1.00  0.00     0.041 C 
ATOM      3  O   UNL     1      13.891 -14.547  16.342  1.00  0.00    -0.550 OA
ATOM      4  O   UNL     1      12.792 -12.699  17.133  1.00  0.00    -0.550 OA
ENDBRANCH   1   2
BRANCH   1   5
ATOM      5  C   UNL     1      12.623 -11.589  14.575  1.00  0.00     0.006 C 
BRANCH   5   6
ATOM      6  C   UNL     1      11.218 -12.020  14.132  1.00  0.00    -0.003 C 
ATOM      7  C   UNL     1      10.143 -11.179  14.815  1.00  0.00     0.004 C 
ENDBRANCH   5   6
ENDBRANCH   1   5
TORSDOF 3
ENDMDL
MODEL 8
REMARK VINA RESULT:    -3.102      9.207     10.802
REMARK INTER + INTRA:          -3.695
REMARK INTER:                  -3.647
REMARK INTRA:                  -0.047
REMARK UNBOUND:                -0.049
REMARK SMILES CCCCC(=O)[O-]
REMARK SMILES IDX 4 1 5 2 6 3 7 4 3 5 2 6 1 7
REMARK H PARENT
REMARK Flexibility Score: inf
ROOT
ATOM      1  C   UNL     1      19.934  -2.361  22.008  1.00  0.00     0.053 C 
ENDROOT
BRANCH   1   2
ATOM      2  C   UNL     1      20.886  -2.627  23.133  1.00  0.00     0.041 C 
ATOM      3  O   UNL     1      21.284  -1.682  23.863  1.00  0.00    -0.550 OA
ATOM      4  O   UNL     1      21.359  -3.915  23.356  1.00  0.00    -0.550 OA
ENDBRANCH   1   2
BRANCH   1   5
ATOM      5  C   UNL     1      19.939  -3.497  20.977  1.00  0.00     0.006 C 
BRANCH   5   6
ATOM      6  C   UNL     1      18.668  -4.356  21.054  1.00  0.00    -0.003 C 
ATOM      7  C   UNL     1      18.374  -5.024  19.713  1.00  0.00     0.004 C 
ENDBRANCH   5   6
ENDBRANCH   1   5
TORSDOF 3
ENDMDL
MODEL 9
REMARK VINA RESULT:    -3.089     10.943     12.489
REMARK INTER + INTRA:          -3.680
REMARK INTER:                  -3.562
REMARK INTRA:                  -0.118
REMARK UNBOUND:                -0.049
REMARK SMILES CCCCC(=O)[O-]
REMARK SMILES IDX 4 1 5 2 6 3 7 4 3 5 2 6 1 7
REMARK H PARENT
REMARK Flexibility Score: inf
ROOT
ATOM      1  C   UNL     1      21.143  -3.192  22.917  1.00  0.00     0.053 C 
ENDROOT
BRANCH   1   2
ATOM      2  C   UNL     1      22.028  -3.140  21.710  1.00  0.00     0.041 C 
ATOM      3  O   UNL     1      23.193  -2.670  21.799  1.00  0.00    -0.550 OA
ATOM      4  O   UNL     1      21.557  -3.581  20.480  1.00  0.00    -0.550 OA
ENDBRANCH   1   2
BRANCH   1   5
ATOM      5  C   UNL     1      21.172  -1.874  23.702  1.00  0.00     0.006 C 
BRANCH   5   6
ATOM      6  C   UNL     1      20.246  -0.813  23.090  1.00  0.00    -0.003 C 
ATOM      7  C   UNL     1      21.030   0.433  22.685  1.00  0.00     0.004 C 
ENDBRANCH   5   6
ENDBRANCH   1   5
TORSDOF 3
ENDMDL
