MODEL 1
REMARK VINA RESULT:    -7.017      0.000      0.000
REMARK INTER + INTRA:          -8.565
REMARK INTER:                  -8.247
REMARK INTRA:                  -0.318
REMARK UNBOUND:                -0.318
REMARK SMILES O=c1cc(-c2ccc(O)c(O)c2)oc2cc(O)cc(O)c12
REMARK SMILES IDX 4 1 3 2 2 3 1 4 21 5 19 6 18 7 16 8 15 9 14 10 13 11 5 12
REMARK SMILES IDX 6 13 7 14 8 15 12 16 10 17 9 18 11 20 20 22 17 24
REMARK H PARENT 9 19 11 21 20 23 17 25
REMARK Flexibility Score: inf
ROOT
ATOM      1  C   UNL     1       6.080 -17.586 -39.197  1.00  0.00     0.138 A 
ATOM      2  C   UNL     1       6.186 -16.358 -39.865  1.00  0.00     0.100 A 
ATOM      3  C   UNL     1       7.433 -15.925 -40.320  1.00  0.00     0.197 A 
ATOM      4  O   UNL     1       7.506 -14.792 -40.861  1.00  0.00    -0.289 OA
ATOM      5  C   UNL     1       8.572 -16.743 -40.133  1.00  0.00     0.107 A 
ATOM      6  C   UNL     1       9.885 -16.424 -40.591  1.00  0.00     0.134 A 
ATOM      7  C   UNL     1      10.958 -17.256 -40.244  1.00  0.00     0.093 A 
ATOM      8  C   UNL     1      10.756 -18.424 -39.510  1.00  0.00     0.123 A 
ATOM      9  C   UNL     1       9.468 -18.774 -39.104  1.00  0.00     0.094 A 
ATOM     10  C   UNL     1       8.382 -17.948 -39.404  1.00  0.00     0.146 A 
ATOM     11  O   UNL     1       7.175 -18.308 -38.986  1.00  0.00    -0.456 OA
ENDROOT
BRANCH   1  12
ATOM     12  C   UNL     1       4.779 -18.094 -38.694  1.00  0.00     0.021 A 
ATOM     13  C   UNL     1       3.608 -17.317 -38.756  1.00  0.00     0.016 A 
ATOM     14  C   UNL     1       2.397 -17.825 -38.283  1.00  0.00     0.051 A 
ATOM     15  C   UNL     1       2.321 -19.115 -37.748  1.00  0.00     0.157 A 
ATOM     16  C   UNL     1       4.700 -19.394 -38.168  1.00  0.00     0.062 A 
ATOM     17  C   UNL     1       3.488 -19.912 -37.691  1.00  0.00     0.158 A 
BRANCH  15  18
ATOM     18  O   UNL     1       1.079 -19.560 -37.291  1.00  0.00    -0.504 OA
ATOM     19  H   UNL     1       0.946 -20.398 -36.743  1.00  0.00     0.293 HD
ENDBRANCH  15  18
BRANCH  17  20
ATOM     20  O   UNL     1       3.491 -21.209 -37.175  1.00  0.00    -0.504 OA
ATOM     21  H   UNL     1       3.056 -21.470 -36.301  1.00  0.00     0.293 HD
ENDBRANCH  17  20
ENDBRANCH   1  12
BRANCH   6  22
ATOM     22  O   UNL     1      10.184 -15.326 -41.402  1.00  0.00    -0.507 OA
ATOM     23  H   UNL     1      10.500 -14.429 -41.066  1.00  0.00     0.293 HD
ENDBRANCH   6  22
BRANCH   8  24
ATOM     24  O   UNL     1      11.845 -19.235 -39.198  1.00  0.00    -0.508 OA
ATOM     25  H   UNL     1      12.758 -18.843 -39.000  1.00  0.00     0.293 HD
ENDBRANCH   8  24
TORSDOF 5
ENDMDL
MODEL 2
REMARK VINA RESULT:    -6.593      1.571      6.623
REMARK INTER + INTRA:          -8.067
REMARK INTER:                  -7.758
REMARK INTRA:                  -0.309
REMARK UNBOUND:                -0.318
REMARK SMILES O=c1cc(-c2ccc(O)c(O)c2)oc2cc(O)cc(O)c12
REMARK SMILES IDX 4 1 3 2 2 3 1 4 21 5 19 6 18 7 16 8 15 9 14 10 13 11 5 12
REMARK SMILES IDX 6 13 7 14 8 15 12 16 10 17 9 18 11 20 20 22 17 24
REMARK H PARENT 9 19 11 21 20 23 17 25
REMARK Flexibility Score: inf
ROOT
ATOM      1  C   UNL     1       7.341 -17.742 -38.982  1.00  0.00     0.138 A 
ATOM      2  C   UNL     1       6.836 -16.585 -39.593  1.00  0.00     0.100 A 
ATOM      3  C   UNL     1       5.467 -16.319 -39.540  1.00  0.00     0.197 A 
ATOM      4  O   UNL     1       5.036 -15.306 -40.149  1.00  0.00    -0.289 OA
ATOM      5  C   UNL     1       4.605 -17.199 -38.845  1.00  0.00     0.107 A 
ATOM      6  C   UNL     1       3.200 -17.008 -38.690  1.00  0.00     0.134 A 
ATOM      7  C   UNL     1       2.430 -18.007 -38.082  1.00  0.00     0.093 A 
ATOM      8  C   UNL     1       3.022 -19.161 -37.569  1.00  0.00     0.123 A 
ATOM      9  C   UNL     1       4.403 -19.334 -37.666  1.00  0.00     0.094 A 
ATOM     10  C   UNL     1       5.194 -18.372 -38.298  1.00  0.00     0.146 A 
ATOM     11  O   UNL     1       6.502 -18.581 -38.384  1.00  0.00    -0.456 OA
ENDROOT
BRANCH   1  12
ATOM     12  C   UNL     1       8.788 -18.073 -39.008  1.00  0.00     0.021 A 
ATOM     13  C   UNL     1       9.641 -17.582 -40.013  1.00  0.00     0.016 A 
ATOM     14  C   UNL     1      11.000 -17.903 -40.005  1.00  0.00     0.051 A 
ATOM     15  C   UNL     1      11.540 -18.708 -38.997  1.00  0.00     0.157 A 
ATOM     16  C   UNL     1       9.334 -18.870 -37.987  1.00  0.00     0.062 A 
ATOM     17  C   UNL     1      10.696 -19.196 -37.972  1.00  0.00     0.158 A 
BRANCH  15  18
ATOM     18  O   UNL     1      12.906 -18.991 -39.050  1.00  0.00    -0.504 OA
ATOM     19  H   UNL     1      13.520 -18.679 -39.788  1.00  0.00     0.293 HD
ENDBRANCH  15  18
BRANCH  17  20
ATOM     20  O   UNL     1      11.163 -20.001 -36.931  1.00  0.00    -0.504 OA
ATOM     21  H   UNL     1      10.976 -20.991 -36.856  1.00  0.00     0.293 HD
ENDBRANCH  17  20
ENDBRANCH   1  12
BRANCH   6  22
ATOM     22  O   UNL     1       2.520 -15.854 -39.091  1.00  0.00    -0.507 OA
ATOM     23  H   UNL     1       1.549 -15.820 -39.361  1.00  0.00     0.293 HD
ENDBRANCH   6  22
BRANCH   8  24
ATOM     24  O   UNL     1       2.226 -20.126 -36.955  1.00  0.00    -0.508 OA
ATOM     25  H   UNL     1       1.940 -20.040 -35.987  1.00  0.00     0.293 HD
ENDBRANCH   8  24
TORSDOF 5
ENDMDL
MODEL 3
REMARK VINA RESULT:    -6.567      1.786      6.758
REMARK INTER + INTRA:          -8.036
REMARK INTER:                  -7.744
REMARK INTRA:                  -0.292
REMARK UNBOUND:                -0.318
REMARK SMILES O=c1cc(-c2ccc(O)c(O)c2)oc2cc(O)cc(O)c12
REMARK SMILES IDX 4 1 3 2 2 3 1 4 21 5 19 6 18 7 16 8 15 9 14 10 13 11 5 12
REMARK SMILES IDX 6 13 7 14 8 15 12 16 10 17 9 18 11 20 20 22 17 24
REMARK H PARENT 9 19 11 21 20 23 17 25
REMARK Flexibility Score: inf
ROOT
ATOM      1  C   UNL     1       5.755 -16.686 -39.498  1.00  0.00     0.138 A 
ATOM      2  C   UNL     1       4.781 -15.842 -38.947  1.00  0.00     0.100 A 
ATOM      3  C   UNL     1       3.807 -16.373 -38.100  1.00  0.00     0.197 A 
ATOM      4  O   UNL     1       2.911 -15.602 -37.669  1.00  0.00    -0.289 OA
ATOM      5  C   UNL     1       3.829 -17.750 -37.779  1.00  0.00     0.107 A 
ATOM      6  C   UNL     1       2.912 -18.394 -36.896  1.00  0.00     0.134 A 
ATOM      7  C   UNL     1       2.959 -19.786 -36.746  1.00  0.00     0.093 A 
ATOM      8  C   UNL     1       3.926 -20.549 -37.399  1.00  0.00     0.123 A 
ATOM      9  C   UNL     1       4.863 -19.923 -38.224  1.00  0.00     0.094 A 
ATOM     10  C   UNL     1       4.820 -18.541 -38.421  1.00  0.00     0.146 A 
ATOM     11  O   UNL     1       5.719 -17.985 -39.225  1.00  0.00    -0.456 OA
ENDROOT
BRANCH   1  12
ATOM     12  C   UNL     1       6.814 -16.173 -40.404  1.00  0.00     0.021 A 
ATOM     13  C   UNL     1       6.525 -15.272 -41.444  1.00  0.00     0.016 A 
ATOM     14  C   UNL     1       7.543 -14.800 -42.274  1.00  0.00     0.051 A 
ATOM     15  C   UNL     1       8.868 -15.205 -42.083  1.00  0.00     0.157 A 
ATOM     16  C   UNL     1       8.147 -16.569 -40.203  1.00  0.00     0.062 A 
ATOM     17  C   UNL     1       9.175 -16.099 -41.031  1.00  0.00     0.158 A 
BRANCH  15  18
ATOM     18  O   UNL     1       9.838 -14.696 -42.949  1.00  0.00    -0.504 OA
ATOM     19  H   UNL     1       9.846 -14.860 -43.946  1.00  0.00     0.293 HD
ENDBRANCH  15  18
BRANCH  17  20
ATOM     20  O   UNL     1      10.474 -16.545 -40.775  1.00  0.00    -0.504 OA
ATOM     21  H   UNL     1      10.698 -17.476 -40.455  1.00  0.00     0.293 HD
ENDBRANCH  17  20
ENDBRANCH   1  12
BRANCH   6  22
ATOM     22  O   UNL     1       1.960 -17.716 -36.129  1.00  0.00    -0.507 OA
ATOM     23  H   UNL     1       1.856 -16.714 -36.092  1.00  0.00     0.293 HD
ENDBRANCH   6  22
BRANCH   8  24
ATOM     24  O   UNL     1       3.953 -21.930 -37.214  1.00  0.00    -0.508 OA
ATOM     25  H   UNL     1       4.660 -22.373 -36.640  1.00  0.00     0.293 HD
ENDBRANCH   8  24
TORSDOF 5
ENDMDL
MODEL 4
REMARK VINA RESULT:    -6.502      1.745      7.515
REMARK INTER + INTRA:          -7.960
REMARK INTER:                  -7.669
REMARK INTRA:                  -0.291
REMARK UNBOUND:                -0.318
REMARK SMILES O=c1cc(-c2ccc(O)c(O)c2)oc2cc(O)cc(O)c12
REMARK SMILES IDX 4 1 3 2 2 3 1 4 21 5 19 6 18 7 16 8 15 9 14 10 13 11 5 12
REMARK SMILES IDX 6 13 7 14 8 15 12 16 10 17 9 18 11 20 20 22 17 24
REMARK H PARENT 9 19 11 21 20 23 17 25
REMARK Flexibility Score: inf
ROOT
ATOM      1  C   UNL     1       5.100 -18.140 -38.665  1.00  0.00     0.138 A 
ATOM      2  C   UNL     1       4.783 -19.205 -37.810  1.00  0.00     0.100 A 
ATOM      3  C   UNL     1       3.456 -19.417 -37.434  1.00  0.00     0.197 A 
ATOM      4  O   UNL     1       3.212 -20.343 -36.618  1.00  0.00    -0.289 OA
ATOM      5  C   UNL     1       2.438 -18.577 -37.943  1.00  0.00     0.107 A 
ATOM      6  C   UNL     1       1.047 -18.724 -37.661  1.00  0.00     0.134 A 
ATOM      7  C   UNL     1       0.143 -17.761 -38.127  1.00  0.00     0.093 A 
ATOM      8  C   UNL     1       0.571 -16.691 -38.914  1.00  0.00     0.123 A 
ATOM      9  C   UNL     1       1.922 -16.568 -39.241  1.00  0.00     0.094 A 
ATOM     10  C   UNL     1       2.853 -17.493 -38.762  1.00  0.00     0.146 A 
ATOM     11  O   UNL     1       4.132 -17.332 -39.083  1.00  0.00    -0.456 OA
ENDROOT
BRANCH   1  12
ATOM     12  C   UNL     1       6.494 -17.869 -39.097  1.00  0.00     0.021 A 
ATOM     13  C   UNL     1       6.779 -17.059 -40.210  1.00  0.00     0.016 A 
ATOM     14  C   UNL     1       8.101 -16.815 -40.587  1.00  0.00     0.051 A 
ATOM     15  C   UNL     1       9.165 -17.362 -39.862  1.00  0.00     0.157 A 
ATOM     16  C   UNL     1       7.563 -18.407 -38.361  1.00  0.00     0.062 A 
ATOM     17  C   UNL     1       8.893 -18.167 -38.732  1.00  0.00     0.158 A 
BRANCH  15  18
ATOM     18  O   UNL     1      10.462 -17.080 -40.294  1.00  0.00    -0.504 OA
ATOM     19  H   UNL     1      10.732 -16.219 -40.749  1.00  0.00     0.293 HD
ENDBRANCH  15  18
BRANCH  17  20
ATOM     20  O   UNL     1       9.901 -18.744 -37.957  1.00  0.00    -0.504 OA
ATOM     21  H   UNL     1      10.705 -18.240 -37.612  1.00  0.00     0.293 HD
ENDBRANCH  17  20
ENDBRANCH   1  12
BRANCH   6  22
ATOM     22  O   UNL     1       0.502 -19.801 -36.956  1.00  0.00    -0.507 OA
ATOM     23  H   UNL     1       0.655 -19.986 -35.976  1.00  0.00     0.293 HD
ENDBRANCH   6  22
BRANCH   8  24
ATOM     24  O   UNL     1      -0.360 -15.761 -39.373  1.00  0.00    -0.508 OA
ATOM     25  H   UNL     1      -0.104 -15.042 -40.039  1.00  0.00     0.293 HD
ENDBRANCH   8  24
TORSDOF 5
ENDMDL
MODEL 5
REMARK VINA RESULT:    -6.488      1.330      2.648
REMARK INTER + INTRA:          -7.944
REMARK INTER:                  -7.658
REMARK INTRA:                  -0.286
REMARK UNBOUND:                -0.318
REMARK SMILES O=c1cc(-c2ccc(O)c(O)c2)oc2cc(O)cc(O)c12
REMARK SMILES IDX 4 1 3 2 2 3 1 4 21 5 19 6 18 7 16 8 15 9 14 10 13 11 5 12
REMARK SMILES IDX 6 13 7 14 8 15 12 16 10 17 9 18 11 20 20 22 17 24
REMARK H PARENT 9 19 11 21 20 23 17 25
REMARK Flexibility Score: inf
ROOT
ATOM      1  C   UNL     1       6.107 -17.836 -38.853  1.00  0.00     0.138 A 
ATOM      2  C   UNL     1       7.267 -18.239 -38.177  1.00  0.00     0.100 A 
ATOM      3  C   UNL     1       8.514 -17.793 -38.620  1.00  0.00     0.197 A 
ATOM      4  O   UNL     1       9.540 -18.220 -38.031  1.00  0.00    -0.289 OA
ATOM      5  C   UNL     1       8.595 -16.914 -39.725  1.00  0.00     0.107 A 
ATOM      6  C   UNL     1       9.806 -16.363 -40.239  1.00  0.00     0.134 A 
ATOM      7  C   UNL     1       9.774 -15.597 -41.411  1.00  0.00     0.093 A 
ATOM      8  C   UNL     1       8.569 -15.312 -42.053  1.00  0.00     0.123 A 
ATOM      9  C   UNL     1       7.372 -15.801 -41.529  1.00  0.00     0.094 A 
ATOM     10  C   UNL     1       7.375 -16.597 -40.381  1.00  0.00     0.146 A 
ATOM     11  O   UNL     1       6.215 -17.055 -39.922  1.00  0.00    -0.456 OA
ENDROOT
BRANCH   1  12
ATOM     12  C   UNL     1       4.757 -18.280 -38.425  1.00  0.00     0.021 A 
ATOM     13  C   UNL     1       3.611 -17.500 -38.666  1.00  0.00     0.016 A 
ATOM     14  C   UNL     1       2.353 -17.948 -38.259  1.00  0.00     0.051 A 
ATOM     15  C   UNL     1       2.205 -19.180 -37.614  1.00  0.00     0.157 A 
ATOM     16  C   UNL     1       4.606 -19.524 -37.789  1.00  0.00     0.062 A 
ATOM     17  C   UNL     1       3.347 -19.980 -37.378  1.00  0.00     0.158 A 
BRANCH  15  18
ATOM     18  O   UNL     1       0.919 -19.567 -37.233  1.00  0.00    -0.504 OA
ATOM     19  H   UNL     1       0.266 -18.963 -36.754  1.00  0.00     0.293 HD
ENDBRANCH  15  18
BRANCH  17  20
ATOM     20  O   UNL     1       3.279 -21.223 -36.744  1.00  0.00    -0.504 OA
ATOM     21  H   UNL     1       3.989 -21.577 -36.119  1.00  0.00     0.293 HD
ENDBRANCH  17  20
ENDBRANCH   1  12
BRANCH   6  22
ATOM     22  O   UNL     1      11.054 -16.516 -39.627  1.00  0.00    -0.507 OA
ATOM     23  H   UNL     1      11.427 -15.906 -38.916  1.00  0.00     0.293 HD
ENDBRANCH   6  22
BRANCH   8  24
ATOM     24  O   UNL     1       8.575 -14.533 -43.208  1.00  0.00    -0.508 OA
ATOM     25  H   UNL     1       7.884 -13.808 -43.360  1.00  0.00     0.293 HD
ENDBRANCH   8  24
TORSDOF 5
ENDMDL
MODEL 6
REMARK VINA RESULT:    -6.450      1.446      6.971
REMARK INTER + INTRA:          -7.898
REMARK INTER:                  -7.607
REMARK INTRA:                  -0.292
REMARK UNBOUND:                -0.318
REMARK SMILES O=c1cc(-c2ccc(O)c(O)c2)oc2cc(O)cc(O)c12
REMARK SMILES IDX 4 1 3 2 2 3 1 4 21 5 19 6 18 7 16 8 15 9 14 10 13 11 5 12
REMARK SMILES IDX 6 13 7 14 8 15 12 16 10 17 9 18 11 20 20 22 17 24
REMARK H PARENT 9 19 11 21 20 23 17 25
REMARK Flexibility Score: inf
ROOT
ATOM      1  C   UNL     1       7.029 -17.710 -38.594  1.00  0.00     0.138 A 
ATOM      2  C   UNL     1       6.222 -16.567 -38.678  1.00  0.00     0.100 A 
ATOM      3  C   UNL     1       4.888 -16.633 -38.273  1.00  0.00     0.197 A 
ATOM      4  O   UNL     1       4.172 -15.608 -38.417  1.00  0.00    -0.289 OA
ATOM      5  C   UNL     1       4.370 -17.843 -37.752  1.00  0.00     0.107 A 
ATOM      6  C   UNL     1       3.038 -18.016 -37.272  1.00  0.00     0.134 A 
ATOM      7  C   UNL     1       2.603 -19.291 -36.889  1.00  0.00     0.093 A 
ATOM      8  C   UNL     1       3.468 -20.385 -36.911  1.00  0.00     0.123 A 
ATOM      9  C   UNL     1       4.789 -20.216 -37.328  1.00  0.00     0.094 A 
ATOM     10  C   UNL     1       5.243 -18.964 -37.750  1.00  0.00     0.146 A 
ATOM     11  O   UNL     1       6.503 -18.847 -38.154  1.00  0.00    -0.456 OA
ENDROOT
BRANCH   1  12
ATOM     12  C   UNL     1       8.454 -17.694 -39.010  1.00  0.00     0.021 A 
ATOM     13  C   UNL     1       9.347 -18.713 -38.630  1.00  0.00     0.016 A 
ATOM     14  C   UNL     1      10.679 -18.676 -39.044  1.00  0.00     0.051 A 
ATOM     15  C   UNL     1      11.151 -17.635 -39.849  1.00  0.00     0.157 A 
ATOM     16  C   UNL     1       8.925 -16.655 -39.830  1.00  0.00     0.062 A 
ATOM     17  C   UNL     1      10.261 -16.611 -40.250  1.00  0.00     0.158 A 
BRANCH  15  18
ATOM     18  O   UNL     1      12.495 -17.658 -40.226  1.00  0.00    -0.504 OA
ATOM     19  H   UNL     1      12.856 -17.213 -41.058  1.00  0.00     0.293 HD
ENDBRANCH  15  18
BRANCH  17  20
ATOM     20  O   UNL     1      10.656 -15.541 -41.056  1.00  0.00    -0.504 OA
ATOM     21  H   UNL     1      10.205 -15.293 -41.924  1.00  0.00     0.293 HD
ENDBRANCH  17  20
ENDBRANCH   1  12
BRANCH   6  22
ATOM     22  O   UNL     1       2.117 -16.974 -37.128  1.00  0.00    -0.507 OA
ATOM     23  H   UNL     1       1.116 -17.078 -37.176  1.00  0.00     0.293 HD
ENDBRANCH   6  22
BRANCH   8  24
ATOM     24  O   UNL     1       3.005 -21.636 -36.507  1.00  0.00    -0.508 OA
ATOM     25  H   UNL     1       2.785 -22.361 -37.179  1.00  0.00     0.293 HD
ENDBRANCH   8  24
TORSDOF 5
ENDMDL
MODEL 7
REMARK VINA RESULT:    -6.091      2.114      2.464
REMARK INTER + INTRA:          -7.477
REMARK INTER:                  -7.182
REMARK INTRA:                  -0.295
REMARK UNBOUND:                -0.318
REMARK SMILES O=c1cc(-c2ccc(O)c(O)c2)oc2cc(O)cc(O)c12
REMARK SMILES IDX 4 1 3 2 2 3 1 4 21 5 19 6 18 7 16 8 15 9 14 10 13 11 5 12
REMARK SMILES IDX 6 13 7 14 8 15 12 16 10 17 9 18 11 20 20 22 17 24
REMARK H PARENT 9 19 11 21 20 23 17 25
REMARK Flexibility Score: inf
ROOT
ATOM      1  C   UNL     1       6.762 -17.314 -39.381  1.00  0.00     0.138 A 
ATOM      2  C   UNL     1       6.631 -17.092 -40.759  1.00  0.00     0.100 A 
ATOM      3  C   UNL     1       7.546 -16.268 -41.415  1.00  0.00     0.197 A 
ATOM      4  O   UNL     1       7.367 -16.039 -42.639  1.00  0.00    -0.289 OA
ATOM      5  C   UNL     1       8.617 -15.690 -40.693  1.00  0.00     0.107 A 
ATOM      6  C   UNL     1       9.632 -14.867 -41.264  1.00  0.00     0.134 A 
ATOM      7  C   UNL     1      10.575 -14.255 -40.429  1.00  0.00     0.093 A 
ATOM      8  C   UNL     1      10.576 -14.483 -39.053  1.00  0.00     0.123 A 
ATOM      9  C   UNL     1       9.620 -15.330 -38.490  1.00  0.00     0.094 A 
ATOM     10  C   UNL     1       8.645 -15.928 -39.292  1.00  0.00     0.146 A 
ATOM     11  O   UNL     1       7.744 -16.715 -38.716  1.00  0.00    -0.456 OA
ENDROOT
BRANCH   1  12
ATOM     12  C   UNL     1       5.818 -18.182 -38.634  1.00  0.00     0.021 A 
ATOM     13  C   UNL     1       5.859 -18.286 -37.231  1.00  0.00     0.016 A 
ATOM     14  C   UNL     1       4.952 -19.103 -36.556  1.00  0.00     0.051 A 
ATOM     15  C   UNL     1       3.980 -19.826 -37.255  1.00  0.00     0.157 A 
ATOM     16  C   UNL     1       4.833 -18.898 -39.335  1.00  0.00     0.062 A 
ATOM     17  C   UNL     1       3.918 -19.720 -38.664  1.00  0.00     0.158 A 
BRANCH  15  18
ATOM     18  O   UNL     1       3.105 -20.625 -36.518  1.00  0.00    -0.504 OA
ATOM     19  H   UNL     1       3.391 -21.434 -35.986  1.00  0.00     0.293 HD
ENDBRANCH  15  18
BRANCH  17  20
ATOM     20  O   UNL     1       2.974 -20.407 -39.431  1.00  0.00    -0.504 OA
ATOM     21  H   UNL     1       2.180 -19.969 -39.874  1.00  0.00     0.293 HD
ENDBRANCH  17  20
ENDBRANCH   1  12
BRANCH   6  22
ATOM     22  O   UNL     1       9.774 -14.641 -42.636  1.00  0.00    -0.507 OA
ATOM     23  H   UNL     1      10.303 -13.886 -43.045  1.00  0.00     0.293 HD
ENDBRANCH   6  22
BRANCH   8  24
ATOM     24  O   UNL     1      11.540 -13.869 -38.256  1.00  0.00    -0.508 OA
ATOM     25  H   UNL     1      11.592 -12.861 -38.170  1.00  0.00     0.293 HD
ENDBRANCH   8  24
TORSDOF 5
ENDMDL
MODEL 8
REMARK VINA RESULT:    -6.080      1.699      2.381
REMARK INTER + INTRA:          -7.464
REMARK INTER:                  -7.199
REMARK INTRA:                  -0.265
REMARK UNBOUND:                -0.318
REMARK SMILES O=c1cc(-c2ccc(O)c(O)c2)oc2cc(O)cc(O)c12
REMARK SMILES IDX 4 1 3 2 2 3 1 4 21 5 19 6 18 7 16 8 15 9 14 10 13 11 5 12
REMARK SMILES IDX 6 13 7 14 8 15 12 16 10 17 9 18 11 20 20 22 17 24
REMARK H PARENT 9 19 11 21 20 23 17 25
REMARK Flexibility Score: inf
ROOT
ATOM      1  C   UNL     1       4.354 -17.142 -38.151  1.00  0.00     0.138 A 
ATOM      2  C   UNL     1       4.462 -16.179 -39.164  1.00  0.00     0.100 A 
ATOM      3  C   UNL     1       5.677 -16.012 -39.830  1.00  0.00     0.197 A 
ATOM      4  O   UNL     1       5.761 -15.099 -40.692  1.00  0.00    -0.289 OA
ATOM      5  C   UNL     1       6.779 -16.837 -39.501  1.00  0.00     0.107 A 
ATOM      6  C   UNL     1       8.053 -16.785 -40.141  1.00  0.00     0.134 A 
ATOM      7  C   UNL     1       9.104 -17.570 -39.651  1.00  0.00     0.093 A 
ATOM      8  C   UNL     1       8.912 -18.448 -38.585  1.00  0.00     0.123 A 
ATOM      9  C   UNL     1       7.655 -18.547 -37.987  1.00  0.00     0.094 A 
ATOM     10  C   UNL     1       6.596 -17.752 -38.430  1.00  0.00     0.146 A 
ATOM     11  O   UNL     1       5.419 -17.865 -37.824  1.00  0.00    -0.456 OA
ENDROOT
BRANCH   1  12
ATOM     12  C   UNL     1       3.085 -17.361 -37.411  1.00  0.00     0.021 A 
ATOM     13  C   UNL     1       2.734 -16.577 -36.298  1.00  0.00     0.016 A 
ATOM     14  C   UNL     1       1.530 -16.800 -35.628  1.00  0.00     0.051 A 
ATOM     15  C   UNL     1       0.647 -17.798 -36.054  1.00  0.00     0.157 A 
ATOM     16  C   UNL     1       2.193 -18.355 -37.847  1.00  0.00     0.062 A 
ATOM     17  C   UNL     1       0.982 -18.585 -37.180  1.00  0.00     0.158 A 
BRANCH  15  18
ATOM     18  O   UNL     1      -0.539 -17.970 -35.338  1.00  0.00    -0.504 OA
ATOM     19  H   UNL     1      -0.672 -18.673 -34.625  1.00  0.00     0.293 HD
ENDBRANCH  15  18
BRANCH  17  20
ATOM     20  O   UNL     1       0.152 -19.597 -37.668  1.00  0.00    -0.504 OA
ATOM     21  H   UNL     1      -0.847 -19.499 -37.787  1.00  0.00     0.293 HD
ENDBRANCH  17  20
ENDBRANCH   1  12
BRANCH   6  22
ATOM     22  O   UNL     1       8.330 -16.004 -41.268  1.00  0.00    -0.507 OA
ATOM     23  H   UNL     1       9.254 -15.757 -41.586  1.00  0.00     0.293 HD
ENDBRANCH   6  22
BRANCH   8  24
ATOM     24  O   UNL     1       9.977 -19.226 -38.135  1.00  0.00    -0.508 OA
ATOM     25  H   UNL     1      10.391 -19.944 -38.717  1.00  0.00     0.293 HD
ENDBRANCH   8  24
TORSDOF 5
ENDMDL
MODEL 9
REMARK VINA RESULT:    -5.975      2.914      8.174
REMARK INTER + INTRA:          -7.341
REMARK INTER:                  -7.077
REMARK INTRA:                  -0.264
REMARK UNBOUND:                -0.318
REMARK SMILES O=c1cc(-c2ccc(O)c(O)c2)oc2cc(O)cc(O)c12
REMARK SMILES IDX 4 1 3 2 2 3 1 4 21 5 19 6 18 7 16 8 15 9 14 10 13 11 5 12
REMARK SMILES IDX 6 13 7 14 8 15 12 16 10 17 9 18 11 20 20 22 17 24
REMARK H PARENT 9 19 11 21 20 23 17 25
REMARK Flexibility Score: inf
ROOT
ATOM      1  C   UNL     1       3.458 -17.760 -37.395  1.00  0.00     0.138 A 
ATOM      2  C   UNL     1       2.426 -18.607 -37.824  1.00  0.00     0.100 A 
ATOM      3  C   UNL     1       1.199 -18.593 -37.159  1.00  0.00     0.197 A 
ATOM      4  O   UNL     1       0.315 -19.407 -37.528  1.00  0.00    -0.289 OA
ATOM      5  C   UNL     1       0.996 -17.702 -36.079  1.00  0.00     0.107 A 
ATOM      6  C   UNL     1      -0.225 -17.571 -35.352  1.00  0.00     0.134 A 
ATOM      7  C   UNL     1      -0.273 -16.740 -34.226  1.00  0.00     0.093 A 
ATOM      8  C   UNL     1       0.836 -15.990 -33.836  1.00  0.00     0.123 A 
ATOM      9  C   UNL     1       2.020 -16.068 -34.572  1.00  0.00     0.094 A 
ATOM     10  C   UNL     1       2.109 -16.915 -35.679  1.00  0.00     0.146 A 
ATOM     11  O   UNL     1       3.258 -16.973 -36.343  1.00  0.00    -0.456 OA
ENDROOT
BRANCH   1  12
ATOM     12  C   UNL     1       4.781 -17.734 -38.067  1.00  0.00     0.021 A 
ATOM     13  C   UNL     1       5.813 -18.617 -37.702  1.00  0.00     0.016 A 
ATOM     14  C   UNL     1       7.044 -18.575 -38.359  1.00  0.00     0.051 A 
ATOM     15  C   UNL     1       7.273 -17.665 -39.396  1.00  0.00     0.157 A 
ATOM     16  C   UNL     1       5.006 -16.828 -39.118  1.00  0.00     0.062 A 
ATOM     17  C   UNL     1       6.239 -16.780 -39.782  1.00  0.00     0.158 A 
BRANCH  15  18
ATOM     18  O   UNL     1       8.527 -17.675 -40.009  1.00  0.00    -0.504 OA
ATOM     19  H   UNL     1       9.132 -18.483 -40.045  1.00  0.00     0.293 HD
ENDBRANCH  15  18
BRANCH  17  20
ATOM     20  O   UNL     1       6.390 -15.847 -40.810  1.00  0.00    -0.504 OA
ATOM     21  H   UNL     1       6.743 -16.072 -41.729  1.00  0.00     0.293 HD
ENDBRANCH  17  20
ENDBRANCH   1  12
BRANCH   6  22
ATOM     22  O   UNL     1      -1.417 -18.210 -35.707  1.00  0.00    -0.507 OA
ATOM     23  H   UNL     1      -1.513 -18.877 -36.457  1.00  0.00     0.293 HD
ENDBRANCH   6  22
BRANCH   8  24
ATOM     24  O   UNL     1       0.747 -15.161 -32.719  1.00  0.00    -0.508 OA
ATOM     25  H   UNL     1       1.238 -15.376 -31.860  1.00  0.00     0.293 HD
ENDBRANCH   8  24
TORSDOF 5
ENDMDL
