MODEL 1
REMARK VINA RESULT:    -4.024      0.000      0.000
REMARK INTER + INTRA:          -4.577
REMARK INTER:                  -4.377
REMARK INTRA:                  -0.200
REMARK UNBOUND:                -0.200
REMARK SMILES Cc1ccc(C(C)C)c(O)c1
REMARK SMILES IDX 1 1 2 2 11 3 9 4 5 5 4 6 3 7 10 8 6 10 7 11 8 12
REMARK H PARENT 10 9
REMARK Flexibility Score: inf
ROOT
ATOM      1  C   UNL     1      27.210 -10.459  45.020  1.00  0.00     0.044 C 
ATOM      2  C   UNL     1      28.616 -10.827  44.649  1.00  0.00    -0.047 A 
ATOM      3  C   UNL     1      29.700 -10.153  45.229  1.00  0.00     0.049 A 
ATOM      4  C   UNL     1      31.016 -10.466  44.860  1.00  0.00     0.119 A 
ATOM      5  C   UNL     1      31.261 -11.460  43.887  1.00  0.00    -0.004 A 
ATOM      6  C   UNL     1      30.164 -12.116  43.296  1.00  0.00     0.008 A 
ATOM      7  C   UNL     1      28.856 -11.798  43.669  1.00  0.00     0.004 A 
ENDROOT
BRANCH   4   8
ATOM      8  O   UNL     1      32.077  -9.787  45.461  1.00  0.00    -0.508 OA
ATOM      9  H   UNL     1      31.989  -8.824  45.763  1.00  0.00     0.293 HD
ENDBRANCH   4   8
BRANCH   5  10
ATOM     10  C   UNL     1      32.681 -11.817  43.469  1.00  0.00     0.017 C 
ATOM     11  C   UNL     1      33.107 -11.024  42.227  1.00  0.00     0.012 C 
ATOM     12  C   UNL     1      32.826 -13.326  43.236  1.00  0.00     0.012 C 
ENDBRANCH   5  10
TORSDOF 2
ENDMDL
MODEL 2
REMARK VINA RESULT:    -3.856      1.159      3.970
REMARK INTER + INTRA:          -4.394
REMARK INTER:                  -4.207
REMARK INTRA:                  -0.187
REMARK UNBOUND:                -0.200
REMARK SMILES Cc1ccc(C(C)C)c(O)c1
REMARK SMILES IDX 1 1 2 2 11 3 9 4 5 5 4 6 3 7 10 8 6 10 7 11 8 12
REMARK H PARENT 10 9
REMARK Flexibility Score: inf
ROOT
ATOM      1  C   UNL     1      32.526 -12.679  41.582  1.00  0.00     0.044 C 
ATOM      2  C   UNL     1      31.691 -12.092  42.682  1.00  0.00    -0.047 A 
ATOM      3  C   UNL     1      32.252 -11.179  43.585  1.00  0.00     0.049 A 
ATOM      4  C   UNL     1      31.489 -10.654  44.638  1.00  0.00     0.119 A 
ATOM      5  C   UNL     1      30.143 -11.053  44.804  1.00  0.00    -0.004 A 
ATOM      6  C   UNL     1      29.596 -11.987  43.902  1.00  0.00     0.008 A 
ATOM      7  C   UNL     1      30.364 -12.504  42.857  1.00  0.00     0.004 A 
ENDROOT
BRANCH   4   8
ATOM      8  O   UNL     1      32.068  -9.739  45.517  1.00  0.00    -0.508 OA
ATOM      9  H   UNL     1      33.017  -9.408  45.391  1.00  0.00     0.293 HD
ENDBRANCH   4   8
BRANCH   5  10
ATOM     10  C   UNL     1      29.294 -10.499  45.939  1.00  0.00     0.017 C 
ATOM     11  C   UNL     1      29.461 -11.335  47.213  1.00  0.00     0.012 C 
ATOM     12  C   UNL     1      27.818 -10.405  45.530  1.00  0.00     0.012 C 
ENDBRANCH   5  10
TORSDOF 2
ENDMDL
MODEL 3
REMARK VINA RESULT:    -3.831      7.653      8.430
REMARK INTER + INTRA:          -4.367
REMARK INTER:                  -4.170
REMARK INTRA:                  -0.197
REMARK UNBOUND:                -0.200
REMARK SMILES Cc1ccc(C(C)C)c(O)c1
REMARK SMILES IDX 1 1 2 2 11 3 9 4 5 5 4 6 3 7 10 8 6 10 7 11 8 12
REMARK H PARENT 10 9
REMARK Flexibility Score: inf
ROOT
ATOM      1  C   UNL     1      30.612  -4.127  39.128  1.00  0.00     0.044 C 
ATOM      2  C   UNL     1      32.017  -4.315  39.620  1.00  0.00    -0.047 A 
ATOM      3  C   UNL     1      32.270  -4.495  40.986  1.00  0.00     0.049 A 
ATOM      4  C   UNL     1      33.583  -4.634  41.458  1.00  0.00     0.119 A 
ATOM      5  C   UNL     1      34.669  -4.582  40.555  1.00  0.00    -0.004 A 
ATOM      6  C   UNL     1      34.404  -4.380  39.187  1.00  0.00     0.008 A 
ATOM      7  C   UNL     1      33.093  -4.242  38.726  1.00  0.00     0.004 A 
ENDROOT
BRANCH   4   8
ATOM      8  O   UNL     1      33.806  -4.822  42.823  1.00  0.00    -0.508 OA
ATOM      9  H   UNL     1      34.189  -5.687  43.185  1.00  0.00     0.293 HD
ENDBRANCH   4   8
BRANCH   5  10
ATOM     10  C   UNL     1      36.103  -4.730  41.043  1.00  0.00     0.017 C 
ATOM     11  C   UNL     1      37.058  -3.853  40.224  1.00  0.00     0.012 C 
ATOM     12  C   UNL     1      36.546  -6.198  41.020  1.00  0.00     0.012 C 
ENDBRANCH   5  10
TORSDOF 2
ENDMDL
MODEL 4
REMARK VINA RESULT:    -3.803      8.062      9.594
REMARK INTER + INTRA:          -4.337
REMARK INTER:                  -4.137
REMARK INTRA:                  -0.200
REMARK UNBOUND:                -0.200
REMARK SMILES Cc1ccc(C(C)C)c(O)c1
REMARK SMILES IDX 1 1 2 2 11 3 9 4 5 5 4 6 3 7 10 8 6 10 7 11 8 12
REMARK H PARENT 10 9
REMARK Flexibility Score: inf
ROOT
ATOM      1  C   UNL     1      31.913  -4.538  41.037  1.00  0.00     0.044 C 
ATOM      2  C   UNL     1      33.361  -4.281  40.742  1.00  0.00    -0.047 A 
ATOM      3  C   UNL     1      34.359  -4.934  41.477  1.00  0.00     0.049 A 
ATOM      4  C   UNL     1      35.715  -4.672  41.233  1.00  0.00     0.119 A 
ATOM      5  C   UNL     1      36.087  -3.732  40.245  1.00  0.00    -0.004 A 
ATOM      6  C   UNL     1      35.075  -3.067  39.527  1.00  0.00     0.008 A 
ATOM      7  C   UNL     1      33.727  -3.334  39.777  1.00  0.00     0.004 A 
ENDROOT
BRANCH   4   8
ATOM      8  O   UNL     1      36.689  -5.343  41.973  1.00  0.00    -0.508 OA
ATOM      9  H   UNL     1      37.599  -4.934  42.149  1.00  0.00     0.293 HD
ENDBRANCH   4   8
BRANCH   5  10
ATOM     10  C   UNL     1      37.552  -3.429  39.962  1.00  0.00     0.017 C 
ATOM     11  C   UNL     1      37.772  -1.928  39.737  1.00  0.00     0.012 C 
ATOM     12  C   UNL     1      38.065  -4.247  38.770  1.00  0.00     0.012 C 
ENDBRANCH   5  10
TORSDOF 2
ENDMDL
MODEL 5
REMARK VINA RESULT:    -3.779      7.778      8.656
REMARK INTER + INTRA:          -4.310
REMARK INTER:                  -4.113
REMARK INTRA:                  -0.197
REMARK UNBOUND:                -0.200
REMARK SMILES Cc1ccc(C(C)C)c(O)c1
REMARK SMILES IDX 1 1 2 2 11 3 9 4 5 5 4 6 3 7 10 8 6 10 7 11 8 12
REMARK H PARENT 10 9
REMARK Flexibility Score: inf
ROOT
ATOM      1  C   UNL     1      36.638  -4.473  40.656  1.00  0.00     0.044 C 
ATOM      2  C   UNL     1      36.635  -5.880  40.135  1.00  0.00    -0.047 A 
ATOM      3  C   UNL     1      36.645  -6.963  41.024  1.00  0.00     0.049 A 
ATOM      4  C   UNL     1      36.680  -8.281  40.546  1.00  0.00     0.119 A 
ATOM      5  C   UNL     1      36.718  -8.528  39.155  1.00  0.00    -0.004 A 
ATOM      6  C   UNL     1      36.729  -7.431  38.271  1.00  0.00     0.008 A 
ATOM      7  C   UNL     1      36.694  -6.122  38.757  1.00  0.00     0.004 A 
ENDROOT
BRANCH   4   8
ATOM      8  O   UNL     1      36.678  -9.341  41.453  1.00  0.00    -0.508 OA
ATOM      9  H   UNL     1      37.474  -9.962  41.547  1.00  0.00     0.293 HD
ENDBRANCH   4   8
BRANCH   5  10
ATOM     10  C   UNL     1      36.757  -9.949  38.611  1.00  0.00     0.017 C 
ATOM     11  C   UNL     1      37.975 -10.159  37.703  1.00  0.00     0.012 C 
ATOM     12  C   UNL     1      35.455 -10.295  37.877  1.00  0.00     0.012 C 
ENDBRANCH   5  10
TORSDOF 2
ENDMDL
MODEL 6
REMARK VINA RESULT:    -3.758      7.334      9.258
REMARK INTER + INTRA:          -4.288
REMARK INTER:                  -4.087
REMARK INTRA:                  -0.200
REMARK UNBOUND:                -0.200
REMARK SMILES Cc1ccc(C(C)C)c(O)c1
REMARK SMILES IDX 1 1 2 2 11 3 9 4 5 5 4 6 3 7 10 8 6 10 7 11 8 12
REMARK H PARENT 10 9
REMARK Flexibility Score: inf
ROOT
ATOM      1  C   UNL     1      38.147 -10.781  36.931  1.00  0.00     0.044 C 
ATOM      2  C   UNL     1      37.636  -9.717  37.856  1.00  0.00    -0.047 A 
ATOM      3  C   UNL     1      37.424 -10.000  39.212  1.00  0.00     0.049 A 
ATOM      4  C   UNL     1      36.912  -9.022  40.076  1.00  0.00     0.119 A 
ATOM      5  C   UNL     1      36.593  -7.737  39.580  1.00  0.00    -0.004 A 
ATOM      6  C   UNL     1      36.791  -7.470  38.212  1.00  0.00     0.008 A 
ATOM      7  C   UNL     1      37.301  -8.451  37.359  1.00  0.00     0.004 A 
ENDROOT
BRANCH   4   8
ATOM      8  O   UNL     1      36.719  -9.328  41.424  1.00  0.00    -0.508 OA
ATOM      9  H   UNL     1      37.478  -9.658  42.008  1.00  0.00     0.293 HD
ENDBRANCH   4   8
BRANCH   5  10
ATOM     10  C   UNL     1      36.035  -6.659  40.497  1.00  0.00     0.017 C 
ATOM     11  C   UNL     1      34.515  -6.531  40.340  1.00  0.00     0.012 C 
ATOM     12  C   UNL     1      36.729  -5.313  40.254  1.00  0.00     0.012 C 
ENDBRANCH   5  10
TORSDOF 2
ENDMDL
MODEL 7
REMARK VINA RESULT:    -3.652      1.748      2.592
REMARK INTER + INTRA:          -4.172
REMARK INTER:                  -3.992
REMARK INTRA:                  -0.180
REMARK UNBOUND:                -0.200
REMARK SMILES Cc1ccc(C(C)C)c(O)c1
REMARK SMILES IDX 1 1 2 2 11 3 9 4 5 5 4 6 3 7 10 8 6 10 7 11 8 12
REMARK H PARENT 10 9
REMARK Flexibility Score: inf
ROOT
ATOM      1  C   UNL     1      29.061  -9.961  47.194  1.00  0.00     0.044 C 
ATOM      2  C   UNL     1      29.853 -10.522  46.050  1.00  0.00    -0.047 A 
ATOM      3  C   UNL     1      29.292 -11.492  45.208  1.00  0.00     0.049 A 
ATOM      4  C   UNL     1      30.039 -12.048  44.160  1.00  0.00     0.119 A 
ATOM      5  C   UNL     1      31.376 -11.641  43.950  1.00  0.00    -0.004 A 
ATOM      6  C   UNL     1      31.936 -10.681  44.815  1.00  0.00     0.008 A 
ATOM      7  C   UNL     1      31.185 -10.133  45.856  1.00  0.00     0.004 A 
ENDROOT
BRANCH   4   8
ATOM      8  O   UNL     1      29.452 -13.005  43.331  1.00  0.00    -0.508 OA
ATOM      9  H   UNL     1      29.917 -13.879  43.115  1.00  0.00     0.293 HD
ENDBRANCH   4   8
BRANCH   5  10
ATOM     10  C   UNL     1      32.207 -12.231  42.820  1.00  0.00     0.017 C 
ATOM     11  C   UNL     1      32.873 -13.544  43.250  1.00  0.00     0.012 C 
ATOM     12  C   UNL     1      33.248 -11.224  42.316  1.00  0.00     0.012 C 
ENDBRANCH   5  10
TORSDOF 2
ENDMDL
MODEL 8
REMARK VINA RESULT:    -3.595      8.633     10.420
REMARK INTER + INTRA:          -4.110
REMARK INTER:                  -3.911
REMARK INTRA:                  -0.199
REMARK UNBOUND:                -0.200
REMARK SMILES Cc1ccc(C(C)C)c(O)c1
REMARK SMILES IDX 1 1 2 2 11 3 9 4 5 5 4 6 3 7 10 8 6 10 7 11 8 12
REMARK H PARENT 10 9
REMARK Flexibility Score: inf
ROOT
ATOM      1  C   UNL     1      33.686  -4.868  42.022  1.00  0.00     0.044 C 
ATOM      2  C   UNL     1      34.822  -4.505  41.110  1.00  0.00    -0.047 A 
ATOM      3  C   UNL     1      34.715  -3.402  40.253  1.00  0.00     0.049 A 
ATOM      4  C   UNL     1      35.756  -3.078  39.372  1.00  0.00     0.119 A 
ATOM      5  C   UNL     1      36.924  -3.873  39.333  1.00  0.00    -0.004 A 
ATOM      6  C   UNL     1      37.011  -4.992  40.185  1.00  0.00     0.008 A 
ATOM      7  C   UNL     1      35.969  -5.307  41.059  1.00  0.00     0.004 A 
ENDROOT
BRANCH   4   8
ATOM      8  O   UNL     1      35.629  -1.968  38.535  1.00  0.00    -0.508 OA
ATOM      9  H   UNL     1      36.136  -1.900  37.661  1.00  0.00     0.293 HD
ENDBRANCH   4   8
BRANCH   5  10
ATOM     10  C   UNL     1      38.068  -3.543  38.385  1.00  0.00     0.017 C 
ATOM     11  C   UNL     1      38.530  -4.790  37.621  1.00  0.00     0.012 C 
ATOM     12  C   UNL     1      39.236  -2.891  39.135  1.00  0.00     0.012 C 
ENDBRANCH   5  10
TORSDOF 2
ENDMDL
MODEL 9
REMARK VINA RESULT:    -3.556      6.637      7.737
REMARK INTER + INTRA:          -4.068
REMARK INTER:                  -3.867
REMARK INTRA:                  -0.200
REMARK UNBOUND:                -0.200
REMARK SMILES Cc1ccc(C(C)C)c(O)c1
REMARK SMILES IDX 1 1 2 2 11 3 9 4 5 5 4 6 3 7 10 8 6 10 7 11 8 12
REMARK H PARENT 10 9
REMARK Flexibility Score: inf
ROOT
ATOM      1  C   UNL     1      31.387  -7.416  39.066  1.00  0.00     0.044 C 
ATOM      2  C   UNL     1      32.603  -6.763  39.656  1.00  0.00    -0.047 A 
ATOM      3  C   UNL     1      32.484  -5.925  40.773  1.00  0.00     0.049 A 
ATOM      4  C   UNL     1      33.609  -5.282  41.307  1.00  0.00     0.119 A 
ATOM      5  C   UNL     1      34.878  -5.464  40.712  1.00  0.00    -0.004 A 
ATOM      6  C   UNL     1      34.982  -6.291  39.576  1.00  0.00     0.008 A 
ATOM      7  C   UNL     1      33.855  -6.928  39.051  1.00  0.00     0.004 A 
ENDROOT
BRANCH   4   8
ATOM      8  O   UNL     1      33.465  -4.461  42.427  1.00  0.00    -0.508 OA
ATOM      9  H   UNL     1      34.238  -3.918  42.791  1.00  0.00     0.293 HD
ENDBRANCH   4   8
BRANCH   5  10
ATOM     10  C   UNL     1      36.114  -4.776  41.272  1.00  0.00     0.017 C 
ATOM     11  C   UNL     1      36.985  -4.203  40.147  1.00  0.00     0.012 C 
ATOM     12  C   UNL     1      36.921  -5.728  42.164  1.00  0.00     0.012 C 
ENDBRANCH   5  10
TORSDOF 2
ENDMDL
