MODEL 1
REMARK VINA RESULT:    -5.140      0.000      0.000
REMARK INTER + INTRA:         -11.749
REMARK INTER:                  -9.347
REMARK INTRA:                  -2.402
REMARK UNBOUND:                -2.402
REMARK SMILES CCCCCCCCCCCCCCCC(=O)[O-]
REMARK SMILES IDX 9 1 10 2 11 3 12 4 13 5 14 6 15 7 16 8 17 9 18 10 8 11 7 12
REMARK SMILES IDX 6 13 5 14 4 15 3 16 2 17 1 18
REMARK H PARENT
REMARK Flexibility Score: inf
ROOT
ATOM      1  C   UNL     1      64.108   3.255  19.021  1.00  0.00     0.000 C 
ENDROOT
BRANCH   1   2
ATOM      2  C   UNL     1      65.336   3.899  19.684  1.00  0.00     0.000 C 
BRANCH   2   3
ATOM      3  C   UNL     1      65.178   5.414  19.877  1.00  0.00     0.000 C 
BRANCH   3   4
ATOM      4  C   UNL     1      65.867   5.877  21.167  1.00  0.00     0.000 C 
BRANCH   4   5
ATOM      5  C   UNL     1      66.358   4.679  21.990  1.00  0.00     0.000 C 
BRANCH   5   6
ATOM      6  C   UNL     1      66.253   4.966  23.495  1.00  0.00     0.006 C 
BRANCH   6   7
ATOM      7  C   UNL     1      67.145   4.034  24.327  1.00  0.00     0.053 C 
BRANCH   7   8
ATOM      8  C   UNL     1      67.815   4.764  25.451  1.00  0.00     0.041 C 
ATOM      9  O   UNL     1      67.156   5.101  26.469  1.00  0.00    -0.550 OA
ATOM     10  O   UNL     1      69.176   5.041  25.389  1.00  0.00    -0.550 OA
ENDBRANCH   7   8
ENDBRANCH   6   7
ENDBRANCH   5   6
ENDBRANCH   4   5
ENDBRANCH   3   4
ENDBRANCH   2   3
ENDBRANCH   1   2
BRANCH   1  11
ATOM     11  C   UNL     1      63.790   1.862  19.585  1.00  0.00     0.000 C 
BRANCH  11  12
ATOM     12  C   UNL     1      62.277   1.620  19.629  1.00  0.00    -0.000 C 
BRANCH  12  13
ATOM     13  C   UNL     1      61.508   2.949  19.661  1.00  0.00    -0.000 C 
BRANCH  13  14
ATOM     14  C   UNL     1      60.893   3.245  21.038  1.00  0.00    -0.000 C 
BRANCH  14  15
ATOM     15  C   UNL     1      61.417   4.552  21.654  1.00  0.00    -0.000 C 
BRANCH  15  16
ATOM     16  C   UNL     1      62.658   4.290  22.521  1.00  0.00    -0.000 C 
BRANCH  16  17
ATOM     17  C   UNL     1      62.577   2.956  23.279  1.00  0.00    -0.003 C 
ATOM     18  C   UNL     1      63.924   2.241  23.362  1.00  0.00     0.004 C 
ENDBRANCH  16  17
ENDBRANCH  15  16
ENDBRANCH  14  15
ENDBRANCH  13  14
ENDBRANCH  12  13
ENDBRANCH  11  12
ENDBRANCH   1  11
TORSDOF 14
ENDMDL
MODEL 2
REMARK VINA RESULT:    -5.095      1.893      4.290
REMARK INTER + INTRA:         -11.667
REMARK INTER:                  -9.563
REMARK INTRA:                  -2.105
REMARK UNBOUND:                -2.402
REMARK SMILES CCCCCCCCCCCCCCCC(=O)[O-]
REMARK SMILES IDX 9 1 10 2 11 3 12 4 13 5 14 6 15 7 16 8 17 9 18 10 8 11 7 12
REMARK SMILES IDX 6 13 5 14 4 15 3 16 2 17 1 18
REMARK H PARENT
REMARK Flexibility Score: inf
ROOT
ATOM      1  C   UNL     1      61.419   3.613  20.821  1.00  0.00     0.000 C 
ENDROOT
BRANCH   1   2
ATOM      2  C   UNL     1      62.057   3.147  19.503  1.00  0.00     0.000 C 
BRANCH   2   3
ATOM      3  C   UNL     1      62.873   1.856  19.664  1.00  0.00     0.000 C 
BRANCH   3   4
ATOM      4  C   UNL     1      64.326   2.067  19.219  1.00  0.00     0.000 C 
BRANCH   4   5
ATOM      5  C   UNL     1      64.631   3.557  19.024  1.00  0.00     0.000 C 
BRANCH   5   6
ATOM      6  C   UNL     1      65.776   4.009  19.942  1.00  0.00     0.006 C 
BRANCH   6   7
ATOM      7  C   UNL     1      65.561   5.430  20.483  1.00  0.00     0.053 C 
BRANCH   7   8
ATOM      8  C   UNL     1      66.845   6.049  20.946  1.00  0.00     0.041 C 
ATOM      9  O   UNL     1      66.878   7.262  21.278  1.00  0.00    -0.550 OA
ATOM     10  O   UNL     1      67.995   5.276  21.043  1.00  0.00    -0.550 OA
ENDBRANCH   7   8
ENDBRANCH   6   7
ENDBRANCH   5   6
ENDBRANCH   4   5
ENDBRANCH   3   4
ENDBRANCH   2   3
ENDBRANCH   1   2
BRANCH   1  11
ATOM     11  C   UNL     1      61.468   2.537  21.917  1.00  0.00     0.000 C 
BRANCH  11  12
ATOM     12  C   UNL     1      62.093   3.091  23.203  1.00  0.00    -0.000 C 
BRANCH  12  13
ATOM     13  C   UNL     1      63.545   3.530  22.963  1.00  0.00    -0.000 C 
BRANCH  13  14
ATOM     14  C   UNL     1      64.537   2.357  23.028  1.00  0.00    -0.000 C 
BRANCH  14  15
ATOM     15  C   UNL     1      65.532   2.487  24.192  1.00  0.00    -0.000 C 
BRANCH  15  16
ATOM     16  C   UNL     1      66.549   3.606  23.922  1.00  0.00    -0.000 C 
BRANCH  16  17
ATOM     17  C   UNL     1      66.332   4.831  24.823  1.00  0.00    -0.003 C 
ATOM     18  C   UNL     1      67.207   4.807  26.075  1.00  0.00     0.004 C 
ENDBRANCH  16  17
ENDBRANCH  15  16
ENDBRANCH  14  15
ENDBRANCH  13  14
ENDBRANCH  12  13
ENDBRANCH  11  12
ENDBRANCH   1  11
TORSDOF 14
ENDMDL
MODEL 3
REMARK VINA RESULT:    -5.020      3.139      3.736
REMARK INTER + INTRA:         -11.531
REMARK INTER:                  -9.300
REMARK INTRA:                  -2.231
REMARK UNBOUND:                -2.402
REMARK SMILES CCCCCCCCCCCCCCCC(=O)[O-]
REMARK SMILES IDX 9 1 10 2 11 3 12 4 13 5 14 6 15 7 16 8 17 9 18 10 8 11 7 12
REMARK SMILES IDX 6 13 5 14 4 15 3 16 2 17 1 18
REMARK H PARENT
REMARK Flexibility Score: inf
ROOT
ATOM      1  C   UNL     1      63.942   2.287  19.542  1.00  0.00     0.000 C 
ENDROOT
BRANCH   1   2
ATOM      2  C   UNL     1      63.771   3.654  18.861  1.00  0.00     0.000 C 
BRANCH   2   3
ATOM      3  C   UNL     1      65.061   4.488  18.877  1.00  0.00     0.000 C 
BRANCH   3   4
ATOM      4  C   UNL     1      66.057   3.939  19.906  1.00  0.00     0.000 C 
BRANCH   4   5
ATOM      5  C   UNL     1      66.717   5.076  20.695  1.00  0.00     0.000 C 
BRANCH   5   6
ATOM      6  C   UNL     1      65.787   6.295  20.785  1.00  0.00     0.006 C 
BRANCH   6   7
ATOM      7  C   UNL     1      66.556   7.620  20.705  1.00  0.00     0.053 C 
BRANCH   7   8
ATOM      8  C   UNL     1      66.035   8.502  19.612  1.00  0.00     0.041 C 
ATOM      9  O   UNL     1      64.948   8.226  19.041  1.00  0.00    -0.550 OA
ATOM     10  O   UNL     1      66.734   9.646  19.247  1.00  0.00    -0.550 OA
ENDBRANCH   7   8
ENDBRANCH   6   7
ENDBRANCH   5   6
ENDBRANCH   4   5
ENDBRANCH   3   4
ENDBRANCH   2   3
ENDBRANCH   1   2
BRANCH   1  11
ATOM     11  C   UNL     1      62.600   1.618  19.876  1.00  0.00     0.000 C 
BRANCH  11  12
ATOM     12  C   UNL     1      61.429   2.564  19.590  1.00  0.00    -0.000 C 
BRANCH  12  13
ATOM     13  C   UNL     1      61.055   3.372  20.841  1.00  0.00    -0.000 C 
BRANCH  13  14
ATOM     14  C   UNL     1      60.968   2.501  22.105  1.00  0.00    -0.000 C 
BRANCH  14  15
ATOM     15  C   UNL     1      61.853   3.024  23.248  1.00  0.00    -0.000 C 
BRANCH  15  16
ATOM     16  C   UNL     1      62.818   4.108  22.741  1.00  0.00    -0.000 C 
BRANCH  16  17
ATOM     17  C   UNL     1      64.274   3.838  23.149  1.00  0.00    -0.003 C 
ATOM     18  C   UNL     1      64.602   2.347  23.219  1.00  0.00     0.004 C 
ENDBRANCH  16  17
ENDBRANCH  15  16
ENDBRANCH  14  15
ENDBRANCH  13  14
ENDBRANCH  12  13
ENDBRANCH  11  12
ENDBRANCH   1  11
TORSDOF 14
ENDMDL
MODEL 4
REMARK VINA RESULT:    -4.998      2.219      4.981
REMARK INTER + INTRA:         -11.491
REMARK INTER:                  -9.664
REMARK INTRA:                  -1.827
REMARK UNBOUND:                -2.402
REMARK SMILES CCCCCCCCCCCCCCCC(=O)[O-]
REMARK SMILES IDX 9 1 10 2 11 3 12 4 13 5 14 6 15 7 16 8 17 9 18 10 8 11 7 12
REMARK SMILES IDX 6 13 5 14 4 15 3 16 2 17 1 18
REMARK H PARENT
REMARK Flexibility Score: inf
ROOT
ATOM      1  C   UNL     1      63.629   1.801  19.442  1.00  0.00     0.000 C 
ENDROOT
BRANCH   1   2
ATOM      2  C   UNL     1      62.119   1.594  19.638  1.00  0.00     0.000 C 
BRANCH   2   3
ATOM      3  C   UNL     1      61.351   2.918  19.768  1.00  0.00     0.000 C 
BRANCH   3   4
ATOM      4  C   UNL     1      61.000   3.206  21.233  1.00  0.00     0.000 C 
BRANCH   4   5
ATOM      5  C   UNL     1      61.725   4.460  21.736  1.00  0.00     0.000 C 
BRANCH   5   6
ATOM      6  C   UNL     1      62.553   4.150  22.992  1.00  0.00     0.006 C 
BRANCH   6   7
ATOM      7  C   UNL     1      62.948   2.669  23.076  1.00  0.00     0.053 C 
BRANCH   7   8
ATOM      8  C   UNL     1      64.434   2.492  23.153  1.00  0.00     0.041 C 
ATOM      9  O   UNL     1      64.965   1.420  22.763  1.00  0.00    -0.550 OA
ATOM     10  O   UNL     1      65.234   3.526  23.623  1.00  0.00    -0.550 OA
ENDBRANCH   7   8
ENDBRANCH   6   7
ENDBRANCH   5   6
ENDBRANCH   4   5
ENDBRANCH   3   4
ENDBRANCH   2   3
ENDBRANCH   1   2
BRANCH   1  11
ATOM     11  C   UNL     1      63.989   3.257  19.106  1.00  0.00     0.000 C 
BRANCH  11  12
ATOM     12  C   UNL     1      65.501   3.416  18.909  1.00  0.00    -0.000 C 
BRANCH  12  13
ATOM     13  C   UNL     1      66.142   4.118  20.116  1.00  0.00    -0.000 C 
BRANCH  13  14
ATOM     14  C   UNL     1      65.300   5.296  20.632  1.00  0.00    -0.000 C 
BRANCH  14  15
ATOM     15  C   UNL     1      66.071   6.626  20.619  1.00  0.00    -0.000 C 
BRANCH  15  16
ATOM     16  C   UNL     1      65.382   7.650  19.705  1.00  0.00    -0.000 C 
BRANCH  16  17
ATOM     17  C   UNL     1      65.242   9.030  20.366  1.00  0.00    -0.003 C 
ATOM     18  C   UNL     1      64.417  10.006  19.527  1.00  0.00     0.004 C 
ENDBRANCH  16  17
ENDBRANCH  15  16
ENDBRANCH  14  15
ENDBRANCH  13  14
ENDBRANCH  12  13
ENDBRANCH  11  12
ENDBRANCH   1  11
TORSDOF 14
ENDMDL
MODEL 5
REMARK VINA RESULT:    -4.984      1.344      3.298
REMARK INTER + INTRA:         -11.465
REMARK INTER:                  -9.692
REMARK INTRA:                  -1.773
REMARK UNBOUND:                -2.402
REMARK SMILES CCCCCCCCCCCCCCCC(=O)[O-]
REMARK SMILES IDX 9 1 10 2 11 3 12 4 13 5 14 6 15 7 16 8 17 9 18 10 8 11 7 12
REMARK SMILES IDX 6 13 5 14 4 15 3 16 2 17 1 18
REMARK H PARENT
REMARK Flexibility Score: inf
ROOT
ATOM      1  C   UNL     1      63.941   3.820  22.938  1.00  0.00     0.000 C 
ENDROOT
BRANCH   1   2
ATOM      2  C   UNL     1      64.329   2.357  23.204  1.00  0.00     0.000 C 
BRANCH   2   3
ATOM      3  C   UNL     1      65.827   2.186  23.496  1.00  0.00     0.000 C 
BRANCH   3   4
ATOM      4  C   UNL     1      66.635   3.354  22.916  1.00  0.00     0.000 C 
BRANCH   4   5
ATOM      5  C   UNL     1      68.141   3.117  23.081  1.00  0.00     0.000 C 
BRANCH   5   6
ATOM      6  C   UNL     1      68.801   4.280  23.837  1.00  0.00     0.006 C 
BRANCH   6   7
ATOM      7  C   UNL     1      67.775   5.146  24.582  1.00  0.00     0.053 C 
BRANCH   7   8
ATOM      8  C   UNL     1      67.749   4.841  26.048  1.00  0.00     0.041 C 
ATOM      9  O   UNL     1      66.682   4.464  26.598  1.00  0.00    -0.550 OA
ATOM     10  O   UNL     1      68.913   4.942  26.801  1.00  0.00    -0.550 OA
ENDBRANCH   7   8
ENDBRANCH   6   7
ENDBRANCH   5   6
ENDBRANCH   4   5
ENDBRANCH   3   4
ENDBRANCH   2   3
ENDBRANCH   1   2
BRANCH   1  11
ATOM     11  C   UNL     1      62.450   4.094  23.190  1.00  0.00     0.000 C 
BRANCH  11  12
ATOM     12  C   UNL     1      61.582   2.957  22.639  1.00  0.00    -0.000 C 
BRANCH  12  13
ATOM     13  C   UNL     1      61.019   3.315  21.256  1.00  0.00    -0.000 C 
BRANCH  13  14
ATOM     14  C   UNL     1      61.480   2.344  20.158  1.00  0.00    -0.000 C 
BRANCH  14  15
ATOM     15  C   UNL     1      62.606   2.924  19.287  1.00  0.00    -0.000 C 
BRANCH  15  16
ATOM     16  C   UNL     1      63.908   2.132  19.476  1.00  0.00    -0.000 C 
BRANCH  16  17
ATOM     17  C   UNL     1      65.154   3.030  19.450  1.00  0.00    -0.003 C 
ATOM     18  C   UNL     1      65.044   4.165  18.432  1.00  0.00     0.004 C 
ENDBRANCH  16  17
ENDBRANCH  15  16
ENDBRANCH  14  15
ENDBRANCH  13  14
ENDBRANCH  12  13
ENDBRANCH  11  12
ENDBRANCH   1  11
TORSDOF 14
ENDMDL
MODEL 6
REMARK VINA RESULT:    -4.919      1.868      3.616
REMARK INTER + INTRA:         -11.346
REMARK INTER:                  -9.465
REMARK INTRA:                  -1.882
REMARK UNBOUND:                -2.402
REMARK SMILES CCCCCCCCCCCCCCCC(=O)[O-]
REMARK SMILES IDX 9 1 10 2 11 3 12 4 13 5 14 6 15 7 16 8 17 9 18 10 8 11 7 12
REMARK SMILES IDX 6 13 5 14 4 15 3 16 2 17 1 18
REMARK H PARENT
REMARK Flexibility Score: inf
ROOT
ATOM      1  C   UNL     1      63.304   3.877  22.745  1.00  0.00     0.000 C 
ENDROOT
BRANCH   1   2
ATOM      2  C   UNL     1      64.585   4.696  22.526  1.00  0.00     0.000 C 
BRANCH   2   3
ATOM      3  C   UNL     1      65.858   3.841  22.618  1.00  0.00     0.000 C 
BRANCH   3   4
ATOM      4  C   UNL     1      66.102   3.375  24.059  1.00  0.00     0.000 C 
BRANCH   4   5
ATOM      5  C   UNL     1      66.565   4.539  24.943  1.00  0.00     0.000 C 
BRANCH   5   6
ATOM      6  C   UNL     1      67.606   5.402  24.215  1.00  0.00     0.006 C 
BRANCH   6   7
ATOM      7  C   UNL     1      69.022   4.819  24.322  1.00  0.00     0.053 C 
BRANCH   7   8
ATOM      8  C   UNL     1      69.557   4.406  22.985  1.00  0.00     0.041 C 
ATOM      9  O   UNL     1      69.285   5.081  21.959  1.00  0.00    -0.550 OA
ATOM     10  O   UNL     1      70.383   3.293  22.880  1.00  0.00    -0.550 OA
ENDBRANCH   7   8
ENDBRANCH   6   7
ENDBRANCH   5   6
ENDBRANCH   4   5
ENDBRANCH   3   4
ENDBRANCH   2   3
ENDBRANCH   1   2
BRANCH   1  11
ATOM     11  C   UNL     1      62.086   4.474  22.024  1.00  0.00     0.000 C 
BRANCH  11  12
ATOM     12  C   UNL     1      61.432   3.438  21.102  1.00  0.00    -0.000 C 
BRANCH  12  13
ATOM     13  C   UNL     1      62.250   2.138  21.067  1.00  0.00    -0.000 C 
BRANCH  13  14
ATOM     14  C   UNL     1      62.161   1.418  19.712  1.00  0.00    -0.000 C 
BRANCH  14  15
ATOM     15  C   UNL     1      63.542   1.126  19.104  1.00  0.00    -0.000 C 
BRANCH  15  16
ATOM     16  C   UNL     1      64.630   1.967  19.788  1.00  0.00    -0.000 C 
BRANCH  16  17
ATOM     17  C   UNL     1      65.355   2.903  18.808  1.00  0.00    -0.003 C 
ATOM     18  C   UNL     1      64.669   4.262  18.671  1.00  0.00     0.004 C 
ENDBRANCH  16  17
ENDBRANCH  15  16
ENDBRANCH  14  15
ENDBRANCH  13  14
ENDBRANCH  12  13
ENDBRANCH  11  12
ENDBRANCH   1  11
TORSDOF 14
ENDMDL
MODEL 7
REMARK VINA RESULT:    -4.907     11.139     13.431
REMARK INTER + INTRA:         -11.325
REMARK INTER:                  -9.392
REMARK INTRA:                  -1.933
REMARK UNBOUND:                -2.402
REMARK SMILES CCCCCCCCCCCCCCCC(=O)[O-]
REMARK SMILES IDX 9 1 10 2 11 3 12 4 13 5 14 6 15 7 16 8 17 9 18 10 8 11 7 12
REMARK SMILES IDX 6 13 5 14 4 15 3 16 2 17 1 18
REMARK H PARENT
REMARK Flexibility Score: inf
ROOT
ATOM      1  C   UNL     1      74.780   7.748  21.638  1.00  0.00     0.000 C 
ENDROOT
BRANCH   1   2
ATOM      2  C   UNL     1      75.470   6.573  20.928  1.00  0.00     0.000 C 
BRANCH   2   3
ATOM      3  C   UNL     1      74.684   5.260  21.056  1.00  0.00     0.000 C 
BRANCH   3   4
ATOM      4  C   UNL     1      75.373   4.302  22.037  1.00  0.00     0.000 C 
BRANCH   4   5
ATOM      5  C   UNL     1      75.956   3.088  21.303  1.00  0.00     0.000 C 
BRANCH   5   6
ATOM      6  C   UNL     1      77.452   2.925  21.611  1.00  0.00     0.006 C 
BRANCH   6   7
ATOM      7  C   UNL     1      77.915   3.848  22.747  1.00  0.00     0.053 C 
BRANCH   7   8
ATOM      8  C   UNL     1      78.975   4.803  22.291  1.00  0.00     0.041 C 
ATOM      9  O   UNL     1      79.607   5.496  23.131  1.00  0.00    -0.550 OA
ATOM     10  O   UNL     1      79.288   4.904  20.941  1.00  0.00    -0.550 OA
ENDBRANCH   7   8
ENDBRANCH   6   7
ENDBRANCH   5   6
ENDBRANCH   4   5
ENDBRANCH   3   4
ENDBRANCH   2   3
ENDBRANCH   1   2
BRANCH   1  11
ATOM     11  C   UNL     1      75.747   8.572  22.500  1.00  0.00     0.000 C 
BRANCH  11  12
ATOM     12  C   UNL     1      76.799   7.672  23.158  1.00  0.00    -0.000 C 
BRANCH  12  13
ATOM     13  C   UNL     1      76.254   7.042  24.449  1.00  0.00    -0.000 C 
BRANCH  13  14
ATOM     14  C   UNL     1      75.678   8.085  25.420  1.00  0.00    -0.000 C 
BRANCH  14  15
ATOM     15  C   UNL     1      76.573   8.307  26.650  1.00  0.00    -0.000 C 
BRANCH  15  16
ATOM     16  C   UNL     1      77.411   9.585  26.493  1.00  0.00    -0.000 C 
BRANCH  16  17
ATOM     17  C   UNL     1      76.764  10.602  25.541  1.00  0.00    -0.003 C 
ATOM     18  C   UNL     1      77.722  11.085  24.452  1.00  0.00     0.004 C 
ENDBRANCH  16  17
ENDBRANCH  15  16
ENDBRANCH  14  15
ENDBRANCH  13  14
ENDBRANCH  12  13
ENDBRANCH  11  12
ENDBRANCH   1  11
TORSDOF 14
ENDMDL
MODEL 8
REMARK VINA RESULT:    -4.895     10.081     13.164
REMARK INTER + INTRA:         -11.303
REMARK INTER:                  -8.964
REMARK INTRA:                  -2.339
REMARK UNBOUND:                -2.402
REMARK SMILES CCCCCCCCCCCCCCCC(=O)[O-]
REMARK SMILES IDX 9 1 10 2 11 3 12 4 13 5 14 6 15 7 16 8 17 9 18 10 8 11 7 12
REMARK SMILES IDX 6 13 5 14 4 15 3 16 2 17 1 18
REMARK H PARENT
REMARK Flexibility Score: inf
ROOT
ATOM      1  C   UNL     1      78.215   6.196  20.791  1.00  0.00     0.000 C 
ENDROOT
BRANCH   1   2
ATOM      2  C   UNL     1      78.012   6.993  22.090  1.00  0.00     0.000 C 
BRANCH   2   3
ATOM      3  C   UNL     1      76.542   7.364  22.333  1.00  0.00     0.000 C 
BRANCH   3   4
ATOM      4  C   UNL     1      76.030   6.745  23.640  1.00  0.00     0.000 C 
BRANCH   4   5
ATOM      5  C   UNL     1      77.129   6.728  24.709  1.00  0.00     0.000 C 
BRANCH   5   6
ATOM      6  C   UNL     1      76.806   7.711  25.845  1.00  0.00     0.006 C 
BRANCH   6   7
ATOM      7  C   UNL     1      77.922   8.743  26.056  1.00  0.00     0.053 C 
BRANCH   7   8
ATOM      8  C   UNL     1      78.183   9.541  24.815  1.00  0.00     0.041 C 
ATOM      9  O   UNL     1      77.285  10.281  24.338  1.00  0.00    -0.550 OA
ATOM     10  O   UNL     1      79.432   9.493  24.206  1.00  0.00    -0.550 OA
ENDBRANCH   7   8
ENDBRANCH   6   7
ENDBRANCH   5   6
ENDBRANCH   4   5
ENDBRANCH   3   4
ENDBRANCH   2   3
ENDBRANCH   1   2
BRANCH   1  11
ATOM     11  C   UNL     1      79.265   5.084  20.935  1.00  0.00     0.000 C 
BRANCH  11  12
ATOM     12  C   UNL     1      79.185   4.428  22.318  1.00  0.00    -0.000 C 
BRANCH  12  13
ATOM     13  C   UNL     1      78.405   3.106  22.255  1.00  0.00    -0.000 C 
BRANCH  13  14
ATOM     14  C   UNL     1      76.988   3.225  22.840  1.00  0.00    -0.000 C 
BRANCH  14  15
ATOM     15  C   UNL     1      75.897   2.820  21.837  1.00  0.00    -0.000 C 
BRANCH  15  16
ATOM     16  C   UNL     1      75.270   4.058  21.180  1.00  0.00    -0.000 C 
BRANCH  16  17
ATOM     17  C   UNL     1      73.784   4.227  21.535  1.00  0.00    -0.003 C 
ATOM     18  C   UNL     1      73.185   2.977  22.179  1.00  0.00     0.004 C 
ENDBRANCH  16  17
ENDBRANCH  15  16
ENDBRANCH  14  15
ENDBRANCH  13  14
ENDBRANCH  12  13
ENDBRANCH  11  12
ENDBRANCH   1  11
TORSDOF 14
ENDMDL
MODEL 9
REMARK VINA RESULT:    -4.869     11.343     14.341
REMARK INTER + INTRA:         -11.255
REMARK INTER:                  -8.496
REMARK INTRA:                  -2.760
REMARK UNBOUND:                -2.402
REMARK SMILES CCCCCCCCCCCCCCCC(=O)[O-]
REMARK SMILES IDX 9 1 10 2 11 3 12 4 13 5 14 6 15 7 16 8 17 9 18 10 8 11 7 12
REMARK SMILES IDX 6 13 5 14 4 15 3 16 2 17 1 18
REMARK H PARENT
REMARK Flexibility Score: inf
ROOT
ATOM      1  C   UNL     1      75.591   8.596  25.497  1.00  0.00     0.000 C 
ENDROOT
BRANCH   1   2
ATOM      2  C   UNL     1      74.827   8.107  24.257  1.00  0.00     0.000 C 
BRANCH   2   3
ATOM      3  C   UNL     1      75.112   8.959  23.012  1.00  0.00     0.000 C 
BRANCH   3   4
ATOM      4  C   UNL     1      75.508   8.076  21.822  1.00  0.00     0.000 C 
BRANCH   4   5
ATOM      5  C   UNL     1      74.807   6.713  21.890  1.00  0.00     0.000 C 
BRANCH   5   6
ATOM      6  C   UNL     1      75.772   5.580  21.512  1.00  0.00     0.006 C 
BRANCH   6   7
ATOM      7  C   UNL     1      77.131   6.108  21.035  1.00  0.00     0.053 C 
BRANCH   7   8
ATOM      8  C   UNL     1      78.245   5.164  21.371  1.00  0.00     0.041 C 
ATOM      9  O   UNL     1      79.297   5.154  20.681  1.00  0.00    -0.550 OA
ATOM     10  O   UNL     1      78.134   4.319  22.469  1.00  0.00    -0.550 OA
ENDBRANCH   7   8
ENDBRANCH   6   7
ENDBRANCH   5   6
ENDBRANCH   4   5
ENDBRANCH   3   4
ENDBRANCH   2   3
ENDBRANCH   1   2
BRANCH   1  11
ATOM     11  C   UNL     1      76.619   7.572  26.003  1.00  0.00     0.000 C 
BRANCH  11  12
ATOM     12  C   UNL     1      77.268   6.822  24.835  1.00  0.00    -0.000 C 
BRANCH  12  13
ATOM     13  C   UNL     1      78.719   7.282  24.625  1.00  0.00    -0.000 C 
BRANCH  13  14
ATOM     14  C   UNL     1      78.865   8.266  23.454  1.00  0.00    -0.000 C 
BRANCH  14  15
ATOM     15  C   UNL     1      78.827   9.734  23.905  1.00  0.00    -0.000 C 
BRANCH  15  16
ATOM     16  C   UNL     1      79.454   9.896  25.298  1.00  0.00    -0.000 C 
BRANCH  16  17
ATOM     17  C   UNL     1      78.624  10.804  26.217  1.00  0.00    -0.003 C 
ATOM     18  C   UNL     1      77.514  11.544  25.472  1.00  0.00     0.004 C 
ENDBRANCH  16  17
ENDBRANCH  15  16
ENDBRANCH  14  15
ENDBRANCH  13  14
ENDBRANCH  12  13
ENDBRANCH  11  12
ENDBRANCH   1  11
TORSDOF 14
ENDMDL
