MODEL 1
REMARK VINA RESULT:    -6.535      0.000      0.000
REMARK INTER + INTRA:          -6.535
REMARK INTER:                  -6.535
REMARK INTRA:                   0.000
REMARK UNBOUND:                 0.000
REMARK SMILES C=C1CCC[C@]2(C)CC(=O)C(=C(C)C)C[C@H]12
REMARK SMILES IDX 13 1 12 2 11 3 15 4 16 5 2 6 1 7 3 8 4 9 5 10 6 11 8 12 9 13
REMARK SMILES IDX 10 14 7 15 14 16
REMARK H PARENT
REMARK Flexibility Score: inf
ROOT
ATOM      1  C   UNL     1      -5.375  15.201 -32.098  1.00  0.00     0.039 C 
ATOM      2  C   UNL     1      -5.519  14.831 -30.640  1.00  0.00    -0.070 C 
ATOM      3  C   UNL     1      -4.671  13.935 -30.060  1.00  0.00    -0.006 C 
ATOM      4  C   UNL     1      -3.572  13.247 -30.852  1.00  0.00     0.047 C 
ATOM      5  C   UNL     1      -2.446  12.764 -29.915  1.00  0.00     0.025 C 
ATOM      6  C   UNL     1      -1.264  12.251 -30.727  1.00  0.00    -0.073 C 
ATOM      7  C   UNL     1      -0.270  13.083 -31.084  1.00  0.00     0.008 C 
ATOM      8  C   UNL     1      -1.282  10.831 -31.231  1.00  0.00     0.031 C 
ATOM      9  C   UNL     1      -1.628   9.875 -30.091  1.00  0.00     0.005 C 
ATOM     10  C   UNL     1      -2.956  10.270 -29.436  1.00  0.00     0.008 C 
ATOM     11  C   UNL     1      -2.953  11.718 -28.847  1.00  0.00    -0.018 C 
ATOM     12  C   UNL     1      -4.409  12.041 -28.354  1.00  0.00     0.088 C 
ATOM     13  C   UNL     1      -4.838  13.444 -28.667  1.00  0.00     0.159 C 
ATOM     14  O   UNL     1      -5.323  14.167 -27.754  1.00  0.00    -0.295 OA
ATOM     15  C   UNL     1      -2.006  11.775 -27.620  1.00  0.00     0.012 C 
ATOM     16  C   UNL     1      -6.673  15.439 -29.878  1.00  0.00     0.039 C 
ENDROOT
TORSDOF 0
ENDMDL
MODEL 2
REMARK VINA RESULT:    -4.955      1.820      2.294
REMARK INTER + INTRA:          -4.955
REMARK INTER:                  -4.955
REMARK INTRA:                   0.000
REMARK UNBOUND:                 0.000
REMARK SMILES C=C1CCC[C@]2(C)CC(=O)C(=C(C)C)C[C@H]12
REMARK SMILES IDX 13 1 12 2 11 3 15 4 16 5 2 6 1 7 3 8 4 9 5 10 6 11 8 12 9 13
REMARK SMILES IDX 10 14 7 15 14 16
REMARK H PARENT
REMARK Flexibility Score: inf
ROOT
ATOM      1  C   UNL     1      -3.523  14.368 -33.027  1.00  0.00     0.039 C 
ATOM      2  C   UNL     1      -4.549  14.656 -31.956  1.00  0.00    -0.070 C 
ATOM      3  C   UNL     1      -4.339  14.267 -30.666  1.00  0.00    -0.006 C 
ATOM      4  C   UNL     1      -3.093  13.502 -30.255  1.00  0.00     0.047 C 
ATOM      5  C   UNL     1      -2.817  13.682 -28.747  1.00  0.00     0.025 C 
ATOM      6  C   UNL     1      -1.468  13.077 -28.380  1.00  0.00    -0.073 C 
ATOM      7  C   UNL     1      -0.352  13.825 -28.420  1.00  0.00     0.008 C 
ATOM      8  C   UNL     1      -1.381  11.601 -28.092  1.00  0.00     0.031 C 
ATOM      9  C   UNL     1      -2.461  11.198 -27.089  1.00  0.00     0.005 C 
ATOM     10  C   UNL     1      -3.849  11.605 -27.595  1.00  0.00     0.008 C 
ATOM     11  C   UNL     1      -3.994  13.140 -27.847  1.00  0.00    -0.018 C 
ATOM     12  C   UNL     1      -5.400  13.391 -28.504  1.00  0.00     0.088 C 
ATOM     13  C   UNL     1      -5.363  14.417 -29.598  1.00  0.00     0.159 C 
ATOM     14  O   UNL     1      -6.187  15.371 -29.587  1.00  0.00    -0.295 OA
ATOM     15  C   UNL     1      -3.957  13.893 -26.491  1.00  0.00     0.012 C 
ATOM     16  C   UNL     1      -5.832  15.329 -32.383  1.00  0.00     0.039 C 
ENDROOT
TORSDOF 0
ENDMDL
MODEL 3
REMARK VINA RESULT:    -4.780      2.189      3.541
REMARK INTER + INTRA:          -4.780
REMARK INTER:                  -4.780
REMARK INTRA:                   0.000
REMARK UNBOUND:                 0.000
REMARK SMILES C=C1CCC[C@]2(C)CC(=O)C(=C(C)C)C[C@H]12
REMARK SMILES IDX 13 1 12 2 11 3 15 4 16 5 2 6 1 7 3 8 4 9 5 10 6 11 8 12 9 13
REMARK SMILES IDX 10 14 7 15 14 16
REMARK H PARENT
REMARK Flexibility Score: inf
ROOT
ATOM      1  C   UNL     1      -4.994  15.445 -32.874  1.00  0.00     0.039 C 
ATOM      2  C   UNL     1      -4.931  13.936 -32.896  1.00  0.00    -0.070 C 
ATOM      3  C   UNL     1      -4.533  13.238 -31.794  1.00  0.00    -0.006 C 
ATOM      4  C   UNL     1      -4.104  13.940 -30.516  1.00  0.00     0.047 C 
ATOM      5  C   UNL     1      -4.258  13.000 -29.302  1.00  0.00     0.025 C 
ATOM      6  C   UNL     1      -4.014  13.764 -28.007  1.00  0.00    -0.073 C 
ATOM      7  C   UNL     1      -5.034  14.356 -27.362  1.00  0.00     0.008 C 
ATOM      8  C   UNL     1      -2.599  13.953 -27.523  1.00  0.00     0.031 C 
ATOM      9  C   UNL     1      -1.861  12.615 -27.526  1.00  0.00     0.005 C 
ATOM     10  C   UNL     1      -1.913  11.970 -28.915  1.00  0.00     0.008 C 
ATOM     11  C   UNL     1      -3.366  11.703 -29.423  1.00  0.00    -0.018 C 
ATOM     12  C   UNL     1      -3.273  11.191 -30.906  1.00  0.00     0.088 C 
ATOM     13  C   UNL     1      -4.337  11.765 -31.795  1.00  0.00     0.159 C 
ATOM     14  O   UNL     1      -5.033  10.995 -32.510  1.00  0.00    -0.295 OA
ATOM     15  C   UNL     1      -4.016  10.583 -28.569  1.00  0.00     0.012 C 
ATOM     16  C   UNL     1      -5.261  13.243 -34.197  1.00  0.00     0.039 C 
ENDROOT
TORSDOF 0
ENDMDL
MODEL 4
REMARK VINA RESULT:    -4.452      1.518      3.157
REMARK INTER + INTRA:          -4.452
REMARK INTER:                  -4.452
REMARK INTRA:                   0.000
REMARK UNBOUND:                 0.000
REMARK SMILES C=C1CCC[C@]2(C)CC(=O)C(=C(C)C)C[C@H]12
REMARK SMILES IDX 13 1 12 2 11 3 15 4 16 5 2 6 1 7 3 8 4 9 5 10 6 11 8 12 9 13
REMARK SMILES IDX 10 14 7 15 14 16
REMARK H PARENT
REMARK Flexibility Score: inf
ROOT
ATOM      1  C   UNL     1      -4.575  14.373 -26.130  1.00  0.00     0.039 C 
ATOM      2  C   UNL     1      -5.167  14.576 -27.505  1.00  0.00    -0.070 C 
ATOM      3  C   UNL     1      -4.639  13.947 -28.593  1.00  0.00    -0.006 C 
ATOM      4  C   UNL     1      -3.419  13.048 -28.481  1.00  0.00     0.047 C 
ATOM      5  C   UNL     1      -3.371  12.048 -29.655  1.00  0.00     0.025 C 
ATOM      6  C   UNL     1      -2.262  11.028 -29.437  1.00  0.00    -0.073 C 
ATOM      7  C   UNL     1      -2.513   9.875 -28.793  1.00  0.00     0.008 C 
ATOM      8  C   UNL     1      -0.853  11.378 -29.842  1.00  0.00     0.031 C 
ATOM      9  C   UNL     1      -0.838  11.917 -31.272  1.00  0.00     0.005 C 
ATOM     10  C   UNL     1      -1.791  13.109 -31.412  1.00  0.00     0.008 C 
ATOM     11  C   UNL     1      -3.274  12.765 -31.058  1.00  0.00    -0.018 C 
ATOM     12  C   UNL     1      -4.101  14.101 -31.093  1.00  0.00     0.088 C 
ATOM     13  C   UNL     1      -5.103  14.202 -29.982  1.00  0.00     0.159 C 
ATOM     14  O   UNL     1      -6.301  14.494 -30.246  1.00  0.00    -0.295 OA
ATOM     15  C   UNL     1      -3.855  11.812 -32.135  1.00  0.00     0.012 C 
ATOM     16  C   UNL     1      -6.317  15.548 -27.631  1.00  0.00     0.039 C 
ENDROOT
TORSDOF 0
ENDMDL
MODEL 5
REMARK VINA RESULT:    -4.172      2.652      4.790
REMARK INTER + INTRA:          -4.172
REMARK INTER:                  -4.172
REMARK INTRA:                   0.000
REMARK UNBOUND:                 0.000
REMARK SMILES C=C1CCC[C@]2(C)CC(=O)C(=C(C)C)C[C@H]12
REMARK SMILES IDX 13 1 12 2 11 3 15 4 16 5 2 6 1 7 3 8 4 9 5 10 6 11 8 12 9 13
REMARK SMILES IDX 10 14 7 15 14 16
REMARK H PARENT
REMARK Flexibility Score: inf
ROOT
ATOM      1  C   UNL     1       0.384  14.249 -30.161  1.00  0.00     0.039 C 
ATOM      2  C   UNL     1      -0.183  12.901 -30.540  1.00  0.00    -0.070 C 
ATOM      3  C   UNL     1      -1.189  12.337 -29.813  1.00  0.00    -0.006 C 
ATOM      4  C   UNL     1      -1.758  13.015 -28.578  1.00  0.00     0.047 C 
ATOM      5  C   UNL     1      -3.187  12.510 -28.291  1.00  0.00     0.025 C 
ATOM      6  C   UNL     1      -3.824  13.328 -27.174  1.00  0.00    -0.073 C 
ATOM      7  C   UNL     1      -4.539  14.430 -27.460  1.00  0.00     0.008 C 
ATOM      8  C   UNL     1      -3.540  12.959 -25.742  1.00  0.00     0.031 C 
ATOM      9  C   UNL     1      -3.767  11.463 -25.531  1.00  0.00     0.005 C 
ATOM     10  C   UNL     1      -2.924  10.643 -26.515  1.00  0.00     0.008 C 
ATOM     11  C   UNL     1      -3.237  10.957 -28.013  1.00  0.00    -0.018 C 
ATOM     12  C   UNL     1      -2.203  10.170 -28.897  1.00  0.00     0.088 C 
ATOM     13  C   UNL     1      -1.702  10.965 -30.066  1.00  0.00     0.159 C 
ATOM     14  O   UNL     1      -1.729  10.461 -31.221  1.00  0.00    -0.295 OA
ATOM     15  C   UNL     1      -4.658  10.443 -28.364  1.00  0.00     0.012 C 
ATOM     16  C   UNL     1       0.451  12.181 -31.708  1.00  0.00     0.039 C 
ENDROOT
TORSDOF 0
ENDMDL
MODEL 6
REMARK VINA RESULT:    -4.137      2.384      4.855
REMARK INTER + INTRA:          -4.137
REMARK INTER:                  -4.137
REMARK INTRA:                   0.000
REMARK UNBOUND:                 0.000
REMARK SMILES C=C1CCC[C@]2(C)CC(=O)C(=C(C)C)C[C@H]12
REMARK SMILES IDX 13 1 12 2 11 3 15 4 16 5 2 6 1 7 3 8 4 9 5 10 6 11 8 12 9 13
REMARK SMILES IDX 10 14 7 15 14 16
REMARK H PARENT
REMARK Flexibility Score: inf
ROOT
ATOM      1  C   UNL     1      -0.567  11.393 -32.296  1.00  0.00     0.039 C 
ATOM      2  C   UNL     1      -0.058  12.083 -31.053  1.00  0.00    -0.070 C 
ATOM      3  C   UNL     1      -0.910  12.419 -30.043  1.00  0.00    -0.006 C 
ATOM      4  C   UNL     1      -2.403  12.150 -30.134  1.00  0.00     0.047 C 
ATOM      5  C   UNL     1      -3.030  12.078 -28.727  1.00  0.00     0.025 C 
ATOM      6  C   UNL     1      -4.480  11.618 -28.815  1.00  0.00    -0.073 C 
ATOM      7  C   UNL     1      -4.786  10.311 -28.746  1.00  0.00     0.008 C 
ATOM      8  C   UNL     1      -5.554  12.634 -29.105  1.00  0.00     0.031 C 
ATOM      9  C   UNL     1      -5.408  13.832 -28.169  1.00  0.00     0.005 C 
ATOM     10  C   UNL     1      -4.003  14.434 -28.274  1.00  0.00     0.008 C 
ATOM     11  C   UNL     1      -2.865  13.424 -27.920  1.00  0.00    -0.018 C 
ATOM     12  C   UNL     1      -1.489  14.123 -28.219  1.00  0.00     0.088 C 
ATOM     13  C   UNL     1      -0.488  13.203 -28.852  1.00  0.00     0.159 C 
ATOM     14  O   UNL     1       0.672  13.115 -28.367  1.00  0.00    -0.295 OA
ATOM     15  C   UNL     1      -2.918  13.095 -26.405  1.00  0.00     0.012 C 
ATOM     16  C   UNL     1       1.409  12.440 -31.004  1.00  0.00     0.039 C 
ENDROOT
TORSDOF 0
ENDMDL
MODEL 7
REMARK VINA RESULT:    -4.026      1.672      3.237
REMARK INTER + INTRA:          -4.026
REMARK INTER:                  -4.026
REMARK INTRA:                   0.000
REMARK UNBOUND:                 0.000
REMARK SMILES C=C1CCC[C@]2(C)CC(=O)C(=C(C)C)C[C@H]12
REMARK SMILES IDX 13 1 12 2 11 3 15 4 16 5 2 6 1 7 3 8 4 9 5 10 6 11 8 12 9 13
REMARK SMILES IDX 10 14 7 15 14 16
REMARK H PARENT
REMARK Flexibility Score: inf
ROOT
ATOM      1  C   UNL     1      -7.092  15.049 -27.997  1.00  0.00     0.039 C 
ATOM      2  C   UNL     1      -6.427  15.195 -29.346  1.00  0.00    -0.070 C 
ATOM      3  C   UNL     1      -5.464  14.318 -29.747  1.00  0.00    -0.006 C 
ATOM      4  C   UNL     1      -4.993  13.184 -28.853  1.00  0.00     0.047 C 
ATOM      5  C   UNL     1      -4.371  12.050 -29.694  1.00  0.00     0.025 C 
ATOM      6  C   UNL     1      -4.079  10.839 -28.817  1.00  0.00    -0.073 C 
ATOM      7  C   UNL     1      -5.002   9.875 -28.656  1.00  0.00     0.008 C 
ATOM      8  C   UNL     1      -2.792  10.794 -28.035  1.00  0.00     0.031 C 
ATOM      9  C   UNL     1      -1.611  11.114 -28.949  1.00  0.00     0.005 C 
ATOM     10  C   UNL     1      -1.815  12.464 -29.646  1.00  0.00     0.008 C 
ATOM     11  C   UNL     1      -3.111  12.526 -30.516  1.00  0.00    -0.018 C 
ATOM     12  C   UNL     1      -3.273  14.000 -31.037  1.00  0.00     0.088 C 
ATOM     13  C   UNL     1      -4.693  14.481 -31.008  1.00  0.00     0.159 C 
ATOM     14  O   UNL     1      -5.196  15.005 -32.039  1.00  0.00    -0.295 OA
ATOM     15  C   UNL     1      -2.951  11.596 -31.747  1.00  0.00     0.012 C 
ATOM     16  C   UNL     1      -6.824  16.381 -30.194  1.00  0.00     0.039 C 
ENDROOT
TORSDOF 0
ENDMDL
MODEL 8
REMARK VINA RESULT:    -3.596      1.892      3.044
REMARK INTER + INTRA:          -3.596
REMARK INTER:                  -3.596
REMARK INTRA:                   0.000
REMARK UNBOUND:                 0.000
REMARK SMILES C=C1CCC[C@]2(C)CC(=O)C(=C(C)C)C[C@H]12
REMARK SMILES IDX 13 1 12 2 11 3 15 4 16 5 2 6 1 7 3 8 4 9 5 10 6 11 8 12 9 13
REMARK SMILES IDX 10 14 7 15 14 16
REMARK H PARENT
REMARK Flexibility Score: inf
ROOT
ATOM      1  C   UNL     1      -6.138  14.396 -27.625  1.00  0.00     0.039 C 
ATOM      2  C   UNL     1      -4.636  14.360 -27.471  1.00  0.00    -0.070 C 
ATOM      3  C   UNL     1      -3.860  13.667 -28.351  1.00  0.00    -0.006 C 
ATOM      4  C   UNL     1      -4.465  12.876 -29.498  1.00  0.00     0.047 C 
ATOM      5  C   UNL     1      -3.433  12.680 -30.629  1.00  0.00     0.025 C 
ATOM      6  C   UNL     1      -4.097  12.060 -31.851  1.00  0.00    -0.073 C 
ATOM      7  C   UNL     1      -4.627  12.840 -32.809  1.00  0.00     0.008 C 
ATOM      8  C   UNL     1      -4.263  10.564 -31.915  1.00  0.00     0.031 C 
ATOM      9  C   UNL     1      -2.938   9.875 -31.594  1.00  0.00     0.005 C 
ATOM     10  C   UNL     1      -2.401  10.338 -30.235  1.00  0.00     0.008 C 
ATOM     11  C   UNL     1      -2.159  11.879 -30.154  1.00  0.00    -0.018 C 
ATOM     12  C   UNL     1      -1.764  12.228 -28.673  1.00  0.00     0.088 C 
ATOM     13  C   UNL     1      -2.392  13.498 -28.180  1.00  0.00     0.159 C 
ATOM     14  O   UNL     1      -1.673  14.382 -27.642  1.00  0.00    -0.295 OA
ATOM     15  C   UNL     1      -0.970  12.265 -31.072  1.00  0.00     0.012 C 
ATOM     16  C   UNL     1      -4.042  15.064 -26.273  1.00  0.00     0.039 C 
ENDROOT
TORSDOF 0
ENDMDL
