MODEL 1
REMARK VINA RESULT:    -6.751      0.000      0.000
REMARK INTER + INTRA:          -7.673
REMARK INTER:                  -7.540
REMARK INTRA:                  -0.132
REMARK UNBOUND:                -0.132
REMARK SMILES O=C([O-])C=Cc1ccccc1
REMARK SMILES IDX 4 1 5 2 2 3 1 4 3 5 6 6 7 7 11 8 8 9 10 10 9 11
REMARK H PARENT
REMARK Flexibility Score: inf
ROOT
ATOM      1  C   UNL     1     -19.160 -23.081 -46.233  1.00  0.00     0.025 C 
ATOM      2  C   UNL     1     -20.421 -22.667 -46.051  1.00  0.00     0.010 C 
ENDROOT
BRANCH   1   3
ATOM      3  C   UNL     1     -18.361 -22.657 -47.393  1.00  0.00     0.064 C 
ATOM      4  O   UNL     1     -18.864 -22.706 -48.545  1.00  0.00    -0.545 OA
ATOM      5  O   UNL     1     -17.056 -22.203 -47.238  1.00  0.00    -0.545 OA
ENDBRANCH   1   3
BRANCH   2   6
ATOM      6  C   UNL     1     -21.267 -23.079 -44.902  1.00  0.00    -0.026 A 
ATOM      7  C   UNL     1     -21.910 -24.328 -44.955  1.00  0.00     0.008 A 
ATOM      8  C   UNL     1     -21.478 -22.251 -43.779  1.00  0.00     0.008 A 
ATOM      9  C   UNL     1     -22.724 -24.753 -43.900  1.00  0.00     0.001 A 
ATOM     10  C   UNL     1     -22.294 -22.682 -42.728  1.00  0.00     0.001 A 
ATOM     11  C   UNL     1     -22.914 -23.932 -42.787  1.00  0.00     0.000 A 
ENDBRANCH   2   6
TORSDOF 2
ENDMDL
MODEL 2
REMARK VINA RESULT:    -5.536      4.740      6.029
REMARK INTER + INTRA:          -6.316
REMARK INTER:                  -6.166
REMARK INTRA:                  -0.150
REMARK UNBOUND:                -0.132
REMARK SMILES O=C([O-])C=Cc1ccccc1
REMARK SMILES IDX 4 1 5 2 2 3 1 4 3 5 6 6 7 7 11 8 8 9 10 10 9 11
REMARK H PARENT
REMARK Flexibility Score: inf
ROOT
ATOM      1  C   UNL     1     -23.529 -25.667 -42.481  1.00  0.00     0.025 C 
ATOM      2  C   UNL     1     -23.027 -24.426 -42.447  1.00  0.00     0.010 C 
ENDROOT
BRANCH   1   3
ATOM      3  C   UNL     1     -23.939 -26.375 -41.259  1.00  0.00     0.064 C 
ATOM      4  O   UNL     1     -24.125 -25.726 -40.198  1.00  0.00    -0.545 OA
ATOM      5  O   UNL     1     -24.125 -27.753 -41.256  1.00  0.00    -0.545 OA
ENDBRANCH   1   3
BRANCH   2   6
ATOM      6  C   UNL     1     -22.589 -23.679 -43.653  1.00  0.00    -0.026 A 
ATOM      7  C   UNL     1     -23.062 -24.095 -44.909  1.00  0.00     0.008 A 
ATOM      8  C   UNL     1     -21.690 -22.593 -43.589  1.00  0.00     0.008 A 
ATOM      9  C   UNL     1     -22.668 -23.427 -46.074  1.00  0.00     0.001 A 
ATOM     10  C   UNL     1     -21.299 -21.931 -44.758  1.00  0.00     0.001 A 
ATOM     11  C   UNL     1     -21.790 -22.344 -45.997  1.00  0.00     0.000 A 
ENDBRANCH   2   6
TORSDOF 2
ENDMDL
MODEL 3
REMARK VINA RESULT:    -5.286      4.710      6.143
REMARK INTER + INTRA:          -6.036
REMARK INTER:                  -5.898
REMARK INTRA:                  -0.138
REMARK UNBOUND:                -0.132
REMARK SMILES O=C([O-])C=Cc1ccccc1
REMARK SMILES IDX 4 1 5 2 2 3 1 4 3 5 6 6 7 7 11 8 8 9 10 10 9 11
REMARK H PARENT
REMARK Flexibility Score: inf
ROOT
ATOM      1  C   UNL     1     -23.471 -25.670 -42.555  1.00  0.00     0.025 C 
ATOM      2  C   UNL     1     -23.047 -24.400 -42.517  1.00  0.00     0.010 C 
ENDROOT
BRANCH   1   3
ATOM      3  C   UNL     1     -23.903 -26.383 -41.343  1.00  0.00     0.064 C 
ATOM      4  O   UNL     1     -24.121 -25.736 -40.286  1.00  0.00    -0.545 OA
ATOM      5  O   UNL     1     -24.073 -27.763 -41.344  1.00  0.00    -0.545 OA
ENDBRANCH   1   3
BRANCH   2   6
ATOM      6  C   UNL     1     -22.591 -23.646 -43.713  1.00  0.00    -0.026 A 
ATOM      7  C   UNL     1     -21.673 -22.597 -43.535  1.00  0.00     0.008 A 
ATOM      8  C   UNL     1     -23.069 -23.920 -45.011  1.00  0.00     0.008 A 
ATOM      9  C   UNL     1     -21.223 -21.853 -44.631  1.00  0.00     0.001 A 
ATOM     10  C   UNL     1     -22.616 -23.172 -46.102  1.00  0.00     0.001 A 
ATOM     11  C   UNL     1     -21.692 -22.143 -45.914  1.00  0.00     0.000 A 
ENDBRANCH   2   6
TORSDOF 2
ENDMDL
MODEL 4
REMARK VINA RESULT:    -4.727      2.050      3.289
REMARK INTER + INTRA:          -5.412
REMARK INTER:                  -5.276
REMARK INTRA:                  -0.136
REMARK UNBOUND:                -0.132
REMARK SMILES O=C([O-])C=Cc1ccccc1
REMARK SMILES IDX 4 1 5 2 2 3 1 4 3 5 6 6 7 7 11 8 8 9 10 10 9 11
REMARK H PARENT
REMARK Flexibility Score: inf
ROOT
ATOM      1  C   UNL     1     -21.467 -23.675 -45.009  1.00  0.00     0.025 C 
ATOM      2  C   UNL     1     -22.387 -23.414 -44.070  1.00  0.00     0.010 C 
ENDROOT
BRANCH   1   3
ATOM      3  C   UNL     1     -20.903 -22.618 -45.862  1.00  0.00     0.064 C 
ATOM      4  O   UNL     1     -21.514 -21.524 -45.981  1.00  0.00    -0.545 OA
ATOM      5  O   UNL     1     -19.705 -22.807 -46.541  1.00  0.00    -0.545 OA
ENDBRANCH   1   3
BRANCH   2   6
ATOM      6  C   UNL     1     -22.991 -24.451 -43.196  1.00  0.00    -0.026 A 
ATOM      7  C   UNL     1     -22.942 -24.267 -41.803  1.00  0.00     0.008 A 
ATOM      8  C   UNL     1     -23.580 -25.626 -43.707  1.00  0.00     0.008 A 
ATOM      9  C   UNL     1     -23.490 -25.222 -40.941  1.00  0.00     0.001 A 
ATOM     10  C   UNL     1     -24.125 -26.578 -42.839  1.00  0.00     0.001 A 
ATOM     11  C   UNL     1     -24.083 -26.375 -41.459  1.00  0.00     0.000 A 
ENDBRANCH   2   6
TORSDOF 2
ENDMDL
