MODEL 1
REMARK VINA RESULT:    -3.098      0.000      0.000
REMARK INTER + INTRA:          -5.438
REMARK INTER:                  -4.728
REMARK INTRA:                  -0.710
REMARK UNBOUND:                -0.710
REMARK SMILES CCCCCCCCCCC(=O)[O-]
REMARK SMILES IDX 7 1 8 2 9 3 10 4 11 5 12 6 13 7 6 8 5 9 4 10 3 11 2 12 1 13
REMARK H PARENT
REMARK Flexibility Score: inf
ROOT
ATOM      1  C   UNL     1      15.005  13.407   7.100  1.00  0.00     0.000 C 
ENDROOT
BRANCH   1   2
ATOM      2  C   UNL     1      14.020  12.929   8.180  1.00  0.00     0.000 C 
BRANCH   2   3
ATOM      3  C   UNL     1      14.570  13.114   9.604  1.00  0.00     0.006 C 
BRANCH   3   4
ATOM      4  C   UNL     1      14.498  11.829  10.439  1.00  0.00     0.053 C 
BRANCH   4   5
ATOM      5  C   UNL     1      14.128  12.146  11.853  1.00  0.00     0.041 C 
ATOM      6  O   UNL     1      13.043  12.732  12.109  1.00  0.00    -0.550 OA
ATOM      7  O   UNL     1      14.958  11.750  12.895  1.00  0.00    -0.550 OA
ENDBRANCH   4   5
ENDBRANCH   3   4
ENDBRANCH   2   3
ENDBRANCH   1   2
BRANCH   1   8
ATOM      8  C   UNL     1      16.358  13.844   7.686  1.00  0.00     0.000 C 
BRANCH   8   9
ATOM      9  C   UNL     1      16.756  15.267   7.265  1.00  0.00    -0.000 C 
BRANCH   9  10
ATOM     10  C   UNL     1      15.618  16.260   7.549  1.00  0.00    -0.000 C 
BRANCH  10  11
ATOM     11  C   UNL     1      15.549  16.674   9.028  1.00  0.00    -0.000 C 
BRANCH  11  12
ATOM     12  C   UNL     1      16.379  17.930   9.331  1.00  0.00    -0.003 C 
ATOM     13  C   UNL     1      15.610  18.891  10.233  1.00  0.00     0.004 C 
ENDBRANCH  11  12
ENDBRANCH  10  11
ENDBRANCH   9  10
ENDBRANCH   8   9
ENDBRANCH   1   8
TORSDOF 9
ENDMDL
MODEL 2
REMARK VINA RESULT:    -3.074      3.173      5.880
REMARK INTER + INTRA:          -5.401
REMARK INTER:                  -4.935
REMARK INTRA:                  -0.466
REMARK UNBOUND:                -0.710
REMARK SMILES CCCCCCCCCCC(=O)[O-]
REMARK SMILES IDX 7 1 8 2 9 3 10 4 11 5 12 6 13 7 6 8 5 9 4 10 3 11 2 12 1 13
REMARK H PARENT
REMARK Flexibility Score: inf
ROOT
ATOM      1  C   UNL     1      15.620  17.116   8.757  1.00  0.00     0.000 C 
ENDROOT
BRANCH   1   2
ATOM      2  C   UNL     1      16.540  18.348   8.766  1.00  0.00     0.000 C 
BRANCH   2   3
ATOM      3  C   UNL     1      16.279  19.271   9.968  1.00  0.00     0.006 C 
BRANCH   3   4
ATOM      4  C   UNL     1      15.174  18.743  10.891  1.00  0.00     0.053 C 
BRANCH   4   5
ATOM      5  C   UNL     1      14.373  19.878  11.446  1.00  0.00     0.041 C 
ATOM      6  O   UNL     1      13.246  19.665  11.966  1.00  0.00    -0.550 OA
ATOM      7  O   UNL     1      14.893  21.167  11.435  1.00  0.00    -0.550 OA
ENDBRANCH   4   5
ENDBRANCH   3   4
ENDBRANCH   2   3
ENDBRANCH   1   2
BRANCH   1   8
ATOM      8  C   UNL     1      15.936  16.150   7.602  1.00  0.00     0.000 C 
BRANCH   8   9
ATOM      9  C   UNL     1      16.068  14.692   8.067  1.00  0.00    -0.000 C 
BRANCH   9  10
ATOM     10  C   UNL     1      15.152  13.771   7.246  1.00  0.00    -0.000 C 
BRANCH  10  11
ATOM     11  C   UNL     1      14.143  13.008   8.119  1.00  0.00    -0.000 C 
BRANCH  11  12
ATOM     12  C   UNL     1      14.454  13.120   9.619  1.00  0.00    -0.003 C 
ATOM     13  C   UNL     1      13.909  11.917  10.383  1.00  0.00     0.004 C 
ENDBRANCH  11  12
ENDBRANCH  10  11
ENDBRANCH   9  10
ENDBRANCH   8   9
ENDBRANCH   1   8
TORSDOF 9
ENDMDL
MODEL 3
REMARK VINA RESULT:    -3.032      2.740      5.403
REMARK INTER + INTRA:          -5.337
REMARK INTER:                  -4.701
REMARK INTRA:                  -0.636
REMARK UNBOUND:                -0.710
REMARK SMILES CCCCCCCCCCC(=O)[O-]
REMARK SMILES IDX 7 1 8 2 9 3 10 4 11 5 12 6 13 7 6 8 5 9 4 10 3 11 2 12 1 13
REMARK H PARENT
REMARK Flexibility Score: inf
ROOT
ATOM      1  C   UNL     1      16.653  15.311   7.297  1.00  0.00     0.000 C 
ENDROOT
BRANCH   1   2
ATOM      2  C   UNL     1      16.829  16.211   8.533  1.00  0.00     0.000 C 
BRANCH   2   3
ATOM      3  C   UNL     1      15.664  17.197   8.716  1.00  0.00     0.006 C 
BRANCH   3   4
ATOM      4  C   UNL     1      16.121  18.564   9.239  1.00  0.00     0.053 C 
BRANCH   4   5
ATOM      5  C   UNL     1      15.568  18.811  10.607  1.00  0.00     0.041 C 
ATOM      6  O   UNL     1      15.687  17.938  11.506  1.00  0.00    -0.550 OA
ATOM      7  O   UNL     1      14.963  20.026  10.904  1.00  0.00    -0.550 OA
ENDBRANCH   4   5
ENDBRANCH   3   4
ENDBRANCH   2   3
ENDBRANCH   1   2
BRANCH   1   8
ATOM      8  C   UNL     1      16.487  13.827   7.665  1.00  0.00     0.000 C 
BRANCH   8   9
ATOM      9  C   UNL     1      15.281  13.175   6.972  1.00  0.00    -0.000 C 
BRANCH   9  10
ATOM     10  C   UNL     1      14.071  13.117   7.918  1.00  0.00    -0.000 C 
BRANCH  10  11
ATOM     11  C   UNL     1      14.475  13.173   9.400  1.00  0.00    -0.000 C 
BRANCH  11  12
ATOM     12  C   UNL     1      13.991  11.950  10.192  1.00  0.00    -0.003 C 
ATOM     13  C   UNL     1      15.068  11.459  11.156  1.00  0.00     0.004 C 
ENDBRANCH  11  12
ENDBRANCH  10  11
ENDBRANCH   9  10
ENDBRANCH   8   9
ENDBRANCH   1   8
TORSDOF 9
ENDMDL
MODEL 4
REMARK VINA RESULT:    -3.011      2.118      3.984
REMARK INTER + INTRA:          -5.305
REMARK INTER:                  -4.857
REMARK INTRA:                  -0.448
REMARK UNBOUND:                -0.710
REMARK SMILES CCCCCCCCCCC(=O)[O-]
REMARK SMILES IDX 7 1 8 2 9 3 10 4 11 5 12 6 13 7 6 8 5 9 4 10 3 11 2 12 1 13
REMARK H PARENT
REMARK Flexibility Score: inf
ROOT
ATOM      1  C   UNL     1      15.306  16.837   8.805  1.00  0.00     0.000 C 
ENDROOT
BRANCH   1   2
ATOM      2  C   UNL     1      16.200  15.978   7.895  1.00  0.00     0.000 C 
BRANCH   2   3
ATOM      3  C   UNL     1      15.926  14.473   8.050  1.00  0.00     0.006 C 
BRANCH   3   4
ATOM      4  C   UNL     1      15.119  14.144   9.312  1.00  0.00     0.053 C 
BRANCH   4   5
ATOM      5  C   UNL     1      14.225  12.969   9.068  1.00  0.00     0.041 C 
ATOM      6  O   UNL     1      13.798  12.727   7.908  1.00  0.00    -0.550 OA
ATOM      7  O   UNL     1      13.902  12.112  10.113  1.00  0.00    -0.550 OA
ENDBRANCH   4   5
ENDBRANCH   3   4
ENDBRANCH   2   3
ENDBRANCH   1   2
BRANCH   1   8
ATOM      8  C   UNL     1      15.979  18.156   9.220  1.00  0.00     0.000 C 
BRANCH   8   9
ATOM      9  C   UNL     1      15.609  18.589  10.647  1.00  0.00    -0.000 C 
BRANCH   9  10
ATOM     10  C   UNL     1      16.025  20.046  10.903  1.00  0.00    -0.000 C 
BRANCH  10  11
ATOM     11  C   UNL     1      14.937  20.855  11.626  1.00  0.00    -0.000 C 
BRANCH  11  12
ATOM     12  C   UNL     1      13.574  20.147  11.626  1.00  0.00    -0.003 C 
ATOM     13  C   UNL     1      13.078  19.912  13.050  1.00  0.00     0.004 C 
ENDBRANCH  11  12
ENDBRANCH  10  11
ENDBRANCH   9  10
ENDBRANCH   8   9
ENDBRANCH   1   8
TORSDOF 9
ENDMDL
MODEL 5
REMARK VINA RESULT:    -2.997      2.554      4.393
REMARK INTER + INTRA:          -5.283
REMARK INTER:                  -4.895
REMARK INTRA:                  -0.388
REMARK UNBOUND:                -0.710
REMARK SMILES CCCCCCCCCCC(=O)[O-]
REMARK SMILES IDX 7 1 8 2 9 3 10 4 11 5 12 6 13 7 6 8 5 9 4 10 3 11 2 12 1 13
REMARK H PARENT
REMARK Flexibility Score: inf
ROOT
ATOM      1  C   UNL     1      15.690  17.219   8.995  1.00  0.00     0.000 C 
ENDROOT
BRANCH   1   2
ATOM      2  C   UNL     1      16.210  16.342   7.843  1.00  0.00     0.000 C 
BRANCH   2   3
ATOM      3  C   UNL     1      16.374  14.869   8.250  1.00  0.00     0.006 C 
BRANCH   3   4
ATOM      4  C   UNL     1      15.115  14.293   8.912  1.00  0.00     0.053 C 
BRANCH   4   5
ATOM      5  C   UNL     1      14.528  13.211   8.062  1.00  0.00     0.041 C 
ATOM      6  O   UNL     1      13.702  12.397   8.552  1.00  0.00    -0.550 OA
ATOM      7  O   UNL     1      14.857  13.130   6.714  1.00  0.00    -0.550 OA
ENDBRANCH   4   5
ENDBRANCH   3   4
ENDBRANCH   2   3
ENDBRANCH   1   2
BRANCH   1   8
ATOM      8  C   UNL     1      16.381  18.592   9.051  1.00  0.00     0.000 C 
BRANCH   8   9
ATOM      9  C   UNL     1      16.481  19.148  10.480  1.00  0.00    -0.000 C 
BRANCH   9  10
ATOM     10  C   UNL     1      15.210  19.927  10.853  1.00  0.00    -0.000 C 
BRANCH  10  11
ATOM     11  C   UNL     1      14.354  19.197  11.900  1.00  0.00    -0.000 C 
BRANCH  11  12
ATOM     12  C   UNL     1      13.275  20.098  12.516  1.00  0.00    -0.003 C 
ATOM     13  C   UNL     1      13.321  21.500  11.915  1.00  0.00     0.004 C 
ENDBRANCH  11  12
ENDBRANCH  10  11
ENDBRANCH   9  10
ENDBRANCH   8   9
ENDBRANCH   1   8
TORSDOF 9
ENDMDL
MODEL 6
REMARK VINA RESULT:    -2.977      0.974      1.912
REMARK INTER + INTRA:          -5.253
REMARK INTER:                  -4.786
REMARK INTRA:                  -0.467
REMARK UNBOUND:                -0.710
REMARK SMILES CCCCCCCCCCC(=O)[O-]
REMARK SMILES IDX 7 1 8 2 9 3 10 4 11 5 12 6 13 7 6 8 5 9 4 10 3 11 2 12 1 13
REMARK H PARENT
REMARK Flexibility Score: inf
ROOT
ATOM      1  C   UNL     1      16.196  14.145   7.826  1.00  0.00     0.000 C 
ENDROOT
BRANCH   1   2
ATOM      2  C   UNL     1      14.925  13.504   7.242  1.00  0.00     0.000 C 
BRANCH   2   3
ATOM      3  C   UNL     1      14.057  12.829   8.316  1.00  0.00     0.006 C 
BRANCH   3   4
ATOM      4  C   UNL     1      14.368  13.333   9.732  1.00  0.00     0.053 C 
BRANCH   4   5
ATOM      5  C   UNL     1      13.956  12.316  10.749  1.00  0.00     0.041 C 
ATOM      6  O   UNL     1      14.407  11.142  10.691  1.00  0.00    -0.550 OA
ATOM      7  O   UNL     1      13.112  12.679  11.792  1.00  0.00    -0.550 OA
ENDBRANCH   4   5
ENDBRANCH   3   4
ENDBRANCH   2   3
ENDBRANCH   1   2
BRANCH   1   8
ATOM      8  C   UNL     1      16.214  15.674   7.665  1.00  0.00     0.000 C 
BRANCH   8   9
ATOM      9  C   UNL     1      16.417  16.409   8.999  1.00  0.00    -0.000 C 
BRANCH   9  10
ATOM     10  C   UNL     1      15.891  17.851   8.916  1.00  0.00    -0.000 C 
BRANCH  10  11
ATOM     11  C   UNL     1      16.940  18.889   9.343  1.00  0.00    -0.000 C 
BRANCH  11  12
ATOM     12  C   UNL     1      16.470  19.757  10.519  1.00  0.00    -0.003 C 
ATOM     13  C   UNL     1      15.017  19.455  10.877  1.00  0.00     0.004 C 
ENDBRANCH  11  12
ENDBRANCH  10  11
ENDBRANCH   9  10
ENDBRANCH   8   9
ENDBRANCH   1   8
TORSDOF 9
ENDMDL
MODEL 7
REMARK VINA RESULT:    -2.975      2.665      5.263
REMARK INTER + INTRA:          -5.250
REMARK INTER:                  -4.588
REMARK INTRA:                  -0.662
REMARK UNBOUND:                -0.710
REMARK SMILES CCCCCCCCCCC(=O)[O-]
REMARK SMILES IDX 7 1 8 2 9 3 10 4 11 5 12 6 13 7 6 8 5 9 4 10 3 11 2 12 1 13
REMARK H PARENT
REMARK Flexibility Score: inf
ROOT
ATOM      1  C   UNL     1      15.090  13.420   7.328  1.00  0.00     0.000 C 
ENDROOT
BRANCH   1   2
ATOM      2  C   UNL     1      16.427  13.688   8.040  1.00  0.00     0.000 C 
BRANCH   2   3
ATOM      3  C   UNL     1      17.043  15.041   7.648  1.00  0.00     0.006 C 
BRANCH   3   4
ATOM      4  C   UNL     1      16.007  16.171   7.595  1.00  0.00     0.053 C 
BRANCH   4   5
ATOM      5  C   UNL     1      16.159  17.073   8.779  1.00  0.00     0.041 C 
ATOM      6  O   UNL     1      15.881  16.656   9.934  1.00  0.00    -0.550 OA
ATOM      7  O   UNL     1      16.655  18.361   8.613  1.00  0.00    -0.550 OA
ENDBRANCH   4   5
ENDBRANCH   3   4
ENDBRANCH   2   3
ENDBRANCH   1   2
BRANCH   1   8
ATOM      8  C   UNL     1      14.001  12.913   8.288  1.00  0.00     0.000 C 
BRANCH   8   9
ATOM      9  C   UNL     1      14.383  13.087   9.766  1.00  0.00    -0.000 C 
BRANCH   9  10
ATOM     10  C   UNL     1      14.502  11.724  10.466  1.00  0.00    -0.000 C 
BRANCH  10  11
ATOM     11  C   UNL     1      14.804  11.853  11.967  1.00  0.00    -0.000 C 
BRANCH  11  12
ATOM     12  C   UNL     1      14.139  13.083  12.601  1.00  0.00    -0.003 C 
ATOM     13  C   UNL     1      12.746  12.745  13.125  1.00  0.00     0.004 C 
ENDBRANCH  11  12
ENDBRANCH  10  11
ENDBRANCH   9  10
ENDBRANCH   8   9
ENDBRANCH   1   8
TORSDOF 9
ENDMDL
MODEL 8
REMARK VINA RESULT:    -2.881      3.195      4.818
REMARK INTER + INTRA:          -5.107
REMARK INTER:                  -4.001
REMARK INTRA:                  -1.106
REMARK UNBOUND:                -0.710
REMARK SMILES CCCCCCCCCCC(=O)[O-]
REMARK SMILES IDX 7 1 8 2 9 3 10 4 11 5 12 6 13 7 6 8 5 9 4 10 3 11 2 12 1 13
REMARK H PARENT
REMARK Flexibility Score: inf
ROOT
ATOM      1  C   UNL     1      13.781  11.874  10.154  1.00  0.00     0.000 C 
ENDROOT
BRANCH   1   2
ATOM      2  C   UNL     1      14.012  12.761   8.919  1.00  0.00     0.000 C 
BRANCH   2   3
ATOM      3  C   UNL     1      15.050  13.867   9.172  1.00  0.00     0.006 C 
BRANCH   3   4
ATOM      4  C   UNL     1      16.457  13.478   8.702  1.00  0.00     0.053 C 
BRANCH   4   5
ATOM      5  C   UNL     1      16.634  13.809   7.254  1.00  0.00     0.041 C 
ATOM      6  O   UNL     1      16.904  14.987   6.900  1.00  0.00    -0.550 OA
ATOM      7  O   UNL     1      16.548  12.805   6.296  1.00  0.00    -0.550 OA
ENDBRANCH   4   5
ENDBRANCH   3   4
ENDBRANCH   2   3
ENDBRANCH   1   2
BRANCH   1   8
ATOM      8  C   UNL     1      13.776  12.678  11.466  1.00  0.00     0.000 C 
BRANCH   8   9
ATOM      9  C   UNL     1      14.579  11.994  12.583  1.00  0.00    -0.000 C 
BRANCH   9  10
ATOM     10  C   UNL     1      15.856  12.787  12.903  1.00  0.00    -0.000 C 
BRANCH  10  11
ATOM     11  C   UNL     1      15.646  14.307  12.822  1.00  0.00    -0.000 C 
BRANCH  11  12
ATOM     12  C   UNL     1      16.866  15.044  12.249  1.00  0.00    -0.003 C 
ATOM     13  C   UNL     1      16.453  16.351  11.579  1.00  0.00     0.004 C 
ENDBRANCH  11  12
ENDBRANCH  10  11
ENDBRANCH   9  10
ENDBRANCH   8   9
ENDBRANCH   1   8
TORSDOF 9
ENDMDL
MODEL 9
REMARK VINA RESULT:    -2.754      3.147      5.757
REMARK INTER + INTRA:          -4.914
REMARK INTER:                  -4.071
REMARK INTRA:                  -0.843
REMARK UNBOUND:                -0.710
REMARK SMILES CCCCCCCCCCC(=O)[O-]
REMARK SMILES IDX 7 1 8 2 9 3 10 4 11 5 12 6 13 7 6 8 5 9 4 10 3 11 2 12 1 13
REMARK H PARENT
REMARK Flexibility Score: inf
ROOT
ATOM      1  C   UNL     1      14.132  13.329   9.300  1.00  0.00     0.000 C 
ENDROOT
BRANCH   1   2
ATOM      2  C   UNL     1      14.558  13.122   7.836  1.00  0.00     0.000 C 
BRANCH   2   3
ATOM      3  C   UNL     1      16.026  13.507   7.589  1.00  0.00     0.006 C 
BRANCH   3   4
ATOM      4  C   UNL     1      16.514  14.617   8.528  1.00  0.00     0.053 C 
BRANCH   4   5
ATOM      5  C   UNL     1      16.358  15.955   7.878  1.00  0.00     0.041 C 
ATOM      6  O   UNL     1      16.901  16.188   6.765  1.00  0.00    -0.550 OA
ATOM      7  O   UNL     1      15.572  16.932   8.477  1.00  0.00    -0.550 OA
ENDBRANCH   4   5
ENDBRANCH   3   4
ENDBRANCH   2   3
ENDBRANCH   1   2
BRANCH   1   8
ATOM      8  C   UNL     1      14.131  12.020  10.106  1.00  0.00     0.000 C 
BRANCH   8   9
ATOM      9  C   UNL     1      14.320  12.250  11.613  1.00  0.00    -0.000 C 
BRANCH   9  10
ATOM     10  C   UNL     1      15.800  12.495  11.948  1.00  0.00    -0.000 C 
BRANCH  10  11
ATOM     11  C   UNL     1      16.749  11.628  11.106  1.00  0.00    -0.000 C 
BRANCH  11  12
ATOM     12  C   UNL     1      16.835  10.180  11.611  1.00  0.00    -0.003 C 
ATOM     13  C   UNL     1      17.125  10.139  13.109  1.00  0.00     0.004 C 
ENDBRANCH  11  12
ENDBRANCH  10  11
ENDBRANCH   9  10
ENDBRANCH   8   9
ENDBRANCH   1   8
TORSDOF 9
ENDMDL
