MODEL 1
REMARK VINA RESULT:    -4.600      0.000      0.000
REMARK INTER + INTRA:          -5.718
REMARK INTER:                  -5.407
REMARK INTRA:                  -0.311
REMARK UNBOUND:                -0.311
REMARK SMILES O=c1c(O)c(-c2ccc(O)c(O)c2)oc2cc(O)ccc12
REMARK SMILES IDX 5 1 3 2 2 3 1 4 21 5 15 6 14 7 16 8 17 9 19 10 20 11 6 12
REMARK SMILES IDX 7 13 8 14 9 15 13 16 11 17 10 18 12 20 4 22 18 24
REMARK H PARENT 10 19 12 21 4 23 18 25
REMARK Flexibility Score: inf
ROOT
ATOM      1  C   UNL     1      50.372  20.556 130.753  1.00  0.00     0.180 A 
ATOM      2  C   UNL     1      49.565  19.810 129.869  1.00  0.00     0.208 A 
ATOM      3  C   UNL     1      48.227  19.566 130.216  1.00  0.00     0.235 A 
ATOM      4  O   UNL     1      47.488  18.893 129.447  1.00  0.00    -0.285 OA
ATOM      5  C   UNL     1      47.721  20.085 131.419  1.00  0.00     0.069 A 
ATOM      6  C   UNL     1      48.586  20.841 132.238  1.00  0.00     0.142 A 
ATOM      7  O   UNL     1      49.849  21.041 131.877  1.00  0.00    -0.452 OA
ATOM      8  C   UNL     1      48.117  21.383 133.439  1.00  0.00     0.094 A 
ATOM      9  C   UNL     1      46.791  21.178 133.836  1.00  0.00     0.119 A 
ATOM     10  C   UNL     1      45.930  20.425 133.026  1.00  0.00     0.047 A 
ATOM     11  C   UNL     1      46.389  19.881 131.823  1.00  0.00     0.020 A 
ENDROOT
BRANCH   1  12
ATOM     12  C   UNL     1      51.797  20.839 130.467  1.00  0.00     0.025 A 
ATOM     13  C   UNL     1      52.784  19.964 130.947  1.00  0.00     0.016 A 
ATOM     14  C   UNL     1      54.134  20.200 130.672  1.00  0.00     0.051 A 
ATOM     15  C   UNL     1      54.514  21.306 129.899  1.00  0.00     0.157 A 
ATOM     16  C   UNL     1      52.181  21.936 129.675  1.00  0.00     0.062 A 
ATOM     17  C   UNL     1      53.535  22.173 129.396  1.00  0.00     0.158 A 
BRANCH  15  18
ATOM     18  O   UNL     1      55.858  21.545 129.624  1.00  0.00    -0.504 OA
ATOM     19  H   UNL     1      56.144  22.206 128.910  1.00  0.00     0.293 HD
ENDBRANCH  15  18
BRANCH  17  20
ATOM     20  O   UNL     1      53.915  23.264 128.617  1.00  0.00    -0.504 OA
ATOM     21  H   UNL     1      53.730  24.215 128.911  1.00  0.00     0.293 HD
ENDBRANCH  17  20
ENDBRANCH   1  12
BRANCH   2  22
ATOM     22  O   UNL     1      50.083  19.348 128.656  1.00  0.00    -0.502 OA
ATOM     23  H   UNL     1      50.173  19.946 127.843  1.00  0.00     0.293 HD
ENDBRANCH   2  22
BRANCH   9  24
ATOM     24  O   UNL     1      46.341  21.723 135.036  1.00  0.00    -0.508 OA
ATOM     25  H   UNL     1      46.983  22.119 135.711  1.00  0.00     0.293 HD
ENDBRANCH   9  24
TORSDOF 5
ENDMDL
MODEL 2
REMARK VINA RESULT:    -4.417      3.528      6.063
REMARK INTER + INTRA:          -5.503
REMARK INTER:                  -5.186
REMARK INTRA:                  -0.317
REMARK UNBOUND:                -0.311
REMARK SMILES O=c1c(O)c(-c2ccc(O)c(O)c2)oc2cc(O)ccc12
REMARK SMILES IDX 5 1 3 2 2 3 1 4 21 5 15 6 14 7 16 8 17 9 19 10 20 11 6 12
REMARK SMILES IDX 7 13 8 14 9 15 13 16 11 17 10 18 12 20 4 22 18 24
REMARK H PARENT 10 19 12 21 4 23 18 25
REMARK Flexibility Score: inf
ROOT
ATOM      1  C   UNL     1      54.513  22.896 129.282  1.00  0.00     0.180 A 
ATOM      2  C   UNL     1      55.396  21.869 128.889  1.00  0.00     0.208 A 
ATOM      3  C   UNL     1      54.875  20.593 128.624  1.00  0.00     0.235 A 
ATOM      4  O   UNL     1      55.645  19.655 128.282  1.00  0.00    -0.285 OA
ATOM      5  C   UNL     1      53.491  20.376 128.734  1.00  0.00     0.069 A 
ATOM      6  C   UNL     1      52.672  21.462 129.109  1.00  0.00     0.142 A 
ATOM      7  O   UNL     1      53.207  22.652 129.360  1.00  0.00    -0.452 OA
ATOM      8  C   UNL     1      51.288  21.289 129.220  1.00  0.00     0.094 A 
ATOM      9  C   UNL     1      50.710  20.041 128.963  1.00  0.00     0.119 A 
ATOM     10  C   UNL     1      51.521  18.960 128.592  1.00  0.00     0.047 A 
ATOM     11  C   UNL     1      52.905  19.123 128.476  1.00  0.00     0.020 A 
ENDROOT
BRANCH   1  12
ATOM     12  C   UNL     1      54.988  24.263 129.598  1.00  0.00     0.025 A 
ATOM     13  C   UNL     1      55.391  24.567 130.908  1.00  0.00     0.016 A 
ATOM     14  C   UNL     1      55.862  25.844 131.224  1.00  0.00     0.051 A 
ATOM     15  C   UNL     1      55.952  26.829 130.232  1.00  0.00     0.157 A 
ATOM     16  C   UNL     1      55.099  25.248 128.601  1.00  0.00     0.062 A 
ATOM     17  C   UNL     1      55.573  26.529 128.918  1.00  0.00     0.158 A 
BRANCH  15  18
ATOM     18  O   UNL     1      56.420  28.104 130.544  1.00  0.00    -0.504 OA
ATOM     19  H   UNL     1      55.859  28.931 130.373  1.00  0.00     0.293 HD
ENDBRANCH  15  18
BRANCH  17  20
ATOM     20  O   UNL     1      55.676  27.508 127.930  1.00  0.00    -0.504 OA
ATOM     21  H   UNL     1      56.545  28.000 127.760  1.00  0.00     0.293 HD
ENDBRANCH  17  20
ENDBRANCH   1  12
BRANCH   2  22
ATOM     22  O   UNL     1      56.761  22.127 128.741  1.00  0.00    -0.502 OA
ATOM     23  H   UNL     1      57.121  23.059 128.578  1.00  0.00     0.293 HD
ENDBRANCH   2  22
BRANCH   9  24
ATOM     24  O   UNL     1      49.331  19.886 129.079  1.00  0.00    -0.508 OA
ATOM     25  H   UNL     1      48.821  20.256 129.872  1.00  0.00     0.293 HD
ENDBRANCH   9  24
TORSDOF 5
ENDMDL
MODEL 3
REMARK VINA RESULT:    -4.332     14.097     17.207
REMARK INTER + INTRA:          -5.403
REMARK INTER:                  -5.079
REMARK INTRA:                  -0.324
REMARK UNBOUND:                -0.311
REMARK SMILES O=c1c(O)c(-c2ccc(O)c(O)c2)oc2cc(O)ccc12
REMARK SMILES IDX 5 1 3 2 2 3 1 4 21 5 15 6 14 7 16 8 17 9 19 10 20 11 6 12
REMARK SMILES IDX 7 13 8 14 9 15 13 16 11 17 10 18 12 20 4 22 18 24
REMARK H PARENT 10 19 12 21 4 23 18 25
REMARK Flexibility Score: inf
ROOT
ATOM      1  C   UNL     1      61.289  33.868 129.645  1.00  0.00     0.180 A 
ATOM      2  C   UNL     1      61.176  32.765 128.773  1.00  0.00     0.208 A 
ATOM      3  C   UNL     1      59.962  32.064 128.722  1.00  0.00     0.235 A 
ATOM      4  O   UNL     1      59.839  31.068 127.958  1.00  0.00    -0.285 OA
ATOM      5  C   UNL     1      58.887  32.487 129.521  1.00  0.00     0.069 A 
ATOM      6  C   UNL     1      59.072  33.614 130.349  1.00  0.00     0.142 A 
ATOM      7  O   UNL     1      60.242  34.244 130.375  1.00  0.00    -0.452 OA
ATOM      8  C   UNL     1      58.023  34.072 131.153  1.00  0.00     0.094 A 
ATOM      9  C   UNL     1      56.786  33.418 131.141  1.00  0.00     0.119 A 
ATOM     10  C   UNL     1      56.600  32.296 130.321  1.00  0.00     0.047 A 
ATOM     11  C   UNL     1      57.642  31.832 129.513  1.00  0.00     0.020 A 
ENDROOT
BRANCH   1  12
ATOM     12  C   UNL     1      62.543  34.646 129.770  1.00  0.00     0.025 A 
ATOM     13  C   UNL     1      62.733  35.779 128.964  1.00  0.00     0.016 A 
ATOM     14  C   UNL     1      63.900  36.541 129.078  1.00  0.00     0.051 A 
ATOM     15  C   UNL     1      64.884  36.189 130.011  1.00  0.00     0.157 A 
ATOM     16  C   UNL     1      63.523  34.309 130.719  1.00  0.00     0.062 A 
ATOM     17  C   UNL     1      64.693  35.074 130.836  1.00  0.00     0.158 A 
BRANCH  15  18
ATOM     18  O   UNL     1      66.049  36.945 130.127  1.00  0.00    -0.504 OA
ATOM     19  H   UNL     1      66.683  37.064 129.346  1.00  0.00     0.293 HD
ENDBRANCH  15  18
BRANCH  17  20
ATOM     20  O   UNL     1      65.668  34.734 131.774  1.00  0.00    -0.504 OA
ATOM     21  H   UNL     1      66.625  35.051 131.681  1.00  0.00     0.293 HD
ENDBRANCH  17  20
ENDBRANCH   1  12
BRANCH   2  22
ATOM     22  O   UNL     1      62.247  32.397 127.954  1.00  0.00    -0.502 OA
ATOM     23  H   UNL     1      62.122  32.138 126.982  1.00  0.00     0.293 HD
ENDBRANCH   2  22
BRANCH   9  24
ATOM     24  O   UNL     1      55.752  33.887 131.948  1.00  0.00    -0.508 OA
ATOM     25  H   UNL     1      55.147  34.640 131.646  1.00  0.00     0.293 HD
ENDBRANCH   9  24
TORSDOF 5
ENDMDL
MODEL 4
REMARK VINA RESULT:    -4.317     11.383     14.332
REMARK INTER + INTRA:          -5.385
REMARK INTER:                  -5.061
REMARK INTRA:                  -0.324
REMARK UNBOUND:                -0.311
REMARK SMILES O=c1c(O)c(-c2ccc(O)c(O)c2)oc2cc(O)ccc12
REMARK SMILES IDX 5 1 3 2 2 3 1 4 21 5 15 6 14 7 16 8 17 9 19 10 20 11 6 12
REMARK SMILES IDX 7 13 8 14 9 15 13 16 11 17 10 18 12 20 4 22 18 24
REMARK H PARENT 10 19 12 21 4 23 18 25
REMARK Flexibility Score: inf
ROOT
ATOM      1  C   UNL     1      51.678  22.117 144.275  1.00  0.00     0.180 A 
ATOM      2  C   UNL     1      52.503  21.067 144.731  1.00  0.00     0.208 A 
ATOM      3  C   UNL     1      52.725  19.966 143.890  1.00  0.00     0.235 A 
ATOM      4  O   UNL     1      53.450  19.010 144.279  1.00  0.00    -0.285 OA
ATOM      5  C   UNL     1      52.141  19.946 142.612  1.00  0.00     0.069 A 
ATOM      6  C   UNL     1      51.349  21.045 142.220  1.00  0.00     0.142 A 
ATOM      7  O   UNL     1      51.156  22.064 143.051  1.00  0.00    -0.452 OA
ATOM      8  C   UNL     1      50.758  21.066 140.953  1.00  0.00     0.094 A 
ATOM      9  C   UNL     1      50.948  20.000 140.067  1.00  0.00     0.119 A 
ATOM     10  C   UNL     1      51.733  18.905 140.454  1.00  0.00     0.047 A 
ATOM     11  C   UNL     1      52.329  18.875 141.718  1.00  0.00     0.020 A 
ENDROOT
BRANCH   1  12
ATOM     12  C   UNL     1      51.380  23.303 145.110  1.00  0.00     0.025 A 
ATOM     13  C   UNL     1      52.187  24.446 144.996  1.00  0.00     0.016 A 
ATOM     14  C   UNL     1      51.912  25.584 145.761  1.00  0.00     0.051 A 
ATOM     15  C   UNL     1      50.819  25.600 146.636  1.00  0.00     0.157 A 
ATOM     16  C   UNL     1      50.272  23.330 145.975  1.00  0.00     0.062 A 
ATOM     17  C   UNL     1      49.995  24.472 146.740  1.00  0.00     0.158 A 
BRANCH  15  18
ATOM     18  O   UNL     1      50.543  26.732 147.400  1.00  0.00    -0.504 OA
ATOM     19  H   UNL     1      50.463  26.683 148.409  1.00  0.00     0.293 HD
ENDBRANCH  15  18
BRANCH  17  20
ATOM     20  O   UNL     1      48.900  24.495 147.602  1.00  0.00    -0.504 OA
ATOM     21  H   UNL     1      48.878  23.937 148.447  1.00  0.00     0.293 HD
ENDBRANCH  17  20
ENDBRANCH   1  12
BRANCH   2  22
ATOM     22  O   UNL     1      53.109  21.139 145.988  1.00  0.00    -0.502 OA
ATOM     23  H   UNL     1      52.762  21.743 146.723  1.00  0.00     0.293 HD
ENDBRANCH   2  22
BRANCH   9  24
ATOM     24  O   UNL     1      50.352  20.036 138.809  1.00  0.00    -0.508 OA
ATOM     25  H   UNL     1      50.891  19.889 137.964  1.00  0.00     0.293 HD
ENDBRANCH   9  24
TORSDOF 5
ENDMDL
MODEL 5
REMARK VINA RESULT:    -4.299      8.884     12.132
REMARK INTER + INTRA:          -5.364
REMARK INTER:                  -5.172
REMARK INTRA:                  -0.192
REMARK UNBOUND:                -0.311
REMARK SMILES O=c1c(O)c(-c2ccc(O)c(O)c2)oc2cc(O)ccc12
REMARK SMILES IDX 5 1 3 2 2 3 1 4 21 5 15 6 14 7 16 8 17 9 19 10 20 11 6 12
REMARK SMILES IDX 7 13 8 14 9 15 13 16 11 17 10 18 12 20 4 22 18 24
REMARK H PARENT 10 19 12 21 4 23 18 25
REMARK Flexibility Score: inf
ROOT
ATOM      1  C   UNL     1      56.320  30.442 129.055  1.00  0.00     0.180 A 
ATOM      2  C   UNL     1      54.953  30.631 128.761  1.00  0.00     0.208 A 
ATOM      3  C   UNL     1      54.180  29.519 128.394  1.00  0.00     0.235 A 
ATOM      4  O   UNL     1      52.958  29.663 128.115  1.00  0.00    -0.285 OA
ATOM      5  C   UNL     1      54.777  28.248 128.349  1.00  0.00     0.069 A 
ATOM      6  C   UNL     1      56.143  28.138 128.681  1.00  0.00     0.142 A 
ATOM      7  O   UNL     1      56.842  29.218 129.015  1.00  0.00    -0.452 OA
ATOM      8  C   UNL     1      56.772  26.889 128.658  1.00  0.00     0.094 A 
ATOM      9  C   UNL     1      56.051  25.742 128.305  1.00  0.00     0.119 A 
ATOM     10  C   UNL     1      54.694  25.848 127.973  1.00  0.00     0.047 A 
ATOM     11  C   UNL     1      54.057  27.092 127.995  1.00  0.00     0.020 A 
ENDROOT
BRANCH   1  12
ATOM     12  C   UNL     1      57.206  31.567 129.431  1.00  0.00     0.025 A 
ATOM     13  C   UNL     1      57.035  32.192 130.677  1.00  0.00     0.016 A 
ATOM     14  C   UNL     1      57.873  33.243 131.061  1.00  0.00     0.051 A 
ATOM     15  C   UNL     1      58.902  33.672 130.213  1.00  0.00     0.157 A 
ATOM     16  C   UNL     1      58.252  31.987 128.592  1.00  0.00     0.062 A 
ATOM     17  C   UNL     1      59.095  33.040 128.978  1.00  0.00     0.158 A 
BRANCH  15  18
ATOM     18  O   UNL     1      59.737  34.721 130.592  1.00  0.00    -0.504 OA
ATOM     19  H   UNL     1      60.039  34.838 131.553  1.00  0.00     0.293 HD
ENDBRANCH  15  18
BRANCH  17  20
ATOM     20  O   UNL     1      60.128  33.461 128.142  1.00  0.00    -0.504 OA
ATOM     21  H   UNL     1      60.022  34.260 127.529  1.00  0.00     0.293 HD
ENDBRANCH  17  20
ENDBRANCH   1  12
BRANCH   2  22
ATOM     22  O   UNL     1      54.376  31.899 128.861  1.00  0.00    -0.502 OA
ATOM     23  H   UNL     1      54.854  32.737 128.552  1.00  0.00     0.293 HD
ENDBRANCH   2  22
BRANCH   9  24
ATOM     24  O   UNL     1      56.692  24.506 128.287  1.00  0.00    -0.508 OA
ATOM     25  H   UNL     1      56.600  23.874 127.501  1.00  0.00     0.293 HD
ENDBRANCH   9  24
TORSDOF 5
ENDMDL
MODEL 6
REMARK VINA RESULT:    -4.267     13.812     17.484
REMARK INTER + INTRA:          -5.327
REMARK INTER:                  -5.022
REMARK INTRA:                  -0.304
REMARK UNBOUND:                -0.311
REMARK SMILES O=c1c(O)c(-c2ccc(O)c(O)c2)oc2cc(O)ccc12
REMARK SMILES IDX 5 1 3 2 2 3 1 4 21 5 15 6 14 7 16 8 17 9 19 10 20 11 6 12
REMARK SMILES IDX 7 13 8 14 9 15 13 16 11 17 10 18 12 20 4 22 18 24
REMARK H PARENT 10 19 12 21 4 23 18 25
REMARK Flexibility Score: inf
ROOT
ATOM      1  C   UNL     1      64.701  28.164 133.428  1.00  0.00     0.180 A 
ATOM      2  C   UNL     1      65.245  27.993 134.719  1.00  0.00     0.208 A 
ATOM      3  C   UNL     1      65.586  29.131 135.465  1.00  0.00     0.235 A 
ATOM      4  O   UNL     1      66.085  29.004 136.617  1.00  0.00    -0.285 OA
ATOM      5  C   UNL     1      65.360  30.406 134.922  1.00  0.00     0.069 A 
ATOM      6  C   UNL     1      64.790  30.493 133.635  1.00  0.00     0.142 A 
ATOM      7  O   UNL     1      64.489  29.391 132.957  1.00  0.00    -0.452 OA
ATOM      8  C   UNL     1      64.540  31.745 133.063  1.00  0.00     0.094 A 
ATOM      9  C   UNL     1      64.854  32.916 133.761  1.00  0.00     0.119 A 
ATOM     10  C   UNL     1      65.423  32.833 135.040  1.00  0.00     0.047 A 
ATOM     11  C   UNL     1      65.675  31.586 135.620  1.00  0.00     0.020 A 
ENDROOT
BRANCH   1  12
ATOM     12  C   UNL     1      64.333  27.013 132.572  1.00  0.00     0.025 A 
ATOM     13  C   UNL     1      62.983  26.649 132.449  1.00  0.00     0.016 A 
ATOM     14  C   UNL     1      62.610  25.579 131.630  1.00  0.00     0.051 A 
ATOM     15  C   UNL     1      63.581  24.870 130.910  1.00  0.00     0.157 A 
ATOM     16  C   UNL     1      65.301  26.312 131.832  1.00  0.00     0.062 A 
ATOM     17  C   UNL     1      64.928  25.240 131.008  1.00  0.00     0.158 A 
BRANCH  15  18
ATOM     18  O   UNL     1      63.213  23.802 130.094  1.00  0.00    -0.504 OA
ATOM     19  H   UNL     1      63.775  23.527 129.296  1.00  0.00     0.293 HD
ENDBRANCH  15  18
BRANCH  17  20
ATOM     20  O   UNL     1      65.890  24.541 130.280  1.00  0.00    -0.504 OA
ATOM     21  H   UNL     1      66.554  23.926 130.734  1.00  0.00     0.293 HD
ENDBRANCH  17  20
ENDBRANCH   1  12
BRANCH   2  22
ATOM     22  O   UNL     1      65.413  26.712 135.252  1.00  0.00    -0.502 OA
ATOM     23  H   UNL     1      64.989  25.892 134.835  1.00  0.00     0.293 HD
ENDBRANCH   2  22
BRANCH   9  24
ATOM     24  O   UNL     1      64.600  34.154 133.177  1.00  0.00    -0.508 OA
ATOM     25  H   UNL     1      63.780  34.696 133.423  1.00  0.00     0.293 HD
ENDBRANCH   9  24
TORSDOF 5
ENDMDL
MODEL 7
REMARK VINA RESULT:    -4.246      1.595      6.509
REMARK INTER + INTRA:          -5.302
REMARK INTER:                  -4.979
REMARK INTRA:                  -0.324
REMARK UNBOUND:                -0.311
REMARK SMILES O=c1c(O)c(-c2ccc(O)c(O)c2)oc2cc(O)ccc12
REMARK SMILES IDX 5 1 3 2 2 3 1 4 21 5 15 6 14 7 16 8 17 9 19 10 20 11 6 12
REMARK SMILES IDX 7 13 8 14 9 15 13 16 11 17 10 18 12 20 4 22 18 24
REMARK H PARENT 10 19 12 21 4 23 18 25
REMARK Flexibility Score: inf
ROOT
ATOM      1  C   UNL     1      50.507  20.774 131.183  1.00  0.00     0.180 A 
ATOM      2  C   UNL     1      50.405  19.855 130.117  1.00  0.00     0.208 A 
ATOM      3  C   UNL     1      51.507  19.682 129.266  1.00  0.00     0.235 A 
ATOM      4  O   UNL     1      51.437  18.875 128.299  1.00  0.00    -0.285 OA
ATOM      5  C   UNL     1      52.686  20.406 129.507  1.00  0.00     0.069 A 
ATOM      6  C   UNL     1      52.716  21.287 130.609  1.00  0.00     0.142 A 
ATOM      7  O   UNL     1      51.647  21.429 131.385  1.00  0.00    -0.452 OA
ATOM      8  C   UNL     1      53.875  22.019 130.888  1.00  0.00     0.094 A 
ATOM      9  C   UNL     1      55.008  21.884 130.078  1.00  0.00     0.119 A 
ATOM     10  C   UNL     1      54.980  21.012 128.981  1.00  0.00     0.047 A 
ATOM     11  C   UNL     1      53.827  20.274 128.695  1.00  0.00     0.020 A 
ENDROOT
BRANCH   1  12
ATOM     12  C   UNL     1      49.382  21.026 132.112  1.00  0.00     0.025 A 
ATOM     13  C   UNL     1      49.312  20.315 133.320  1.00  0.00     0.016 A 
ATOM     14  C   UNL     1      48.270  20.551 134.222  1.00  0.00     0.051 A 
ATOM     15  C   UNL     1      47.294  21.515 133.936  1.00  0.00     0.157 A 
ATOM     16  C   UNL     1      48.411  22.006 131.838  1.00  0.00     0.062 A 
ATOM     17  C   UNL     1      47.367  22.246 132.743  1.00  0.00     0.158 A 
BRANCH  15  18
ATOM     18  O   UNL     1      46.254  21.752 134.831  1.00  0.00    -0.504 OA
ATOM     19  H   UNL     1      46.100  22.669 135.235  1.00  0.00     0.293 HD
ENDBRANCH  15  18
BRANCH  17  20
ATOM     20  O   UNL     1      46.402  23.213 132.467  1.00  0.00    -0.504 OA
ATOM     21  H   UNL     1      45.921  23.708 133.208  1.00  0.00     0.293 HD
ENDBRANCH  17  20
ENDBRANCH   1  12
BRANCH   2  22
ATOM     22  O   UNL     1      49.235  19.113 129.931  1.00  0.00    -0.502 OA
ATOM     23  H   UNL     1      48.921  18.819 129.014  1.00  0.00     0.293 HD
ENDBRANCH   2  22
BRANCH   9  24
ATOM     24  O   UNL     1      56.153  22.621 130.370  1.00  0.00    -0.508 OA
ATOM     25  H   UNL     1      56.616  23.181 129.664  1.00  0.00     0.293 HD
ENDBRANCH   9  24
TORSDOF 5
ENDMDL
MODEL 8
REMARK VINA RESULT:    -4.232     13.500     17.016
REMARK INTER + INTRA:          -5.285
REMARK INTER:                  -4.997
REMARK INTRA:                  -0.288
REMARK UNBOUND:                -0.311
REMARK SMILES O=c1c(O)c(-c2ccc(O)c(O)c2)oc2cc(O)ccc12
REMARK SMILES IDX 5 1 3 2 2 3 1 4 21 5 15 6 14 7 16 8 17 9 19 10 20 11 6 12
REMARK SMILES IDX 7 13 8 14 9 15 13 16 11 17 10 18 12 20 4 22 18 24
REMARK H PARENT 10 19 12 21 4 23 18 25
REMARK Flexibility Score: inf
ROOT
ATOM      1  C   UNL     1      61.760  32.961 129.694  1.00  0.00     0.180 A 
ATOM      2  C   UNL     1      60.575  33.266 128.991  1.00  0.00     0.208 A 
ATOM      3  C   UNL     1      59.645  32.242 128.755  1.00  0.00     0.235 A 
ATOM      4  O   UNL     1      58.583  32.487 128.120  1.00  0.00    -0.285 OA
ATOM      5  C   UNL     1      59.904  30.950 129.242  1.00  0.00     0.069 A 
ATOM      6  C   UNL     1      61.100  30.731 129.957  1.00  0.00     0.142 A 
ATOM      7  O   UNL     1      61.959  31.727 130.150  1.00  0.00    -0.452 OA
ATOM      8  C   UNL     1      61.389  29.461 130.466  1.00  0.00     0.094 A 
ATOM      9  C   UNL     1      60.497  28.401 130.268  1.00  0.00     0.119 A 
ATOM     10  C   UNL     1      59.309  28.615 129.556  1.00  0.00     0.047 A 
ATOM     11  C   UNL     1      59.010  29.881 129.045  1.00  0.00     0.020 A 
ENDROOT
BRANCH   1  12
ATOM     12  C   UNL     1      62.798  33.982 129.964  1.00  0.00     0.025 A 
ATOM     13  C   UNL     1      63.913  34.072 129.117  1.00  0.00     0.016 A 
ATOM     14  C   UNL     1      64.896  35.040 129.342  1.00  0.00     0.051 A 
ATOM     15  C   UNL     1      64.767  35.943 130.406  1.00  0.00     0.157 A 
ATOM     16  C   UNL     1      62.663  34.902 131.019  1.00  0.00     0.062 A 
ATOM     17  C   UNL     1      63.647  35.876 131.243  1.00  0.00     0.158 A 
BRANCH  15  18
ATOM     18  O   UNL     1      65.745  36.909 130.634  1.00  0.00    -0.504 OA
ATOM     19  H   UNL     1      65.526  37.789 131.086  1.00  0.00     0.293 HD
ENDBRANCH  15  18
BRANCH  17  20
ATOM     20  O   UNL     1      63.515  36.784 132.293  1.00  0.00    -0.504 OA
ATOM     21  H   UNL     1      63.518  37.783 132.132  1.00  0.00     0.293 HD
ENDBRANCH  17  20
ENDBRANCH   1  12
BRANCH   2  22
ATOM     22  O   UNL     1      60.323  34.572 128.561  1.00  0.00    -0.502 OA
ATOM     23  H   UNL     1      60.212  35.343 129.209  1.00  0.00     0.293 HD
ENDBRANCH   2  22
BRANCH   9  24
ATOM     24  O   UNL     1      60.801  27.142 130.780  1.00  0.00    -0.508 OA
ATOM     25  H   UNL     1      60.146  26.637 131.364  1.00  0.00     0.293 HD
ENDBRANCH   9  24
TORSDOF 5
ENDMDL
