MODEL 1
REMARK VINA RESULT:    -4.643      0.000      0.000
REMARK INTER + INTRA:          -9.943
REMARK INTER:                  -8.715
REMARK INTRA:                  -1.227
REMARK UNBOUND:                -1.227
REMARK SMILES CCCCCCCCC=CCCCCCCCC(=O)[O-]
REMARK SMILES IDX 10 1 9 2 11 3 12 4 13 5 14 6 15 7 16 8 17 9 18 10 19 11
REMARK SMILES IDX 20 12 8 13 7 14 6 15 5 16 4 17 3 18 2 19 1 20
REMARK H PARENT
REMARK Flexibility Score: inf
ROOT
ATOM      1  C   UNL     1      44.209  26.751   3.052  1.00  0.00    -0.031 C 
ATOM      2  C   UNL     1      44.874  26.021   3.966  1.00  0.00    -0.031 C 
ENDROOT
BRANCH   1   3
ATOM      3  C   UNL     1      44.862  27.530   1.939  1.00  0.00     0.027 C 
BRANCH   3   4
ATOM      4  C   UNL     1      44.878  29.028   2.258  1.00  0.00     0.004 C 
BRANCH   4   5
ATOM      5  C   UNL     1      45.309  29.847   1.031  1.00  0.00     0.000 C 
BRANCH   5   6
ATOM      6  C   UNL     1      45.768  28.961  -0.139  1.00  0.00     0.000 C 
BRANCH   6   7
ATOM      7  C   UNL     1      45.025  29.281  -1.449  1.00  0.00     0.000 C 
BRANCH   7   8
ATOM      8  C   UNL     1      45.063  28.112  -2.447  1.00  0.00     0.006 C 
BRANCH   8   9
ATOM      9  C   UNL     1      44.312  28.425  -3.747  1.00  0.00     0.053 C 
BRANCH   9  10
ATOM     10  C   UNL     1      43.112  27.541  -3.882  1.00  0.00     0.041 C 
ATOM     11  O   UNL     1      43.197  26.313  -3.617  1.00  0.00    -0.550 OA
ATOM     12  O   UNL     1      41.887  28.082  -4.253  1.00  0.00    -0.550 OA
ENDBRANCH   9  10
ENDBRANCH   8   9
ENDBRANCH   7   8
ENDBRANCH   6   7
ENDBRANCH   5   6
ENDBRANCH   4   5
ENDBRANCH   3   4
ENDBRANCH   1   3
BRANCH   2  13
ATOM     13  C   UNL     1      46.366  25.804   3.962  1.00  0.00     0.027 C 
BRANCH  13  14
ATOM     14  C   UNL     1      47.040  26.645   5.054  1.00  0.00     0.004 C 
BRANCH  14  15
ATOM     15  C   UNL     1      46.062  27.064   6.163  1.00  0.00     0.000 C 
BRANCH  15  16
ATOM     16  C   UNL     1      45.977  28.593   6.330  1.00  0.00     0.000 C 
BRANCH  16  17
ATOM     17  C   UNL     1      46.287  29.042   7.772  1.00  0.00    -0.000 C 
BRANCH  17  18
ATOM     18  C   UNL     1      45.057  29.548   8.550  1.00  0.00    -0.000 C 
BRANCH  18  19
ATOM     19  C   UNL     1      44.742  28.747   9.828  1.00  0.00    -0.003 C 
ATOM     20  C   UNL     1      45.126  27.271   9.710  1.00  0.00     0.004 C 
ENDBRANCH  18  19
ENDBRANCH  17  18
ENDBRANCH  16  17
ENDBRANCH  15  16
ENDBRANCH  14  15
ENDBRANCH  13  14
ENDBRANCH   2  13
TORSDOF 15
ENDMDL
MODEL 2
REMARK VINA RESULT:    -4.630      1.003      1.429
REMARK INTER + INTRA:          -9.917
REMARK INTER:                  -8.943
REMARK INTRA:                  -0.974
REMARK UNBOUND:                -1.227
REMARK SMILES CCCCCCCCC=CCCCCCCCC(=O)[O-]
REMARK SMILES IDX 10 1 9 2 11 3 12 4 13 5 14 6 15 7 16 8 17 9 18 10 19 11
REMARK SMILES IDX 20 12 8 13 7 14 6 15 5 16 4 17 3 18 2 19 1 20
REMARK H PARENT
REMARK Flexibility Score: inf
ROOT
ATOM      1  C   UNL     1      44.201  27.109   2.985  1.00  0.00    -0.031 C 
ATOM      2  C   UNL     1      44.830  26.196   3.747  1.00  0.00    -0.031 C 
ENDROOT
BRANCH   1   3
ATOM      3  C   UNL     1      44.879  28.279   2.316  1.00  0.00     0.027 C 
BRANCH   3   4
ATOM      4  C   UNL     1      45.479  27.863   0.969  1.00  0.00     0.004 C 
BRANCH   4   5
ATOM      5  C   UNL     1      46.274  29.019   0.343  1.00  0.00     0.000 C 
BRANCH   5   6
ATOM      6  C   UNL     1      46.056  29.133  -1.175  1.00  0.00     0.000 C 
BRANCH   6   7
ATOM      7  C   UNL     1      45.629  27.798  -1.812  1.00  0.00     0.000 C 
BRANCH   7   8
ATOM      8  C   UNL     1      45.049  27.980  -3.224  1.00  0.00     0.006 C 
BRANCH   8   9
ATOM      9  C   UNL     1      43.835  27.078  -3.482  1.00  0.00     0.053 C 
BRANCH   9  10
ATOM     10  C   UNL     1      42.964  27.666  -4.547  1.00  0.00     0.041 C 
ATOM     11  O   UNL     1      43.371  27.722  -5.737  1.00  0.00    -0.550 OA
ATOM     12  O   UNL     1      41.685  28.107  -4.235  1.00  0.00    -0.550 OA
ENDBRANCH   9  10
ENDBRANCH   8   9
ENDBRANCH   7   8
ENDBRANCH   6   7
ENDBRANCH   5   6
ENDBRANCH   4   5
ENDBRANCH   3   4
ENDBRANCH   1   3
BRANCH   2  13
ATOM     13  C   UNL     1      46.319  26.158   3.978  1.00  0.00     0.027 C 
BRANCH  13  14
ATOM     14  C   UNL     1      46.654  26.541   5.426  1.00  0.00     0.004 C 
BRANCH  14  15
ATOM     15  C   UNL     1      46.157  27.947   5.794  1.00  0.00     0.000 C 
BRANCH  15  16
ATOM     16  C   UNL     1      45.941  28.120   7.309  1.00  0.00     0.000 C 
BRANCH  16  17
ATOM     17  C   UNL     1      45.671  26.777   8.019  1.00  0.00    -0.000 C 
BRANCH  17  18
ATOM     18  C   UNL     1      45.210  26.922   9.482  1.00  0.00    -0.000 C 
BRANCH  18  19
ATOM     19  C   UNL     1      44.840  28.362   9.890  1.00  0.00    -0.003 C 
ATOM     20  C   UNL     1      45.814  28.956  10.908  1.00  0.00     0.004 C 
ENDBRANCH  18  19
ENDBRANCH  17  18
ENDBRANCH  16  17
ENDBRANCH  15  16
ENDBRANCH  14  15
ENDBRANCH  13  14
ENDBRANCH   2  13
TORSDOF 15
ENDMDL
MODEL 3
REMARK VINA RESULT:    -4.488      1.108      2.213
REMARK INTER + INTRA:          -9.651
REMARK INTER:                  -8.317
REMARK INTRA:                  -1.334
REMARK UNBOUND:                -1.227
REMARK SMILES CCCCCCCCC=CCCCCCCCC(=O)[O-]
REMARK SMILES IDX 10 1 9 2 11 3 12 4 13 5 14 6 15 7 16 8 17 9 18 10 19 11
REMARK SMILES IDX 20 12 8 13 7 14 6 15 5 16 4 17 3 18 2 19 1 20
REMARK H PARENT
REMARK Flexibility Score: inf
ROOT
ATOM      1  C   UNL     1      45.283  28.713   1.831  1.00  0.00    -0.031 C 
ATOM      2  C   UNL     1      44.674  28.201   2.917  1.00  0.00    -0.031 C 
ENDROOT
BRANCH   1   3
ATOM      3  C   UNL     1      45.632  27.923   0.595  1.00  0.00     0.027 C 
BRANCH   3   4
ATOM      4  C   UNL     1      46.231  28.833  -0.483  1.00  0.00     0.004 C 
BRANCH   4   5
ATOM      5  C   UNL     1      45.261  29.970  -0.842  1.00  0.00     0.000 C 
BRANCH   5   6
ATOM      6  C   UNL     1      44.554  29.740  -2.188  1.00  0.00     0.000 C 
BRANCH   6   7
ATOM      7  C   UNL     1      45.364  28.837  -3.134  1.00  0.00     0.000 C 
BRANCH   7   8
ATOM      8  C   UNL     1      44.544  27.646  -3.657  1.00  0.00     0.006 C 
BRANCH   8   9
ATOM      9  C   UNL     1      43.044  27.955  -3.736  1.00  0.00     0.053 C 
BRANCH   9  10
ATOM     10  C   UNL     1      42.640  28.222  -5.152  1.00  0.00     0.041 C 
ATOM     11  O   UNL     1      41.569  28.836  -5.399  1.00  0.00    -0.550 OA
ATOM     12  O   UNL     1      43.470  27.837  -6.196  1.00  0.00    -0.550 OA
ENDBRANCH   9  10
ENDBRANCH   8   9
ENDBRANCH   7   8
ENDBRANCH   6   7
ENDBRANCH   5   6
ENDBRANCH   4   5
ENDBRANCH   3   4
ENDBRANCH   1   3
BRANCH   2  13
ATOM     13  C   UNL     1      44.176  26.782   3.026  1.00  0.00     0.027 C 
BRANCH  13  14
ATOM     14  C   UNL     1      44.910  26.035   4.147  1.00  0.00     0.004 C 
BRANCH  14  15
ATOM     15  C   UNL     1      46.435  26.200   4.066  1.00  0.00     0.000 C 
BRANCH  15  16
ATOM     16  C   UNL     1      47.032  26.814   5.346  1.00  0.00     0.000 C 
BRANCH  16  17
ATOM     17  C   UNL     1      46.003  26.894   6.492  1.00  0.00    -0.000 C 
BRANCH  17  18
ATOM     18  C   UNL     1      45.895  28.287   7.142  1.00  0.00    -0.000 C 
BRANCH  18  19
ATOM     19  C   UNL     1      45.236  28.286   8.535  1.00  0.00    -0.003 C 
ATOM     20  C   UNL     1      45.320  26.925   9.227  1.00  0.00     0.004 C 
ENDBRANCH  18  19
ENDBRANCH  17  18
ENDBRANCH  16  17
ENDBRANCH  15  16
ENDBRANCH  14  15
ENDBRANCH  13  14
ENDBRANCH   2  13
TORSDOF 15
ENDMDL
MODEL 4
REMARK VINA RESULT:    -4.417      4.557      9.750
REMARK INTER + INTRA:          -9.518
REMARK INTER:                  -8.315
REMARK INTRA:                  -1.203
REMARK UNBOUND:                -1.227
REMARK SMILES CCCCCCCCC=CCCCCCCCC(=O)[O-]
REMARK SMILES IDX 10 1 9 2 11 3 12 4 13 5 14 6 15 7 16 8 17 9 18 10 19 11
REMARK SMILES IDX 20 12 8 13 7 14 6 15 5 16 4 17 3 18 2 19 1 20
REMARK H PARENT
REMARK Flexibility Score: inf
ROOT
ATOM      1  C   UNL     1      44.375  28.233   3.053  1.00  0.00    -0.031 C 
ATOM      2  C   UNL     1      45.087  28.942   2.158  1.00  0.00    -0.031 C 
ENDROOT
BRANCH   1   3
ATOM      3  C   UNL     1      44.182  26.739   3.002  1.00  0.00     0.027 C 
BRANCH   3   4
ATOM      4  C   UNL     1      44.845  26.062   4.207  1.00  0.00     0.004 C 
BRANCH   4   5
ATOM      5  C   UNL     1      46.373  26.215   4.151  1.00  0.00     0.000 C 
BRANCH   5   6
ATOM      6  C   UNL     1      46.985  26.543   5.522  1.00  0.00     0.000 C 
BRANCH   6   7
ATOM      7  C   UNL     1      46.723  27.997   5.954  1.00  0.00     0.000 C 
BRANCH   7   8
ATOM      8  C   UNL     1      45.889  28.088   7.242  1.00  0.00     0.006 C 
BRANCH   8   9
ATOM      9  C   UNL     1      45.638  26.715   7.878  1.00  0.00     0.053 C 
BRANCH   9  10
ATOM     10  C   UNL     1      45.459  26.850   9.357  1.00  0.00     0.041 C 
ATOM     11  O   UNL     1      46.001  26.025  10.139  1.00  0.00    -0.550 OA
ATOM     12  O   UNL     1      44.735  27.915   9.876  1.00  0.00    -0.550 OA
ENDBRANCH   9  10
ENDBRANCH   8   9
ENDBRANCH   7   8
ENDBRANCH   6   7
ENDBRANCH   5   6
ENDBRANCH   4   5
ENDBRANCH   3   4
ENDBRANCH   1   3
BRANCH   2  13
ATOM     13  C   UNL     1      45.868  28.338   1.019  1.00  0.00     0.027 C 
BRANCH  13  14
ATOM     14  C   UNL     1      45.669  29.152  -0.267  1.00  0.00     0.004 C 
BRANCH  14  15
ATOM     15  C   UNL     1      46.301  28.479  -1.495  1.00  0.00     0.000 C 
BRANCH  15  16
ATOM     16  C   UNL     1      45.334  27.513  -2.204  1.00  0.00     0.000 C 
BRANCH  16  17
ATOM     17  C   UNL     1      44.449  28.229  -3.244  1.00  0.00    -0.000 C 
BRANCH  17  18
ATOM     18  C   UNL     1      43.492  27.291  -4.005  1.00  0.00    -0.000 C 
BRANCH  18  19
ATOM     19  C   UNL     1      42.135  27.928  -4.365  1.00  0.00    -0.003 C 
ATOM     20  C   UNL     1      42.244  28.950  -5.497  1.00  0.00     0.004 C 
ENDBRANCH  18  19
ENDBRANCH  17  18
ENDBRANCH  16  17
ENDBRANCH  15  16
ENDBRANCH  14  15
ENDBRANCH  13  14
ENDBRANCH   2  13
TORSDOF 15
ENDMDL
MODEL 5
REMARK VINA RESULT:    -4.361      4.497      9.813
REMARK INTER + INTRA:          -9.412
REMARK INTER:                  -8.338
REMARK INTRA:                  -1.074
REMARK UNBOUND:                -1.227
REMARK SMILES CCCCCCCCC=CCCCCCCCC(=O)[O-]
REMARK SMILES IDX 10 1 9 2 11 3 12 4 13 5 14 6 15 7 16 8 17 9 18 10 19 11
REMARK SMILES IDX 20 12 8 13 7 14 6 15 5 16 4 17 3 18 2 19 1 20
REMARK H PARENT
REMARK Flexibility Score: inf
ROOT
ATOM      1  C   UNL     1      44.451  26.453   3.667  1.00  0.00    -0.031 C 
ATOM      2  C   UNL     1      44.313  27.334   2.658  1.00  0.00    -0.031 C 
ENDROOT
BRANCH   1   3
ATOM      3  C   UNL     1      45.774  26.012   4.241  1.00  0.00     0.027 C 
BRANCH   3   4
ATOM      4  C   UNL     1      46.009  26.646   5.616  1.00  0.00     0.004 C 
BRANCH   4   5
ATOM      5  C   UNL     1      46.890  27.900   5.499  1.00  0.00     0.000 C 
BRANCH   5   6
ATOM      6  C   UNL     1      46.893  28.743   6.784  1.00  0.00     0.000 C 
BRANCH   6   7
ATOM      7  C   UNL     1      45.475  29.010   7.318  1.00  0.00     0.000 C 
BRANCH   7   8
ATOM      8  C   UNL     1      45.481  29.577   8.748  1.00  0.00     0.006 C 
BRANCH   8   9
ATOM      9  C   UNL     1      44.710  28.691   9.735  1.00  0.00     0.053 C 
BRANCH   9  10
ATOM     10  C   UNL     1      45.469  27.430  10.007  1.00  0.00     0.041 C 
ATOM     11  O   UNL     1      46.410  27.426  10.844  1.00  0.00    -0.550 OA
ATOM     12  O   UNL     1      45.105  26.249   9.374  1.00  0.00    -0.550 OA
ENDBRANCH   9  10
ENDBRANCH   8   9
ENDBRANCH   7   8
ENDBRANCH   6   7
ENDBRANCH   5   6
ENDBRANCH   4   5
ENDBRANCH   3   4
ENDBRANCH   1   3
BRANCH   2  13
ATOM     13  C   UNL     1      45.455  28.075   2.011  1.00  0.00     0.027 C 
BRANCH  13  14
ATOM     14  C   UNL     1      45.417  27.902   0.486  1.00  0.00     0.004 C 
BRANCH  14  15
ATOM     15  C   UNL     1      45.594  29.232  -0.263  1.00  0.00     0.000 C 
BRANCH  15  16
ATOM     16  C   UNL     1      45.123  29.153  -1.727  1.00  0.00     0.000 C 
BRANCH  16  17
ATOM     17  C   UNL     1      45.063  27.701  -2.245  1.00  0.00    -0.000 C 
BRANCH  17  18
ATOM     18  C   UNL     1      44.763  27.584  -3.752  1.00  0.00    -0.000 C 
BRANCH  18  19
ATOM     19  C   UNL     1      43.366  27.019  -4.078  1.00  0.00    -0.003 C 
ATOM     20  C   UNL     1      42.370  28.105  -4.485  1.00  0.00     0.004 C 
ENDBRANCH  18  19
ENDBRANCH  17  18
ENDBRANCH  16  17
ENDBRANCH  15  16
ENDBRANCH  14  15
ENDBRANCH  13  14
ENDBRANCH   2  13
TORSDOF 15
ENDMDL
MODEL 6
REMARK VINA RESULT:    -4.257      1.141      2.832
REMARK INTER + INTRA:          -9.217
REMARK INTER:                  -8.165
REMARK INTRA:                  -1.052
REMARK UNBOUND:                -1.227
REMARK SMILES CCCCCCCCC=CCCCCCCCC(=O)[O-]
REMARK SMILES IDX 10 1 9 2 11 3 12 4 13 5 14 6 15 7 16 8 17 9 18 10 19 11
REMARK SMILES IDX 20 12 8 13 7 14 6 15 5 16 4 17 3 18 2 19 1 20
REMARK H PARENT
REMARK Flexibility Score: inf
ROOT
ATOM      1  C   UNL     1      46.225  28.292   0.383  1.00  0.00    -0.031 C 
ATOM      2  C   UNL     1      45.920  27.616   1.506  1.00  0.00    -0.031 C 
ENDROOT
BRANCH   1   3
ATOM      3  C   UNL     1      45.359  29.361  -0.233  1.00  0.00     0.027 C 
BRANCH   3   4
ATOM      4  C   UNL     1      45.246  29.164  -1.749  1.00  0.00     0.004 C 
BRANCH   4   5
ATOM      5  C   UNL     1      45.188  27.671  -2.105  1.00  0.00     0.000 C 
BRANCH   5   6
ATOM      6  C   UNL     1      45.408  27.412  -3.604  1.00  0.00     0.000 C 
BRANCH   6   7
ATOM      7  C   UNL     1      45.684  28.705  -4.393  1.00  0.00     0.000 C 
BRANCH   7   8
ATOM      8  C   UNL     1      44.676  28.927  -5.532  1.00  0.00     0.006 C 
BRANCH   8   9
ATOM      9  C   UNL     1      43.581  27.853  -5.565  1.00  0.00     0.053 C 
BRANCH   9  10
ATOM     10  C   UNL     1      42.276  28.425  -5.109  1.00  0.00     0.041 C 
ATOM     11  O   UNL     1      41.552  29.071  -5.912  1.00  0.00    -0.550 OA
ATOM     12  O   UNL     1      41.835  28.203  -3.811  1.00  0.00    -0.550 OA
ENDBRANCH   9  10
ENDBRANCH   8   9
ENDBRANCH   7   8
ENDBRANCH   6   7
ENDBRANCH   5   6
ENDBRANCH   4   5
ENDBRANCH   3   4
ENDBRANCH   1   3
BRANCH   2  13
ATOM     13  C   UNL     1      44.708  27.886   2.361  1.00  0.00     0.027 C 
BRANCH  13  14
ATOM     14  C   UNL     1      44.528  26.780   3.411  1.00  0.00     0.004 C 
BRANCH  14  15
ATOM     15  C   UNL     1      45.850  26.387   4.087  1.00  0.00     0.000 C 
BRANCH  15  16
ATOM     16  C   UNL     1      46.264  27.373   5.195  1.00  0.00     0.000 C 
BRANCH  16  17
ATOM     17  C   UNL     1      45.929  26.844   6.604  1.00  0.00    -0.000 C 
BRANCH  17  18
ATOM     18  C   UNL     1      45.667  27.950   7.644  1.00  0.00    -0.000 C 
BRANCH  18  19
ATOM     19  C   UNL     1      45.301  27.427   9.047  1.00  0.00    -0.003 C 
ATOM     20  C   UNL     1      44.816  28.535   9.982  1.00  0.00     0.004 C 
ENDBRANCH  18  19
ENDBRANCH  17  18
ENDBRANCH  16  17
ENDBRANCH  15  16
ENDBRANCH  14  15
ENDBRANCH  13  14
ENDBRANCH   2  13
TORSDOF 15
ENDMDL
MODEL 7
REMARK VINA RESULT:    -4.214      4.467      9.467
REMARK INTER + INTRA:          -9.136
REMARK INTER:                  -7.846
REMARK INTRA:                  -1.290
REMARK UNBOUND:                -1.227
REMARK SMILES CCCCCCCCC=CCCCCCCCC(=O)[O-]
REMARK SMILES IDX 10 1 9 2 11 3 12 4 13 5 14 6 15 7 16 8 17 9 18 10 19 11
REMARK SMILES IDX 20 12 8 13 7 14 6 15 5 16 4 17 3 18 2 19 1 20
REMARK H PARENT
REMARK Flexibility Score: inf
ROOT
ATOM      1  C   UNL     1      44.877  26.027   4.001  1.00  0.00    -0.031 C 
ATOM      2  C   UNL     1      44.325  26.803   3.049  1.00  0.00    -0.031 C 
ENDROOT
BRANCH   1   3
ATOM      3  C   UNL     1      46.341  25.675   4.075  1.00  0.00     0.027 C 
BRANCH   3   4
ATOM      4  C   UNL     1      47.081  26.616   5.031  1.00  0.00     0.004 C 
BRANCH   4   5
ATOM      5  C   UNL     1      46.172  27.043   6.194  1.00  0.00     0.000 C 
BRANCH   5   6
ATOM      6  C   UNL     1      46.073  28.570   6.338  1.00  0.00     0.000 C 
BRANCH   6   7
ATOM      7  C   UNL     1      46.315  29.044   7.782  1.00  0.00     0.000 C 
BRANCH   7   8
ATOM      8  C   UNL     1      45.016  29.121   8.602  1.00  0.00     0.006 C 
BRANCH   8   9
ATOM      9  C   UNL     1      45.202  28.637  10.045  1.00  0.00     0.053 C 
BRANCH   9  10
ATOM     10  C   UNL     1      45.560  27.184  10.066  1.00  0.00     0.041 C 
ATOM     11  O   UNL     1      44.899  26.359   9.382  1.00  0.00    -0.550 OA
ATOM     12  O   UNL     1      46.654  26.748  10.802  1.00  0.00    -0.550 OA
ENDBRANCH   9  10
ENDBRANCH   8   9
ENDBRANCH   7   8
ENDBRANCH   6   7
ENDBRANCH   5   6
ENDBRANCH   4   5
ENDBRANCH   3   4
ENDBRANCH   1   3
BRANCH   2  13
ATOM     13  C   UNL     1      45.103  27.504   1.964  1.00  0.00     0.027 C 
BRANCH  13  14
ATOM     14  C   UNL     1      44.996  29.027   2.118  1.00  0.00     0.004 C 
BRANCH  14  15
ATOM     15  C   UNL     1      45.911  29.785   1.143  1.00  0.00     0.000 C 
BRANCH  15  16
ATOM     16  C   UNL     1      45.320  29.871  -0.276  1.00  0.00     0.000 C 
BRANCH  16  17
ATOM     17  C   UNL     1      46.091  28.995  -1.285  1.00  0.00    -0.000 C 
BRANCH  17  18
ATOM     18  C   UNL     1      45.337  27.721  -1.713  1.00  0.00    -0.000 C 
BRANCH  18  19
ATOM     19  C   UNL     1      44.549  27.863  -3.030  1.00  0.00    -0.003 C 
ATOM     20  C   UNL     1      45.428  27.676  -4.267  1.00  0.00     0.004 C 
ENDBRANCH  18  19
ENDBRANCH  17  18
ENDBRANCH  16  17
ENDBRANCH  15  16
ENDBRANCH  14  15
ENDBRANCH  13  14
ENDBRANCH   2  13
TORSDOF 15
ENDMDL
MODEL 8
REMARK VINA RESULT:    -3.935      2.831      5.011
REMARK INTER + INTRA:          -8.613
REMARK INTER:                  -6.914
REMARK INTRA:                  -1.699
REMARK UNBOUND:                -1.227
REMARK SMILES CCCCCCCCC=CCCCCCCCC(=O)[O-]
REMARK SMILES IDX 10 1 9 2 11 3 12 4 13 5 14 6 15 7 16 8 17 9 18 10 19 11
REMARK SMILES IDX 20 12 8 13 7 14 6 15 5 16 4 17 3 18 2 19 1 20
REMARK H PARENT
REMARK Flexibility Score: inf
ROOT
ATOM      1  C   UNL     1      45.454  27.753  -1.772  1.00  0.00    -0.031 C 
ATOM      2  C   UNL     1      45.585  28.080  -0.473  1.00  0.00    -0.031 C 
ENDROOT
BRANCH   1   3
ATOM      3  C   UNL     1      46.602  27.622  -2.741  1.00  0.00     0.027 C 
BRANCH   3   4
ATOM      4  C   UNL     1      46.097  27.232  -4.134  1.00  0.00     0.004 C 
BRANCH   4   5
ATOM      5  C   UNL     1      46.816  28.040  -5.225  1.00  0.00     0.000 C 
BRANCH   5   6
ATOM      6  C   UNL     1      46.080  27.997  -6.574  1.00  0.00     0.000 C 
BRANCH   6   7
ATOM      7  C   UNL     1      44.886  28.966  -6.627  1.00  0.00     0.000 C 
BRANCH   7   8
ATOM      8  C   UNL     1      43.535  28.233  -6.667  1.00  0.00     0.006 C 
BRANCH   8   9
ATOM      9  C   UNL     1      42.447  28.964  -5.870  1.00  0.00     0.053 C 
BRANCH   9  10
ATOM     10  C   UNL     1      42.487  28.550  -4.432  1.00  0.00     0.041 C 
ATOM     11  O   UNL     1      42.728  27.354  -4.123  1.00  0.00    -0.550 OA
ATOM     12  O   UNL     1      42.307  29.496  -3.431  1.00  0.00    -0.550 OA
ENDBRANCH   9  10
ENDBRANCH   8   9
ENDBRANCH   7   8
ENDBRANCH   6   7
ENDBRANCH   5   6
ENDBRANCH   4   5
ENDBRANCH   3   4
ENDBRANCH   1   3
BRANCH   2  13
ATOM     13  C   UNL     1      46.905  28.281   0.227  1.00  0.00     0.027 C 
BRANCH  13  14
ATOM     14  C   UNL     1      46.750  29.246   1.410  1.00  0.00     0.004 C 
BRANCH  14  15
ATOM     15  C   UNL     1      45.294  29.687   1.626  1.00  0.00     0.000 C 
BRANCH  15  16
ATOM     16  C   UNL     1      44.755  29.288   3.012  1.00  0.00     0.000 C 
BRANCH  16  17
ATOM     17  C   UNL     1      43.679  28.187   2.927  1.00  0.00    -0.000 C 
BRANCH  17  18
ATOM     18  C   UNL     1      44.249  26.757   2.843  1.00  0.00    -0.000 C 
BRANCH  18  19
ATOM     19  C   UNL     1      45.118  26.351   4.049  1.00  0.00    -0.003 C 
ATOM     20  C   UNL     1      46.576  26.093   3.668  1.00  0.00     0.004 C 
ENDBRANCH  18  19
ENDBRANCH  17  18
ENDBRANCH  16  17
ENDBRANCH  15  16
ENDBRANCH  14  15
ENDBRANCH  13  14
ENDBRANCH   2  13
TORSDOF 15
ENDMDL
MODEL 9
REMARK VINA RESULT:    -3.912      1.232      2.109
REMARK INTER + INTRA:          -8.569
REMARK INTER:                  -7.069
REMARK INTRA:                  -1.500
REMARK UNBOUND:                -1.227
REMARK SMILES CCCCCCCCC=CCCCCCCCC(=O)[O-]
REMARK SMILES IDX 10 1 9 2 11 3 12 4 13 5 14 6 15 7 16 8 17 9 18 10 19 11
REMARK SMILES IDX 20 12 8 13 7 14 6 15 5 16 4 17 3 18 2 19 1 20
REMARK H PARENT
REMARK Flexibility Score: inf
ROOT
ATOM      1  C   UNL     1      45.151  26.370   3.958  1.00  0.00    -0.031 C 
ATOM      2  C   UNL     1      45.719  26.918   5.049  1.00  0.00    -0.031 C 
ENDROOT
BRANCH   1   3
ATOM      3  C   UNL     1      44.288  27.120   2.975  1.00  0.00     0.027 C 
BRANCH   3   4
ATOM      4  C   UNL     1      45.082  27.476   1.714  1.00  0.00     0.004 C 
BRANCH   4   5
ATOM      5  C   UNL     1      45.304  28.993   1.615  1.00  0.00     0.000 C 
BRANCH   5   6
ATOM      6  C   UNL     1      45.682  29.444   0.195  1.00  0.00     0.000 C 
BRANCH   6   7
ATOM      7  C   UNL     1      46.756  28.544  -0.444  1.00  0.00     0.000 C 
BRANCH   7   8
ATOM      8  C   UNL     1      46.410  28.151  -1.890  1.00  0.00     0.006 C 
BRANCH   8   9
ATOM      9  C   UNL     1      44.924  27.818  -2.068  1.00  0.00     0.053 C 
BRANCH   9  10
ATOM     10  C   UNL     1      44.602  27.628  -3.518  1.00  0.00     0.041 C 
ATOM     11  O   UNL     1      43.510  28.045  -3.984  1.00  0.00    -0.550 OA
ATOM     12  O   UNL     1      45.530  27.034  -4.364  1.00  0.00    -0.550 OA
ENDBRANCH   9  10
ENDBRANCH   8   9
ENDBRANCH   7   8
ENDBRANCH   6   7
ENDBRANCH   5   6
ENDBRANCH   4   5
ENDBRANCH   3   4
ENDBRANCH   1   3
BRANCH   2  13
ATOM     13  C   UNL     1      45.646  28.382   5.403  1.00  0.00     0.027 C 
BRANCH  13  14
ATOM     14  C   UNL     1      46.968  28.855   6.023  1.00  0.00     0.004 C 
BRANCH  14  15
ATOM     15  C   UNL     1      46.766  29.589   7.357  1.00  0.00     0.000 C 
BRANCH  15  16
ATOM     16  C   UNL     1      45.279  29.731   7.734  1.00  0.00     0.000 C 
BRANCH  16  17
ATOM     17  C   UNL     1      44.911  28.903   8.983  1.00  0.00    -0.000 C 
BRANCH  17  18
ATOM     18  C   UNL     1      46.040  27.977   9.477  1.00  0.00    -0.000 C 
BRANCH  18  19
ATOM     19  C   UNL     1      45.897  26.510   9.029  1.00  0.00    -0.003 C 
ATOM     20  C   UNL     1      47.125  25.666   9.370  1.00  0.00     0.004 C 
ENDBRANCH  18  19
ENDBRANCH  17  18
ENDBRANCH  16  17
ENDBRANCH  15  16
ENDBRANCH  14  15
ENDBRANCH  13  14
ENDBRANCH   2  13
TORSDOF 15
ENDMDL
