MODEL 1
REMARK VINA RESULT:    -3.449      0.000      0.000
REMARK INTER + INTRA:          -3.889
REMARK INTER:                  -3.852
REMARK INTRA:                  -0.037
REMARK UNBOUND:                -0.037
REMARK SMILES O=C([O-])c1ccc(O)c(O)c1
REMARK SMILES IDX 4 1 11 2 5 3 9 4 6 5 7 6 2 7 1 8 3 9 10 10 8 12
REMARK H PARENT 10 11 8 13
REMARK Flexibility Score: inf
ROOT
ATOM      1  C   UNL     1      -8.384  -3.657 -13.211  1.00  0.00     0.001 A 
ATOM      2  C   UNL     1      -7.062  -3.318 -13.549  1.00  0.00     0.060 A 
ATOM      3  C   UNL     1      -8.709  -5.008 -12.999  1.00  0.00     0.014 A 
ATOM      4  C   UNL     1      -6.082  -4.313 -13.674  1.00  0.00     0.158 A 
ATOM      5  C   UNL     1      -7.732  -5.999 -13.124  1.00  0.00     0.051 A 
ATOM      6  C   UNL     1      -6.416  -5.655 -13.461  1.00  0.00     0.157 A 
ENDROOT
BRANCH   1   7
ATOM      7  C   UNL     1      -9.416  -2.604 -13.080  1.00  0.00     0.072 C 
ATOM      8  O   UNL     1      -9.779  -1.934 -14.083  1.00  0.00    -0.545 OA
ATOM      9  O   UNL     1     -10.000  -2.340 -11.846  1.00  0.00    -0.545 OA
ENDBRANCH   1   7
BRANCH   4  10
ATOM     10  O   UNL     1      -4.772  -3.973 -14.010  1.00  0.00    -0.504 OA
ATOM     11  H   UNL     1      -4.288  -3.208 -13.556  1.00  0.00     0.293 HD
ENDBRANCH   4  10
BRANCH   6  12
ATOM     12  O   UNL     1      -5.438  -6.641 -13.586  1.00  0.00    -0.504 OA
ATOM     13  H   UNL     1      -4.607  -6.494 -14.147  1.00  0.00     0.293 HD
ENDBRANCH   6  12
TORSDOF 3
ENDMDL
MODEL 2
REMARK VINA RESULT:    -3.299      1.052      2.266
REMARK INTER + INTRA:          -3.721
REMARK INTER:                  -3.678
REMARK INTRA:                  -0.043
REMARK UNBOUND:                -0.037
REMARK SMILES O=C([O-])c1ccc(O)c(O)c1
REMARK SMILES IDX 4 1 11 2 5 3 9 4 6 5 7 6 2 7 1 8 3 9 10 10 8 12
REMARK H PARENT 10 11 8 13
REMARK Flexibility Score: inf
ROOT
ATOM      1  C   UNL     1      -7.926  -3.834 -13.323  1.00  0.00     0.001 A 
ATOM      2  C   UNL     1      -8.218  -5.197 -13.140  1.00  0.00     0.060 A 
ATOM      3  C   UNL     1      -6.641  -3.464 -13.757  1.00  0.00     0.014 A 
ATOM      4  C   UNL     1      -7.242  -6.174 -13.385  1.00  0.00     0.158 A 
ATOM      5  C   UNL     1      -5.668  -4.438 -14.001  1.00  0.00     0.051 A 
ATOM      6  C   UNL     1      -5.965  -5.794 -13.815  1.00  0.00     0.157 A 
ENDROOT
BRANCH   1   7
ATOM      7  C   UNL     1      -8.959  -2.806 -13.064  1.00  0.00     0.072 C 
ATOM      8  O   UNL     1      -9.927  -3.050 -12.296  1.00  0.00    -0.545 OA
ATOM      9  O   UNL     1      -8.875  -1.556 -13.666  1.00  0.00    -0.545 OA
ENDBRANCH   1   7
BRANCH   4  10
ATOM     10  O   UNL     1      -7.534  -7.524 -13.201  1.00  0.00    -0.504 OA
ATOM     11  H   UNL     1      -6.803  -8.223 -13.142  1.00  0.00     0.293 HD
ENDBRANCH   4  10
BRANCH   6  12
ATOM     12  O   UNL     1      -4.998  -6.768 -14.058  1.00  0.00    -0.504 OA
ATOM     13  H   UNL     1      -4.123  -6.785 -13.546  1.00  0.00     0.293 HD
ENDBRANCH   6  12
TORSDOF 3
ENDMDL
MODEL 3
REMARK VINA RESULT:    -3.206     13.632     14.064
REMARK INTER + INTRA:          -3.618
REMARK INTER:                  -3.575
REMARK INTRA:                  -0.043
REMARK UNBOUND:                -0.037
REMARK SMILES O=C([O-])c1ccc(O)c(O)c1
REMARK SMILES IDX 4 1 11 2 5 3 9 4 6 5 7 6 2 7 1 8 3 9 10 10 8 12
REMARK H PARENT 10 11 8 13
REMARK Flexibility Score: inf
ROOT
ATOM      1  C   UNL     1      -8.370   8.333  -7.665  1.00  0.00     0.001 A 
ATOM      2  C   UNL     1      -9.200   8.415  -8.797  1.00  0.00     0.060 A 
ATOM      3  C   UNL     1      -7.042   8.787  -7.758  1.00  0.00     0.014 A 
ATOM      4  C   UNL     1      -8.711   8.940 -10.002  1.00  0.00     0.158 A 
ATOM      5  C   UNL     1      -6.555   9.310  -8.959  1.00  0.00     0.051 A 
ATOM      6  C   UNL     1      -7.387   9.388 -10.084  1.00  0.00     0.157 A 
ENDROOT
BRANCH   1   7
ATOM      7  C   UNL     1      -8.889   7.779  -6.395  1.00  0.00     0.072 C 
ATOM      8  O   UNL     1     -10.125   7.783  -6.151  1.00  0.00    -0.545 OA
ATOM      9  O   UNL     1      -8.019   7.245  -5.452  1.00  0.00    -0.545 OA
ENDBRANCH   1   7
BRANCH   4  10
ATOM     10  O   UNL     1      -9.536   9.019 -11.123  1.00  0.00    -0.504 OA
ATOM     11  H   UNL     1     -10.183   8.277 -11.359  1.00  0.00     0.293 HD
ENDBRANCH   4  10
BRANCH   6  12
ATOM     12  O   UNL     1      -6.906   9.909 -11.284  1.00  0.00    -0.504 OA
ATOM     13  H   UNL     1      -7.431  10.598 -11.811  1.00  0.00     0.293 HD
ENDBRANCH   6  12
TORSDOF 3
ENDMDL
MODEL 4
REMARK VINA RESULT:    -3.203     13.243     14.000
REMARK INTER + INTRA:          -3.615
REMARK INTER:                  -3.572
REMARK INTRA:                  -0.043
REMARK UNBOUND:                -0.037
REMARK SMILES O=C([O-])c1ccc(O)c(O)c1
REMARK SMILES IDX 4 1 11 2 5 3 9 4 6 5 7 6 2 7 1 8 3 9 10 10 8 12
REMARK H PARENT 10 11 8 13
REMARK Flexibility Score: inf
ROOT
ATOM      1  C   UNL     1      -8.973   7.807  -6.106  1.00  0.00     0.001 A 
ATOM      2  C   UNL     1      -7.734   7.739  -6.769  1.00  0.00     0.060 A 
ATOM      3  C   UNL     1     -10.125   8.134  -6.844  1.00  0.00     0.014 A 
ATOM      4  C   UNL     1      -7.648   7.995  -8.145  1.00  0.00     0.158 A 
ATOM      5  C   UNL     1     -10.038   8.389  -8.215  1.00  0.00     0.051 A 
ATOM      6  C   UNL     1      -8.801   8.320  -8.870  1.00  0.00     0.157 A 
ENDROOT
BRANCH   1   7
ATOM      7  C   UNL     1      -9.060   7.537  -4.654  1.00  0.00     0.072 C 
ATOM      8  O   UNL     1      -8.174   6.855  -4.074  1.00  0.00    -0.545 OA
ATOM      9  O   UNL     1     -10.124   8.033  -3.908  1.00  0.00    -0.545 OA
ENDBRANCH   1   7
BRANCH   4  10
ATOM     10  O   UNL     1      -6.419   7.927  -8.798  1.00  0.00    -0.504 OA
ATOM     11  H   UNL     1      -5.638   7.413  -8.409  1.00  0.00     0.293 HD
ENDBRANCH   4  10
BRANCH   6  12
ATOM     12  O   UNL     1      -8.710   8.573 -10.237  1.00  0.00    -0.504 OA
ATOM     13  H   UNL     1      -9.236   9.321 -10.674  1.00  0.00     0.293 HD
ENDBRANCH   6  12
TORSDOF 3
ENDMDL
MODEL 5
REMARK VINA RESULT:    -3.181     13.408     13.882
REMARK INTER + INTRA:          -3.591
REMARK INTER:                  -3.551
REMARK INTRA:                  -0.039
REMARK UNBOUND:                -0.037
REMARK SMILES O=C([O-])c1ccc(O)c(O)c1
REMARK SMILES IDX 4 1 11 2 5 3 9 4 6 5 7 6 2 7 1 8 3 9 10 10 8 12
REMARK H PARENT 10 11 8 13
REMARK Flexibility Score: inf
ROOT
ATOM      1  C   UNL     1      -8.933   8.957  -9.979  1.00  0.00     0.001 A 
ATOM      2  C   UNL     1      -7.682   8.607  -9.441  1.00  0.00     0.060 A 
ATOM      3  C   UNL     1     -10.046   9.038  -9.122  1.00  0.00     0.014 A 
ATOM      4  C   UNL     1      -7.545   8.342  -8.071  1.00  0.00     0.158 A 
ATOM      5  C   UNL     1      -9.908   8.773  -7.757  1.00  0.00     0.051 A 
ATOM      6  C   UNL     1      -8.659   8.424  -7.227  1.00  0.00     0.157 A 
ENDROOT
BRANCH   1   7
ATOM      7  C   UNL     1      -9.075   9.237 -11.425  1.00  0.00     0.072 C 
ATOM      8  O   UNL     1      -8.260   9.996 -12.013  1.00  0.00    -0.545 OA
ATOM      9  O   UNL     1     -10.111   8.666 -12.155  1.00  0.00    -0.545 OA
ENDBRANCH   1   7
BRANCH   4  10
ATOM     10  O   UNL     1      -6.303   7.995  -7.541  1.00  0.00    -0.504 OA
ATOM     11  H   UNL     1      -5.504   7.811  -8.137  1.00  0.00     0.293 HD
ENDBRANCH   4  10
BRANCH   6  12
ATOM     12  O   UNL     1      -8.517   8.159  -5.866  1.00  0.00    -0.504 OA
ATOM     13  H   UNL     1      -8.897   7.318  -5.448  1.00  0.00     0.293 HD
ENDBRANCH   6  12
TORSDOF 3
ENDMDL
MODEL 6
REMARK VINA RESULT:    -3.127      1.990      4.164
REMARK INTER + INTRA:          -3.530
REMARK INTER:                  -3.491
REMARK INTRA:                  -0.038
REMARK UNBOUND:                -0.037
REMARK SMILES O=C([O-])c1ccc(O)c(O)c1
REMARK SMILES IDX 4 1 11 2 5 3 9 4 6 5 7 6 2 7 1 8 3 9 10 10 8 12
REMARK H PARENT 10 11 8 13
REMARK Flexibility Score: inf
ROOT
ATOM      1  C   UNL     1      -7.809  -6.813 -13.108  1.00  0.00     0.001 A 
ATOM      2  C   UNL     1      -6.545  -6.277 -13.408  1.00  0.00     0.060 A 
ATOM      3  C   UNL     1      -8.902  -5.940 -12.952  1.00  0.00     0.014 A 
ATOM      4  C   UNL     1      -6.374  -4.892 -13.551  1.00  0.00     0.158 A 
ATOM      5  C   UNL     1      -8.730  -4.561 -13.094  1.00  0.00     0.051 A 
ATOM      6  C   UNL     1      -7.467  -4.032 -13.393  1.00  0.00     0.157 A 
ENDROOT
BRANCH   1   7
ATOM      7  C   UNL     1      -7.986  -8.275 -12.958  1.00  0.00     0.072 C 
ATOM      8  O   UNL     1      -8.489  -8.755 -11.908  1.00  0.00    -0.545 OA
ATOM      9  O   UNL     1      -7.599  -9.138 -13.977  1.00  0.00    -0.545 OA
ENDBRANCH   1   7
BRANCH   4  10
ATOM     10  O   UNL     1      -5.119  -4.364 -13.848  1.00  0.00    -0.504 OA
ATOM     11  H   UNL     1      -4.428  -4.895 -14.364  1.00  0.00     0.293 HD
ENDBRANCH   4  10
BRANCH   6  12
ATOM     12  O   UNL     1      -7.293  -2.657 -13.536  1.00  0.00    -0.504 OA
ATOM     13  H   UNL     1      -6.799  -2.265 -14.330  1.00  0.00     0.293 HD
ENDBRANCH   6  12
TORSDOF 3
ENDMDL
MODEL 7
REMARK VINA RESULT:    -3.029      2.218      4.416
REMARK INTER + INTRA:          -3.420
REMARK INTER:                  -3.383
REMARK INTRA:                  -0.037
REMARK UNBOUND:                -0.037
REMARK SMILES O=C([O-])c1ccc(O)c(O)c1
REMARK SMILES IDX 4 1 11 2 5 3 9 4 6 5 7 6 2 7 1 8 3 9 10 10 8 12
REMARK H PARENT 10 11 8 13
REMARK Flexibility Score: inf
ROOT
ATOM      1  C   UNL     1      -7.898  -6.973 -12.814  1.00  0.00     0.001 A 
ATOM      2  C   UNL     1      -8.643  -5.912 -12.270  1.00  0.00     0.060 A 
ATOM      3  C   UNL     1      -6.751  -6.683 -13.575  1.00  0.00     0.014 A 
ATOM      4  C   UNL     1      -8.250  -4.583 -12.484  1.00  0.00     0.158 A 
ATOM      5  C   UNL     1      -6.361  -5.358 -13.787  1.00  0.00     0.051 A 
ATOM      6  C   UNL     1      -7.108  -4.305 -13.244  1.00  0.00     0.157 A 
ENDROOT
BRANCH   1   7
ATOM      7  C   UNL     1      -8.315  -8.375 -12.586  1.00  0.00     0.072 C 
ATOM      8  O   UNL     1      -9.372  -8.822 -13.105  1.00  0.00    -0.545 OA
ATOM      9  O   UNL     1      -7.545  -9.219 -11.794  1.00  0.00    -0.545 OA
ENDBRANCH   1   7
BRANCH   4  10
ATOM     10  O   UNL     1      -8.992  -3.534 -11.944  1.00  0.00    -0.504 OA
ATOM     11  H   UNL     1      -8.745  -3.110 -11.057  1.00  0.00     0.293 HD
ENDBRANCH   4  10
BRANCH   6  12
ATOM     12  O   UNL     1      -6.722  -2.982 -13.453  1.00  0.00    -0.504 OA
ATOM     13  H   UNL     1      -6.099  -2.726 -14.211  1.00  0.00     0.293 HD
ENDBRANCH   6  12
TORSDOF 3
ENDMDL
MODEL 8
REMARK VINA RESULT:    -3.015     13.849     14.233
REMARK INTER + INTRA:          -3.404
REMARK INTER:                  -3.362
REMARK INTRA:                  -0.042
REMARK UNBOUND:                -0.037
REMARK SMILES O=C([O-])c1ccc(O)c(O)c1
REMARK SMILES IDX 4 1 11 2 5 3 9 4 6 5 7 6 2 7 1 8 3 9 10 10 8 12
REMARK H PARENT 10 11 8 13
REMARK Flexibility Score: inf
ROOT
ATOM      1  C   UNL     1      -8.535   8.448  -7.609  1.00  0.00     0.001 A 
ATOM      2  C   UNL     1      -7.259   9.012  -7.784  1.00  0.00     0.060 A 
ATOM      3  C   UNL     1      -9.434   8.446  -8.691  1.00  0.00     0.014 A 
ATOM      4  C   UNL     1      -6.888   9.566  -9.018  1.00  0.00     0.158 A 
ATOM      5  C   UNL     1      -9.064   8.998  -9.920  1.00  0.00     0.051 A 
ATOM      6  C   UNL     1      -7.791   9.560 -10.087  1.00  0.00     0.157 A 
ENDROOT
BRANCH   1   7
ATOM      7  C   UNL     1      -8.923   7.864  -6.306  1.00  0.00     0.072 C 
ATOM      8  O   UNL     1     -10.125   7.877  -5.930  1.00  0.00    -0.545 OA
ATOM      9  O   UNL     1      -7.964   7.292  -5.477  1.00  0.00    -0.545 OA
ENDBRANCH   1   7
BRANCH   4  10
ATOM     10  O   UNL     1      -5.622  10.125  -9.187  1.00  0.00    -0.504 OA
ATOM     11  H   UNL     1      -4.786   9.554  -9.191  1.00  0.00     0.293 HD
ENDBRANCH   4  10
BRANCH   6  12
ATOM     12  O   UNL     1      -7.418  10.111 -11.312  1.00  0.00    -0.504 OA
ATOM     13  H   UNL     1      -6.506   9.932 -11.717  1.00  0.00     0.293 HD
ENDBRANCH   6  12
TORSDOF 3
ENDMDL
MODEL 9
REMARK VINA RESULT:    -2.948     16.613     17.380
REMARK INTER + INTRA:          -3.329
REMARK INTER:                  -3.287
REMARK INTRA:                  -0.042
REMARK UNBOUND:                -0.037
REMARK SMILES O=C([O-])c1ccc(O)c(O)c1
REMARK SMILES IDX 4 1 11 2 5 3 9 4 6 5 7 6 2 7 1 8 3 9 10 10 8 12
REMARK H PARENT 10 11 8 13
REMARK Flexibility Score: inf
ROOT
ATOM      1  C   UNL     1      -9.016  -4.956   4.349  1.00  0.00     0.001 A 
ATOM      2  C   UNL     1      -8.348  -6.185   4.198  1.00  0.00     0.060 A 
ATOM      3  C   UNL     1      -9.907  -4.536   3.346  1.00  0.00     0.014 A 
ATOM      4  C   UNL     1      -8.568  -6.979   3.063  1.00  0.00     0.158 A 
ATOM      5  C   UNL     1     -10.125  -5.328   2.216  1.00  0.00     0.051 A 
ATOM      6  C   UNL     1      -9.456  -6.550   2.070  1.00  0.00     0.157 A 
ENDROOT
BRANCH   1   7
ATOM      7  C   UNL     1      -8.782  -4.121   5.548  1.00  0.00     0.072 C 
ATOM      8  O   UNL     1      -7.662  -4.125   6.124  1.00  0.00    -0.545 OA
ATOM      9  O   UNL     1      -9.798  -3.320   6.057  1.00  0.00    -0.545 OA
ENDBRANCH   1   7
BRANCH   4  10
ATOM     10  O   UNL     1      -7.904  -8.196   2.916  1.00  0.00    -0.504 OA
ATOM     11  H   UNL     1      -8.242  -9.042   3.357  1.00  0.00     0.293 HD
ENDBRANCH   4  10
BRANCH   6  12
ATOM     12  O   UNL     1      -9.671  -7.343   0.944  1.00  0.00    -0.504 OA
ATOM     13  H   UNL     1     -10.591  -7.437   0.530  1.00  0.00     0.293 HD
ENDBRANCH   6  12
TORSDOF 3
ENDMDL
