MODEL 1
REMARK VINA RESULT:    -3.436      0.000      0.000
REMARK INTER + INTRA:          -6.330
REMARK INTER:                  -5.445
REMARK INTRA:                  -0.885
REMARK UNBOUND:                -0.885
REMARK SMILES CCCCCCCCCCCC(=O)[O-]
REMARK SMILES IDX 7 1 8 2 9 3 10 4 11 5 12 6 13 7 14 8 6 9 5 10 4 11 3 12 2 13
REMARK SMILES IDX 1 14
REMARK H PARENT
REMARK Flexibility Score: inf
ROOT
ATOM      1  C   UNL     1     -15.053 -73.384  -9.023  1.00  0.00     0.000 C 
ENDROOT
BRANCH   1   2
ATOM      2  C   UNL     1     -16.565 -73.496  -8.770  1.00  0.00     0.000 C 
BRANCH   2   3
ATOM      3  C   UNL     1     -17.002 -72.776  -7.482  1.00  0.00     0.000 C 
BRANCH   3   4
ATOM      4  C   UNL     1     -17.818 -71.501  -7.761  1.00  0.00     0.006 C 
BRANCH   4   5
ATOM      5  C   UNL     1     -17.867 -71.089  -9.242  1.00  0.00     0.053 C 
BRANCH   5   6
ATOM      6  C   UNL     1     -17.673 -69.614  -9.423  1.00  0.00     0.041 C 
ATOM      7  O   UNL     1     -18.125 -68.807  -8.569  1.00  0.00    -0.550 OA
ATOM      8  O   UNL     1     -17.022 -69.131 -10.551  1.00  0.00    -0.550 OA
ENDBRANCH   5   6
ENDBRANCH   4   5
ENDBRANCH   3   4
ENDBRANCH   2   3
ENDBRANCH   1   2
BRANCH   1   9
ATOM      9  C   UNL     1     -14.563 -74.342 -10.125  1.00  0.00     0.000 C 
BRANCH   9  10
ATOM     10  C   UNL     1     -13.401 -75.232  -9.655  1.00  0.00    -0.000 C 
BRANCH  10  11
ATOM     11  C   UNL     1     -13.879 -76.596  -9.127  1.00  0.00    -0.000 C 
BRANCH  11  12
ATOM     12  C   UNL     1     -13.680 -76.751  -7.609  1.00  0.00    -0.000 C 
BRANCH  12  13
ATOM     13  C   UNL     1     -14.974 -76.998  -6.812  1.00  0.00    -0.003 C 
ATOM     14  C   UNL     1     -16.231 -76.943  -7.680  1.00  0.00     0.004 C 
ENDBRANCH  12  13
ENDBRANCH  11  12
ENDBRANCH  10  11
ENDBRANCH   9  10
ENDBRANCH   1   9
TORSDOF 10
ENDMDL
MODEL 2
REMARK VINA RESULT:    -3.384     12.481     14.097
REMARK INTER + INTRA:          -6.248
REMARK INTER:                  -5.189
REMARK INTRA:                  -1.058
REMARK UNBOUND:                -0.885
REMARK SMILES CCCCCCCCCCCC(=O)[O-]
REMARK SMILES IDX 7 1 8 2 9 3 10 4 11 5 12 6 13 7 14 8 6 9 5 10 4 11 3 12 2 13
REMARK SMILES IDX 1 14
REMARK H PARENT
REMARK Flexibility Score: inf
ROOT
ATOM      1  C   UNL     1      -6.583 -64.952  -9.289  1.00  0.00     0.000 C 
ENDROOT
BRANCH   1   2
ATOM      2  C   UNL     1      -6.659 -66.483  -9.412  1.00  0.00     0.000 C 
BRANCH   2   3
ATOM      3  C   UNL     1      -5.462 -67.187  -8.750  1.00  0.00     0.000 C 
BRANCH   3   4
ATOM      4  C   UNL     1      -4.939 -66.436  -7.512  1.00  0.00     0.006 C 
BRANCH   4   5
ATOM      5  C   UNL     1      -4.583 -67.342  -6.322  1.00  0.00     0.053 C 
BRANCH   5   6
ATOM      6  C   UNL     1      -3.510 -66.745  -5.462  1.00  0.00     0.041 C 
ATOM      7  O   UNL     1      -2.485 -66.238  -5.990  1.00  0.00    -0.550 OA
ATOM      8  O   UNL     1      -3.628 -66.780  -4.079  1.00  0.00    -0.550 OA
ENDBRANCH   5   6
ENDBRANCH   4   5
ENDBRANCH   3   4
ENDBRANCH   2   3
ENDBRANCH   1   2
BRANCH   1   9
ATOM      9  C   UNL     1      -7.955 -64.310  -9.012  1.00  0.00     0.000 C 
BRANCH   9  10
ATOM     10  C   UNL     1      -8.727 -65.033  -7.896  1.00  0.00    -0.000 C 
BRANCH  10  11
ATOM     11  C   UNL     1      -9.166 -64.080  -6.771  1.00  0.00    -0.000 C 
BRANCH  11  12
ATOM     12  C   UNL     1      -8.224 -62.874  -6.608  1.00  0.00    -0.000 C 
BRANCH  12  13
ATOM     13  C   UNL     1      -7.375 -62.890  -5.323  1.00  0.00    -0.003 C 
ATOM     14  C   UNL     1      -6.067 -63.666  -5.480  1.00  0.00     0.004 C 
ENDBRANCH  12  13
ENDBRANCH  11  12
ENDBRANCH  10  11
ENDBRANCH   9  10
ENDBRANCH   1   9
TORSDOF 10
ENDMDL
MODEL 3
REMARK VINA RESULT:    -3.372     13.069     14.617
REMARK INTER + INTRA:          -6.228
REMARK INTER:                  -4.576
REMARK INTRA:                  -1.652
REMARK UNBOUND:                -0.885
REMARK SMILES CCCCCCCCCCCC(=O)[O-]
REMARK SMILES IDX 7 1 8 2 9 3 10 4 11 5 12 6 13 7 14 8 6 9 5 10 4 11 3 12 2 13
REMARK SMILES IDX 1 14
REMARK H PARENT
REMARK Flexibility Score: inf
ROOT
ATOM      1  C   UNL     1      -5.942 -62.425  -8.828  1.00  0.00     0.000 C 
ENDROOT
BRANCH   1   2
ATOM      2  C   UNL     1      -4.968 -63.380  -8.118  1.00  0.00     0.000 C 
BRANCH   2   3
ATOM      3  C   UNL     1      -5.071 -63.295  -6.585  1.00  0.00     0.000 C 
BRANCH   3   4
ATOM      4  C   UNL     1      -5.467 -64.635  -5.940  1.00  0.00     0.006 C 
BRANCH   4   5
ATOM      5  C   UNL     1      -4.701 -65.853  -6.483  1.00  0.00     0.053 C 
BRANCH   5   6
ATOM      6  C   UNL     1      -3.408 -66.073  -5.758  1.00  0.00     0.041 C 
ATOM      7  O   UNL     1      -3.403 -66.621  -4.624  1.00  0.00    -0.550 OA
ATOM      8  O   UNL     1      -2.213 -65.643  -6.321  1.00  0.00    -0.550 OA
ENDBRANCH   5   6
ENDBRANCH   4   5
ENDBRANCH   3   4
ENDBRANCH   2   3
ENDBRANCH   1   2
BRANCH   1   9
ATOM      9  C   UNL     1      -6.936 -61.761  -7.858  1.00  0.00     0.000 C 
BRANCH   9  10
ATOM     10  C   UNL     1      -8.386 -62.204  -8.108  1.00  0.00    -0.000 C 
BRANCH  10  11
ATOM     11  C   UNL     1      -8.939 -63.084  -6.973  1.00  0.00    -0.000 C 
BRANCH  11  12
ATOM     12  C   UNL     1      -8.853 -64.587  -7.287  1.00  0.00    -0.000 C 
BRANCH  12  13
ATOM     13  C   UNL     1      -8.796 -64.930  -8.787  1.00  0.00    -0.003 C 
ATOM     14  C   UNL     1      -7.591 -65.794  -9.159  1.00  0.00     0.004 C 
ENDBRANCH  12  13
ENDBRANCH  11  12
ENDBRANCH  10  11
ENDBRANCH   9  10
ENDBRANCH   1   9
TORSDOF 10
ENDMDL
MODEL 4
REMARK VINA RESULT:    -3.370     12.810     14.534
REMARK INTER + INTRA:          -6.225
REMARK INTER:                  -4.688
REMARK INTRA:                  -1.536
REMARK UNBOUND:                -0.885
REMARK SMILES CCCCCCCCCCCC(=O)[O-]
REMARK SMILES IDX 7 1 8 2 9 3 10 4 11 5 12 6 13 7 14 8 6 9 5 10 4 11 3 12 2 13
REMARK SMILES IDX 1 14
REMARK H PARENT
REMARK Flexibility Score: inf
ROOT
ATOM      1  C   UNL     1      -7.433 -65.255  -9.423  1.00  0.00     0.000 C 
ENDROOT
BRANCH   1   2
ATOM      2  C   UNL     1      -6.404 -65.625  -8.341  1.00  0.00     0.000 C 
BRANCH   2   3
ATOM      3  C   UNL     1      -5.115 -64.790  -8.443  1.00  0.00     0.000 C 
BRANCH   3   4
ATOM      4  C   UNL     1      -4.430 -64.586  -7.080  1.00  0.00     0.006 C 
BRANCH   4   5
ATOM      5  C   UNL     1      -4.812 -65.626  -6.014  1.00  0.00     0.053 C 
BRANCH   5   6
ATOM      6  C   UNL     1      -3.608 -66.210  -5.340  1.00  0.00     0.041 C 
ATOM      7  O   UNL     1      -2.478 -66.141  -5.892  1.00  0.00    -0.550 OA
ATOM      8  O   UNL     1      -3.739 -66.858  -4.119  1.00  0.00    -0.550 OA
ENDBRANCH   5   6
ENDBRANCH   4   5
ENDBRANCH   3   4
ENDBRANCH   2   3
ENDBRANCH   1   2
BRANCH   1   9
ATOM      9  C   UNL     1      -8.837 -65.004  -8.845  1.00  0.00     0.000 C 
BRANCH   9  10
ATOM     10  C   UNL     1      -8.809 -64.718  -7.335  1.00  0.00    -0.000 C 
BRANCH  10  11
ATOM     11  C   UNL     1      -9.006 -63.226  -7.014  1.00  0.00    -0.000 C 
BRANCH  11  12
ATOM     12  C   UNL     1      -7.760 -62.583  -6.380  1.00  0.00    -0.000 C 
BRANCH  12  13
ATOM     13  C   UNL     1      -6.879 -61.785  -7.359  1.00  0.00    -0.003 C 
ATOM     14  C   UNL     1      -7.581 -61.479  -8.682  1.00  0.00     0.004 C 
ENDBRANCH  12  13
ENDBRANCH  11  12
ENDBRANCH  10  11
ENDBRANCH   9  10
ENDBRANCH   1   9
TORSDOF 10
ENDMDL
MODEL 5
REMARK VINA RESULT:    -3.361     15.789     16.673
REMARK INTER + INTRA:          -6.210
REMARK INTER:                  -4.699
REMARK INTRA:                  -1.511
REMARK UNBOUND:                -0.885
REMARK SMILES CCCCCCCCCCCC(=O)[O-]
REMARK SMILES IDX 7 1 8 2 9 3 10 4 11 5 12 6 13 7 14 8 6 9 5 10 4 11 3 12 2 13
REMARK SMILES IDX 1 14
REMARK H PARENT
REMARK Flexibility Score: inf
ROOT
ATOM      1  C   UNL     1      -8.891 -63.828   0.700  1.00  0.00     0.000 C 
ENDROOT
BRANCH   1   2
ATOM      2  C   UNL     1      -8.502 -63.544  -0.760  1.00  0.00     0.000 C 
BRANCH   2   3
ATOM      3  C   UNL     1      -7.592 -64.636  -1.351  1.00  0.00     0.000 C 
BRANCH   3   4
ATOM      4  C   UNL     1      -6.247 -64.081  -1.854  1.00  0.00     0.006 C 
BRANCH   4   5
ATOM      5  C   UNL     1      -5.092 -65.097  -1.829  1.00  0.00     0.053 C 
BRANCH   5   6
ATOM      6  C   UNL     1      -3.754 -64.428  -1.913  1.00  0.00     0.041 C 
ATOM      7  O   UNL     1      -3.183 -64.292  -3.028  1.00  0.00    -0.550 OA
ATOM      8  O   UNL     1      -3.123 -63.985  -0.758  1.00  0.00    -0.550 OA
ENDBRANCH   5   6
ENDBRANCH   4   5
ENDBRANCH   3   4
ENDBRANCH   2   3
ENDBRANCH   1   2
BRANCH   1   9
ATOM      9  C   UNL     1      -8.519 -65.254   1.147  1.00  0.00     0.000 C 
BRANCH   9  10
ATOM     10  C   UNL     1      -8.099 -65.315   2.625  1.00  0.00    -0.000 C 
BRANCH  10  11
ATOM     11  C   UNL     1      -6.609 -65.655   2.801  1.00  0.00    -0.000 C 
BRANCH  11  12
ATOM     12  C   UNL     1      -5.698 -64.853   1.855  1.00  0.00    -0.000 C 
BRANCH  12  13
ATOM     13  C   UNL     1      -5.319 -63.450   2.363  1.00  0.00    -0.003 C 
ATOM     14  C   UNL     1      -5.502 -62.362   1.305  1.00  0.00     0.004 C 
ENDBRANCH  12  13
ENDBRANCH  11  12
ENDBRANCH  10  11
ENDBRANCH   9  10
ENDBRANCH   1   9
TORSDOF 10
ENDMDL
MODEL 6
REMARK VINA RESULT:    -3.358      1.027      2.583
REMARK INTER + INTRA:          -6.206
REMARK INTER:                  -5.404
REMARK INTRA:                  -0.802
REMARK UNBOUND:                -0.885
REMARK SMILES CCCCCCCCCCCC(=O)[O-]
REMARK SMILES IDX 7 1 8 2 9 3 10 4 11 5 12 6 13 7 14 8 6 9 5 10 4 11 3 12 2 13
REMARK SMILES IDX 1 14
REMARK H PARENT
REMARK Flexibility Score: inf
ROOT
ATOM      1  C   UNL     1     -17.088 -75.135  -7.718  1.00  0.00     0.000 C 
ENDROOT
BRANCH   1   2
ATOM      2  C   UNL     1     -17.126 -73.603  -7.588  1.00  0.00     0.000 C 
BRANCH   2   3
ATOM      3  C   UNL     1     -16.211 -72.902  -8.607  1.00  0.00     0.000 C 
BRANCH   3   4
ATOM      4  C   UNL     1     -16.994 -72.245  -9.758  1.00  0.00     0.006 C 
BRANCH   4   5
ATOM      5  C   UNL     1     -18.118 -71.299  -9.303  1.00  0.00     0.053 C 
BRANCH   5   6
ATOM      6  C   UNL     1     -17.751 -69.859  -9.493  1.00  0.00     0.041 C 
ATOM      7  O   UNL     1     -17.105 -69.498 -10.512  1.00  0.00    -0.550 OA
ATOM      8  O   UNL     1     -18.095 -68.920  -8.528  1.00  0.00    -0.550 OA
ENDBRANCH   5   6
ENDBRANCH   4   5
ENDBRANCH   3   4
ENDBRANCH   2   3
ENDBRANCH   1   2
BRANCH   1   9
ATOM      9  C   UNL     1     -16.365 -75.812  -6.540  1.00  0.00     0.000 C 
BRANCH   9  10
ATOM     10  C   UNL     1     -15.931 -77.251  -6.866  1.00  0.00    -0.000 C 
BRANCH  10  11
ATOM     11  C   UNL     1     -14.438 -77.349  -7.223  1.00  0.00    -0.000 C 
BRANCH  11  12
ATOM     12  C   UNL     1     -14.198 -77.887  -8.645  1.00  0.00    -0.000 C 
BRANCH  12  13
ATOM     13  C   UNL     1     -13.642 -76.852  -9.639  1.00  0.00    -0.003 C 
ATOM     14  C   UNL     1     -13.513 -75.453  -9.037  1.00  0.00     0.004 C 
ENDBRANCH  12  13
ENDBRANCH  11  12
ENDBRANCH  10  11
ENDBRANCH   9  10
ENDBRANCH   1   9
TORSDOF 10
ENDMDL
MODEL 7
REMARK VINA RESULT:    -3.355      2.874      4.715
REMARK INTER + INTRA:          -6.201
REMARK INTER:                  -4.825
REMARK INTRA:                  -1.377
REMARK UNBOUND:                -0.885
REMARK SMILES CCCCCCCCCCCC(=O)[O-]
REMARK SMILES IDX 7 1 8 2 9 3 10 4 11 5 12 6 13 7 14 8 6 9 5 10 4 11 3 12 2 13
REMARK SMILES IDX 1 14
REMARK H PARENT
REMARK Flexibility Score: inf
ROOT
ATOM      1  C   UNL     1     -13.559 -76.675  -8.123  1.00  0.00     0.000 C 
ENDROOT
BRANCH   1   2
ATOM      2  C   UNL     1     -13.717 -76.759  -9.650  1.00  0.00     0.000 C 
BRANCH   2   3
ATOM      3  C   UNL     1     -13.545 -75.393 -10.337  1.00  0.00     0.000 C 
BRANCH   3   4
ATOM      4  C   UNL     1     -12.967 -74.321  -9.394  1.00  0.00     0.006 C 
BRANCH   4   5
ATOM      5  C   UNL     1     -13.549 -72.913  -9.601  1.00  0.00     0.053 C 
BRANCH   5   6
ATOM      6  C   UNL     1     -12.616 -72.026 -10.367  1.00  0.00     0.041 C 
ATOM      7  O   UNL     1     -11.482 -72.449 -10.715  1.00  0.00    -0.550 OA
ATOM      8  O   UNL     1     -12.986 -70.721 -10.668  1.00  0.00    -0.550 OA
ENDBRANCH   5   6
ENDBRANCH   4   5
ENDBRANCH   3   4
ENDBRANCH   2   3
ENDBRANCH   1   2
BRANCH   1   9
ATOM      9  C   UNL     1     -14.411 -77.719  -7.379  1.00  0.00     0.000 C 
BRANCH   9  10
ATOM     10  C   UNL     1     -15.293 -77.089  -6.289  1.00  0.00    -0.000 C 
BRANCH  10  11
ATOM     11  C   UNL     1     -16.678 -76.677  -6.817  1.00  0.00    -0.000 C 
BRANCH  11  12
ATOM     12  C   UNL     1     -16.899 -75.154  -6.789  1.00  0.00    -0.000 C 
BRANCH  12  13
ATOM     13  C   UNL     1     -16.644 -74.442  -8.129  1.00  0.00    -0.003 C 
ATOM     14  C   UNL     1     -17.100 -75.260  -9.338  1.00  0.00     0.004 C 
ENDBRANCH  12  13
ENDBRANCH  11  12
ENDBRANCH  10  11
ENDBRANCH   9  10
ENDBRANCH   1   9
TORSDOF 10
ENDMDL
MODEL 8
REMARK VINA RESULT:    -3.345      4.114      5.251
REMARK INTER + INTRA:          -6.185
REMARK INTER:                  -5.272
REMARK INTRA:                  -0.914
REMARK UNBOUND:                -0.885
REMARK SMILES CCCCCCCCCCCC(=O)[O-]
REMARK SMILES IDX 7 1 8 2 9 3 10 4 11 5 12 6 13 7 14 8 6 9 5 10 4 11 3 12 2 13
REMARK SMILES IDX 1 14
REMARK H PARENT
REMARK Flexibility Score: inf
ROOT
ATOM      1  C   UNL     1     -12.970 -74.778  -9.424  1.00  0.00     0.000 C 
ENDROOT
BRANCH   1   2
ATOM      2  C   UNL     1     -13.817 -73.494  -9.434  1.00  0.00     0.000 C 
BRANCH   2   3
ATOM      3  C   UNL     1     -13.072 -72.302 -10.059  1.00  0.00     0.000 C 
BRANCH   3   4
ATOM      4  C   UNL     1     -11.681 -72.685 -10.598  1.00  0.00     0.006 C 
BRANCH   4   5
ATOM      5  C   UNL     1     -10.599 -71.614 -10.382  1.00  0.00     0.053 C 
BRANCH   5   6
ATOM      6  C   UNL     1      -9.708 -71.940  -9.223  1.00  0.00     0.041 C 
ATOM      7  O   UNL     1      -9.133 -73.059  -9.161  1.00  0.00    -0.550 OA
ATOM      8  O   UNL     1      -9.538 -71.021  -8.195  1.00  0.00    -0.550 OA
ENDBRANCH   5   6
ENDBRANCH   4   5
ENDBRANCH   3   4
ENDBRANCH   2   3
ENDBRANCH   1   2
BRANCH   1   9
ATOM      9  C   UNL     1     -13.623 -75.926 -10.215  1.00  0.00     0.000 C 
BRANCH   9  10
ATOM     10  C   UNL     1     -13.672 -77.238  -9.414  1.00  0.00    -0.000 C 
BRANCH  10  11
ATOM     11  C   UNL     1     -13.625 -77.003  -7.895  1.00  0.00    -0.000 C 
BRANCH  11  12
ATOM     12  C   UNL     1     -14.920 -77.435  -7.184  1.00  0.00    -0.000 C 
BRANCH  12  13
ATOM     13  C   UNL     1     -15.862 -76.278  -6.804  1.00  0.00    -0.003 C 
ATOM     14  C   UNL     1     -16.761 -75.835  -7.958  1.00  0.00     0.004 C 
ENDBRANCH  12  13
ENDBRANCH  11  12
ENDBRANCH  10  11
ENDBRANCH   9  10
ENDBRANCH   1   9
TORSDOF 10
ENDMDL
MODEL 9
REMARK VINA RESULT:    -3.340     12.818     14.521
REMARK INTER + INTRA:          -6.178
REMARK INTER:                  -5.380
REMARK INTRA:                  -0.798
REMARK UNBOUND:                -0.885
REMARK SMILES CCCCCCCCCCCC(=O)[O-]
REMARK SMILES IDX 7 1 8 2 9 3 10 4 11 5 12 6 13 7 14 8 6 9 5 10 4 11 3 12 2 13
REMARK SMILES IDX 1 14
REMARK H PARENT
REMARK Flexibility Score: inf
ROOT
ATOM      1  C   UNL     1      -4.838 -64.969  -7.179  1.00  0.00     0.000 C 
ENDROOT
BRANCH   1   2
ATOM      2  C   UNL     1      -4.779 -66.382  -7.781  1.00  0.00     0.000 C 
BRANCH   2   3
ATOM      3  C   UNL     1      -4.630 -67.475  -6.708  1.00  0.00     0.000 C 
BRANCH   3   4
ATOM      4  C   UNL     1      -3.666 -67.070  -5.578  1.00  0.00     0.006 C 
BRANCH   4   5
ATOM      5  C   UNL     1      -4.276 -67.137  -4.168  1.00  0.00     0.053 C 
BRANCH   5   6
ATOM      6  C   UNL     1      -4.196 -65.820  -3.457  1.00  0.00     0.041 C 
ATOM      7  O   UNL     1      -3.436 -64.913  -3.889  1.00  0.00    -0.550 OA
ATOM      8  O   UNL     1      -4.935 -65.606  -2.301  1.00  0.00    -0.550 OA
ENDBRANCH   5   6
ENDBRANCH   4   5
ENDBRANCH   3   4
ENDBRANCH   2   3
ENDBRANCH   1   2
BRANCH   1   9
ATOM      9  C   UNL     1      -6.267 -64.546  -6.793  1.00  0.00     0.000 C 
BRANCH   9  10
ATOM     10  C   UNL     1      -7.310 -64.985  -7.834  1.00  0.00    -0.000 C 
BRANCH  10  11
ATOM     11  C   UNL     1      -8.736 -64.544  -7.461  1.00  0.00    -0.000 C 
BRANCH  11  12
ATOM     12  C   UNL     1      -8.839 -63.036  -7.174  1.00  0.00    -0.000 C 
BRANCH  12  13
ATOM     13  C   UNL     1      -8.600 -62.130  -8.396  1.00  0.00    -0.003 C 
ATOM     14  C   UNL     1      -9.844 -61.963  -9.269  1.00  0.00     0.004 C 
ENDBRANCH  12  13
ENDBRANCH  11  12
ENDBRANCH  10  11
ENDBRANCH   9  10
ENDBRANCH   1   9
TORSDOF 10
ENDMDL
