MODEL 1
REMARK VINA RESULT:    38.187      0.000      0.000
REMARK INTER + INTRA:          45.836
REMARK INTER:                  46.000
REMARK INTRA:                  -0.164
REMARK UNBOUND:                -0.164
REMARK SMILES O=c1c(O)c(-c2ccc(O)c(O)c2)oc2cc(O)cc(O)c12
REMARK SMILES IDX 5 1 3 2 2 3 1 4 22 5 20 6 19 7 17 8 16 9 15 10 14 11 6 12
REMARK SMILES IDX 7 13 8 14 9 15 13 16 11 17 10 18 12 20 4 22 21 24 18 26
REMARK H PARENT 10 19 12 21 4 23 21 25 18 27
REMARK Flexibility Score: inf
ROOT
ATOM      1  C   UNL     1       9.331  67.788   6.738  1.00  0.00     0.180 A 
ATOM      2  C   UNL     1       9.259  68.967   7.500  1.00  0.00     0.208 A 
ATOM      3  C   UNL     1       9.310  70.207   6.842  1.00  0.00     0.238 A 
ATOM      4  O   UNL     1       9.189  71.258   7.524  1.00  0.00    -0.285 OA
ATOM      5  C   UNL     1       9.448  70.252   5.434  1.00  0.00     0.111 A 
ATOM      6  C   UNL     1       9.551  71.452   4.669  1.00  0.00     0.134 A 
ATOM      7  C   UNL     1       9.553  71.382   3.270  1.00  0.00     0.093 A 
ATOM      8  C   UNL     1       9.524  70.149   2.612  1.00  0.00     0.123 A 
ATOM      9  C   UNL     1       9.484  68.971   3.352  1.00  0.00     0.094 A 
ATOM     10  C   UNL     1       9.444  69.010   4.747  1.00  0.00     0.146 A 
ATOM     11  O   UNL     1       9.395  67.863   5.414  1.00  0.00    -0.452 OA
ENDROOT
BRANCH   1  12
ATOM     12  C   UNL     1       9.310  66.445   7.361  1.00  0.00     0.025 A 
ATOM     13  C   UNL     1      10.358  66.063   8.215  1.00  0.00     0.016 A 
ATOM     14  C   UNL     1      10.346  64.808   8.830  1.00  0.00     0.051 A 
ATOM     15  C   UNL     1       9.282  63.924   8.613  1.00  0.00     0.157 A 
ATOM     16  C   UNL     1       8.232  65.563   7.163  1.00  0.00     0.062 A 
ATOM     17  C   UNL     1       8.220  64.305   7.781  1.00  0.00     0.158 A 
BRANCH  15  18
ATOM     18  O   UNL     1       9.268  62.671   9.223  1.00  0.00    -0.504 OA
ATOM     19  H   UNL     1      10.126  62.174   9.431  1.00  0.00     0.293 HD
ENDBRANCH  15  18
BRANCH  17  20
ATOM     20  O   UNL     1       7.155  63.429   7.579  1.00  0.00    -0.504 OA
ATOM     21  H   UNL     1       6.205  63.765   7.470  1.00  0.00     0.293 HD
ENDBRANCH  17  20
ENDBRANCH   1  12
BRANCH   2  22
ATOM     22  O   UNL     1       9.100  68.899   8.887  1.00  0.00    -0.502 OA
ATOM     23  H   UNL     1       8.661  68.109   9.346  1.00  0.00     0.293 HD
ENDBRANCH   2  22
BRANCH   6  24
ATOM     24  O   UNL     1       9.679  72.727   5.229  1.00  0.00    -0.507 OA
ATOM     25  H   UNL     1       8.961  73.195   5.762  1.00  0.00     0.293 HD
ENDBRANCH   6  24
BRANCH   8  26
ATOM     26  O   UNL     1       9.543  70.087   1.220  1.00  0.00    -0.508 OA
ATOM     27  H   UNL     1      10.071  70.752   0.666  1.00  0.00     0.293 HD
ENDBRANCH   8  26
TORSDOF 6
ENDMDL
