MODEL 1
REMARK VINA RESULT:    -6.054      0.000      0.000
REMARK INTER + INTRA:         -21.285
REMARK INTER:                 -15.962
REMARK INTRA:                  -5.323
REMARK UNBOUND:                -5.323
REMARK SMILES CCCCCCCCCCCCCCCCCCCCCCCCCCCCCC(=O)[O-]
REMARK SMILES IDX 16 1 17 2 18 3 19 4 20 5 21 6 22 7 23 8 24 9 25 10 26 11
REMARK SMILES IDX 27 12 28 13 29 14 30 15 31 16 32 17 15 18 14 19 13 20 12 21
REMARK SMILES IDX 11 22 10 23 9 24 8 25 7 26 6 27 5 28 4 29 3 30 2 31 1 32
REMARK H PARENT
REMARK Flexibility Score: inf
ROOT
ATOM      1  C   UNL     1      15.612  -2.645  16.839  1.00  0.00     0.000 C 
ENDROOT
BRANCH   1   2
ATOM      2  C   UNL     1      14.271  -3.402  16.870  1.00  0.00     0.000 C 
BRANCH   2   3
ATOM      3  C   UNL     1      14.315  -4.709  16.055  1.00  0.00     0.000 C 
BRANCH   3   4
ATOM      4  C   UNL     1      15.591  -4.885  15.213  1.00  0.00     0.000 C 
BRANCH   4   5
ATOM      5  C   UNL     1      16.278  -6.239  15.459  1.00  0.00     0.000 C 
BRANCH   5   6
ATOM      6  C   UNL     1      15.732  -7.360  14.549  1.00  0.00     0.000 C 
BRANCH   6   7
ATOM      7  C   UNL     1      15.817  -7.046  13.043  1.00  0.00     0.000 C 
BRANCH   7   8
ATOM      8  C   UNL     1      17.222  -6.690  12.520  1.00  0.00     0.000 C 
BRANCH   8   9
ATOM      9  C   UNL     1      17.251  -5.781  11.276  1.00  0.00     0.000 C 
BRANCH   9  10
ATOM     10  C   UNL     1      15.951  -4.985  11.081  1.00  0.00     0.000 C 
BRANCH  10  11
ATOM     11  C   UNL     1      15.321  -5.200   9.693  1.00  0.00     0.000 C 
BRANCH  11  12
ATOM     12  C   UNL     1      14.014  -6.021   9.681  1.00  0.00     0.000 C 
BRANCH  12  13
ATOM     13  C   UNL     1      12.732  -5.201   9.452  1.00  0.00     0.006 C 
BRANCH  13  14
ATOM     14  C   UNL     1      12.401  -4.272  10.626  1.00  0.00     0.053 C 
BRANCH  14  15
ATOM     15  C   UNL     1      11.198  -3.440  10.312  1.00  0.00     0.041 C 
ATOM     16  O   UNL     1      11.324  -2.210  10.074  1.00  0.00    -0.550 OA
ATOM     17  O   UNL     1       9.944  -4.033  10.232  1.00  0.00    -0.550 OA
ENDBRANCH  14  15
ENDBRANCH  13  14
ENDBRANCH  12  13
ENDBRANCH  11  12
ENDBRANCH  10  11
ENDBRANCH   9  10
ENDBRANCH   8   9
ENDBRANCH   7   8
ENDBRANCH   6   7
ENDBRANCH   5   6
ENDBRANCH   4   5
ENDBRANCH   3   4
ENDBRANCH   2   3
ENDBRANCH   1   2
BRANCH   1  18
ATOM     18  C   UNL     1      16.129  -2.303  18.246  1.00  0.00     0.000 C 
BRANCH  18  19
ATOM     19  C   UNL     1      17.520  -2.898  18.522  1.00  0.00     0.000 C 
BRANCH  19  20
ATOM     20  C   UNL     1      18.194  -3.457  17.255  1.00  0.00     0.000 C 
BRANCH  20  21
ATOM     21  C   UNL     1      19.646  -2.989  17.026  1.00  0.00     0.000 C 
BRANCH  21  22
ATOM     22  C   UNL     1      20.146  -3.102  15.572  1.00  0.00     0.000 C 
BRANCH  22  23
ATOM     23  C   UNL     1      19.244  -3.926  14.632  1.00  0.00     0.000 C 
BRANCH  23  24
ATOM     24  C   UNL     1      18.661  -3.141  13.443  1.00  0.00    -0.000 C 
BRANCH  24  25
ATOM     25  C   UNL     1      18.884  -1.624  13.562  1.00  0.00    -0.000 C 
BRANCH  25  26
ATOM     26  C   UNL     1      17.581  -0.826  13.402  1.00  0.00    -0.000 C 
BRANCH  26  27
ATOM     27  C   UNL     1      16.397  -1.716  12.985  1.00  0.00    -0.000 C 
BRANCH  27  28
ATOM     28  C   UNL     1      15.467  -1.033  11.966  1.00  0.00    -0.000 C 
BRANCH  28  29
ATOM     29  C   UNL     1      13.963  -1.263  12.207  1.00  0.00    -0.000 C 
BRANCH  29  30
ATOM     30  C   UNL     1      13.625  -2.203  13.381  1.00  0.00    -0.000 C 
BRANCH  30  31
ATOM     31  C   UNL     1      12.312  -1.845  14.107  1.00  0.00    -0.003 C 
ATOM     32  C   UNL     1      11.562  -3.078  14.613  1.00  0.00     0.004 C 
ENDBRANCH  30  31
ENDBRANCH  29  30
ENDBRANCH  28  29
ENDBRANCH  27  28
ENDBRANCH  26  27
ENDBRANCH  25  26
ENDBRANCH  24  25
ENDBRANCH  23  24
ENDBRANCH  22  23
ENDBRANCH  21  22
ENDBRANCH  20  21
ENDBRANCH  19  20
ENDBRANCH  18  19
ENDBRANCH   1  18
TORSDOF 28
ENDMDL
MODEL 2
REMARK VINA RESULT:    -5.971      1.442      5.886
REMARK INTER + INTRA:         -21.067
REMARK INTER:                 -15.823
REMARK INTRA:                  -5.244
REMARK UNBOUND:                -5.323
REMARK SMILES CCCCCCCCCCCCCCCCCCCCCCCCCCCCCC(=O)[O-]
REMARK SMILES IDX 16 1 17 2 18 3 19 4 20 5 21 6 22 7 23 8 24 9 25 10 26 11
REMARK SMILES IDX 27 12 28 13 29 14 30 15 31 16 32 17 15 18 14 19 13 20 12 21
REMARK SMILES IDX 11 22 10 23 9 24 8 25 7 26 6 27 5 28 4 29 3 30 2 31 1 32
REMARK H PARENT
REMARK Flexibility Score: inf
ROOT
ATOM      1  C   UNL     1      13.296  -4.893  11.198  1.00  0.00     0.000 C 
ENDROOT
BRANCH   1   2
ATOM      2  C   UNL     1      13.623  -6.067  10.257  1.00  0.00     0.000 C 
BRANCH   2   3
ATOM      3  C   UNL     1      14.705  -5.708   9.221  1.00  0.00     0.000 C 
BRANCH   3   4
ATOM      4  C   UNL     1      15.890  -4.912   9.797  1.00  0.00     0.000 C 
BRANCH   4   5
ATOM      5  C   UNL     1      16.834  -5.788  10.640  1.00  0.00     0.000 C 
BRANCH   5   6
ATOM      6  C   UNL     1      17.247  -5.115  11.967  1.00  0.00     0.000 C 
BRANCH   6   7
ATOM      7  C   UNL     1      18.730  -5.310  12.337  1.00  0.00     0.000 C 
BRANCH   7   8
ATOM      8  C   UNL     1      19.300  -4.290  13.341  1.00  0.00     0.000 C 
BRANCH   8   9
ATOM      9  C   UNL     1      19.438  -2.849  12.811  1.00  0.00     0.000 C 
BRANCH   9  10
ATOM     10  C   UNL     1      18.945  -1.790  13.810  1.00  0.00     0.000 C 
BRANCH  10  11
ATOM     11  C   UNL     1      17.810  -0.918  13.244  1.00  0.00     0.000 C 
BRANCH  11  12
ATOM     12  C   UNL     1      16.769  -1.664  12.383  1.00  0.00     0.000 C 
BRANCH  12  13
ATOM     13  C   UNL     1      15.345  -1.082  12.431  1.00  0.00     0.006 C 
BRANCH  13  14
ATOM     14  C   UNL     1      14.327  -2.049  13.049  1.00  0.00     0.053 C 
BRANCH  14  15
ATOM     15  C   UNL     1      12.942  -1.499  12.924  1.00  0.00     0.041 C 
ATOM     16  O   UNL     1      12.190  -1.445  13.933  1.00  0.00    -0.550 OA
ATOM     17  O   UNL     1      12.499  -0.999  11.706  1.00  0.00    -0.550 OA
ENDBRANCH  14  15
ENDBRANCH  13  14
ENDBRANCH  12  13
ENDBRANCH  11  12
ENDBRANCH  10  11
ENDBRANCH   9  10
ENDBRANCH   8   9
ENDBRANCH   7   8
ENDBRANCH   6   7
ENDBRANCH   5   6
ENDBRANCH   4   5
ENDBRANCH   3   4
ENDBRANCH   2   3
ENDBRANCH   1   2
BRANCH   1  18
ATOM     18  C   UNL     1      13.494  -5.251  12.680  1.00  0.00     0.000 C 
BRANCH  18  19
ATOM     19  C   UNL     1      13.804  -6.743  12.888  1.00  0.00     0.000 C 
BRANCH  19  20
ATOM     20  C   UNL     1      15.097  -6.979  13.691  1.00  0.00     0.000 C 
BRANCH  20  21
ATOM     21  C   UNL     1      14.887  -7.332  15.178  1.00  0.00     0.000 C 
BRANCH  21  22
ATOM     22  C   UNL     1      15.628  -6.419  16.175  1.00  0.00     0.000 C 
BRANCH  22  23
ATOM     23  C   UNL     1      16.605  -5.411  15.539  1.00  0.00     0.000 C 
BRANCH  23  24
ATOM     24  C   UNL     1      16.041  -3.990  15.357  1.00  0.00    -0.000 C 
BRANCH  24  25
ATOM     25  C   UNL     1      14.726  -3.768  16.123  1.00  0.00    -0.000 C 
BRANCH  25  26
ATOM     26  C   UNL     1      14.936  -2.999  17.438  1.00  0.00    -0.000 C 
BRANCH  26  27
ATOM     27  C   UNL     1      16.353  -2.411  17.551  1.00  0.00    -0.000 C 
BRANCH  27  28
ATOM     28  C   UNL     1      17.143  -2.984  18.741  1.00  0.00    -0.000 C 
BRANCH  28  29
ATOM     29  C   UNL     1      18.672  -3.002  18.554  1.00  0.00    -0.000 C 
BRANCH  29  30
ATOM     30  C   UNL     1      19.152  -2.962  17.089  1.00  0.00    -0.000 C 
BRANCH  30  31
ATOM     31  C   UNL     1      20.677  -2.775  16.939  1.00  0.00    -0.003 C 
ATOM     32  C   UNL     1      21.377  -2.528  18.275  1.00  0.00     0.004 C 
ENDBRANCH  30  31
ENDBRANCH  29  30
ENDBRANCH  28  29
ENDBRANCH  27  28
ENDBRANCH  26  27
ENDBRANCH  25  26
ENDBRANCH  24  25
ENDBRANCH  23  24
ENDBRANCH  22  23
ENDBRANCH  21  22
ENDBRANCH  20  21
ENDBRANCH  19  20
ENDBRANCH  18  19
ENDBRANCH   1  18
TORSDOF 28
ENDMDL
MODEL 3
REMARK VINA RESULT:    -5.940      3.457      7.352
REMARK INTER + INTRA:         -20.986
REMARK INTER:                 -15.803
REMARK INTRA:                  -5.183
REMARK UNBOUND:                -5.323
REMARK SMILES CCCCCCCCCCCCCCCCCCCCCCCCCCCCCC(=O)[O-]
REMARK SMILES IDX 16 1 17 2 18 3 19 4 20 5 21 6 22 7 23 8 24 9 25 10 26 11
REMARK SMILES IDX 27 12 28 13 29 14 30 15 31 16 32 17 15 18 14 19 13 20 12 21
REMARK SMILES IDX 11 22 10 23 9 24 8 25 7 26 6 27 5 28 4 29 3 30 2 31 1 32
REMARK H PARENT
REMARK Flexibility Score: inf
ROOT
ATOM      1  C   UNL     1      13.624  -4.688  11.285  1.00  0.00     0.000 C 
ENDROOT
BRANCH   1   2
ATOM      2  C   UNL     1      12.719  -4.928  12.508  1.00  0.00     0.000 C 
BRANCH   2   3
ATOM      3  C   UNL     1      11.674  -3.812  12.695  1.00  0.00     0.000 C 
BRANCH   3   4
ATOM      4  C   UNL     1      11.821  -3.026  14.011  1.00  0.00     0.000 C 
BRANCH   4   5
ATOM      5  C   UNL     1      12.896  -1.929  13.926  1.00  0.00     0.000 C 
BRANCH   5   6
ATOM      6  C   UNL     1      13.198  -1.500  12.474  1.00  0.00     0.000 C 
BRANCH   6   7
ATOM      7  C   UNL     1      14.669  -1.118  12.223  1.00  0.00     0.000 C 
BRANCH   7   8
ATOM      8  C   UNL     1      15.710  -2.158  12.680  1.00  0.00     0.000 C 
BRANCH   8   9
ATOM      9  C   UNL     1      16.687  -1.677  13.770  1.00  0.00     0.000 C 
BRANCH   9  10
ATOM     10  C   UNL     1      18.079  -1.330  13.220  1.00  0.00     0.000 C 
BRANCH  10  11
ATOM     11  C   UNL     1      19.052  -2.522  13.259  1.00  0.00     0.000 C 
BRANCH  11  12
ATOM     12  C   UNL     1      18.691  -3.636  14.263  1.00  0.00     0.000 C 
BRANCH  12  13
ATOM     13  C   UNL     1      19.749  -3.904  15.348  1.00  0.00     0.006 C 
BRANCH  13  14
ATOM     14  C   UNL     1      20.229  -2.623  16.041  1.00  0.00     0.053 C 
BRANCH  14  15
ATOM     15  C   UNL     1      21.355  -2.926  16.978  1.00  0.00     0.041 C 
ATOM     16  O   UNL     1      22.303  -3.668  16.609  1.00  0.00    -0.550 OA
ATOM     17  O   UNL     1      21.383  -2.349  18.242  1.00  0.00    -0.550 OA
ENDBRANCH  14  15
ENDBRANCH  13  14
ENDBRANCH  12  13
ENDBRANCH  11  12
ENDBRANCH  10  11
ENDBRANCH   9  10
ENDBRANCH   8   9
ENDBRANCH   7   8
ENDBRANCH   6   7
ENDBRANCH   5   6
ENDBRANCH   4   5
ENDBRANCH   3   4
ENDBRANCH   2   3
ENDBRANCH   1   2
BRANCH   1  18
ATOM     18  C   UNL     1      13.131  -5.428  10.031  1.00  0.00     0.000 C 
BRANCH  18  19
ATOM     19  C   UNL     1      14.289  -5.977   9.179  1.00  0.00     0.000 C 
BRANCH  19  20
ATOM     20  C   UNL     1      15.594  -5.179   9.358  1.00  0.00     0.000 C 
BRANCH  20  21
ATOM     21  C   UNL     1      16.755  -5.963  10.004  1.00  0.00     0.000 C 
BRANCH  21  22
ATOM     22  C   UNL     1      17.215  -5.433  11.377  1.00  0.00     0.000 C 
BRANCH  22  23
ATOM     23  C   UNL     1      17.219  -6.476  12.512  1.00  0.00     0.000 C 
BRANCH  23  24
ATOM     24  C   UNL     1      15.850  -6.719  13.172  1.00  0.00    -0.000 C 
BRANCH  24  25
ATOM     25  C   UNL     1      15.959  -7.443  14.525  1.00  0.00    -0.000 C 
BRANCH  25  26
ATOM     26  C   UNL     1      15.605  -6.530  15.709  1.00  0.00    -0.000 C 
BRANCH  26  27
ATOM     27  C   UNL     1      15.089  -5.154  15.253  1.00  0.00    -0.000 C 
BRANCH  27  28
ATOM     28  C   UNL     1      14.064  -4.548  16.228  1.00  0.00    -0.000 C 
BRANCH  28  29
ATOM     29  C   UNL     1      14.556  -3.306  16.994  1.00  0.00    -0.000 C 
BRANCH  29  30
ATOM     30  C   UNL     1      16.051  -2.976  16.813  1.00  0.00    -0.000 C 
BRANCH  30  31
ATOM     31  C   UNL     1      16.728  -2.432  18.089  1.00  0.00    -0.003 C 
ATOM     32  C   UNL     1      17.863  -3.328  18.583  1.00  0.00     0.004 C 
ENDBRANCH  30  31
ENDBRANCH  29  30
ENDBRANCH  28  29
ENDBRANCH  27  28
ENDBRANCH  26  27
ENDBRANCH  25  26
ENDBRANCH  24  25
ENDBRANCH  23  24
ENDBRANCH  22  23
ENDBRANCH  21  22
ENDBRANCH  20  21
ENDBRANCH  19  20
ENDBRANCH  18  19
ENDBRANCH   1  18
TORSDOF 28
ENDMDL
MODEL 4
REMARK VINA RESULT:    -5.933      1.205      5.522
REMARK INTER + INTRA:         -20.967
REMARK INTER:                 -15.475
REMARK INTRA:                  -5.492
REMARK UNBOUND:                -5.323
REMARK SMILES CCCCCCCCCCCCCCCCCCCCCCCCCCCCCC(=O)[O-]
REMARK SMILES IDX 16 1 17 2 18 3 19 4 20 5 21 6 22 7 23 8 24 9 25 10 26 11
REMARK SMILES IDX 27 12 28 13 29 14 30 15 31 16 32 17 15 18 14 19 13 20 12 21
REMARK SMILES IDX 11 22 10 23 9 24 8 25 7 26 6 27 5 28 4 29 3 30 2 31 1 32
REMARK H PARENT
REMARK Flexibility Score: inf
ROOT
ATOM      1  C   UNL     1      13.563  -3.846  16.321  1.00  0.00     0.000 C 
ENDROOT
BRANCH   1   2
ATOM      2  C   UNL     1      15.089  -3.770  16.510  1.00  0.00     0.000 C 
BRANCH   2   3
ATOM      3  C   UNL     1      15.512  -2.603  17.423  1.00  0.00     0.000 C 
BRANCH   3   4
ATOM      4  C   UNL     1      16.846  -2.829  18.157  1.00  0.00     0.000 C 
BRANCH   4   5
ATOM      5  C   UNL     1      17.831  -3.683  17.340  1.00  0.00     0.000 C 
BRANCH   5   6
ATOM      6  C   UNL     1      19.198  -2.994  17.145  1.00  0.00     0.000 C 
BRANCH   6   7
ATOM      7  C   UNL     1      19.727  -3.042  15.699  1.00  0.00     0.000 C 
BRANCH   7   8
ATOM      8  C   UNL     1      19.030  -4.058  14.774  1.00  0.00     0.000 C 
BRANCH   8   9
ATOM      9  C   UNL     1      18.689  -3.539  13.364  1.00  0.00     0.000 C 
BRANCH   9  10
ATOM     10  C   UNL     1      18.457  -2.020  13.321  1.00  0.00     0.000 C 
BRANCH  10  11
ATOM     11  C   UNL     1      17.089  -1.608  13.895  1.00  0.00     0.000 C 
BRANCH  11  12
ATOM     12  C   UNL     1      15.862  -2.139  13.125  1.00  0.00     0.000 C 
BRANCH  12  13
ATOM     13  C   UNL     1      15.264  -1.161  12.098  1.00  0.00     0.006 C 
BRANCH  13  14
ATOM     14  C   UNL     1      13.731  -1.119  12.138  1.00  0.00     0.053 C 
BRANCH  14  15
ATOM     15  C   UNL     1      13.207  -0.187  11.092  1.00  0.00     0.041 C 
ATOM     16  O   UNL     1      13.904   0.788  10.707  1.00  0.00    -0.550 OA
ATOM     17  O   UNL     1      11.969  -0.424  10.507  1.00  0.00    -0.550 OA
ENDBRANCH  14  15
ENDBRANCH  13  14
ENDBRANCH  12  13
ENDBRANCH  11  12
ENDBRANCH  10  11
ENDBRANCH   9  10
ENDBRANCH   8   9
ENDBRANCH   7   8
ENDBRANCH   6   7
ENDBRANCH   5   6
ENDBRANCH   4   5
ENDBRANCH   3   4
ENDBRANCH   2   3
ENDBRANCH   1   2
BRANCH   1  18
ATOM     18  C   UNL     1      13.028  -2.750  15.386  1.00  0.00     0.000 C 
BRANCH  18  19
ATOM     19  C   UNL     1      11.843  -3.231  14.531  1.00  0.00     0.000 C 
BRANCH  19  20
ATOM     20  C   UNL     1      12.287  -3.956  13.247  1.00  0.00     0.000 C 
BRANCH  20  21
ATOM     21  C   UNL     1      11.244  -3.968  12.110  1.00  0.00     0.000 C 
BRANCH  21  22
ATOM     22  C   UNL     1      11.829  -4.102  10.690  1.00  0.00     0.000 C 
BRANCH  22  23
ATOM     23  C   UNL     1      13.306  -4.539  10.629  1.00  0.00     0.000 C 
BRANCH  23  24
ATOM     24  C   UNL     1      13.612  -5.646   9.604  1.00  0.00    -0.000 C 
BRANCH  24  25
ATOM     25  C   UNL     1      15.119  -5.853   9.380  1.00  0.00    -0.000 C 
BRANCH  25  26
ATOM     26  C   UNL     1      15.975  -5.019  10.348  1.00  0.00    -0.000 C 
BRANCH  26  27
ATOM     27  C   UNL     1      17.129  -5.834  10.959  1.00  0.00    -0.000 C 
BRANCH  27  28
ATOM     28  C   UNL     1      16.757  -6.476  12.307  1.00  0.00    -0.000 C 
BRANCH  28  29
ATOM     29  C   UNL     1      15.668  -5.730  13.100  1.00  0.00    -0.000 C 
BRANCH  29  30
ATOM     30  C   UNL     1      14.597  -6.631  13.747  1.00  0.00    -0.000 C 
BRANCH  30  31
ATOM     31  C   UNL     1      14.984  -7.150  15.148  1.00  0.00    -0.003 C 
ATOM     32  C   UNL     1      16.365  -6.670  15.596  1.00  0.00     0.004 C 
ENDBRANCH  30  31
ENDBRANCH  29  30
ENDBRANCH  28  29
ENDBRANCH  27  28
ENDBRANCH  26  27
ENDBRANCH  25  26
ENDBRANCH  24  25
ENDBRANCH  23  24
ENDBRANCH  22  23
ENDBRANCH  21  22
ENDBRANCH  20  21
ENDBRANCH  19  20
ENDBRANCH  18  19
ENDBRANCH   1  18
TORSDOF 28
ENDMDL
MODEL 5
REMARK VINA RESULT:    -5.905      3.252      6.271
REMARK INTER + INTRA:         -20.893
REMARK INTER:                 -15.542
REMARK INTRA:                  -5.352
REMARK UNBOUND:                -5.323
REMARK SMILES CCCCCCCCCCCCCCCCCCCCCCCCCCCCCC(=O)[O-]
REMARK SMILES IDX 16 1 17 2 18 3 19 4 20 5 21 6 22 7 23 8 24 9 25 10 26 11
REMARK SMILES IDX 27 12 28 13 29 14 30 15 31 16 32 17 15 18 14 19 13 20 12 21
REMARK SMILES IDX 11 22 10 23 9 24 8 25 7 26 6 27 5 28 4 29 3 30 2 31 1 32
REMARK H PARENT
REMARK Flexibility Score: inf
ROOT
ATOM      1  C   UNL     1      14.537  -3.366  16.973  1.00  0.00     0.000 C 
ENDROOT
BRANCH   1   2
ATOM      2  C   UNL     1      13.190  -3.559  16.252  1.00  0.00     0.000 C 
BRANCH   2   3
ATOM      3  C   UNL     1      13.310  -3.390  14.725  1.00  0.00     0.000 C 
BRANCH   3   4
ATOM      4  C   UNL     1      12.496  -2.215  14.155  1.00  0.00     0.000 C 
BRANCH   4   5
ATOM      5  C   UNL     1      13.241  -1.470  13.034  1.00  0.00     0.000 C 
BRANCH   5   6
ATOM      6  C   UNL     1      14.453  -2.260  12.495  1.00  0.00     0.000 C 
BRANCH   6   7
ATOM      7  C   UNL     1      15.598  -1.375  11.968  1.00  0.00     0.000 C 
BRANCH   7   8
ATOM      8  C   UNL     1      16.352  -0.562  13.038  1.00  0.00     0.000 C 
BRANCH   8   9
ATOM      9  C   UNL     1      17.629  -1.224  13.591  1.00  0.00     0.000 C 
BRANCH   9  10
ATOM     10  C   UNL     1      17.974  -2.547  12.888  1.00  0.00     0.000 C 
BRANCH  10  11
ATOM     11  C   UNL     1      19.418  -3.008  13.156  1.00  0.00     0.000 C 
BRANCH  11  12
ATOM     12  C   UNL     1      19.555  -4.374  13.860  1.00  0.00     0.000 C 
BRANCH  12  13
ATOM     13  C   UNL     1      20.221  -4.329  15.247  1.00  0.00     0.006 C 
BRANCH  13  14
ATOM     14  C   UNL     1      19.687  -3.192  16.127  1.00  0.00     0.053 C 
BRANCH  14  15
ATOM     15  C   UNL     1      20.810  -2.316  16.586  1.00  0.00     0.041 C 
ATOM     16  O   UNL     1      21.435  -2.591  17.644  1.00  0.00    -0.550 OA
ATOM     17  O   UNL     1      21.198  -1.224  15.820  1.00  0.00    -0.550 OA
ENDBRANCH  14  15
ENDBRANCH  13  14
ENDBRANCH  12  13
ENDBRANCH  11  12
ENDBRANCH  10  11
ENDBRANCH   9  10
ENDBRANCH   8   9
ENDBRANCH   7   8
ENDBRANCH   6   7
ENDBRANCH   5   6
ENDBRANCH   4   5
ENDBRANCH   3   4
ENDBRANCH   2   3
ENDBRANCH   1   2
BRANCH   1  18
ATOM     18  C   UNL     1      15.740  -3.542  16.033  1.00  0.00     0.000 C 
BRANCH  18  19
ATOM     19  C   UNL     1      16.741  -4.590  16.549  1.00  0.00     0.000 C 
BRANCH  19  20
ATOM     20  C   UNL     1      16.749  -5.877  15.703  1.00  0.00     0.000 C 
BRANCH  20  21
ATOM     21  C   UNL     1      15.469  -6.733  15.804  1.00  0.00     0.000 C 
BRANCH  21  22
ATOM     22  C   UNL     1      14.599  -6.758  14.531  1.00  0.00     0.000 C 
BRANCH  22  23
ATOM     23  C   UNL     1      15.379  -6.879  13.207  1.00  0.00     0.000 C 
BRANCH  23  24
ATOM     24  C   UNL     1      15.798  -5.538  12.579  1.00  0.00    -0.000 C 
BRANCH  24  25
ATOM     25  C   UNL     1      17.069  -5.652  11.720  1.00  0.00    -0.000 C 
BRANCH  25  26
ATOM     26  C   UNL     1      16.756  -5.954  10.247  1.00  0.00    -0.000 C 
BRANCH  26  27
ATOM     27  C   UNL     1      15.585  -5.111   9.713  1.00  0.00    -0.000 C 
BRANCH  27  28
ATOM     28  C   UNL     1      14.452  -5.968   9.122  1.00  0.00    -0.000 C 
BRANCH  28  29
ATOM     29  C   UNL     1      13.029  -5.490   9.470  1.00  0.00    -0.000 C 
BRANCH  29  30
ATOM     30  C   UNL     1      12.922  -4.628  10.744  1.00  0.00    -0.000 C 
BRANCH  30  31
ATOM     31  C   UNL     1      11.501  -4.093  11.016  1.00  0.00    -0.003 C 
ATOM     32  C   UNL     1      11.178  -2.837  10.206  1.00  0.00     0.004 C 
ENDBRANCH  30  31
ENDBRANCH  29  30
ENDBRANCH  28  29
ENDBRANCH  27  28
ENDBRANCH  26  27
ENDBRANCH  25  26
ENDBRANCH  24  25
ENDBRANCH  23  24
ENDBRANCH  22  23
ENDBRANCH  21  22
ENDBRANCH  20  21
ENDBRANCH  19  20
ENDBRANCH  18  19
ENDBRANCH   1  18
TORSDOF 28
ENDMDL
MODEL 6
REMARK VINA RESULT:    -5.878      3.127      7.459
REMARK INTER + INTRA:         -20.822
REMARK INTER:                 -15.205
REMARK INTRA:                  -5.617
REMARK UNBOUND:                -5.323
REMARK SMILES CCCCCCCCCCCCCCCCCCCCCCCCCCCCCC(=O)[O-]
REMARK SMILES IDX 16 1 17 2 18 3 19 4 20 5 21 6 22 7 23 8 24 9 25 10 26 11
REMARK SMILES IDX 27 12 28 13 29 14 30 15 31 16 32 17 15 18 14 19 13 20 12 21
REMARK SMILES IDX 11 22 10 23 9 24 8 25 7 26 6 27 5 28 4 29 3 30 2 31 1 32
REMARK H PARENT
REMARK Flexibility Score: inf
ROOT
ATOM      1  C   UNL     1      16.594  -5.695  10.488  1.00  0.00     0.000 C 
ENDROOT
BRANCH   1   2
ATOM      2  C   UNL     1      16.256  -5.560  11.984  1.00  0.00     0.000 C 
BRANCH   2   3
ATOM      3  C   UNL     1      16.399  -6.893  12.743  1.00  0.00     0.000 C 
BRANCH   3   4
ATOM      4  C   UNL     1      15.413  -7.061  13.913  1.00  0.00     0.000 C 
BRANCH   4   5
ATOM      5  C   UNL     1      16.096  -6.927  15.285  1.00  0.00     0.000 C 
BRANCH   5   6
ATOM      6  C   UNL     1      16.815  -5.572  15.464  1.00  0.00     0.000 C 
BRANCH   6   7
ATOM      7  C   UNL     1      15.888  -4.347  15.347  1.00  0.00     0.000 C 
BRANCH   7   8
ATOM      8  C   UNL     1      14.655  -4.360  16.272  1.00  0.00     0.000 C 
BRANCH   8   9
ATOM      9  C   UNL     1      14.480  -3.109  17.154  1.00  0.00     0.000 C 
BRANCH   9  10
ATOM     10  C   UNL     1      15.777  -2.298  17.312  1.00  0.00     0.000 C 
BRANCH  10  11
ATOM     11  C   UNL     1      16.555  -2.658  18.590  1.00  0.00     0.000 C 
BRANCH  11  12
ATOM     12  C   UNL     1      17.749  -3.615  18.389  1.00  0.00     0.000 C 
BRANCH  12  13
ATOM     13  C   UNL     1      19.086  -2.928  18.057  1.00  0.00     0.006 C 
BRANCH  13  14
ATOM     14  C   UNL     1      19.424  -2.974  16.562  1.00  0.00     0.053 C 
BRANCH  14  15
ATOM     15  C   UNL     1      20.806  -2.453  16.322  1.00  0.00     0.041 C 
ATOM     16  O   UNL     1      20.973  -1.323  15.792  1.00  0.00    -0.550 OA
ATOM     17  O   UNL     1      21.909  -3.194  16.730  1.00  0.00    -0.550 OA
ENDBRANCH  14  15
ENDBRANCH  13  14
ENDBRANCH  12  13
ENDBRANCH  11  12
ENDBRANCH  10  11
ENDBRANCH   9  10
ENDBRANCH   8   9
ENDBRANCH   7   8
ENDBRANCH   6   7
ENDBRANCH   5   6
ENDBRANCH   4   5
ENDBRANCH   3   4
ENDBRANCH   2   3
ENDBRANCH   1   2
BRANCH   1  18
ATOM     18  C   UNL     1      15.436  -5.252   9.579  1.00  0.00     0.000 C 
BRANCH  18  19
ATOM     19  C   UNL     1      14.089  -5.860  10.005  1.00  0.00     0.000 C 
BRANCH  19  20
ATOM     20  C   UNL     1      13.015  -4.794  10.292  1.00  0.00     0.000 C 
BRANCH  20  21
ATOM     21  C   UNL     1      12.396  -4.855  11.704  1.00  0.00     0.000 C 
BRANCH  21  22
ATOM     22  C   UNL     1      13.211  -4.148  12.805  1.00  0.00     0.000 C 
BRANCH  22  23
ATOM     23  C   UNL     1      12.424  -3.125  13.647  1.00  0.00     0.000 C 
BRANCH  23  24
ATOM     24  C   UNL     1      12.919  -1.672  13.527  1.00  0.00    -0.000 C 
BRANCH  24  25
ATOM     25  C   UNL     1      13.343  -1.302  12.095  1.00  0.00    -0.000 C 
BRANCH  25  26
ATOM     26  C   UNL     1      14.785  -0.776  12.028  1.00  0.00    -0.000 C 
BRANCH  26  27
ATOM     27  C   UNL     1      15.739  -1.564  12.943  1.00  0.00    -0.000 C 
BRANCH  27  28
ATOM     28  C   UNL     1      16.927  -0.720  13.436  1.00  0.00    -0.000 C 
BRANCH  28  29
ATOM     29  C   UNL     1      18.292  -1.432  13.387  1.00  0.00    -0.000 C 
BRANCH  29  30
ATOM     30  C   UNL     1      18.250  -2.893  12.895  1.00  0.00    -0.000 C 
BRANCH  30  31
ATOM     31  C   UNL     1      19.644  -3.507  12.646  1.00  0.00    -0.003 C 
ATOM     32  C   UNL     1      19.774  -4.923  13.206  1.00  0.00     0.004 C 
ENDBRANCH  30  31
ENDBRANCH  29  30
ENDBRANCH  28  29
ENDBRANCH  27  28
ENDBRANCH  26  27
ENDBRANCH  25  26
ENDBRANCH  24  25
ENDBRANCH  23  24
ENDBRANCH  22  23
ENDBRANCH  21  22
ENDBRANCH  20  21
ENDBRANCH  19  20
ENDBRANCH  18  19
ENDBRANCH   1  18
TORSDOF 28
ENDMDL
MODEL 7
REMARK VINA RESULT:    -5.787      3.254      6.462
REMARK INTER + INTRA:         -20.584
REMARK INTER:                 -14.722
REMARK INTRA:                  -5.861
REMARK UNBOUND:                -5.323
REMARK SMILES CCCCCCCCCCCCCCCCCCCCCCCCCCCCCC(=O)[O-]
REMARK SMILES IDX 16 1 17 2 18 3 19 4 20 5 21 6 22 7 23 8 24 9 25 10 26 11
REMARK SMILES IDX 27 12 28 13 29 14 30 15 31 16 32 17 15 18 14 19 13 20 12 21
REMARK SMILES IDX 11 22 10 23 9 24 8 25 7 26 6 27 5 28 4 29 3 30 2 31 1 32
REMARK H PARENT
REMARK Flexibility Score: inf
ROOT
ATOM      1  C   UNL     1      13.767  -5.675  10.912  1.00  0.00     0.000 C 
ENDROOT
BRANCH   1   2
ATOM      2  C   UNL     1      13.098  -5.338  12.258  1.00  0.00     0.000 C 
BRANCH   2   3
ATOM      3  C   UNL     1      13.872  -5.912  13.460  1.00  0.00     0.000 C 
BRANCH   3   4
ATOM      4  C   UNL     1      14.656  -7.199  13.149  1.00  0.00     0.000 C 
BRANCH   4   5
ATOM      5  C   UNL     1      15.738  -7.500  14.200  1.00  0.00     0.000 C 
BRANCH   5   6
ATOM      6  C   UNL     1      15.531  -6.713  15.512  1.00  0.00     0.000 C 
BRANCH   6   7
ATOM      7  C   UNL     1      16.578  -5.609  15.756  1.00  0.00     0.000 C 
BRANCH   7   8
ATOM      8  C   UNL     1      16.122  -4.178  15.413  1.00  0.00     0.000 C 
BRANCH   8   9
ATOM      9  C   UNL     1      14.811  -3.725  16.086  1.00  0.00     0.000 C 
BRANCH   9  10
ATOM     10  C   UNL     1      15.040  -2.997  17.420  1.00  0.00     0.000 C 
BRANCH  10  11
ATOM     11  C   UNL     1      16.466  -2.434  17.558  1.00  0.00     0.000 C 
BRANCH  11  12
ATOM     12  C   UNL     1      17.221  -2.854  18.836  1.00  0.00     0.000 C 
BRANCH  12  13
ATOM     13  C   UNL     1      18.741  -3.027  18.668  1.00  0.00     0.006 C 
BRANCH  13  14
ATOM     14  C   UNL     1      19.190  -2.959  17.203  1.00  0.00     0.053 C 
BRANCH  14  15
ATOM     15  C   UNL     1      20.615  -2.511  17.114  1.00  0.00     0.041 C 
ATOM     16  O   UNL     1      21.054  -2.008  16.046  1.00  0.00    -0.550 OA
ATOM     17  O   UNL     1      21.444  -2.602  18.225  1.00  0.00    -0.550 OA
ENDBRANCH  14  15
ENDBRANCH  13  14
ENDBRANCH  12  13
ENDBRANCH  11  12
ENDBRANCH  10  11
ENDBRANCH   9  10
ENDBRANCH   8   9
ENDBRANCH   7   8
ENDBRANCH   6   7
ENDBRANCH   5   6
ENDBRANCH   4   5
ENDBRANCH   3   4
ENDBRANCH   2   3
ENDBRANCH   1   2
BRANCH   1  18
ATOM     18  C   UNL     1      15.000  -4.801  10.631  1.00  0.00     0.000 C 
BRANCH  18  19
ATOM     19  C   UNL     1      16.104  -5.565   9.880  1.00  0.00     0.000 C 
BRANCH  19  20
ATOM     20  C   UNL     1      17.299  -5.929  10.780  1.00  0.00     0.000 C 
BRANCH  20  21
ATOM     21  C   UNL     1      17.427  -5.088  12.067  1.00  0.00     0.000 C 
BRANCH  21  22
ATOM     22  C   UNL     1      18.802  -5.163  12.761  1.00  0.00     0.000 C 
BRANCH  22  23
ATOM     23  C   UNL     1      19.189  -3.917  13.582  1.00  0.00     0.000 C 
BRANCH  23  24
ATOM     24  C   UNL     1      18.947  -2.573  12.871  1.00  0.00    -0.000 C 
BRANCH  24  25
ATOM     25  C   UNL     1      18.475  -1.467  13.829  1.00  0.00    -0.000 C 
BRANCH  25  26
ATOM     26  C   UNL     1      16.974  -1.171  13.687  1.00  0.00    -0.000 C 
BRANCH  26  27
ATOM     27  C   UNL     1      16.468  -1.388  12.250  1.00  0.00    -0.000 C 
BRANCH  27  28
ATOM     28  C   UNL     1      15.124  -2.137  12.198  1.00  0.00    -0.000 C 
BRANCH  28  29
ATOM     29  C   UNL     1      14.062  -1.630  13.192  1.00  0.00    -0.000 C 
BRANCH  29  30
ATOM     30  C   UNL     1      12.600  -1.862  12.761  1.00  0.00    -0.000 C 
BRANCH  30  31
ATOM     31  C   UNL     1      12.324  -1.522  11.281  1.00  0.00    -0.003 C 
ATOM     32  C   UNL     1      11.507  -2.601  10.570  1.00  0.00     0.004 C 
ENDBRANCH  30  31
ENDBRANCH  29  30
ENDBRANCH  28  29
ENDBRANCH  27  28
ENDBRANCH  26  27
ENDBRANCH  25  26
ENDBRANCH  24  25
ENDBRANCH  23  24
ENDBRANCH  22  23
ENDBRANCH  21  22
ENDBRANCH  20  21
ENDBRANCH  19  20
ENDBRANCH  18  19
ENDBRANCH   1  18
TORSDOF 28
ENDMDL
MODEL 8
REMARK VINA RESULT:    -5.776      1.526      5.288
REMARK INTER + INTRA:         -20.555
REMARK INTER:                 -14.647
REMARK INTRA:                  -5.908
REMARK UNBOUND:                -5.323
REMARK SMILES CCCCCCCCCCCCCCCCCCCCCCCCCCCCCC(=O)[O-]
REMARK SMILES IDX 16 1 17 2 18 3 19 4 20 5 21 6 22 7 23 8 24 9 25 10 26 11
REMARK SMILES IDX 27 12 28 13 29 14 30 15 31 16 32 17 15 18 14 19 13 20 12 21
REMARK SMILES IDX 11 22 10 23 9 24 8 25 7 26 6 27 5 28 4 29 3 30 2 31 1 32
REMARK H PARENT
REMARK Flexibility Score: inf
ROOT
ATOM      1  C   UNL     1      13.232  -4.465  10.648  1.00  0.00     0.000 C 
ENDROOT
BRANCH   1   2
ATOM      2  C   UNL     1      13.238  -5.700   9.729  1.00  0.00     0.000 C 
BRANCH   2   3
ATOM      3  C   UNL     1      14.624  -5.967   9.111  1.00  0.00     0.000 C 
BRANCH   3   4
ATOM      4  C   UNL     1      15.743  -5.061   9.656  1.00  0.00     0.000 C 
BRANCH   4   5
ATOM      5  C   UNL     1      16.816  -5.849  10.429  1.00  0.00     0.000 C 
BRANCH   5   6
ATOM      6  C   UNL     1      17.351  -5.082  11.657  1.00  0.00     0.000 C 
BRANCH   6   7
ATOM      7  C   UNL     1      18.607  -5.707  12.292  1.00  0.00     0.000 C 
BRANCH   7   8
ATOM      8  C   UNL     1      19.752  -4.724  12.601  1.00  0.00     0.000 C 
BRANCH   8   9
ATOM      9  C   UNL     1      19.374  -3.231  12.536  1.00  0.00     0.000 C 
BRANCH   9  10
ATOM     10  C   UNL     1      19.373  -2.550  13.914  1.00  0.00     0.000 C 
BRANCH  10  11
ATOM     11  C   UNL     1      18.685  -1.173  13.900  1.00  0.00     0.000 C 
BRANCH  11  12
ATOM     12  C   UNL     1      17.580  -0.998  12.837  1.00  0.00     0.000 C 
BRANCH  12  13
ATOM     13  C   UNL     1      16.161  -1.366  13.306  1.00  0.00     0.006 C 
BRANCH  13  14
ATOM     14  C   UNL     1      15.283  -1.913  12.173  1.00  0.00     0.053 C 
BRANCH  14  15
ATOM     15  C   UNL     1      14.268  -0.894  11.761  1.00  0.00     0.041 C 
ATOM     16  O   UNL     1      14.638   0.229  11.329  1.00  0.00    -0.550 OA
ATOM     17  O   UNL     1      12.914  -1.204  11.806  1.00  0.00    -0.550 OA
ENDBRANCH  14  15
ENDBRANCH  13  14
ENDBRANCH  12  13
ENDBRANCH  11  12
ENDBRANCH  10  11
ENDBRANCH   9  10
ENDBRANCH   8   9
ENDBRANCH   7   8
ENDBRANCH   6   7
ENDBRANCH   5   6
ENDBRANCH   4   5
ENDBRANCH   3   4
ENDBRANCH   2   3
ENDBRANCH   1   2
BRANCH   1  18
ATOM     18  C   UNL     1      12.667  -4.771  12.044  1.00  0.00     0.000 C 
BRANCH  18  19
ATOM     19  C   UNL     1      13.229  -6.076  12.633  1.00  0.00     0.000 C 
BRANCH  19  20
ATOM     20  C   UNL     1      14.604  -5.889  13.301  1.00  0.00     0.000 C 
BRANCH  20  21
ATOM     21  C   UNL     1      15.286  -7.191  13.768  1.00  0.00     0.000 C 
BRANCH  21  22
ATOM     22  C   UNL     1      15.122  -7.512  15.267  1.00  0.00     0.000 C 
BRANCH  22  23
ATOM     23  C   UNL     1      15.624  -6.418  16.230  1.00  0.00     0.000 C 
BRANCH  23  24
ATOM     24  C   UNL     1      17.115  -6.065  16.086  1.00  0.00    -0.000 C 
BRANCH  24  25
ATOM     25  C   UNL     1      17.346  -4.596  15.693  1.00  0.00    -0.000 C 
BRANCH  25  26
ATOM     26  C   UNL     1      17.271  -3.647  16.900  1.00  0.00    -0.000 C 
BRANCH  26  27
ATOM     27  C   UNL     1      16.157  -2.596  16.749  1.00  0.00    -0.000 C 
BRANCH  27  28
ATOM     28  C   UNL     1      14.870  -2.978  17.503  1.00  0.00    -0.000 C 
BRANCH  28  29
ATOM     29  C   UNL     1      13.769  -3.604  16.626  1.00  0.00    -0.000 C 
BRANCH  29  30
ATOM     30  C   UNL     1      13.733  -3.107  15.167  1.00  0.00    -0.000 C 
BRANCH  30  31
ATOM     31  C   UNL     1      12.379  -2.496  14.750  1.00  0.00    -0.003 C 
ATOM     32  C   UNL     1      11.187  -3.349  15.184  1.00  0.00     0.004 C 
ENDBRANCH  30  31
ENDBRANCH  29  30
ENDBRANCH  28  29
ENDBRANCH  27  28
ENDBRANCH  26  27
ENDBRANCH  25  26
ENDBRANCH  24  25
ENDBRANCH  23  24
ENDBRANCH  22  23
ENDBRANCH  21  22
ENDBRANCH  20  21
ENDBRANCH  19  20
ENDBRANCH  18  19
ENDBRANCH   1  18
TORSDOF 28
ENDMDL
MODEL 9
REMARK VINA RESULT:    -5.744      0.923      4.821
REMARK INTER + INTRA:         -20.469
REMARK INTER:                 -15.336
REMARK INTRA:                  -5.132
REMARK UNBOUND:                -5.323
REMARK SMILES CCCCCCCCCCCCCCCCCCCCCCCCCCCCCC(=O)[O-]
REMARK SMILES IDX 16 1 17 2 18 3 19 4 20 5 21 6 22 7 23 8 24 9 25 10 26 11
REMARK SMILES IDX 27 12 28 13 29 14 30 15 31 16 32 17 15 18 14 19 13 20 12 21
REMARK SMILES IDX 11 22 10 23 9 24 8 25 7 26 6 27 5 28 4 29 3 30 2 31 1 32
REMARK H PARENT
REMARK Flexibility Score: inf
ROOT
ATOM      1  C   UNL     1      18.564  -3.327  16.474  1.00  0.00     0.000 C 
ENDROOT
BRANCH   1   2
ATOM      2  C   UNL     1      18.730  -4.502  15.492  1.00  0.00     0.000 C 
BRANCH   2   3
ATOM      3  C   UNL     1      19.688  -4.168  14.332  1.00  0.00     0.000 C 
BRANCH   3   4
ATOM      4  C   UNL     1      19.063  -3.293  13.230  1.00  0.00     0.000 C 
BRANCH   4   5
ATOM      5  C   UNL     1      19.337  -1.794  13.441  1.00  0.00     0.000 C 
BRANCH   5   6
ATOM      6  C   UNL     1      18.070  -0.927  13.284  1.00  0.00     0.000 C 
BRANCH   6   7
ATOM      7  C   UNL     1      16.784  -1.590  13.813  1.00  0.00     0.000 C 
BRANCH   7   8
ATOM      8  C   UNL     1      15.768  -2.015  12.735  1.00  0.00     0.000 C 
BRANCH   8   9
ATOM      9  C   UNL     1      14.979  -0.863  12.083  1.00  0.00     0.000 C 
BRANCH   9  10
ATOM     10  C   UNL     1      13.458  -1.088  12.103  1.00  0.00     0.000 C 
BRANCH  10  11
ATOM     11  C   UNL     1      12.958  -1.674  13.436  1.00  0.00     0.000 C 
BRANCH  11  12
ATOM     12  C   UNL     1      12.246  -3.039  13.331  1.00  0.00     0.000 C 
BRANCH  12  13
ATOM     13  C   UNL     1      12.391  -3.748  11.973  1.00  0.00     0.006 C 
BRANCH  13  14
ATOM     14  C   UNL     1      11.051  -4.236  11.410  1.00  0.00     0.053 C 
BRANCH  14  15
ATOM     15  C   UNL     1      10.802  -3.639  10.061  1.00  0.00     0.041 C 
ATOM     16  O   UNL     1      11.276  -2.508   9.773  1.00  0.00    -0.550 OA
ATOM     17  O   UNL     1      10.090  -4.352   9.105  1.00  0.00    -0.550 OA
ENDBRANCH  14  15
ENDBRANCH  13  14
ENDBRANCH  12  13
ENDBRANCH  11  12
ENDBRANCH  10  11
ENDBRANCH   9  10
ENDBRANCH   8   9
ENDBRANCH   7   8
ENDBRANCH   6   7
ENDBRANCH   5   6
ENDBRANCH   4   5
ENDBRANCH   3   4
ENDBRANCH   2   3
ENDBRANCH   1   2
BRANCH   1  18
ATOM     18  C   UNL     1      17.974  -3.766  17.824  1.00  0.00     0.000 C 
BRANCH  18  19
ATOM     19  C   UNL     1      17.062  -2.694  18.444  1.00  0.00     0.000 C 
BRANCH  19  20
ATOM     20  C   UNL     1      15.973  -2.200  17.473  1.00  0.00     0.000 C 
BRANCH  20  21
ATOM     21  C   UNL     1      14.657  -3.005  17.504  1.00  0.00     0.000 C 
BRANCH  21  22
ATOM     22  C   UNL     1      14.154  -3.485  16.128  1.00  0.00     0.000 C 
BRANCH  22  23
ATOM     23  C   UNL     1      15.077  -4.489  15.409  1.00  0.00     0.000 C 
BRANCH  23  24
ATOM     24  C   UNL     1      15.253  -5.838  16.130  1.00  0.00    -0.000 C 
BRANCH  24  25
ATOM     25  C   UNL     1      14.876  -7.040  15.248  1.00  0.00    -0.000 C 
BRANCH  25  26
ATOM     26  C   UNL     1      14.876  -6.692  13.751  1.00  0.00    -0.000 C 
BRANCH  26  27
ATOM     27  C   UNL     1      16.041  -7.356  12.996  1.00  0.00    -0.000 C 
BRANCH  27  28
ATOM     28  C   UNL     1      17.088  -6.341  12.504  1.00  0.00    -0.000 C 
BRANCH  28  29
ATOM     29  C   UNL     1      16.530  -5.215  11.614  1.00  0.00    -0.000 C 
BRANCH  29  30
ATOM     30  C   UNL     1      15.951  -5.676  10.261  1.00  0.00    -0.000 C 
BRANCH  30  31
ATOM     31  C   UNL     1      14.460  -5.328  10.070  1.00  0.00    -0.003 C 
ATOM     32  C   UNL     1      13.827  -6.066   8.890  1.00  0.00     0.004 C 
ENDBRANCH  30  31
ENDBRANCH  29  30
ENDBRANCH  28  29
ENDBRANCH  27  28
ENDBRANCH  26  27
ENDBRANCH  25  26
ENDBRANCH  24  25
ENDBRANCH  23  24
ENDBRANCH  22  23
ENDBRANCH  21  22
ENDBRANCH  20  21
ENDBRANCH  19  20
ENDBRANCH  18  19
ENDBRANCH   1  18
TORSDOF 28
ENDMDL
