MODEL 1
REMARK VINA RESULT:    -4.243      0.000      0.000
REMARK INTER + INTRA:          -8.130
REMARK INTER:                  -6.847
REMARK INTRA:                  -1.283
REMARK UNBOUND:                -1.283
REMARK SMILES CCCCCCCCCCCCO
REMARK SMILES IDX 7 1 6 2 5 3 4 4 3 5 2 6 1 7 8 8 9 9 10 10 11 11 12 12 13 13
REMARK H PARENT 13 14
REMARK Flexibility Score: inf
ROOT
ATOM      1  C   UNL     1      18.651   1.048 -22.619  1.00  0.00     0.000 C 
ENDROOT
BRANCH   1   2
ATOM      2  C   UNL     1      17.191   1.324 -23.008  1.00  0.00    -0.000 C 
BRANCH   2   3
ATOM      3  C   UNL     1      16.457   0.063 -23.491  1.00  0.00    -0.000 C 
BRANCH   3   4
ATOM      4  C   UNL     1      16.018   0.157 -24.960  1.00  0.00    -0.000 C 
BRANCH   4   5
ATOM      5  C   UNL     1      15.953   1.618 -25.420  1.00  0.00    -0.000 C 
BRANCH   5   6
ATOM      6  C   UNL     1      17.049   1.919 -26.450  1.00  0.00    -0.003 C 
ATOM      7  C   UNL     1      17.650   0.632 -27.007  1.00  0.00     0.004 C 
ENDBRANCH   5   6
ENDBRANCH   4   5
ENDBRANCH   3   4
ENDBRANCH   2   3
ENDBRANCH   1   2
BRANCH   1   8
ATOM      8  C   UNL     1      19.154  -0.253 -23.262  1.00  0.00     0.000 C 
BRANCH   8   9
ATOM      9  C   UNL     1      20.302  -0.018 -24.257  1.00  0.00     0.000 C 
BRANCH   9  10
ATOM     10  C   UNL     1      20.516  -1.205 -25.207  1.00  0.00     0.002 C 
BRANCH  10  11
ATOM     11  C   UNL     1      19.352  -2.201 -25.109  1.00  0.00     0.028 C 
BRANCH  11  12
ATOM     12  C   UNL     1      19.833  -3.652 -25.226  1.00  0.00     0.156 C 
BRANCH  12  13
ATOM     13  O   UNL     1      21.166  -3.704 -25.662  1.00  0.00    -0.396 OA
ATOM     14  H   UNL     1      21.678  -3.080 -25.084  1.00  0.00     0.210 HD
ENDBRANCH  12  13
ENDBRANCH  11  12
ENDBRANCH  10  11
ENDBRANCH   9  10
ENDBRANCH   8   9
ENDBRANCH   1   8
TORSDOF 11
ENDMDL
MODEL 2
REMARK VINA RESULT:    -4.203      6.565      8.566
REMARK INTER + INTRA:          -8.067
REMARK INTER:                  -6.999
REMARK INTRA:                  -1.068
REMARK UNBOUND:                -1.283
REMARK SMILES CCCCCCCCCCCCO
REMARK SMILES IDX 7 1 6 2 5 3 4 4 3 5 2 6 1 7 8 8 9 9 10 10 11 11 12 12 13 13
REMARK H PARENT 13 14
REMARK Flexibility Score: inf
ROOT
ATOM      1  C   UNL     1      20.836  -1.739 -15.951  1.00  0.00     0.000 C 
ENDROOT
BRANCH   1   2
ATOM      2  C   UNL     1      19.856  -2.195 -17.043  1.00  0.00    -0.000 C 
BRANCH   2   3
ATOM      3  C   UNL     1      20.233  -1.665 -18.436  1.00  0.00    -0.000 C 
BRANCH   3   4
ATOM      4  C   UNL     1      21.370  -0.634 -18.391  1.00  0.00    -0.000 C 
BRANCH   4   5
ATOM      5  C   UNL     1      21.142   0.479 -19.420  1.00  0.00    -0.000 C 
BRANCH   5   6
ATOM      6  C   UNL     1      19.854   0.237 -20.216  1.00  0.00    -0.003 C 
ATOM      7  C   UNL     1      20.072   0.479 -21.706  1.00  0.00     0.004 C 
ENDBRANCH   5   6
ENDBRANCH   4   5
ENDBRANCH   3   4
ENDBRANCH   2   3
ENDBRANCH   1   2
BRANCH   1   8
ATOM      8  C   UNL     1      20.145  -0.799 -14.952  1.00  0.00     0.000 C 
BRANCH   8   9
ATOM      9  C   UNL     1      20.605   0.660 -15.095  1.00  0.00     0.000 C 
BRANCH   9  10
ATOM     10  C   UNL     1      19.441   1.659 -15.016  1.00  0.00     0.002 C 
BRANCH  10  11
ATOM     11  C   UNL     1      18.187   1.094 -15.697  1.00  0.00     0.028 C 
BRANCH  11  12
ATOM     12  C   UNL     1      18.123   1.478 -17.179  1.00  0.00     0.156 C 
BRANCH  12  13
ATOM     13  O   UNL     1      16.825   1.873 -17.539  1.00  0.00    -0.396 OA
ATOM     14  H   UNL     1      16.386   2.192 -16.708  1.00  0.00     0.210 HD
ENDBRANCH  12  13
ENDBRANCH  11  12
ENDBRANCH  10  11
ENDBRANCH   9  10
ENDBRANCH   8   9
ENDBRANCH   1   8
TORSDOF 11
ENDMDL
MODEL 3
REMARK VINA RESULT:    -4.183      2.017      3.589
REMARK INTER + INTRA:          -8.034
REMARK INTER:                  -7.035
REMARK INTRA:                  -0.999
REMARK UNBOUND:                -1.283
REMARK SMILES CCCCCCCCCCCCO
REMARK SMILES IDX 7 1 6 2 5 3 4 4 3 5 2 6 1 7 8 8 9 9 10 10 11 11 12 12 13 13
REMARK H PARENT 13 14
REMARK Flexibility Score: inf
ROOT
ATOM      1  C   UNL     1      19.262  -0.608 -27.051  1.00  0.00     0.000 C 
ENDROOT
BRANCH   1   2
ATOM      2  C   UNL     1      17.789  -0.224 -27.257  1.00  0.00    -0.000 C 
BRANCH   2   3
ATOM      3  C   UNL     1      17.444   1.149 -26.658  1.00  0.00    -0.000 C 
BRANCH   3   4
ATOM      4  C   UNL     1      16.228   1.098 -25.720  1.00  0.00    -0.000 C 
BRANCH   4   5
ATOM      5  C   UNL     1      16.189  -0.223 -24.943  1.00  0.00    -0.000 C 
BRANCH   5   6
ATOM      6  C   UNL     1      16.555  -0.005 -23.470  1.00  0.00    -0.003 C 
ATOM      7  C   UNL     1      17.983  -0.461 -23.184  1.00  0.00     0.004 C 
ENDBRANCH   5   6
ENDBRANCH   4   5
ENDBRANCH   3   4
ENDBRANCH   2   3
ENDBRANCH   1   2
BRANCH   1   8
ATOM      8  C   UNL     1      19.426  -2.133 -26.976  1.00  0.00     0.000 C 
BRANCH   8   9
ATOM      9  C   UNL     1      19.959  -2.606 -25.613  1.00  0.00     0.000 C 
BRANCH   9  10
ATOM     10  C   UNL     1      19.503  -4.029 -25.260  1.00  0.00     0.002 C 
BRANCH  10  11
ATOM     11  C   UNL     1      18.394  -4.001 -24.198  1.00  0.00     0.028 C 
BRANCH  11  12
ATOM     12  C   UNL     1      17.458  -5.208 -24.321  1.00  0.00     0.156 C 
BRANCH  12  13
ATOM     13  O   UNL     1      16.116  -4.815 -24.215  1.00  0.00    -0.396 OA
ATOM     14  H   UNL     1      15.868  -4.415 -25.089  1.00  0.00     0.210 HD
ENDBRANCH  12  13
ENDBRANCH  11  12
ENDBRANCH  10  11
ENDBRANCH   9  10
ENDBRANCH   8   9
ENDBRANCH   1   8
TORSDOF 11
ENDMDL
MODEL 4
REMARK VINA RESULT:    -4.168      1.210      2.172
REMARK INTER + INTRA:          -8.009
REMARK INTER:                  -6.929
REMARK INTRA:                  -1.080
REMARK UNBOUND:                -1.283
REMARK SMILES CCCCCCCCCCCCO
REMARK SMILES IDX 7 1 6 2 5 3 4 4 3 5 2 6 1 7 8 8 9 9 10 10 11 11 12 12 13 13
REMARK H PARENT 13 14
REMARK Flexibility Score: inf
ROOT
ATOM      1  C   UNL     1      16.722   0.433 -23.128  1.00  0.00     0.000 C 
ENDROOT
BRANCH   1   2
ATOM      2  C   UNL     1      16.147   0.485 -24.551  1.00  0.00    -0.000 C 
BRANCH   2   3
ATOM      3  C   UNL     1      16.388   1.837 -25.241  1.00  0.00    -0.000 C 
BRANCH   3   4
ATOM      4  C   UNL     1      16.983   1.687 -26.649  1.00  0.00    -0.000 C 
BRANCH   4   5
ATOM      5  C   UNL     1      18.112   0.650 -26.660  1.00  0.00    -0.000 C 
BRANCH   5   6
ATOM      6  C   UNL     1      17.990  -0.284 -27.870  1.00  0.00    -0.003 C 
ATOM      7  C   UNL     1      19.185  -1.228 -27.961  1.00  0.00     0.004 C 
ENDBRANCH   5   6
ENDBRANCH   4   5
ENDBRANCH   3   4
ENDBRANCH   2   3
ENDBRANCH   1   2
BRANCH   1   8
ATOM      8  C   UNL     1      17.905  -0.543 -23.049  1.00  0.00     0.000 C 
BRANCH   8   9
ATOM      9  C   UNL     1      17.719  -1.774 -23.950  1.00  0.00     0.000 C 
BRANCH   9  10
ATOM     10  C   UNL     1      19.041  -2.273 -24.553  1.00  0.00     0.002 C 
BRANCH  10  11
ATOM     11  C   UNL     1      19.013  -3.795 -24.748  1.00  0.00     0.028 C 
BRANCH  11  12
ATOM     12  C   UNL     1      19.949  -4.241 -25.877  1.00  0.00     0.156 C 
BRANCH  12  13
ATOM     13  O   UNL     1      21.236  -3.711 -25.700  1.00  0.00    -0.396 OA
ATOM     14  H   UNL     1      21.870  -4.377 -26.072  1.00  0.00     0.210 HD
ENDBRANCH  12  13
ENDBRANCH  11  12
ENDBRANCH  10  11
ENDBRANCH   9  10
ENDBRANCH   8   9
ENDBRANCH   1   8
TORSDOF 11
ENDMDL
MODEL 5
REMARK VINA RESULT:    -4.159      2.177      3.511
REMARK INTER + INTRA:          -7.995
REMARK INTER:                  -7.287
REMARK INTRA:                  -0.707
REMARK UNBOUND:                -1.283
REMARK SMILES CCCCCCCCCCCCO
REMARK SMILES IDX 7 1 6 2 5 3 4 4 3 5 2 6 1 7 8 8 9 9 10 10 11 11 12 12 13 13
REMARK H PARENT 13 14
REMARK Flexibility Score: inf
ROOT
ATOM      1  C   UNL     1      19.510  -1.679 -25.413  1.00  0.00     0.000 C 
ENDROOT
BRANCH   1   2
ATOM      2  C   UNL     1      18.476  -1.716 -24.277  1.00  0.00    -0.000 C 
BRANCH   2   3
ATOM      3  C   UNL     1      18.220  -0.330 -23.663  1.00  0.00    -0.000 C 
BRANCH   3   4
ATOM      4  C   UNL     1      16.724  -0.007 -23.531  1.00  0.00    -0.000 C 
BRANCH   4   5
ATOM      5  C   UNL     1      15.987  -0.276 -24.848  1.00  0.00    -0.000 C 
BRANCH   5   6
ATOM      6  C   UNL     1      16.336   0.784 -25.900  1.00  0.00    -0.003 C 
ATOM      7  C   UNL     1      15.847   2.166 -25.474  1.00  0.00     0.004 C 
ENDBRANCH   5   6
ENDBRANCH   4   5
ENDBRANCH   3   4
ENDBRANCH   2   3
ENDBRANCH   1   2
BRANCH   1   8
ATOM      8  C   UNL     1      20.147  -3.062 -25.618  1.00  0.00     0.000 C 
BRANCH   8   9
ATOM      9  C   UNL     1      19.436  -4.167 -24.820  1.00  0.00     0.000 C 
BRANCH   9  10
ATOM     10  C   UNL     1      19.028  -5.361 -25.697  1.00  0.00     0.002 C 
BRANCH  10  11
ATOM     11  C   UNL     1      17.885  -6.152 -25.046  1.00  0.00     0.028 C 
BRANCH  11  12
ATOM     12  C   UNL     1      17.180  -5.339 -23.955  1.00  0.00     0.156 C 
BRANCH  12  13
ATOM     13  O   UNL     1      15.936  -4.870 -24.405  1.00  0.00    -0.396 OA
ATOM     14  H   UNL     1      15.250  -5.481 -24.030  1.00  0.00     0.210 HD
ENDBRANCH  12  13
ENDBRANCH  11  12
ENDBRANCH  10  11
ENDBRANCH   9  10
ENDBRANCH   8   9
ENDBRANCH   1   8
TORSDOF 11
ENDMDL
MODEL 6
REMARK VINA RESULT:    -4.140      2.457      4.308
REMARK INTER + INTRA:          -7.964
REMARK INTER:                  -6.371
REMARK INTRA:                  -1.593
REMARK UNBOUND:                -1.283
REMARK SMILES CCCCCCCCCCCCO
REMARK SMILES IDX 7 1 6 2 5 3 4 4 3 5 2 6 1 7 8 8 9 9 10 10 11 11 12 12 13 13
REMARK H PARENT 13 14
REMARK Flexibility Score: inf
ROOT
ATOM      1  C   UNL     1      16.039   0.102 -24.499  1.00  0.00     0.000 C 
ENDROOT
BRANCH   1   2
ATOM      2  C   UNL     1      16.031   1.421 -25.286  1.00  0.00    -0.000 C 
BRANCH   2   3
ATOM      3  C   UNL     1      16.972   1.393 -26.501  1.00  0.00    -0.000 C 
BRANCH   3   4
ATOM      4  C   UNL     1      17.910   0.177 -26.497  1.00  0.00    -0.000 C 
BRANCH   4   5
ATOM      5  C   UNL     1      19.352   0.597 -26.188  1.00  0.00    -0.000 C 
BRANCH   5   6
ATOM      6  C   UNL     1      20.090  -0.499 -25.411  1.00  0.00    -0.003 C 
ATOM      7  C   UNL     1      19.175  -1.687 -25.130  1.00  0.00     0.004 C 
ENDBRANCH   5   6
ENDBRANCH   4   5
ENDBRANCH   3   4
ENDBRANCH   2   3
ENDBRANCH   1   2
BRANCH   1   8
ATOM      8  C   UNL     1      16.669   0.295 -23.112  1.00  0.00     0.000 C 
BRANCH   8   9
ATOM      9  C   UNL     1      17.160   1.732 -22.878  1.00  0.00     0.000 C 
BRANCH   9  10
ATOM     10  C   UNL     1      18.681   1.814 -22.676  1.00  0.00     0.002 C 
BRANCH  10  11
ATOM     11  C   UNL     1      19.205   0.565 -21.954  1.00  0.00     0.028 C 
BRANCH  11  12
ATOM     12  C   UNL     1      19.676   0.886 -20.531  1.00  0.00     0.156 C 
BRANCH  12  13
ATOM     13  O   UNL     1      18.583   1.069 -19.671  1.00  0.00    -0.396 OA
ATOM     14  H   UNL     1      18.728   0.466 -18.896  1.00  0.00     0.210 HD
ENDBRANCH  12  13
ENDBRANCH  11  12
ENDBRANCH  10  11
ENDBRANCH   9  10
ENDBRANCH   8   9
ENDBRANCH   1   8
TORSDOF 11
ENDMDL
MODEL 7
REMARK VINA RESULT:    -4.052      1.294      3.039
REMARK INTER + INTRA:          -7.822
REMARK INTER:                  -6.289
REMARK INTRA:                  -1.533
REMARK UNBOUND:                -1.283
REMARK SMILES CCCCCCCCCCCCO
REMARK SMILES IDX 7 1 6 2 5 3 4 4 3 5 2 6 1 7 8 8 9 9 10 10 11 11 12 12 13 13
REMARK H PARENT 13 14
REMARK Flexibility Score: inf
ROOT
ATOM      1  C   UNL     1      17.100   1.553 -26.512  1.00  0.00     0.000 C 
ENDROOT
BRANCH   1   2
ATOM      2  C   UNL     1      16.047   1.515 -25.394  1.00  0.00    -0.000 C 
BRANCH   2   3
ATOM      3  C   UNL     1      15.997   0.159 -24.671  1.00  0.00    -0.000 C 
BRANCH   3   4
ATOM      4  C   UNL     1      16.737   0.178 -23.325  1.00  0.00    -0.000 C 
BRANCH   4   5
ATOM      5  C   UNL     1      17.022   1.616 -22.876  1.00  0.00    -0.000 C 
BRANCH   5   6
ATOM      6  C   UNL     1      18.523   1.835 -22.652  1.00  0.00    -0.003 C 
ATOM      7  C   UNL     1      18.996   3.125 -23.316  1.00  0.00     0.004 C 
ENDBRANCH   5   6
ENDBRANCH   4   5
ENDBRANCH   3   4
ENDBRANCH   2   3
ENDBRANCH   1   2
BRANCH   1   8
ATOM      8  C   UNL     1      17.397   0.139 -27.034  1.00  0.00     0.000 C 
BRANCH   8   9
ATOM      9  C   UNL     1      18.899  -0.191 -27.031  1.00  0.00     0.000 C 
BRANCH   9  10
ATOM     10  C   UNL     1      19.604   0.269 -25.746  1.00  0.00     0.002 C 
BRANCH  10  11
ATOM     11  C   UNL     1      20.027  -0.936 -24.894  1.00  0.00     0.028 C 
BRANCH  11  12
ATOM     12  C   UNL     1      19.464  -2.250 -25.446  1.00  0.00     0.156 C 
BRANCH  12  13
ATOM     13  O   UNL     1      18.359  -2.677 -24.695  1.00  0.00    -0.396 OA
ATOM     14  H   UNL     1      17.969  -1.865 -24.278  1.00  0.00     0.210 HD
ENDBRANCH  12  13
ENDBRANCH  11  12
ENDBRANCH  10  11
ENDBRANCH   9  10
ENDBRANCH   8   9
ENDBRANCH   1   8
TORSDOF 11
ENDMDL
MODEL 8
REMARK VINA RESULT:    -4.051      2.538      4.736
REMARK INTER + INTRA:          -7.820
REMARK INTER:                  -6.663
REMARK INTRA:                  -1.157
REMARK UNBOUND:                -1.283
REMARK SMILES CCCCCCCCCCCCO
REMARK SMILES IDX 7 1 6 2 5 3 4 4 3 5 2 6 1 7 8 8 9 9 10 10 11 11 12 12 13 13
REMARK H PARENT 13 14
REMARK Flexibility Score: inf
ROOT
ATOM      1  C   UNL     1      18.972   0.196 -22.391  1.00  0.00     0.000 C 
ENDROOT
BRANCH   1   2
ATOM      2  C   UNL     1      20.025   0.788 -23.340  1.00  0.00    -0.000 C 
BRANCH   2   3
ATOM      3  C   UNL     1      20.524  -0.228 -24.380  1.00  0.00    -0.000 C 
BRANCH   3   4
ATOM      4  C   UNL     1      19.729  -0.173 -25.693  1.00  0.00    -0.000 C 
BRANCH   4   5
ATOM      5  C   UNL     1      19.411  -1.584 -26.201  1.00  0.00    -0.000 C 
BRANCH   5   6
ATOM      6  C   UNL     1      20.251  -2.636 -25.466  1.00  0.00    -0.003 C 
ATOM      7  C   UNL     1      19.399  -3.835 -25.060  1.00  0.00     0.004 C 
ENDBRANCH   5   6
ENDBRANCH   4   5
ENDBRANCH   3   4
ENDBRANCH   2   3
ENDBRANCH   1   2
BRANCH   1   8
ATOM      8  C   UNL     1      17.797   1.168 -22.202  1.00  0.00     0.000 C 
BRANCH   8   9
ATOM      9  C   UNL     1      16.976   1.361 -23.487  1.00  0.00     0.000 C 
BRANCH   9  10
ATOM     10  C   UNL     1      16.361   0.051 -24.001  1.00  0.00     0.002 C 
BRANCH  10  11
ATOM     11  C   UNL     1      16.019   0.156 -25.494  1.00  0.00     0.028 C 
BRANCH  11  12
ATOM     12  C   UNL     1      16.298   1.559 -26.044  1.00  0.00     0.156 C 
BRANCH  12  13
ATOM     13  O   UNL     1      15.112   2.299 -26.154  1.00  0.00    -0.396 OA
ATOM     14  H   UNL     1      14.435   1.835 -25.596  1.00  0.00     0.210 HD
ENDBRANCH  12  13
ENDBRANCH  11  12
ENDBRANCH  10  11
ENDBRANCH   9  10
ENDBRANCH   8   9
ENDBRANCH   1   8
TORSDOF 11
ENDMDL
MODEL 9
REMARK VINA RESULT:    -3.979      2.386      4.323
REMARK INTER + INTRA:          -7.705
REMARK INTER:                  -6.474
REMARK INTRA:                  -1.231
REMARK UNBOUND:                -1.283
REMARK SMILES CCCCCCCCCCCCO
REMARK SMILES IDX 7 1 6 2 5 3 4 4 3 5 2 6 1 7 8 8 9 9 10 10 11 11 12 12 13 13
REMARK H PARENT 13 14
REMARK Flexibility Score: inf
ROOT
ATOM      1  C   UNL     1      18.777  -0.119 -22.689  1.00  0.00     0.000 C 
ENDROOT
BRANCH   1   2
ATOM      2  C   UNL     1      20.211   0.430 -22.753  1.00  0.00    -0.000 C 
BRANCH   2   3
ATOM      3  C   UNL     1      20.916   0.094 -24.077  1.00  0.00    -0.000 C 
BRANCH   3   4
ATOM      4  C   UNL     1      20.080  -0.827 -24.978  1.00  0.00    -0.000 C 
BRANCH   4   5
ATOM      5  C   UNL     1      19.771  -0.151 -26.318  1.00  0.00    -0.000 C 
BRANCH   5   6
ATOM      6  C   UNL     1      18.966  -1.083 -27.232  1.00  0.00    -0.003 C 
ATOM      7  C   UNL     1      18.629  -0.402 -28.555  1.00  0.00     0.004 C 
ENDBRANCH   5   6
ENDBRANCH   4   5
ENDBRANCH   3   4
ENDBRANCH   2   3
ENDBRANCH   1   2
BRANCH   1   8
ATOM      8  C   UNL     1      17.785   0.986 -22.298  1.00  0.00     0.000 C 
BRANCH   8   9
ATOM      9  C   UNL     1      16.751   1.271 -23.400  1.00  0.00     0.000 C 
BRANCH   9  10
ATOM     10  C   UNL     1      16.486   0.050 -24.294  1.00  0.00     0.002 C 
BRANCH  10  11
ATOM     11  C   UNL     1      15.886   0.478 -25.641  1.00  0.00     0.028 C 
BRANCH  11  12
ATOM     12  C   UNL     1      16.045   1.983 -25.881  1.00  0.00     0.156 C 
BRANCH  12  13
ATOM     13  O   UNL     1      17.049   2.237 -26.828  1.00  0.00    -0.396 OA
ATOM     14  H   UNL     1      17.377   1.352 -27.137  1.00  0.00     0.210 HD
ENDBRANCH  12  13
ENDBRANCH  11  12
ENDBRANCH  10  11
ENDBRANCH   9  10
ENDBRANCH   8   9
ENDBRANCH   1   8
TORSDOF 11
ENDMDL
