MODEL 1
REMARK VINA RESULT:    -2.704      0.000      0.000
REMARK INTER + INTRA:          -3.527
REMARK INTER:                  -3.416
REMARK INTRA:                  -0.112
REMARK UNBOUND:                -0.112
REMARK SMILES CSCC[C@@H]([NH3+])C(=O)[O-]
REMARK SMILES IDX 4 1 5 2 6 3 7 7 8 8 9 9 3 10 2 11 1 12
REMARK H PARENT 6 4 6 5 6 6
REMARK Flexibility Score: inf
ROOT
ATOM      1  C   UNL     1      11.963  -7.453  23.713  1.00  0.00     0.082 C 
ENDROOT
BRANCH   1   2
ATOM      2  C   UNL     1      13.370  -7.110  24.249  1.00  0.00     0.228 C 
BRANCH   2   3
ATOM      3  N   UNL     1      14.400  -7.790  23.456  1.00  0.00    -0.350 N 
ATOM      4  H   UNL     1      15.013  -8.361  24.085  1.00  0.00     0.345 HD
ATOM      5  H   UNL     1      13.950  -8.434  22.767  1.00  0.00     0.345 HD
ATOM      6  H   UNL     1      14.989  -7.094  22.941  1.00  0.00     0.345 HD
ENDBRANCH   2   3
BRANCH   2   7
ATOM      7  C   UNL     1      13.606  -5.621  24.233  1.00  0.00     0.099 C 
ATOM      8  O   UNL     1      14.704  -5.150  24.630  1.00  0.00    -0.544 OA
ATOM      9  O   UNL     1      12.614  -4.758  23.783  1.00  0.00    -0.544 OA
ENDBRANCH   2   7
ENDBRANCH   1   2
BRANCH   1  10
ATOM     10  C   UNL     1      11.494  -8.843  24.159  1.00  0.00     0.076 C 
BRANCH  10  11
ATOM     11  S   UNL     1      10.961  -9.833  22.718  1.00  0.00    -0.165 SA
ATOM     12  C   UNL     1      12.547 -10.701  22.484  1.00  0.00     0.085 C 
ENDBRANCH  10  11
ENDBRANCH   1  10
TORSDOF 5
ENDMDL
MODEL 2
REMARK VINA RESULT:    -2.683      9.138      9.777
REMARK INTER + INTRA:          -3.500
REMARK INTER:                  -3.407
REMARK INTRA:                  -0.094
REMARK UNBOUND:                -0.112
REMARK SMILES CSCC[C@@H]([NH3+])C(=O)[O-]
REMARK SMILES IDX 4 1 5 2 6 3 7 7 8 8 9 9 3 10 2 11 1 12
REMARK H PARENT 6 4 6 5 6 6
REMARK Flexibility Score: inf
ROOT
ATOM      1  C   UNL     1       5.905  -3.788  18.176  1.00  0.00     0.082 C 
ENDROOT
BRANCH   1   2
ATOM      2  C   UNL     1       6.853  -3.712  19.392  1.00  0.00     0.228 C 
BRANCH   2   3
ATOM      3  N   UNL     1       8.029  -2.894  19.076  1.00  0.00    -0.350 N 
ATOM      4  H   UNL     1       8.204  -2.908  18.044  1.00  0.00     0.345 HD
ATOM      5  H   UNL     1       7.861  -1.904  19.365  1.00  0.00     0.345 HD
ATOM      6  H   UNL     1       8.876  -3.257  19.573  1.00  0.00     0.345 HD
ENDBRANCH   2   3
BRANCH   2   7
ATOM      7  C   UNL     1       6.142  -3.149  20.596  1.00  0.00     0.099 C 
ATOM      8  O   UNL     1       5.247  -3.819  21.174  1.00  0.00    -0.544 OA
ATOM      9  O   UNL     1       6.468  -1.885  21.076  1.00  0.00    -0.544 OA
ENDBRANCH   2   7
ENDBRANCH   1   2
BRANCH   1  10
ATOM     10  C   UNL     1       6.038  -2.566  17.259  1.00  0.00     0.076 C 
BRANCH  10  11
ATOM     11  S   UNL     1       5.180  -2.858  15.671  1.00  0.00    -0.165 SA
ATOM     12  C   UNL     1       4.898  -4.641  15.931  1.00  0.00     0.085 C 
ENDBRANCH  10  11
ENDBRANCH   1  10
TORSDOF 5
ENDMDL
MODEL 3
REMARK VINA RESULT:    -2.629      1.480      2.005
REMARK INTER + INTRA:          -3.432
REMARK INTER:                  -3.349
REMARK INTRA:                  -0.083
REMARK UNBOUND:                -0.112
REMARK SMILES CSCC[C@@H]([NH3+])C(=O)[O-]
REMARK SMILES IDX 4 1 5 2 6 3 7 7 8 8 9 9 3 10 2 11 1 12
REMARK H PARENT 6 4 6 5 6 6
REMARK Flexibility Score: inf
ROOT
ATOM      1  C   UNL     1      13.192  -7.167  24.343  1.00  0.00     0.082 C 
ENDROOT
BRANCH   1   2
ATOM      2  C   UNL     1      14.265  -6.110  24.684  1.00  0.00     0.228 C 
BRANCH   2   3
ATOM      3  N   UNL     1      15.566  -6.505  24.135  1.00  0.00    -0.350 N 
ATOM      4  H   UNL     1      16.140  -6.968  24.879  1.00  0.00     0.345 HD
ATOM      5  H   UNL     1      15.430  -7.189  23.356  1.00  0.00     0.345 HD
ATOM      6  H   UNL     1      16.083  -5.671  23.771  1.00  0.00     0.345 HD
ENDBRANCH   2   3
BRANCH   2   7
ATOM      7  C   UNL     1      13.874  -4.753  24.158  1.00  0.00     0.099 C 
ATOM      8  O   UNL     1      12.668  -4.495  23.907  1.00  0.00    -0.544 OA
ATOM      9  O   UNL     1      14.842  -3.779  23.943  1.00  0.00    -0.544 OA
ENDBRANCH   2   7
ENDBRANCH   1   2
BRANCH   1  10
ATOM     10  C   UNL     1      13.710  -8.225  23.362  1.00  0.00     0.076 C 
BRANCH  10  11
ATOM     11  S   UNL     1      12.479  -9.560  23.149  1.00  0.00    -0.165 SA
ATOM     12  C   UNL     1      11.173  -8.779  24.153  1.00  0.00     0.085 C 
ENDBRANCH  10  11
ENDBRANCH   1  10
TORSDOF 5
ENDMDL
MODEL 4
REMARK VINA RESULT:    -2.618      4.170      5.013
REMARK INTER + INTRA:          -3.418
REMARK INTER:                  -3.299
REMARK INTRA:                  -0.119
REMARK UNBOUND:                -0.112
REMARK SMILES CSCC[C@@H]([NH3+])C(=O)[O-]
REMARK SMILES IDX 4 1 5 2 6 3 7 7 8 8 9 9 3 10 2 11 1 12
REMARK H PARENT 6 4 6 5 6 6
REMARK Flexibility Score: inf
ROOT
ATOM      1  C   UNL     1      11.112  -8.992  23.895  1.00  0.00     0.082 C 
ENDROOT
BRANCH   1   2
ATOM      2  C   UNL     1      10.892  -9.575  22.483  1.00  0.00     0.228 C 
BRANCH   2   3
ATOM      3  N   UNL     1      12.163 -10.035  21.913  1.00  0.00    -0.350 N 
ATOM      4  H   UNL     1      12.460  -9.392  21.141  1.00  0.00     0.345 HD
ATOM      5  H   UNL     1      12.906 -10.024  22.649  1.00  0.00     0.345 HD
ATOM      6  H   UNL     1      12.070 -11.006  21.535  1.00  0.00     0.345 HD
ENDBRANCH   2   3
BRANCH   2   7
ATOM      7  C   UNL     1       9.902 -10.712  22.516  1.00  0.00     0.099 C 
ATOM      8  O   UNL     1       9.942 -11.612  21.637  1.00  0.00    -0.544 OA
ATOM      9  O   UNL     1       8.937 -10.773  23.515  1.00  0.00    -0.544 OA
ENDBRANCH   2   7
ENDBRANCH   1   2
BRANCH   1  10
ATOM     10  C   UNL     1      11.983  -7.730  23.873  1.00  0.00     0.076 C 
BRANCH  10  11
ATOM     11  S   UNL     1      13.481  -7.965  24.894  1.00  0.00    -0.165 SA
ATOM     12  C   UNL     1      14.668  -7.900  23.512  1.00  0.00     0.085 C 
ENDBRANCH  10  11
ENDBRANCH   1  10
TORSDOF 5
ENDMDL
MODEL 5
REMARK VINA RESULT:    -2.616     10.162     10.490
REMARK INTER + INTRA:          -3.416
REMARK INTER:                  -3.287
REMARK INTRA:                  -0.129
REMARK UNBOUND:                -0.112
REMARK SMILES CSCC[C@@H]([NH3+])C(=O)[O-]
REMARK SMILES IDX 4 1 5 2 6 3 7 7 8 8 9 9 3 10 2 11 1 12
REMARK H PARENT 6 4 6 5 6 6
REMARK Flexibility Score: inf
ROOT
ATOM      1  C   UNL     1      13.940  -4.366  14.274  1.00  0.00     0.082 C 
ENDROOT
BRANCH   1   2
ATOM      2  C   UNL     1      13.416  -3.764  15.596  1.00  0.00     0.228 C 
BRANCH   2   3
ATOM      3  N   UNL     1      13.477  -4.759  16.672  1.00  0.00    -0.350 N 
ATOM      4  H   UNL     1      13.194  -5.698  16.305  1.00  0.00     0.345 HD
ATOM      5  H   UNL     1      14.455  -4.831  17.034  1.00  0.00     0.345 HD
ATOM      6  H   UNL     1      12.840  -4.492  17.459  1.00  0.00     0.345 HD
ENDBRANCH   2   3
BRANCH   2   7
ATOM      7  C   UNL     1      14.205  -2.539  15.981  1.00  0.00     0.099 C 
ATOM      8  O   UNL     1      14.066  -1.467  15.336  1.00  0.00    -0.544 OA
ATOM      9  O   UNL     1      15.094  -2.584  17.050  1.00  0.00    -0.544 OA
ENDBRANCH   2   7
ENDBRANCH   1   2
BRANCH   1  10
ATOM     10  C   UNL     1      12.956  -4.169  13.115  1.00  0.00     0.076 C 
BRANCH  10  11
ATOM     11  S   UNL     1      13.562  -2.876  11.973  1.00  0.00    -0.165 SA
ATOM     12  C   UNL     1      11.954  -2.556  11.175  1.00  0.00     0.085 C 
ENDBRANCH  10  11
ENDBRANCH   1  10
TORSDOF 5
ENDMDL
MODEL 6
REMARK VINA RESULT:    -2.585      2.072      2.475
REMARK INTER + INTRA:          -3.377
REMARK INTER:                  -3.217
REMARK INTRA:                  -0.160
REMARK UNBOUND:                -0.112
REMARK SMILES CSCC[C@@H]([NH3+])C(=O)[O-]
REMARK SMILES IDX 4 1 5 2 6 3 7 7 8 8 9 9 3 10 2 11 1 12
REMARK H PARENT 6 4 6 5 6 6
REMARK Flexibility Score: inf
ROOT
ATOM      1  C   UNL     1      13.748  -8.152  24.852  1.00  0.00     0.082 C 
ENDROOT
BRANCH   1   2
ATOM      2  C   UNL     1      13.220  -7.168  23.785  1.00  0.00     0.228 C 
BRANCH   2   3
ATOM      3  N   UNL     1      11.825  -7.476  23.451  1.00  0.00    -0.350 N 
ATOM      4  H   UNL     1      11.194  -7.140  24.216  1.00  0.00     0.345 HD
ATOM      5  H   UNL     1      11.555  -6.986  22.568  1.00  0.00     0.345 HD
ATOM      6  H   UNL     1      11.693  -8.507  23.324  1.00  0.00     0.345 HD
ENDBRANCH   2   3
BRANCH   2   7
ATOM      7  C   UNL     1      13.333  -5.743  24.261  1.00  0.00     0.099 C 
ATOM      8  O   UNL     1      12.621  -4.844  23.743  1.00  0.00    -0.544 OA
ATOM      9  O   UNL     1      14.226  -5.410  25.273  1.00  0.00    -0.544 OA
ENDBRANCH   2   7
ENDBRANCH   1   2
BRANCH   1  10
ATOM     10  C   UNL     1      14.557  -9.299  24.236  1.00  0.00     0.076 C 
BRANCH  10  11
ATOM     11  S   UNL     1      15.180  -8.828  22.583  1.00  0.00    -0.165 SA
ATOM     12  C   UNL     1      14.360 -10.181  21.676  1.00  0.00     0.085 C 
ENDBRANCH  10  11
ENDBRANCH   1  10
TORSDOF 5
ENDMDL
MODEL 7
REMARK VINA RESULT:    -2.582     10.327     10.633
REMARK INTER + INTRA:          -3.374
REMARK INTER:                  -3.287
REMARK INTRA:                  -0.087
REMARK UNBOUND:                -0.112
REMARK SMILES CSCC[C@@H]([NH3+])C(=O)[O-]
REMARK SMILES IDX 4 1 5 2 6 3 7 7 8 8 9 9 3 10 2 11 1 12
REMARK H PARENT 6 4 6 5 6 6
REMARK Flexibility Score: inf
ROOT
ATOM      1  C   UNL     1      13.363  -4.234  14.246  1.00  0.00     0.082 C 
ENDROOT
BRANCH   1   2
ATOM      2  C   UNL     1      14.237  -4.331  15.516  1.00  0.00     0.228 C 
BRANCH   2   3
ATOM      3  N   UNL     1      13.406  -4.631  16.687  1.00  0.00    -0.350 N 
ATOM      4  H   UNL     1      12.976  -5.581  16.585  1.00  0.00     0.345 HD
ATOM      5  H   UNL     1      13.995  -4.632  17.550  1.00  0.00     0.345 HD
ATOM      6  H   UNL     1      12.645  -3.919  16.793  1.00  0.00     0.345 HD
ENDBRANCH   2   3
BRANCH   2   7
ATOM      7  C   UNL     1      15.304  -5.384  15.359  1.00  0.00     0.099 C 
ATOM      8  O   UNL     1      14.986  -6.574  15.098  1.00  0.00    -0.544 OA
ATOM      9  O   UNL     1      16.645  -5.050  15.503  1.00  0.00    -0.544 OA
ENDBRANCH   2   7
ENDBRANCH   1   2
BRANCH   1  10
ATOM     10  C   UNL     1      13.980  -3.315  13.186  1.00  0.00     0.076 C 
BRANCH  10  11
ATOM     11  S   UNL     1      13.515  -3.869  11.507  1.00  0.00    -0.165 SA
ATOM     12  C   UNL     1      12.139  -2.691  11.290  1.00  0.00     0.085 C 
ENDBRANCH  10  11
ENDBRANCH   1  10
TORSDOF 5
ENDMDL
MODEL 8
REMARK VINA RESULT:    -2.573      3.643      4.481
REMARK INTER + INTRA:          -3.361
REMARK INTER:                  -3.120
REMARK INTRA:                  -0.241
REMARK UNBOUND:                -0.112
REMARK SMILES CSCC[C@@H]([NH3+])C(=O)[O-]
REMARK SMILES IDX 4 1 5 2 6 3 7 7 8 8 9 9 3 10 2 11 1 12
REMARK H PARENT 6 4 6 5 6 6
REMARK Flexibility Score: inf
ROOT
ATOM      1  C   UNL     1      11.421  -9.277  24.145  1.00  0.00     0.082 C 
ENDROOT
BRANCH   1   2
ATOM      2  C   UNL     1      11.425 -10.187  22.898  1.00  0.00     0.228 C 
BRANCH   2   3
ATOM      3  N   UNL     1      10.865  -9.476  21.743  1.00  0.00    -0.350 N 
ATOM      4  H   UNL     1      11.631  -9.232  21.072  1.00  0.00     0.345 HD
ATOM      5  H   UNL     1      10.180 -10.089  21.246  1.00  0.00     0.345 HD
ATOM      6  H   UNL     1      10.381  -8.599  22.047  1.00  0.00     0.345 HD
ENDBRANCH   2   3
BRANCH   2   7
ATOM      7  C   UNL     1      12.818 -10.666  22.582  1.00  0.00     0.099 C 
ATOM      8  O   UNL     1      13.568  -9.984  21.835  1.00  0.00    -0.544 OA
ATOM      9  O   UNL     1      13.285 -11.865  23.110  1.00  0.00    -0.544 OA
ENDBRANCH   2   7
ENDBRANCH   1   2
BRANCH   1  10
ATOM     10  C   UNL     1      11.535  -7.792  23.781  1.00  0.00     0.076 C 
BRANCH  10  11
ATOM     11  S   UNL     1      13.204  -7.160  24.179  1.00  0.00    -0.165 SA
ATOM     12  C   UNL     1      13.572  -8.392  25.472  1.00  0.00     0.085 C 
ENDBRANCH  10  11
ENDBRANCH   1  10
TORSDOF 5
ENDMDL
MODEL 9
REMARK VINA RESULT:    -2.470      3.935      5.031
REMARK INTER + INTRA:          -3.231
REMARK INTER:                  -3.190
REMARK INTRA:                  -0.042
REMARK UNBOUND:                -0.112
REMARK SMILES CSCC[C@@H]([NH3+])C(=O)[O-]
REMARK SMILES IDX 4 1 5 2 6 3 7 7 8 8 9 9 3 10 2 11 1 12
REMARK H PARENT 6 4 6 5 6 6
REMARK Flexibility Score: inf
ROOT
ATOM      1  C   UNL     1      12.425  -8.668  23.793  1.00  0.00     0.082 C 
ENDROOT
BRANCH   1   2
ATOM      2  C   UNL     1      11.039  -9.113  23.280  1.00  0.00     0.228 C 
BRANCH   2   3
ATOM      3  N   UNL     1      11.122  -9.528  21.875  1.00  0.00    -0.350 N 
ATOM      4  H   UNL     1      10.557 -10.397  21.728  1.00  0.00     0.345 HD
ATOM      5  H   UNL     1      10.732  -8.778  21.260  1.00  0.00     0.345 HD
ATOM      6  H   UNL     1      12.115  -9.712  21.602  1.00  0.00     0.345 HD
ENDBRANCH   2   3
BRANCH   2   7
ATOM      7  C   UNL     1      10.488 -10.238  24.117  1.00  0.00     0.099 C 
ATOM      8  O   UNL     1       9.271 -10.250  24.439  1.00  0.00    -0.544 OA
ATOM      9  O   UNL     1      11.318 -11.268  24.543  1.00  0.00    -0.544 OA
ENDBRANCH   2   7
ENDBRANCH   1   2
BRANCH   1  10
ATOM     10  C   UNL     1      12.600  -7.146  23.750  1.00  0.00     0.076 C 
BRANCH  10  11
ATOM     11  S   UNL     1      14.009  -6.631  24.795  1.00  0.00    -0.165 SA
ATOM     12  C   UNL     1      13.824  -4.841  24.500  1.00  0.00     0.085 C 
ENDBRANCH  10  11
ENDBRANCH   1  10
TORSDOF 5
ENDMDL
