MODEL 1
REMARK VINA RESULT:    -4.338      0.000      0.000
REMARK INTER + INTRA:          -6.826
REMARK INTER:                  -6.366
REMARK INTRA:                  -0.460
REMARK UNBOUND:                -0.460
REMARK SMILES O=C([O-])CCCCCCCC(=O)[O-]
REMARK SMILES IDX 7 1 6 2 5 3 4 4 2 5 1 6 3 7 8 8 9 9 10 10 11 11 12 12 13 13
REMARK H PARENT
REMARK Flexibility Score: inf
ROOT
ATOM      1  C   UNL     1      -1.471  44.145  21.597  1.00  0.00     0.000 C 
ENDROOT
BRANCH   1   2
ATOM      2  C   UNL     1      -0.321  43.691  22.509  1.00  0.00     0.000 C 
BRANCH   2   3
ATOM      3  C   UNL     1      -0.584  44.001  23.992  1.00  0.00     0.006 C 
BRANCH   3   4
ATOM      4  C   UNL     1      -0.620  42.739  24.863  1.00  0.00     0.053 C 
BRANCH   4   5
ATOM      5  C   UNL     1      -1.714  42.837  25.879  1.00  0.00     0.041 C 
ATOM      6  O   UNL     1      -1.740  42.048  26.860  1.00  0.00    -0.550 OA
ATOM      7  O   UNL     1      -2.731  43.770  25.717  1.00  0.00    -0.550 OA
ENDBRANCH   4   5
ENDBRANCH   3   4
ENDBRANCH   2   3
ENDBRANCH   1   2
BRANCH   1   8
ATOM      8  C   UNL     1      -2.556  44.869  22.404  1.00  0.00     0.000 C 
BRANCH   8   9
ATOM      9  C   UNL     1      -3.715  45.308  21.500  1.00  0.00     0.006 C 
BRANCH   9  10
ATOM     10  C   UNL     1      -3.388  45.053  20.026  1.00  0.00     0.053 C 
BRANCH  10  11
ATOM     11  C   UNL     1      -4.516  44.332  19.356  1.00  0.00     0.041 C 
ATOM     12  O   UNL     1      -5.408  43.771  20.045  1.00  0.00    -0.550 OA
ATOM     13  O   UNL     1      -4.608  44.322  17.970  1.00  0.00    -0.550 OA
ENDBRANCH  10  11
ENDBRANCH   9  10
ENDBRANCH   8   9
ENDBRANCH   1   8
TORSDOF 8
ENDMDL
MODEL 2
REMARK VINA RESULT:    -4.201      1.214      2.011
REMARK INTER + INTRA:          -6.626
REMARK INTER:                  -6.068
REMARK INTRA:                  -0.558
REMARK UNBOUND:                -0.460
REMARK SMILES O=C([O-])CCCCCCCC(=O)[O-]
REMARK SMILES IDX 7 1 6 2 5 3 4 4 2 5 1 6 3 7 8 8 9 9 10 10 11 11 12 12 13 13
REMARK H PARENT
REMARK Flexibility Score: inf
ROOT
ATOM      1  C   UNL     1      -1.850  44.257  21.244  1.00  0.00     0.000 C 
ENDROOT
BRANCH   1   2
ATOM      2  C   UNL     1      -2.901  44.984  22.096  1.00  0.00     0.000 C 
BRANCH   2   3
ATOM      3  C   UNL     1      -2.421  45.244  23.532  1.00  0.00     0.006 C 
BRANCH   3   4
ATOM      4  C   UNL     1      -1.276  44.314  23.951  1.00  0.00     0.053 C 
BRANCH   4   5
ATOM      5  C   UNL     1      -1.704  43.437  25.085  1.00  0.00     0.041 C 
ATOM      6  O   UNL     1      -2.749  43.705  25.734  1.00  0.00    -0.550 OA
ATOM      7  O   UNL     1      -0.921  42.350  25.456  1.00  0.00    -0.550 OA
ENDBRANCH   4   5
ENDBRANCH   3   4
ENDBRANCH   2   3
ENDBRANCH   1   2
BRANCH   1   8
ATOM      8  C   UNL     1      -2.204  44.334  19.754  1.00  0.00     0.000 C 
BRANCH   8   9
ATOM      9  C   UNL     1      -3.445  45.207  19.527  1.00  0.00     0.006 C 
BRANCH   9  10
ATOM     10  C   UNL     1      -4.521  44.443  18.751  1.00  0.00     0.053 C 
BRANCH  10  11
ATOM     11  C   UNL     1      -5.064  43.319  19.577  1.00  0.00     0.041 C 
ATOM     12  O   UNL     1      -5.821  43.559  20.554  1.00  0.00    -0.550 OA
ATOM     13  O   UNL     1      -4.774  42.004  19.237  1.00  0.00    -0.550 OA
ENDBRANCH  10  11
ENDBRANCH   9  10
ENDBRANCH   8   9
ENDBRANCH   1   8
TORSDOF 8
ENDMDL
MODEL 3
REMARK VINA RESULT:    -4.200      0.230      6.121
REMARK INTER + INTRA:          -6.624
REMARK INTER:                  -6.159
REMARK INTRA:                  -0.464
REMARK UNBOUND:                -0.460
REMARK SMILES O=C([O-])CCCCCCCC(=O)[O-]
REMARK SMILES IDX 7 1 6 2 5 3 4 4 2 5 1 6 3 7 8 8 9 9 10 10 11 11 12 12 13 13
REMARK H PARENT
REMARK Flexibility Score: inf
ROOT
ATOM      1  C   UNL     1      -1.537  43.917  21.891  1.00  0.00     0.000 C 
ENDROOT
BRANCH   1   2
ATOM      2  C   UNL     1      -2.494  44.938  22.525  1.00  0.00     0.000 C 
BRANCH   2   3
ATOM      3  C   UNL     1      -3.623  45.360  21.573  1.00  0.00     0.006 C 
BRANCH   3   4
ATOM      4  C   UNL     1      -3.326  45.010  20.109  1.00  0.00     0.053 C 
BRANCH   4   5
ATOM      5  C   UNL     1      -4.531  44.405  19.462  1.00  0.00     0.041 C 
ATOM      6  O   UNL     1      -5.399  43.819  20.161  1.00  0.00    -0.550 OA
ATOM      7  O   UNL     1      -4.672  44.447  18.081  1.00  0.00    -0.550 OA
ENDBRANCH   4   5
ENDBRANCH   3   4
ENDBRANCH   2   3
ENDBRANCH   1   2
BRANCH   1   8
ATOM      8  C   UNL     1      -0.239  43.807  22.701  1.00  0.00     0.000 C 
BRANCH   8   9
ATOM      9  C   UNL     1      -0.517  43.915  24.205  1.00  0.00     0.006 C 
BRANCH   9  10
ATOM     10  C   UNL     1      -0.808  42.539  24.810  1.00  0.00     0.053 C 
BRANCH  10  11
ATOM     11  C   UNL     1      -1.794  42.656  25.930  1.00  0.00     0.041 C 
ATOM     12  O   UNL     1      -2.675  43.555  25.907  1.00  0.00    -0.550 OA
ATOM     13  O   UNL     1      -1.770  41.742  26.976  1.00  0.00    -0.550 OA
ENDBRANCH  10  11
ENDBRANCH   9  10
ENDBRANCH   8   9
ENDBRANCH   1   8
TORSDOF 8
ENDMDL
MODEL 4
REMARK VINA RESULT:    -4.156      2.554      3.623
REMARK INTER + INTRA:          -6.559
REMARK INTER:                  -5.773
REMARK INTRA:                  -0.786
REMARK UNBOUND:                -0.460
REMARK SMILES O=C([O-])CCCCCCCC(=O)[O-]
REMARK SMILES IDX 7 1 6 2 5 3 4 4 2 5 1 6 3 7 8 8 9 9 10 10 11 11 12 12 13 13
REMARK H PARENT
REMARK Flexibility Score: inf
ROOT
ATOM      1  C   UNL     1      -2.877  44.023  21.704  1.00  0.00     0.000 C 
ENDROOT
BRANCH   1   2
ATOM      2  C   UNL     1      -1.374  44.256  21.489  1.00  0.00     0.000 C 
BRANCH   2   3
ATOM      3  C   UNL     1      -0.508  43.536  22.535  1.00  0.00     0.006 C 
BRANCH   3   4
ATOM      4  C   UNL     1      -0.768  44.034  23.963  1.00  0.00     0.053 C 
BRANCH   4   5
ATOM      5  C   UNL     1      -1.157  42.894  24.851  1.00  0.00     0.041 C 
ATOM      6  O   UNL     1      -1.612  43.115  26.003  1.00  0.00    -0.550 OA
ATOM      7  O   UNL     1      -0.969  41.586  24.423  1.00  0.00    -0.550 OA
ENDBRANCH   4   5
ENDBRANCH   3   4
ENDBRANCH   2   3
ENDBRANCH   1   2
BRANCH   1   8
ATOM      8  C   UNL     1      -3.662  45.331  21.546  1.00  0.00     0.000 C 
BRANCH   8   9
ATOM      9  C   UNL     1      -4.698  45.491  22.665  1.00  0.00     0.006 C 
BRANCH   9  10
ATOM     10  C   UNL     1      -4.021  45.828  23.996  1.00  0.00     0.053 C 
BRANCH  10  11
ATOM     11  C   UNL     1      -4.443  44.863  25.059  1.00  0.00     0.041 C 
ATOM     12  O   UNL     1      -4.766  43.685  24.753  1.00  0.00    -0.550 OA
ATOM     13  O   UNL     1      -4.433  45.250  26.393  1.00  0.00    -0.550 OA
ENDBRANCH  10  11
ENDBRANCH   9  10
ENDBRANCH   8   9
ENDBRANCH   1   8
TORSDOF 8
ENDMDL
MODEL 5
REMARK VINA RESULT:    -4.128      1.742      2.399
REMARK INTER + INTRA:          -6.518
REMARK INTER:                  -5.933
REMARK INTRA:                  -0.584
REMARK UNBOUND:                -0.460
REMARK SMILES O=C([O-])CCCCCCCC(=O)[O-]
REMARK SMILES IDX 7 1 6 2 5 3 4 4 2 5 1 6 3 7 8 8 9 9 10 10 11 11 12 12 13 13
REMARK H PARENT
REMARK Flexibility Score: inf
ROOT
ATOM      1  C   UNL     1      -0.950  43.930  22.307  1.00  0.00     0.000 C 
ENDROOT
BRANCH   1   2
ATOM      2  C   UNL     1      -1.706  44.620  23.452  1.00  0.00     0.000 C 
BRANCH   2   3
ATOM      3  C   UNL     1      -2.196  43.629  24.520  1.00  0.00     0.006 C 
BRANCH   3   4
ATOM      4  C   UNL     1      -3.714  43.415  24.477  1.00  0.00     0.053 C 
BRANCH   4   5
ATOM      5  C   UNL     1      -4.430  44.698  24.757  1.00  0.00     0.041 C 
ATOM      6  O   UNL     1      -4.408  45.197  25.913  1.00  0.00    -0.550 OA
ATOM      7  O   UNL     1      -5.162  45.319  23.753  1.00  0.00    -0.550 OA
ENDBRANCH   4   5
ENDBRANCH   3   4
ENDBRANCH   2   3
ENDBRANCH   1   2
BRANCH   1   8
ATOM      8  C   UNL     1      -1.777  43.948  21.016  1.00  0.00     0.000 C 
BRANCH   8   9
ATOM      9  C   UNL     1      -2.937  44.946  21.118  1.00  0.00     0.006 C 
BRANCH   9  10
ATOM     10  C   UNL     1      -3.506  45.272  19.735  1.00  0.00     0.053 C 
BRANCH  10  11
ATOM     11  C   UNL     1      -4.521  44.250  19.331  1.00  0.00     0.041 C 
ATOM     12  O   UNL     1      -4.500  43.760  18.172  1.00  0.00    -0.550 OA
ATOM     13  O   UNL     1      -5.461  43.802  20.251  1.00  0.00    -0.550 OA
ENDBRANCH  10  11
ENDBRANCH   9  10
ENDBRANCH   8   9
ENDBRANCH   1   8
TORSDOF 8
ENDMDL
MODEL 6
REMARK VINA RESULT:    -4.109      2.211      5.271
REMARK INTER + INTRA:          -6.491
REMARK INTER:                  -5.796
REMARK INTRA:                  -0.695
REMARK UNBOUND:                -0.460
REMARK SMILES O=C([O-])CCCCCCCC(=O)[O-]
REMARK SMILES IDX 7 1 6 2 5 3 4 4 2 5 1 6 3 7 8 8 9 9 10 10 11 11 12 12 13 13
REMARK H PARENT
REMARK Flexibility Score: inf
ROOT
ATOM      1  C   UNL     1      -2.004  43.488  21.713  1.00  0.00     0.000 C 
ENDROOT
BRANCH   1   2
ATOM      2  C   UNL     1      -2.443  44.700  20.876  1.00  0.00     0.000 C 
BRANCH   2   3
ATOM      3  C   UNL     1      -3.920  45.065  21.095  1.00  0.00     0.006 C 
BRANCH   3   4
ATOM      4  C   UNL     1      -4.390  44.798  22.531  1.00  0.00     0.053 C 
BRANCH   4   5
ATOM      5  C   UNL     1      -4.188  46.013  23.380  1.00  0.00     0.041 C 
ATOM      6  O   UNL     1      -4.121  47.153  22.850  1.00  0.00    -0.550 OA
ATOM      7  O   UNL     1      -4.026  45.881  24.753  1.00  0.00    -0.550 OA
ENDBRANCH   4   5
ENDBRANCH   3   4
ENDBRANCH   2   3
ENDBRANCH   1   2
BRANCH   1   8
ATOM      8  C   UNL     1      -0.676  43.768  22.426  1.00  0.00     0.000 C 
BRANCH   8   9
ATOM      9  C   UNL     1      -0.912  44.248  23.863  1.00  0.00     0.006 C 
BRANCH   9  10
ATOM     10  C   UNL     1      -0.528  43.165  24.874  1.00  0.00     0.053 C 
BRANCH  10  11
ATOM     11  C   UNL     1      -1.736  42.696  25.624  1.00  0.00     0.041 C 
ATOM     12  O   UNL     1      -2.884  42.844  25.131  1.00  0.00    -0.550 OA
ATOM     13  O   UNL     1      -1.588  42.051  26.845  1.00  0.00    -0.550 OA
ENDBRANCH  10  11
ENDBRANCH   9  10
ENDBRANCH   8   9
ENDBRANCH   1   8
TORSDOF 8
ENDMDL
MODEL 7
REMARK VINA RESULT:    -4.089      2.338      5.410
REMARK INTER + INTRA:          -6.461
REMARK INTER:                  -5.943
REMARK INTRA:                  -0.519
REMARK UNBOUND:                -0.460
REMARK SMILES O=C([O-])CCCCCCCC(=O)[O-]
REMARK SMILES IDX 7 1 6 2 5 3 4 4 2 5 1 6 3 7 8 8 9 9 10 10 11 11 12 12 13 13
REMARK H PARENT
REMARK Flexibility Score: inf
ROOT
ATOM      1  C   UNL     1      -3.583  45.331  21.170  1.00  0.00     0.000 C 
ENDROOT
BRANCH   1   2
ATOM      2  C   UNL     1      -3.570  45.089  19.653  1.00  0.00     0.000 C 
BRANCH   2   3
ATOM      3  C   UNL     1      -4.707  44.163  19.192  1.00  0.00     0.006 C 
BRANCH   3   4
ATOM      4  C   UNL     1      -5.512  43.586  20.363  1.00  0.00     0.053 C 
BRANCH   4   5
ATOM      5  C   UNL     1      -5.297  42.109  20.467  1.00  0.00     0.041 C 
ATOM      6  O   UNL     1      -4.460  41.537  19.721  1.00  0.00    -0.550 OA
ATOM      7  O   UNL     1      -6.057  41.357  21.354  1.00  0.00    -0.550 OA
ENDBRANCH   4   5
ENDBRANCH   3   4
ENDBRANCH   2   3
ENDBRANCH   1   2
BRANCH   1   8
ATOM      8  C   UNL     1      -2.385  44.650  21.843  1.00  0.00     0.000 C 
BRANCH   8   9
ATOM      9  C   UNL     1      -2.264  45.073  23.313  1.00  0.00     0.006 C 
BRANCH   9  10
ATOM     10  C   UNL     1      -3.585  45.649  23.829  1.00  0.00     0.053 C 
BRANCH  10  11
ATOM     11  C   UNL     1      -4.209  44.722  24.824  1.00  0.00     0.041 C 
ATOM     12  O   UNL     1      -4.321  45.068  26.029  1.00  0.00    -0.550 OA
ATOM     13  O   UNL     1      -4.711  43.495  24.409  1.00  0.00    -0.550 OA
ENDBRANCH  10  11
ENDBRANCH   9  10
ENDBRANCH   8   9
ENDBRANCH   1   8
TORSDOF 8
ENDMDL
MODEL 8
REMARK VINA RESULT:    -4.062      1.877      2.639
REMARK INTER + INTRA:          -6.422
REMARK INTER:                  -5.979
REMARK INTRA:                  -0.442
REMARK UNBOUND:                -0.460
REMARK SMILES O=C([O-])CCCCCCCC(=O)[O-]
REMARK SMILES IDX 7 1 6 2 5 3 4 4 2 5 1 6 3 7 8 8 9 9 10 10 11 11 12 12 13 13
REMARK H PARENT
REMARK Flexibility Score: inf
ROOT
ATOM      1  C   UNL     1      -3.259  45.041  21.091  1.00  0.00     0.000 C 
ENDROOT
BRANCH   1   2
ATOM      2  C   UNL     1      -2.020  44.323  21.647  1.00  0.00     0.000 C 
BRANCH   2   3
ATOM      3  C   UNL     1      -1.779  44.625  23.135  1.00  0.00     0.006 C 
BRANCH   3   4
ATOM      4  C   UNL     1      -2.939  45.396  23.778  1.00  0.00     0.053 C 
BRANCH   4   5
ATOM      5  C   UNL     1      -3.619  44.551  24.809  1.00  0.00     0.041 C 
ATOM      6  O   UNL     1      -2.938  43.894  25.638  1.00  0.00    -0.550 OA
ATOM      7  O   UNL     1      -5.005  44.453  24.822  1.00  0.00    -0.550 OA
ENDBRANCH   4   5
ENDBRANCH   3   4
ENDBRANCH   2   3
ENDBRANCH   1   2
BRANCH   1   8
ATOM      8  C   UNL     1      -3.367  44.851  19.573  1.00  0.00     0.000 C 
BRANCH   8   9
ATOM      9  C   UNL     1      -4.723  44.246  19.188  1.00  0.00     0.006 C 
BRANCH   9  10
ATOM     10  C   UNL     1      -5.435  43.669  20.414  1.00  0.00     0.053 C 
BRANCH  10  11
ATOM     11  C   UNL     1      -5.411  42.173  20.380  1.00  0.00     0.041 C 
ATOM     12  O   UNL     1      -5.872  41.510  21.345  1.00  0.00    -0.550 OA
ATOM     13  O   UNL     1      -4.923  41.512  19.260  1.00  0.00    -0.550 OA
ENDBRANCH  10  11
ENDBRANCH   9  10
ENDBRANCH   8   9
ENDBRANCH   1   8
TORSDOF 8
ENDMDL
MODEL 9
REMARK VINA RESULT:    -4.013      3.110      4.290
REMARK INTER + INTRA:          -6.349
REMARK INTER:                  -5.887
REMARK INTRA:                  -0.462
REMARK UNBOUND:                -0.460
REMARK SMILES O=C([O-])CCCCCCCC(=O)[O-]
REMARK SMILES IDX 7 1 6 2 5 3 4 4 2 5 1 6 3 7 8 8 9 9 10 10 11 11 12 12 13 13
REMARK H PARENT
REMARK Flexibility Score: inf
ROOT
ATOM      1  C   UNL     1      -1.310  44.250  22.123  1.00  0.00     0.000 C 
ENDROOT
BRANCH   1   2
ATOM      2  C   UNL     1      -1.033  44.266  23.634  1.00  0.00     0.000 C 
BRANCH   2   3
ATOM      3  C   UNL     1       0.255  43.515  24.007  1.00  0.00     0.006 C 
BRANCH   3   4
ATOM      4  C   UNL     1       1.152  43.238  22.794  1.00  0.00     0.053 C 
BRANCH   4   5
ATOM      5  C   UNL     1       2.510  43.831  23.003  1.00  0.00     0.041 C 
ATOM      6  O   UNL     1       3.179  44.243  22.019  1.00  0.00    -0.550 OA
ATOM      7  O   UNL     1       3.055  43.884  24.279  1.00  0.00    -0.550 OA
ENDBRANCH   4   5
ENDBRANCH   3   4
ENDBRANCH   2   3
ENDBRANCH   1   2
BRANCH   1   8
ATOM      8  C   UNL     1      -2.783  43.934  21.840  1.00  0.00     0.000 C 
BRANCH   8   9
ATOM      9  C   UNL     1      -3.577  45.216  21.555  1.00  0.00     0.006 C 
BRANCH   9  10
ATOM     10  C   UNL     1      -4.679  45.423  22.598  1.00  0.00     0.053 C 
BRANCH  10  11
ATOM     11  C   UNL     1      -4.127  46.087  23.820  1.00  0.00     0.041 C 
ATOM     12  O   UNL     1      -3.728  47.279  23.767  1.00  0.00    -0.550 OA
ATOM     13  O   UNL     1      -4.099  45.403  25.029  1.00  0.00    -0.550 OA
ENDBRANCH  10  11
ENDBRANCH   9  10
ENDBRANCH   8   9
ENDBRANCH   1   8
TORSDOF 8
ENDMDL
