MODEL 1
REMARK VINA RESULT:    -2.331      0.000      0.000
REMARK INTER + INTRA:          -2.501
REMARK INTER:                  -2.535
REMARK INTRA:                   0.034
REMARK UNBOUND:                 0.034
REMARK SMILES CC1=CC[C@@](O)(C(C)C)CC1
REMARK SMILES IDX 1 1 2 2 3 3 4 4 5 5 10 6 11 7 7 8 8 9 9 10 6 11
REMARK H PARENT 6 12
REMARK Flexibility Score: inf
ROOT
ATOM      1  C   UNL     1     -42.125  26.462   4.066  1.00  0.00     0.039 C 
ATOM      2  C   UNL     1     -41.916  25.341   5.047  1.00  0.00    -0.077 C 
ATOM      3  C   UNL     1     -41.443  24.159   4.600  1.00  0.00    -0.025 C 
ATOM      4  C   UNL     1     -41.256  22.970   5.507  1.00  0.00     0.062 C 
ATOM      5  C   UNL     1     -40.929  23.382   6.970  1.00  0.00     0.071 C 
ATOM      6  C   UNL     1     -42.062  24.351   7.398  1.00  0.00     0.040 C 
ATOM      7  C   UNL     1     -42.125  25.615   6.524  1.00  0.00     0.033 C 
ENDROOT
BRANCH   5   8
ATOM      8  C   UNL     1     -39.500  24.042   7.108  1.00  0.00     0.015 C 
ATOM      9  C   UNL     1     -38.574  23.751   5.909  1.00  0.00     0.010 C 
ATOM     10  C   UNL     1     -38.780  23.615   8.401  1.00  0.00     0.010 C 
ENDBRANCH   5   8
BRANCH   5  11
ATOM     11  O   UNL     1     -41.014  22.254   7.812  1.00  0.00    -0.389 OA
ATOM     12  H   UNL     1     -41.731  22.412   8.480  1.00  0.00     0.211 HD
ENDBRANCH   5  11
TORSDOF 2
ENDMDL
MODEL 2
REMARK VINA RESULT:    -1.510     16.919     18.690
REMARK INTER + INTRA:          -1.608
REMARK INTER:                  -1.713
REMARK INTRA:                   0.104
REMARK UNBOUND:                 0.034
REMARK SMILES CC1=CC[C@@](O)(C(C)C)CC1
REMARK SMILES IDX 1 1 2 2 3 3 4 4 5 5 10 6 11 7 7 8 8 9 9 10 6 11
REMARK H PARENT 6 12
REMARK Flexibility Score: inf
ROOT
ATOM      1  C   UNL     1     -22.629  34.403   8.523  1.00  0.00     0.039 C 
ATOM      2  C   UNL     1     -23.093  32.973   8.584  1.00  0.00    -0.077 C 
ATOM      3  C   UNL     1     -24.354  32.711   8.985  1.00  0.00    -0.025 C 
ATOM      4  C   UNL     1     -24.880  31.306   9.125  1.00  0.00     0.062 C 
ATOM      5  C   UNL     1     -24.209  30.316   8.131  1.00  0.00     0.071 C 
ATOM      6  C   UNL     1     -22.681  30.461   8.359  1.00  0.00     0.040 C 
ATOM      7  C   UNL     1     -22.170  31.884   8.073  1.00  0.00     0.033 C 
ENDROOT
BRANCH   5   8
ATOM      8  C   UNL     1     -24.613  30.598   6.630  1.00  0.00     0.015 C 
ATOM      9  C   UNL     1     -25.823  31.544   6.491  1.00  0.00     0.010 C 
ATOM     10  C   UNL     1     -24.910  29.302   5.851  1.00  0.00     0.010 C 
ENDBRANCH   5   8
BRANCH   5  11
ATOM     11  O   UNL     1     -24.551  28.992   8.475  1.00  0.00    -0.389 OA
ATOM     12  H   UNL     1     -23.718  28.455   8.528  1.00  0.00     0.211 HD
ENDBRANCH   5  11
TORSDOF 2
ENDMDL
MODEL 3
REMARK VINA RESULT:    -0.938      1.901      3.930
REMARK INTER + INTRA:          -0.986
REMARK INTER:                  -1.015
REMARK INTRA:                   0.029
REMARK UNBOUND:                 0.034
REMARK SMILES CC1=CC[C@@](O)(C(C)C)CC1
REMARK SMILES IDX 1 1 2 2 3 3 4 4 5 5 10 6 11 7 7 8 8 9 9 10 6 11
REMARK H PARENT 6 12
REMARK Flexibility Score: inf
ROOT
ATOM      1  C   UNL     1     -40.442  21.116   8.995  1.00  0.00     0.039 C 
ATOM      2  C   UNL     1     -40.643  22.507   8.458  1.00  0.00    -0.077 C 
ATOM      3  C   UNL     1     -39.580  23.182   7.975  1.00  0.00    -0.025 C 
ATOM      4  C   UNL     1     -39.686  24.598   7.469  1.00  0.00     0.062 C 
ATOM      5  C   UNL     1     -41.086  24.914   6.871  1.00  0.00     0.071 C 
ATOM      6  C   UNL     1     -42.109  24.544   7.976  1.00  0.00     0.040 C 
ATOM      7  C   UNL     1     -42.053  23.056   8.363  1.00  0.00     0.033 C 
ENDROOT
BRANCH   5   8
ATOM      8  C   UNL     1     -41.360  24.135   5.524  1.00  0.00     0.015 C 
ATOM      9  C   UNL     1     -40.077  23.596   4.858  1.00  0.00     0.010 C 
ATOM     10  C   UNL     1     -42.125  24.991   4.498  1.00  0.00     0.010 C 
ENDBRANCH   5   8
BRANCH   5  11
ATOM     11  O   UNL     1     -41.205  26.302   6.650  1.00  0.00    -0.389 OA
ATOM     12  H   UNL     1     -41.586  26.720   7.466  1.00  0.00     0.211 HD
ENDBRANCH   5  11
TORSDOF 2
ENDMDL
MODEL 4
REMARK VINA RESULT:    -0.885     15.679     17.810
REMARK INTER + INTRA:          -0.929
REMARK INTER:                  -0.812
REMARK INTRA:                  -0.117
REMARK UNBOUND:                 0.034
REMARK SMILES CC1=CC[C@@](O)(C(C)C)CC1
REMARK SMILES IDX 1 1 2 2 3 3 4 4 5 5 10 6 11 7 7 8 8 9 9 10 6 11
REMARK H PARENT 6 12
REMARK Flexibility Score: inf
ROOT
ATOM      1  C   UNL     1     -27.949  17.872   9.122  1.00  0.00     0.039 C 
ATOM      2  C   UNL     1     -26.686  17.534   8.379  1.00  0.00    -0.077 C 
ATOM      3  C   UNL     1     -26.088  18.487   7.636  1.00  0.00    -0.025 C 
ATOM      4  C   UNL     1     -24.851  18.215   6.819  1.00  0.00     0.062 C 
ATOM      5  C   UNL     1     -23.957  17.106   7.440  1.00  0.00     0.071 C 
ATOM      6  C   UNL     1     -24.885  15.878   7.638  1.00  0.00     0.040 C 
ATOM      7  C   UNL     1     -26.059  16.168   8.588  1.00  0.00     0.033 C 
ENDROOT
BRANCH   5   8
ATOM      8  C   UNL     1     -23.280  17.561   8.793  1.00  0.00     0.015 C 
ATOM      9  C   UNL     1     -23.029  19.081   8.870  1.00  0.00     0.010 C 
ATOM     10  C   UNL     1     -21.952  16.828   9.059  1.00  0.00     0.010 C 
ENDBRANCH   5   8
BRANCH   5  11
ATOM     11  O   UNL     1     -22.963  16.723   6.517  1.00  0.00    -0.389 OA
ATOM     12  H   UNL     1     -22.097  17.115   6.804  1.00  0.00     0.211 HD
ENDBRANCH   5  11
TORSDOF 2
ENDMDL
MODEL 5
REMARK VINA RESULT:    -0.389     16.897     18.145
REMARK INTER + INTRA:          -0.389
REMARK INTER:                  -0.375
REMARK INTRA:                  -0.014
REMARK UNBOUND:                 0.034
REMARK SMILES CC1=CC[C@@](O)(C(C)C)CC1
REMARK SMILES IDX 1 1 2 2 3 3 4 4 5 5 10 6 11 7 7 8 8 9 9 10 6 11
REMARK H PARENT 6 12
REMARK Flexibility Score: inf
ROOT
ATOM      1  C   UNL     1     -24.896  28.560   5.445  1.00  0.00     0.039 C 
ATOM      2  C   UNL     1     -25.051  29.696   6.418  1.00  0.00    -0.077 C 
ATOM      3  C   UNL     1     -24.657  29.521   7.696  1.00  0.00    -0.025 C 
ATOM      4  C   UNL     1     -24.827  30.589   8.746  1.00  0.00     0.062 C 
ATOM      5  C   UNL     1     -24.763  32.025   8.153  1.00  0.00     0.071 C 
ATOM      6  C   UNL     1     -25.821  32.058   7.018  1.00  0.00     0.040 C 
ATOM      7  C   UNL     1     -25.529  31.040   5.903  1.00  0.00     0.033 C 
ENDROOT
BRANCH   5   8
ATOM      8  C   UNL     1     -23.321  32.400   7.629  1.00  0.00     0.015 C 
ATOM      9  C   UNL     1     -22.202  31.541   8.253  1.00  0.00     0.010 C 
ATOM     10  C   UNL     1     -22.985  33.887   7.855  1.00  0.00     0.010 C 
ENDBRANCH   5   8
BRANCH   5  11
ATOM     11  O   UNL     1     -25.175  32.960   9.124  1.00  0.00    -0.389 OA
ATOM     12  H   UNL     1     -25.506  32.465   9.918  1.00  0.00     0.211 HD
ENDBRANCH   5  11
TORSDOF 2
ENDMDL
MODEL 6
REMARK VINA RESULT:    -0.227      1.685      2.744
REMARK INTER + INTRA:          -0.213
REMARK INTER:                  -0.115
REMARK INTRA:                  -0.098
REMARK UNBOUND:                 0.034
REMARK SMILES CC1=CC[C@@](O)(C(C)C)CC1
REMARK SMILES IDX 1 1 2 2 3 3 4 4 5 5 10 6 11 7 7 8 8 9 9 10 6 11
REMARK H PARENT 6 12
REMARK Flexibility Score: inf
ROOT
ATOM      1  C   UNL     1     -39.163  23.596   3.934  1.00  0.00     0.039 C 
ATOM      2  C   UNL     1     -39.941  23.825   5.201  1.00  0.00    -0.077 C 
ATOM      3  C   UNL     1     -41.264  23.560   5.214  1.00  0.00    -0.025 C 
ATOM      4  C   UNL     1     -42.125  23.812   6.424  1.00  0.00     0.062 C 
ATOM      5  C   UNL     1     -41.338  23.666   7.757  1.00  0.00     0.071 C 
ATOM      6  C   UNL     1     -40.112  24.607   7.628  1.00  0.00     0.040 C 
ATOM      7  C   UNL     1     -39.191  24.226   6.456  1.00  0.00     0.033 C 
ENDROOT
BRANCH   5   8
ATOM      8  C   UNL     1     -40.911  22.173   8.047  1.00  0.00     0.015 C 
ATOM      9  C   UNL     1     -42.050  21.314   8.635  1.00  0.00     0.010 C 
ATOM     10  C   UNL     1     -39.693  22.085   8.987  1.00  0.00     0.010 C 
ENDBRANCH   5   8
BRANCH   5  11
ATOM     11  O   UNL     1     -42.118  24.153   8.826  1.00  0.00    -0.389 OA
ATOM     12  H   UNL     1     -43.055  23.851   8.696  1.00  0.00     0.211 HD
ENDBRANCH   5  11
TORSDOF 2
ENDMDL
