MODEL 1
REMARK VINA RESULT:    -4.987      0.000      0.000
REMARK INTER + INTRA:          -5.882
REMARK INTER:                  -5.716
REMARK INTRA:                  -0.166
REMARK UNBOUND:                -0.166
REMARK SMILES CC=Cc1ccc(O)c(OC)c1
REMARK SMILES IDX 4 1 12 2 9 3 7 4 6 5 5 6 3 7 1 8 2 9 10 10 11 11 8 12
REMARK H PARENT 8 13
REMARK Flexibility Score: inf
ROOT
ATOM      1  C   UNL     1       5.536  10.767   6.532  1.00  0.00    -0.022 A 
ATOM      2  C   UNL     1       6.914  10.774   6.827  1.00  0.00     0.058 A 
ATOM      3  C   UNL     1       7.855  11.177   5.857  1.00  0.00     0.161 A 
ATOM      4  C   UNL     1       7.410  11.562   4.586  1.00  0.00     0.157 A 
ATOM      5  C   UNL     1       6.043  11.541   4.284  1.00  0.00     0.051 A 
ATOM      6  C   UNL     1       5.116  11.141   5.247  1.00  0.00     0.012 A 
ENDROOT
BRANCH   1   7
ATOM      7  C   UNL     1       4.510  10.342   7.516  1.00  0.00     0.003 C 
ATOM      8  C   UNL     1       2.952  10.650   9.400  1.00  0.00     0.035 C 
ATOM      9  C   UNL     1       3.996  11.149   8.452  1.00  0.00    -0.030 C 
ENDBRANCH   1   7
BRANCH   3  10
ATOM     10  O   UNL     1       9.234  11.202   6.117  1.00  0.00    -0.493 OA
ATOM     11  C   UNL     1       9.891  12.193   6.901  1.00  0.00     0.278 C 
ENDBRANCH   3  10
BRANCH   4  12
ATOM     12  O   UNL     1       8.335  11.965   3.624  1.00  0.00    -0.504 OA
ATOM     13  H   UNL     1       8.774  11.299   2.998  1.00  0.00     0.293 HD
ENDBRANCH   4  12
TORSDOF 3
ENDMDL
MODEL 2
REMARK VINA RESULT:    -4.907      2.894      5.296
REMARK INTER + INTRA:          -5.791
REMARK INTER:                  -5.631
REMARK INTRA:                  -0.160
REMARK UNBOUND:                -0.166
REMARK SMILES CC=Cc1ccc(O)c(OC)c1
REMARK SMILES IDX 4 1 12 2 9 3 7 4 6 5 5 6 3 7 1 8 2 9 10 10 11 11 8 12
REMARK H PARENT 8 13
REMARK Flexibility Score: inf
ROOT
ATOM      1  C   UNL     1       6.141  12.038   6.736  1.00  0.00    -0.022 A 
ATOM      2  C   UNL     1       5.725  10.713   6.974  1.00  0.00     0.058 A 
ATOM      3  C   UNL     1       5.160  10.348   8.214  1.00  0.00     0.161 A 
ATOM      4  C   UNL     1       5.023  11.317   9.218  1.00  0.00     0.157 A 
ATOM      5  C   UNL     1       5.450  12.630   8.990  1.00  0.00     0.051 A 
ATOM      6  C   UNL     1       6.008  12.986   7.762  1.00  0.00     0.012 A 
ENDROOT
BRANCH   1   7
ATOM      7  C   UNL     1       6.749  12.466   5.452  1.00  0.00     0.003 C 
ATOM      8  C   UNL     1       8.497  12.541   3.717  1.00  0.00     0.035 C 
ATOM      9  C   UNL     1       7.960  12.078   5.033  1.00  0.00    -0.030 C 
ENDBRANCH   1   7
BRANCH   3  10
ATOM     10  O   UNL     1       4.731   9.041   8.485  1.00  0.00    -0.493 OA
ATOM     11  C   UNL     1       3.459   8.515   8.119  1.00  0.00     0.278 C 
ENDBRANCH   3  10
BRANCH   4  12
ATOM     12  O   UNL     1       4.463  10.963  10.444  1.00  0.00    -0.504 OA
ATOM     13  H   UNL     1       3.530  11.259  10.707  1.00  0.00     0.293 HD
ENDBRANCH   4  12
TORSDOF 3
ENDMDL
MODEL 3
REMARK VINA RESULT:    -4.874      1.572      3.087
REMARK INTER + INTRA:          -5.753
REMARK INTER:                  -5.563
REMARK INTRA:                  -0.190
REMARK UNBOUND:                -0.166
REMARK SMILES CC=Cc1ccc(O)c(OC)c1
REMARK SMILES IDX 4 1 12 2 9 3 7 4 6 5 5 6 3 7 1 8 2 9 10 10 11 11 8 12
REMARK H PARENT 8 13
REMARK Flexibility Score: inf
ROOT
ATOM      1  C   UNL     1       4.540  11.290   8.388  1.00  0.00    -0.022 A 
ATOM      2  C   UNL     1       4.957  10.788   7.139  1.00  0.00     0.058 A 
ATOM      3  C   UNL     1       6.304  10.895   6.735  1.00  0.00     0.161 A 
ATOM      4  C   UNL     1       7.229  11.516   7.585  1.00  0.00     0.157 A 
ATOM      5  C   UNL     1       6.815  12.030   8.819  1.00  0.00     0.051 A 
ATOM      6  C   UNL     1       5.481  11.922   9.214  1.00  0.00     0.012 A 
ENDROOT
BRANCH   1   7
ATOM      7  C   UNL     1       3.132  11.209   8.852  1.00  0.00     0.003 C 
ATOM      8  C   UNL     1       1.096  12.019   9.977  1.00  0.00     0.035 C 
ATOM      9  C   UNL     1       2.523  12.168   9.560  1.00  0.00    -0.030 C 
ENDBRANCH   1   7
BRANCH   3  10
ATOM     10  O   UNL     1       6.757  10.403   5.502  1.00  0.00    -0.493 OA
ATOM     11  C   UNL     1       6.392  10.939   4.233  1.00  0.00     0.278 C 
ENDBRANCH   3  10
BRANCH   4  12
ATOM     12  O   UNL     1       8.562  11.622   7.192  1.00  0.00    -0.504 OA
ATOM     13  H   UNL     1       9.258  12.055   7.788  1.00  0.00     0.293 HD
ENDBRANCH   4  12
TORSDOF 3
ENDMDL
MODEL 4
REMARK VINA RESULT:    -4.815      3.364      5.384
REMARK INTER + INTRA:          -5.685
REMARK INTER:                  -5.496
REMARK INTRA:                  -0.189
REMARK UNBOUND:                -0.166
REMARK SMILES CC=Cc1ccc(O)c(OC)c1
REMARK SMILES IDX 4 1 12 2 9 3 7 4 6 5 5 6 3 7 1 8 2 9 10 10 11 11 8 12
REMARK H PARENT 8 13
REMARK Flexibility Score: inf
ROOT
ATOM      1  C   UNL     1       6.094  11.448   8.025  1.00  0.00    -0.022 A 
ATOM      2  C   UNL     1       5.095  11.723   8.980  1.00  0.00     0.058 A 
ATOM      3  C   UNL     1       3.789  11.215   8.821  1.00  0.00     0.161 A 
ATOM      4  C   UNL     1       3.486  10.439   7.694  1.00  0.00     0.157 A 
ATOM      5  C   UNL     1       4.472  10.178   6.736  1.00  0.00     0.051 A 
ATOM      6  C   UNL     1       5.763  10.682   6.897  1.00  0.00     0.012 A 
ENDROOT
BRANCH   1   7
ATOM      7  C   UNL     1       7.479  11.968   8.146  1.00  0.00     0.003 C 
ATOM      8  C   UNL     1       9.801  12.343   7.412  1.00  0.00     0.035 C 
ATOM      9  C   UNL     1       8.431  11.773   7.225  1.00  0.00    -0.030 C 
ENDBRANCH   1   7
BRANCH   3  10
ATOM     10  O   UNL     1       2.770  11.464   9.753  1.00  0.00    -0.493 OA
ATOM     11  C   UNL     1       1.959  12.635   9.773  1.00  0.00     0.278 C 
ENDBRANCH   3  10
BRANCH   4  12
ATOM     12  O   UNL     1       2.198   9.931   7.533  1.00  0.00    -0.504 OA
ATOM     13  H   UNL     1       1.485  10.443   7.026  1.00  0.00     0.293 HD
ENDBRANCH   4  12
TORSDOF 3
ENDMDL
MODEL 5
REMARK VINA RESULT:    -4.813      3.625      5.959
REMARK INTER + INTRA:          -5.683
REMARK INTER:                  -5.625
REMARK INTRA:                  -0.058
REMARK UNBOUND:                -0.166
REMARK SMILES CC=Cc1ccc(O)c(OC)c1
REMARK SMILES IDX 4 1 12 2 9 3 7 4 6 5 5 6 3 7 1 8 2 9 10 10 11 11 8 12
REMARK H PARENT 8 13
REMARK Flexibility Score: inf
ROOT
ATOM      1  C   UNL     1       4.935  10.752   7.640  1.00  0.00    -0.022 A 
ATOM      2  C   UNL     1       4.264  11.836   8.243  1.00  0.00     0.058 A 
ATOM      3  C   UNL     1       3.337  11.618   9.282  1.00  0.00     0.161 A 
ATOM      4  C   UNL     1       3.077  10.309   9.709  1.00  0.00     0.157 A 
ATOM      5  C   UNL     1       3.729   9.230   9.102  1.00  0.00     0.051 A 
ATOM      6  C   UNL     1       4.646   9.449   8.073  1.00  0.00     0.012 A 
ENDROOT
BRANCH   1   7
ATOM      7  C   UNL     1       5.912  10.931   6.538  1.00  0.00     0.003 C 
ATOM      8  C   UNL     1       6.622  11.470   4.241  1.00  0.00     0.035 C 
ATOM      9  C   UNL     1       5.576  11.296   5.295  1.00  0.00    -0.030 C 
ENDBRANCH   1   7
BRANCH   3  10
ATOM     10  O   UNL     1       2.654  12.672   9.909  1.00  0.00    -0.493 OA
ATOM     11  C   UNL     1       1.304  13.035   9.638  1.00  0.00     0.278 C 
ENDBRANCH   3  10
BRANCH   4  12
ATOM     12  O   UNL     1       2.163  10.088  10.738  1.00  0.00    -0.504 OA
ATOM     13  H   UNL     1       2.410  10.238  11.709  1.00  0.00     0.293 HD
ENDBRANCH   4  12
TORSDOF 3
ENDMDL
MODEL 6
REMARK VINA RESULT:    -4.679      1.198      1.582
REMARK INTER + INTRA:          -5.529
REMARK INTER:                  -5.335
REMARK INTRA:                  -0.194
REMARK UNBOUND:                -0.166
REMARK SMILES CC=Cc1ccc(O)c(OC)c1
REMARK SMILES IDX 4 1 12 2 9 3 7 4 6 5 5 6 3 7 1 8 2 9 10 10 11 11 8 12
REMARK H PARENT 8 13
REMARK Flexibility Score: inf
ROOT
ATOM      1  C   UNL     1       5.027  11.098   8.016  1.00  0.00    -0.022 A 
ATOM      2  C   UNL     1       6.405  11.258   8.265  1.00  0.00     0.058 A 
ATOM      3  C   UNL     1       7.346  11.103   7.227  1.00  0.00     0.161 A 
ATOM      4  C   UNL     1       6.900  10.777   5.938  1.00  0.00     0.157 A 
ATOM      5  C   UNL     1       5.534  10.602   5.691  1.00  0.00     0.051 A 
ATOM      6  C   UNL     1       4.607  10.756   6.722  1.00  0.00     0.012 A 
ENDROOT
BRANCH   1   7
ATOM      7  C   UNL     1       4.001  11.242   9.079  1.00  0.00     0.003 C 
ATOM      8  C   UNL     1       1.718  11.218  10.004  1.00  0.00     0.035 C 
ATOM      9  C   UNL     1       2.689  11.071   8.877  1.00  0.00    -0.030 C 
ENDBRANCH   1   7
BRANCH   3  10
ATOM     10  O   UNL     1       8.725  11.259   7.436  1.00  0.00    -0.493 OA
ATOM     11  C   UNL     1       9.364  12.500   7.719  1.00  0.00     0.278 C 
ENDBRANCH   3  10
BRANCH   4  12
ATOM     12  O   UNL     1       7.826  10.626   4.907  1.00  0.00    -0.504 OA
ATOM     13  H   UNL     1       7.533  10.478   3.948  1.00  0.00     0.293 HD
ENDBRANCH   4  12
TORSDOF 3
ENDMDL
MODEL 7
REMARK VINA RESULT:    -4.654      2.720      4.907
REMARK INTER + INTRA:          -5.501
REMARK INTER:                  -5.483
REMARK INTRA:                  -0.017
REMARK UNBOUND:                -0.166
REMARK SMILES CC=Cc1ccc(O)c(OC)c1
REMARK SMILES IDX 4 1 12 2 9 3 7 4 6 5 5 6 3 7 1 8 2 9 10 10 11 11 8 12
REMARK H PARENT 8 13
REMARK Flexibility Score: inf
ROOT
ATOM      1  C   UNL     1       6.478  11.483   5.897  1.00  0.00    -0.022 A 
ATOM      2  C   UNL     1       6.376  11.070   7.241  1.00  0.00     0.058 A 
ATOM      3  C   UNL     1       5.181  10.506   7.731  1.00  0.00     0.161 A 
ATOM      4  C   UNL     1       4.084  10.367   6.870  1.00  0.00     0.157 A 
ATOM      5  C   UNL     1       4.176  10.790   5.540  1.00  0.00     0.051 A 
ATOM      6  C   UNL     1       5.361  11.348   5.059  1.00  0.00     0.012 A 
ENDROOT
BRANCH   1   7
ATOM      7  C   UNL     1       7.712  12.090   5.339  1.00  0.00     0.003 C 
ATOM      8  C   UNL     1       9.205  12.880   3.545  1.00  0.00     0.035 C 
ATOM      9  C   UNL     1       7.941  12.244   4.029  1.00  0.00    -0.030 C 
ENDBRANCH   1   7
BRANCH   3  10
ATOM     10  O   UNL     1       5.044  10.079   9.060  1.00  0.00    -0.493 OA
ATOM     11  C   UNL     1       4.258  10.742  10.046  1.00  0.00     0.278 C 
ENDBRANCH   3  10
BRANCH   4  12
ATOM     12  O   UNL     1       2.900   9.806   7.348  1.00  0.00    -0.504 OA
ATOM     13  H   UNL     1       2.037  10.337   7.382  1.00  0.00     0.293 HD
ENDBRANCH   4  12
TORSDOF 3
ENDMDL
