MODEL 1
REMARK VINA RESULT:    -5.350      0.000      0.000
REMARK INTER + INTRA:          -6.472
REMARK INTER:                  -6.132
REMARK INTRA:                  -0.340
REMARK UNBOUND:                -0.340
REMARK SMILES COc1ccc(C(C)=O)c(O)c1
REMARK SMILES IDX 6 1 10 2 12 3 3 4 4 5 5 6 7 7 8 8 9 9 11 10 2 12 1 13
REMARK H PARENT 11 11
REMARK Flexibility Score: inf
ROOT
ATOM      1  C   UNL     1      -4.481  -6.084   6.858  1.00  0.00     0.059 A 
ATOM      2  C   UNL     1      -5.120  -5.055   6.127  1.00  0.00     0.130 A 
ATOM      3  C   UNL     1      -5.982  -4.162   6.782  1.00  0.00     0.093 A 
ATOM      4  C   UNL     1      -6.209  -4.261   8.157  1.00  0.00     0.122 A 
ATOM      5  C   UNL     1      -5.561  -5.270   8.888  1.00  0.00     0.047 A 
ATOM      6  C   UNL     1      -4.705  -6.167   8.244  1.00  0.00     0.019 A 
ENDROOT
BRANCH   1   7
ATOM      7  C   UNL     1      -3.571  -7.073   6.219  1.00  0.00     0.163 C 
ATOM      8  C   UNL     1      -3.730  -8.551   6.405  1.00  0.00     0.093 C 
ATOM      9  O   UNL     1      -2.627  -6.662   5.491  1.00  0.00    -0.294 OA
ENDBRANCH   1   7
BRANCH   2  10
ATOM     10  O   UNL     1      -4.889  -4.899   4.760  1.00  0.00    -0.507 OA
ATOM     11  H   UNL     1      -4.724  -5.692   4.152  1.00  0.00     0.293 HD
ENDBRANCH   2  10
BRANCH   4  12
ATOM     12  O   UNL     1      -7.080  -3.338   8.757  1.00  0.00    -0.497 OA
ATOM     13  C   UNL     1      -7.090  -1.943   8.476  1.00  0.00     0.278 C 
ENDBRANCH   4  12
TORSDOF 3
ENDMDL
MODEL 2
REMARK VINA RESULT:    -5.320      1.504      4.626
REMARK INTER + INTRA:          -6.437
REMARK INTER:                  -6.099
REMARK INTRA:                  -0.338
REMARK UNBOUND:                -0.340
REMARK SMILES COc1ccc(C(C)=O)c(O)c1
REMARK SMILES IDX 6 1 10 2 12 3 3 4 4 5 5 6 7 7 8 8 9 9 11 10 2 12 1 13
REMARK H PARENT 11 11
REMARK Flexibility Score: inf
ROOT
ATOM      1  C   UNL     1      -5.528  -4.199   6.827  1.00  0.00     0.059 A 
ATOM      2  C   UNL     1      -5.860  -4.699   5.546  1.00  0.00     0.130 A 
ATOM      3  C   UNL     1      -5.273  -5.887   5.085  1.00  0.00     0.093 A 
ATOM      4  C   UNL     1      -4.372  -6.601   5.880  1.00  0.00     0.122 A 
ATOM      5  C   UNL     1      -4.055  -6.115   7.159  1.00  0.00     0.047 A 
ATOM      6  C   UNL     1      -4.630  -4.930   7.626  1.00  0.00     0.019 A 
ENDROOT
BRANCH   1   7
ATOM      7  C   UNL     1      -6.101  -2.936   7.366  1.00  0.00     0.163 C 
ATOM      8  C   UNL     1      -6.723  -2.851   8.726  1.00  0.00     0.093 C 
ATOM      9  O   UNL     1      -6.066  -1.892   6.660  1.00  0.00    -0.294 OA
ENDBRANCH   1   7
BRANCH   2  10
ATOM     10  O   UNL     1      -6.785  -4.039   4.738  1.00  0.00    -0.507 OA
ATOM     11  H   UNL     1      -7.026  -4.380   3.814  1.00  0.00     0.293 HD
ENDBRANCH   2  10
BRANCH   4  12
ATOM     12  O   UNL     1      -3.819  -7.783   5.365  1.00  0.00    -0.497 OA
ATOM     13  C   UNL     1      -2.445  -8.142   5.474  1.00  0.00     0.278 C 
ENDBRANCH   4  12
TORSDOF 3
ENDMDL
MODEL 3
REMARK VINA RESULT:    -5.173      2.251      5.296
REMARK INTER + INTRA:          -6.269
REMARK INTER:                  -5.946
REMARK INTRA:                  -0.323
REMARK UNBOUND:                -0.340
REMARK SMILES COc1ccc(C(C)=O)c(O)c1
REMARK SMILES IDX 6 1 10 2 12 3 3 4 4 5 5 6 7 7 8 8 9 9 11 10 2 12 1 13
REMARK H PARENT 11 11
REMARK Flexibility Score: inf
ROOT
ATOM      1  C   UNL     1      -5.262  -5.822   5.514  1.00  0.00     0.059 A 
ATOM      2  C   UNL     1      -4.091  -6.075   6.265  1.00  0.00     0.130 A 
ATOM      3  C   UNL     1      -3.356  -7.249   6.044  1.00  0.00     0.093 A 
ATOM      4  C   UNL     1      -3.754  -8.175   5.074  1.00  0.00     0.122 A 
ATOM      5  C   UNL     1      -4.906  -7.916   4.314  1.00  0.00     0.047 A 
ATOM      6  C   UNL     1      -5.647  -6.752   4.531  1.00  0.00     0.019 A 
ENDROOT
BRANCH   1   7
ATOM      7  C   UNL     1      -6.094  -4.605   5.714  1.00  0.00     0.163 C 
ATOM      8  C   UNL     1      -7.590  -4.633   5.644  1.00  0.00     0.093 C 
ATOM      9  O   UNL     1      -5.528  -3.503   5.952  1.00  0.00    -0.294 OA
ENDBRANCH   1   7
BRANCH   2  10
ATOM     10  O   UNL     1      -3.638  -5.158   7.214  1.00  0.00    -0.507 OA
ATOM     11  H   UNL     1      -3.890  -4.178   7.173  1.00  0.00     0.293 HD
ENDBRANCH   2  10
BRANCH   4  12
ATOM     12  O   UNL     1      -2.978  -9.330   4.897  1.00  0.00    -0.497 OA
ATOM     13  C   UNL     1      -1.885  -9.434   3.990  1.00  0.00     0.278 C 
ENDBRANCH   4  12
TORSDOF 3
ENDMDL
MODEL 4
REMARK VINA RESULT:    -5.030      1.772      4.798
REMARK INTER + INTRA:          -6.105
REMARK INTER:                  -5.995
REMARK INTRA:                  -0.110
REMARK UNBOUND:                -0.340
REMARK SMILES COc1ccc(C(C)=O)c(O)c1
REMARK SMILES IDX 6 1 10 2 12 3 3 4 4 5 5 6 7 7 8 8 9 9 11 10 2 12 1 13
REMARK H PARENT 11 11
REMARK Flexibility Score: inf
ROOT
ATOM      1  C   UNL     1      -5.628  -4.094   7.228  1.00  0.00     0.059 A 
ATOM      2  C   UNL     1      -4.493  -4.605   7.901  1.00  0.00     0.130 A 
ATOM      3  C   UNL     1      -4.086  -5.929   7.681  1.00  0.00     0.093 A 
ATOM      4  C   UNL     1      -4.777  -6.756   6.791  1.00  0.00     0.122 A 
ATOM      5  C   UNL     1      -5.893  -6.245   6.109  1.00  0.00     0.047 A 
ATOM      6  C   UNL     1      -6.310  -4.929   6.324  1.00  0.00     0.019 A 
ENDROOT
BRANCH   1   7
ATOM      7  C   UNL     1      -6.121  -2.705   7.431  1.00  0.00     0.163 C 
ATOM      8  C   UNL     1      -6.748  -2.253   8.715  1.00  0.00     0.093 C 
ATOM      9  O   UNL     1      -6.012  -1.868   6.494  1.00  0.00    -0.294 OA
ENDBRANCH   1   7
BRANCH   2  10
ATOM     10  O   UNL     1      -3.753  -3.800   8.767  1.00  0.00    -0.507 OA
ATOM     11  H   UNL     1      -3.852  -2.792   8.776  1.00  0.00     0.293 HD
ENDBRANCH   2  10
BRANCH   4  12
ATOM     12  O   UNL     1      -4.322  -8.071   6.612  1.00  0.00    -0.497 OA
ATOM     13  C   UNL     1      -2.950  -8.446   6.556  1.00  0.00     0.278 C 
ENDBRANCH   4  12
TORSDOF 3
ENDMDL
MODEL 5
REMARK VINA RESULT:    -5.008     12.086     13.437
REMARK INTER + INTRA:          -6.079
REMARK INTER:                  -5.742
REMARK INTRA:                  -0.337
REMARK UNBOUND:                -0.340
REMARK SMILES COc1ccc(C(C)=O)c(O)c1
REMARK SMILES IDX 6 1 10 2 12 3 3 4 4 5 5 6 7 7 8 8 9 9 11 10 2 12 1 13
REMARK H PARENT 11 11
REMARK Flexibility Score: inf
ROOT
ATOM      1  C   UNL     1      -0.309  -5.315  -5.634  1.00  0.00     0.059 A 
ATOM      2  C   UNL     1      -1.051  -5.880  -4.571  1.00  0.00     0.130 A 
ATOM      3  C   UNL     1      -2.449  -5.960  -4.656  1.00  0.00     0.093 A 
ATOM      4  C   UNL     1      -3.127  -5.502  -5.790  1.00  0.00     0.122 A 
ATOM      5  C   UNL     1      -2.391  -4.958  -6.854  1.00  0.00     0.047 A 
ATOM      6  C   UNL     1      -0.999  -4.869  -6.776  1.00  0.00     0.019 A 
ENDROOT
BRANCH   1   7
ATOM      7  C   UNL     1       1.173  -5.186  -5.596  1.00  0.00     0.163 C 
ATOM      8  C   UNL     1       2.045  -5.582  -6.748  1.00  0.00     0.093 C 
ATOM      9  O   UNL     1       1.726  -4.726  -4.560  1.00  0.00    -0.294 OA
ENDBRANCH   1   7
BRANCH   2  10
ATOM     10  O   UNL     1      -0.409  -6.385  -3.439  1.00  0.00    -0.507 OA
ATOM     11  H   UNL     1       0.049  -7.289  -3.444  1.00  0.00     0.293 HD
ENDBRANCH   2  10
BRANCH   4  12
ATOM     12  O   UNL     1      -4.526  -5.609  -5.819  1.00  0.00    -0.497 OA
ATOM     13  C   UNL     1      -5.404  -4.913  -4.940  1.00  0.00     0.278 C 
ENDBRANCH   4  12
TORSDOF 3
ENDMDL
MODEL 6
REMARK VINA RESULT:    -4.988      2.017      2.643
REMARK INTER + INTRA:          -6.056
REMARK INTER:                  -5.773
REMARK INTRA:                  -0.283
REMARK UNBOUND:                -0.340
REMARK SMILES COc1ccc(C(C)=O)c(O)c1
REMARK SMILES IDX 6 1 10 2 12 3 3 4 4 5 5 6 7 7 8 8 9 9 11 10 2 12 1 13
REMARK H PARENT 11 11
REMARK Flexibility Score: inf
ROOT
ATOM      1  C   UNL     1      -4.933  -6.048   5.644  1.00  0.00     0.059 A 
ATOM      2  C   UNL     1      -5.122  -4.841   6.358  1.00  0.00     0.130 A 
ATOM      3  C   UNL     1      -6.227  -4.025   6.073  1.00  0.00     0.093 A 
ATOM      4  C   UNL     1      -7.161  -4.393   5.100  1.00  0.00     0.122 A 
ATOM      5  C   UNL     1      -6.985  -5.600   4.404  1.00  0.00     0.047 A 
ATOM      6  C   UNL     1      -5.885  -6.417   4.677  1.00  0.00     0.019 A 
ENDROOT
BRANCH   1   7
ATOM      7  C   UNL     1      -3.773  -6.948   5.887  1.00  0.00     0.163 C 
ATOM      8  C   UNL     1      -3.919  -8.294   6.528  1.00  0.00     0.093 C 
ATOM      9  O   UNL     1      -2.619  -6.573   5.543  1.00  0.00    -0.294 OA
ENDBRANCH   1   7
BRANCH   2  10
ATOM     10  O   UNL     1      -4.235  -4.458   7.363  1.00  0.00    -0.507 OA
ATOM     11  H   UNL     1      -4.476  -4.530   8.345  1.00  0.00     0.293 HD
ENDBRANCH   2  10
BRANCH   4  12
ATOM     12  O   UNL     1      -8.247  -3.536   4.860  1.00  0.00    -0.497 OA
ATOM     13  C   UNL     1      -8.498  -2.336   5.583  1.00  0.00     0.278 C 
ENDBRANCH   4  12
TORSDOF 3
ENDMDL
MODEL 7
REMARK VINA RESULT:    -4.831      1.783      2.493
REMARK INTER + INTRA:          -5.876
REMARK INTER:                  -5.545
REMARK INTRA:                  -0.332
REMARK UNBOUND:                -0.340
REMARK SMILES COc1ccc(C(C)=O)c(O)c1
REMARK SMILES IDX 6 1 10 2 12 3 3 4 4 5 5 6 7 7 8 8 9 9 11 10 2 12 1 13
REMARK H PARENT 11 11
REMARK Flexibility Score: inf
ROOT
ATOM      1  C   UNL     1      -5.474  -4.117   7.462  1.00  0.00     0.059 A 
ATOM      2  C   UNL     1      -6.177  -3.690   6.312  1.00  0.00     0.130 A 
ATOM      3  C   UNL     1      -7.022  -2.572   6.382  1.00  0.00     0.093 A 
ATOM      4  C   UNL     1      -7.171  -1.857   7.574  1.00  0.00     0.122 A 
ATOM      5  C   UNL     1      -6.459  -2.269   8.712  1.00  0.00     0.047 A 
ATOM      6  C   UNL     1      -5.620  -3.384   8.654  1.00  0.00     0.019 A 
ENDROOT
BRANCH   1   7
ATOM      7  C   UNL     1      -4.578  -5.305   7.457  1.00  0.00     0.163 C 
ATOM      8  C   UNL     1      -4.538  -6.288   8.587  1.00  0.00     0.093 C 
ATOM      9  O   UNL     1      -3.819  -5.502   6.469  1.00  0.00    -0.294 OA
ENDBRANCH   1   7
BRANCH   2  10
ATOM     10  O   UNL     1      -6.026  -4.352   5.093  1.00  0.00    -0.507 OA
ATOM     11  H   UNL     1      -6.681  -4.224   4.331  1.00  0.00     0.293 HD
ENDBRANCH   2  10
BRANCH   4  12
ATOM     12  O   UNL     1      -8.029  -0.747   7.583  1.00  0.00    -0.497 OA
ATOM     13  C   UNL     1      -7.754   0.476   8.258  1.00  0.00     0.278 C 
ENDBRANCH   4  12
TORSDOF 3
ENDMDL
MODEL 8
REMARK VINA RESULT:    -4.816      2.242      3.512
REMARK INTER + INTRA:          -5.859
REMARK INTER:                  -5.578
REMARK INTRA:                  -0.282
REMARK UNBOUND:                -0.340
REMARK SMILES COc1ccc(C(C)=O)c(O)c1
REMARK SMILES IDX 6 1 10 2 12 3 3 4 4 5 5 6 7 7 8 8 9 9 11 10 2 12 1 13
REMARK H PARENT 11 11
REMARK Flexibility Score: inf
ROOT
ATOM      1  C   UNL     1      -3.672  -8.364   4.862  1.00  0.00     0.059 A 
ATOM      2  C   UNL     1      -3.626  -7.100   5.494  1.00  0.00     0.130 A 
ATOM      3  C   UNL     1      -4.772  -6.587   6.119  1.00  0.00     0.093 A 
ATOM      4  C   UNL     1      -5.965  -7.315   6.143  1.00  0.00     0.122 A 
ATOM      5  C   UNL     1      -6.007  -8.579   5.533  1.00  0.00     0.047 A 
ATOM      6  C   UNL     1      -4.873  -9.096   4.903  1.00  0.00     0.019 A 
ENDROOT
BRANCH   1   7
ATOM      7  C   UNL     1      -2.496  -8.955   4.167  1.00  0.00     0.163 C 
ATOM      8  C   UNL     1      -2.633 -10.004   3.106  1.00  0.00     0.093 C 
ATOM      9  O   UNL     1      -1.337  -8.565   4.475  1.00  0.00    -0.294 OA
ENDBRANCH   1   7
BRANCH   2  10
ATOM     10  O   UNL     1      -2.444  -6.359   5.526  1.00  0.00    -0.507 OA
ATOM     11  H   UNL     1      -1.548  -6.773   5.299  1.00  0.00     0.293 HD
ENDBRANCH   2  10
BRANCH   4  12
ATOM     12  O   UNL     1      -7.078  -6.751   6.784  1.00  0.00    -0.497 OA
ATOM     13  C   UNL     1      -7.018  -5.636   7.667  1.00  0.00     0.278 C 
ENDBRANCH   4  12
TORSDOF 3
ENDMDL
MODEL 9
REMARK VINA RESULT:    -4.693      2.858      4.459
REMARK INTER + INTRA:          -5.719
REMARK INTER:                  -5.383
REMARK INTRA:                  -0.336
REMARK UNBOUND:                -0.340
REMARK SMILES COc1ccc(C(C)=O)c(O)c1
REMARK SMILES IDX 6 1 10 2 12 3 3 4 4 5 5 6 7 7 8 8 9 9 11 10 2 12 1 13
REMARK H PARENT 11 11
REMARK Flexibility Score: inf
ROOT
ATOM      1  C   UNL     1      -6.820  -2.579   6.680  1.00  0.00     0.059 A 
ATOM      2  C   UNL     1      -7.569  -2.107   5.577  1.00  0.00     0.130 A 
ATOM      3  C   UNL     1      -8.257  -0.888   5.668  1.00  0.00     0.093 A 
ATOM      4  C   UNL     1      -8.202  -0.116   6.832  1.00  0.00     0.122 A 
ATOM      5  C   UNL     1      -7.443  -0.573   7.921  1.00  0.00     0.047 A 
ATOM      6  C   UNL     1      -6.759  -1.789   7.843  1.00  0.00     0.019 A 
ENDROOT
BRANCH   1   7
ATOM      7  C   UNL     1      -6.084  -3.872   6.654  1.00  0.00     0.163 C 
ATOM      8  C   UNL     1      -6.200  -4.886   7.750  1.00  0.00     0.093 C 
ATOM      9  O   UNL     1      -5.332  -4.134   5.676  1.00  0.00    -0.294 OA
ENDBRANCH   1   7
BRANCH   2  10
ATOM     10  O   UNL     1      -7.617  -2.828   4.384  1.00  0.00    -0.507 OA
ATOM     11  H   UNL     1      -7.283  -3.783   4.323  1.00  0.00     0.293 HD
ENDBRANCH   2  10
BRANCH   4  12
ATOM     12  O   UNL     1      -8.909   1.096   6.863  1.00  0.00    -0.497 OA
ATOM     13  C   UNL     1      -8.569   2.245   6.094  1.00  0.00     0.278 C 
ENDBRANCH   4  12
TORSDOF 3
ENDMDL
