MODEL 1
REMARK VINA RESULT:    -5.920      0.000      0.000
REMARK INTER + INTRA:          -6.093
REMARK INTER:                  -6.093
REMARK INTRA:                   0.000
REMARK UNBOUND:                 0.000
REMARK SMILES O=c1ccc2cc(O)ccc2o1
REMARK SMILES IDX 9 1 10 2 11 3 5 4 4 5 3 6 2 7 1 8 12 9 6 10 7 11 8 12
REMARK H PARENT 8 13
REMARK Flexibility Score: inf
ROOT
ATOM      1  C   UNL     1       8.480   8.967  13.101  1.00  0.00     0.050 A 
ATOM      2  C   UNL     1       9.802   9.016  12.647  1.00  0.00     0.052 A 
ATOM      3  C   UNL     1      10.772   9.699  13.388  1.00  0.00     0.138 A 
ATOM      4  C   UNL     1      10.413  10.337  14.595  1.00  0.00     0.021 A 
ATOM      5  C   UNL     1      11.406  11.011  15.314  1.00  0.00     0.019 A 
ATOM      6  C   UNL     1      12.710  11.034  14.822  1.00  0.00     0.094 A 
ATOM      7  C   UNL     1      12.993  10.379  13.618  1.00  0.00     0.336 A 
ATOM      8  O   UNL     1      14.164  10.388  13.158  1.00  0.00    -0.246 OA
ATOM      9  O   UNL     1      12.030   9.745  12.954  1.00  0.00    -0.423 OA
ATOM     10  C   UNL     1       9.086  10.284  15.046  1.00  0.00     0.058 A 
ATOM     11  C   UNL     1       8.119   9.598  14.298  1.00  0.00     0.116 A 
ENDROOT
BRANCH  11  12
ATOM     12  O   UNL     1       6.797   9.537  14.733  1.00  0.00    -0.508 OA
ATOM     13  H   UNL     1       6.180   8.785  14.448  1.00  0.00     0.293 HD
ENDBRANCH  11  12
TORSDOF 1
ENDMDL
MODEL 2
REMARK VINA RESULT:    -5.888      1.897      4.010
REMARK INTER + INTRA:          -6.060
REMARK INTER:                  -6.060
REMARK INTRA:                   0.000
REMARK UNBOUND:                 0.000
REMARK SMILES O=c1ccc2cc(O)ccc2o1
REMARK SMILES IDX 9 1 10 2 11 3 5 4 4 5 3 6 2 7 1 8 12 9 6 10 7 11 8 12
REMARK H PARENT 8 13
REMARK Flexibility Score: inf
ROOT
ATOM      1  C   UNL     1      12.612  11.545  13.991  1.00  0.00     0.050 A 
ATOM      2  C   UNL     1      12.136  10.663  13.014  1.00  0.00     0.052 A 
ATOM      3  C   UNL     1      10.864  10.098  13.141  1.00  0.00     0.138 A 
ATOM      4  C   UNL     1      10.061  10.420  14.256  1.00  0.00     0.021 A 
ATOM      5  C   UNL     1       8.792   9.838  14.355  1.00  0.00     0.019 A 
ATOM      6  C   UNL     1       8.361   8.965  13.357  1.00  0.00     0.094 A 
ATOM      7  C   UNL     1       9.211   8.693  12.279  1.00  0.00     0.336 A 
ATOM      8  O   UNL     1       8.839   7.908  11.369  1.00  0.00    -0.246 OA
ATOM      9  O   UNL     1      10.413   9.259  12.210  1.00  0.00    -0.423 OA
ATOM     10  C   UNL     1      10.542  11.303  15.233  1.00  0.00     0.058 A 
ATOM     11  C   UNL     1      11.819  11.867  15.100  1.00  0.00     0.116 A 
ENDROOT
BRANCH  11  12
ATOM     12  O   UNL     1      12.311  12.746  16.061  1.00  0.00    -0.508 OA
ATOM     13  H   UNL     1      12.456  12.454  17.021  1.00  0.00     0.293 HD
ENDBRANCH  11  12
TORSDOF 1
ENDMDL
MODEL 3
REMARK VINA RESULT:    -5.663      0.863      4.764
REMARK INTER + INTRA:          -5.829
REMARK INTER:                  -5.829
REMARK INTRA:                   0.000
REMARK UNBOUND:                 0.000
REMARK SMILES O=c1ccc2cc(O)ccc2o1
REMARK SMILES IDX 9 1 10 2 11 3 5 4 4 5 3 6 2 7 1 8 12 9 6 10 7 11 8 12
REMARK H PARENT 8 13
REMARK Flexibility Score: inf
ROOT
ATOM      1  C   UNL     1      12.530  10.954  15.115  1.00  0.00     0.050 A 
ATOM      2  C   UNL     1      11.176  10.848  15.448  1.00  0.00     0.052 A 
ATOM      3  C   UNL     1      10.289  10.205  14.579  1.00  0.00     0.138 A 
ATOM      4  C   UNL     1      10.766   9.661  13.366  1.00  0.00     0.021 A 
ATOM      5  C   UNL     1       9.855   9.024  12.517  1.00  0.00     0.019 A 
ATOM      6  C   UNL     1       8.514   8.942  12.891  1.00  0.00     0.094 A 
ATOM      7  C   UNL     1       8.113   9.503  14.109  1.00  0.00     0.336 A 
ATOM      8  O   UNL     1       6.907   9.439  14.464  1.00  0.00    -0.246 OA
ATOM      9  O   UNL     1       9.000  10.104  14.898  1.00  0.00    -0.423 OA
ATOM     10  C   UNL     1      12.124   9.770  13.037  1.00  0.00     0.058 A 
ATOM     11  C   UNL     1      13.008  10.418  13.913  1.00  0.00     0.116 A 
ENDROOT
BRANCH  11  12
ATOM     12  O   UNL     1      14.360  10.534  13.600  1.00  0.00    -0.508 OA
ATOM     13  H   UNL     1      14.756  11.410  13.280  1.00  0.00     0.293 HD
ENDBRANCH  11  12
TORSDOF 1
ENDMDL
MODEL 4
REMARK VINA RESULT:    -5.497      1.934      2.568
REMARK INTER + INTRA:          -5.657
REMARK INTER:                  -5.657
REMARK INTRA:                   0.000
REMARK UNBOUND:                 0.000
REMARK SMILES O=c1ccc2cc(O)ccc2o1
REMARK SMILES IDX 9 1 10 2 11 3 5 4 4 5 3 6 2 7 1 8 12 9 6 10 7 11 8 12
REMARK H PARENT 8 13
REMARK Flexibility Score: inf
ROOT
ATOM      1  C   UNL     1       8.854   9.371  15.010  1.00  0.00     0.050 A 
ATOM      2  C   UNL     1       9.039   9.162  13.640  1.00  0.00     0.052 A 
ATOM      3  C   UNL     1      10.270   9.455  13.045  1.00  0.00     0.138 A 
ATOM      4  C   UNL     1      11.326   9.962  13.833  1.00  0.00     0.021 A 
ATOM      5  C   UNL     1      12.546  10.246  13.211  1.00  0.00     0.019 A 
ATOM      6  C   UNL     1      12.683  10.021  11.841  1.00  0.00     0.094 A 
ATOM      7  C   UNL     1      11.594   9.516  11.124  1.00  0.00     0.336 A 
ATOM      8  O   UNL     1      11.698   9.307   9.887  1.00  0.00    -0.246 OA
ATOM      9  O   UNL     1      10.444   9.255  11.741  1.00  0.00    -0.423 OA
ATOM     10  C   UNL     1      11.137  10.171  15.207  1.00  0.00     0.058 A 
ATOM     11  C   UNL     1       9.899   9.875  15.796  1.00  0.00     0.116 A 
ENDROOT
BRANCH  11  12
ATOM     12  O   UNL     1       9.695  10.076  17.159  1.00  0.00    -0.508 OA
ATOM     13  H   UNL     1       8.836   9.789  17.614  1.00  0.00     0.293 HD
ENDBRANCH  11  12
TORSDOF 1
ENDMDL
MODEL 5
REMARK VINA RESULT:    -5.399      1.787      2.442
REMARK INTER + INTRA:          -5.556
REMARK INTER:                  -5.556
REMARK INTRA:                   0.000
REMARK UNBOUND:                 0.000
REMARK SMILES O=c1ccc2cc(O)ccc2o1
REMARK SMILES IDX 9 1 10 2 11 3 5 4 4 5 3 6 2 7 1 8 12 9 6 10 7 11 8 12
REMARK H PARENT 8 13
REMARK Flexibility Score: inf
ROOT
ATOM      1  C   UNL     1       7.992   9.059  13.528  1.00  0.00     0.050 A 
ATOM      2  C   UNL     1       8.733   9.746  14.495  1.00  0.00     0.052 A 
ATOM      3  C   UNL     1      10.079  10.045  14.265  1.00  0.00     0.138 A 
ATOM      4  C   UNL     1      10.688   9.652  13.053  1.00  0.00     0.021 A 
ATOM      5  C   UNL     1      12.036   9.966  12.852  1.00  0.00     0.019 A 
ATOM      6  C   UNL     1      12.734  10.652  13.845  1.00  0.00     0.094 A 
ATOM      7  C   UNL     1      12.066  11.010  15.021  1.00  0.00     0.336 A 
ATOM      8  O   UNL     1      12.678  11.630  15.929  1.00  0.00    -0.246 OA
ATOM      9  O   UNL     1      10.782  10.699  15.187  1.00  0.00    -0.423 OA
ATOM     10  C   UNL     1       9.942   8.963  12.087  1.00  0.00     0.058 A 
ATOM     11  C   UNL     1       8.592   8.666  12.324  1.00  0.00     0.116 A 
ENDROOT
BRANCH  11  12
ATOM     12  O   UNL     1       7.837   7.983  11.374  1.00  0.00    -0.508 OA
ATOM     13  H   UNL     1       7.420   8.463  10.585  1.00  0.00     0.293 HD
ENDBRANCH  11  12
TORSDOF 1
ENDMDL
MODEL 6
REMARK VINA RESULT:    -5.327      0.998      2.092
REMARK INTER + INTRA:          -5.483
REMARK INTER:                  -5.483
REMARK INTRA:                   0.000
REMARK UNBOUND:                 0.000
REMARK SMILES O=c1ccc2cc(O)ccc2o1
REMARK SMILES IDX 9 1 10 2 11 3 5 4 4 5 3 6 2 7 1 8 12 9 6 10 7 11 8 12
REMARK H PARENT 8 13
REMARK Flexibility Score: inf
ROOT
ATOM      1  C   UNL     1       9.244   9.882  15.724  1.00  0.00     0.050 A 
ATOM      2  C   UNL     1      10.613  10.141  15.598  1.00  0.00     0.052 A 
ATOM      3  C   UNL     1      11.236  10.032  14.351  1.00  0.00     0.138 A 
ATOM      4  C   UNL     1      10.478   9.661  13.219  1.00  0.00     0.021 A 
ATOM      5  C   UNL     1      11.129   9.560  11.985  1.00  0.00     0.019 A 
ATOM      6  C   UNL     1      12.495   9.828  11.909  1.00  0.00     0.094 A 
ATOM      7  C   UNL     1      13.182  10.190  13.073  1.00  0.00     0.336 A 
ATOM      8  O   UNL     1      14.415  10.436  13.024  1.00  0.00    -0.246 OA
ATOM      9  O   UNL     1      12.539  10.279  14.234  1.00  0.00    -0.423 OA
ATOM     10  C   UNL     1       9.106   9.402  13.349  1.00  0.00     0.058 A 
ATOM     11  C   UNL     1       8.488   9.513  14.603  1.00  0.00     0.116 A 
ENDROOT
BRANCH  11  12
ATOM     12  O   UNL     1       7.127   9.259  14.749  1.00  0.00    -0.508 OA
ATOM     13  H   UNL     1       6.760   8.315  14.735  1.00  0.00     0.293 HD
ENDBRANCH  11  12
TORSDOF 1
ENDMDL
MODEL 7
REMARK VINA RESULT:    -5.097      1.963      4.227
REMARK INTER + INTRA:          -5.246
REMARK INTER:                  -5.246
REMARK INTRA:                   0.000
REMARK UNBOUND:                 0.000
REMARK SMILES O=c1ccc2cc(O)ccc2o1
REMARK SMILES IDX 9 1 10 2 11 3 5 4 4 5 3 6 2 7 1 8 12 9 6 10 7 11 8 12
REMARK H PARENT 8 13
REMARK Flexibility Score: inf
ROOT
ATOM      1  C   UNL     1      13.023  10.056  12.229  1.00  0.00     0.050 A 
ATOM      2  C   UNL     1      12.738  10.069  13.599  1.00  0.00     0.052 A 
ATOM      3  C   UNL     1      11.441   9.801  14.047  1.00  0.00     0.138 A 
ATOM      4  C   UNL     1      10.421   9.516  13.114  1.00  0.00     0.021 A 
ATOM      5  C   UNL     1       9.133   9.251  13.593  1.00  0.00     0.019 A 
ATOM      6  C   UNL     1       8.897   9.276  14.967  1.00  0.00     0.094 A 
ATOM      7  C   UNL     1       9.957   9.566  15.833  1.00  0.00     0.336 A 
ATOM      8  O   UNL     1       9.763   9.592  17.077  1.00  0.00    -0.246 OA
ATOM      9  O   UNL     1      11.172   9.814  15.351  1.00  0.00    -0.423 OA
ATOM     10  C   UNL     1      10.711   9.503  11.742  1.00  0.00     0.058 A 
ATOM     11  C   UNL     1      12.014   9.774  11.299  1.00  0.00     0.116 A 
ENDROOT
BRANCH  11  12
ATOM     12  O   UNL     1      12.318   9.765   9.940  1.00  0.00    -0.508 OA
ATOM     13  H   UNL     1      13.254   9.561   9.609  1.00  0.00     0.293 HD
ENDBRANCH  11  12
TORSDOF 1
ENDMDL
MODEL 8
REMARK VINA RESULT:    -5.037      1.222      4.341
REMARK INTER + INTRA:          -5.185
REMARK INTER:                  -5.185
REMARK INTRA:                   0.000
REMARK UNBOUND:                 0.000
REMARK SMILES O=c1ccc2cc(O)ccc2o1
REMARK SMILES IDX 9 1 10 2 11 3 5 4 4 5 3 6 2 7 1 8 12 9 6 10 7 11 8 12
REMARK H PARENT 8 13
REMARK Flexibility Score: inf
ROOT
ATOM      1  C   UNL     1      12.642   9.928  11.898  1.00  0.00     0.050 A 
ATOM      2  C   UNL     1      11.264   9.693  11.961  1.00  0.00     0.052 A 
ATOM      3  C   UNL     1      10.599   9.756  13.189  1.00  0.00     0.138 A 
ATOM      4  C   UNL     1      11.321  10.058  14.364  1.00  0.00     0.021 A 
ATOM      5  C   UNL     1      10.627  10.114  15.578  1.00  0.00     0.019 A 
ATOM      6  C   UNL     1       9.254   9.873  15.592  1.00  0.00     0.094 A 
ATOM      7  C   UNL     1       8.604   9.579  14.388  1.00  0.00     0.336 A 
ATOM      8  O   UNL     1       7.365   9.358  14.381  1.00  0.00    -0.246 OA
ATOM      9  O   UNL     1       9.287   9.532  13.248  1.00  0.00    -0.423 OA
ATOM     10  C   UNL     1      12.702  10.293  14.296  1.00  0.00     0.058 A 
ATOM     11  C   UNL     1      13.363  10.228  13.060  1.00  0.00     0.116 A 
ENDROOT
BRANCH  11  12
ATOM     12  O   UNL     1      14.734  10.459  12.976  1.00  0.00    -0.508 OA
ATOM     13  H   UNL     1      15.382   9.715  12.746  1.00  0.00     0.293 HD
ENDBRANCH  11  12
TORSDOF 1
ENDMDL
MODEL 9
REMARK VINA RESULT:    -5.002      1.646      2.602
REMARK INTER + INTRA:          -5.149
REMARK INTER:                  -5.149
REMARK INTRA:                   0.000
REMARK UNBOUND:                 0.000
REMARK SMILES O=c1ccc2cc(O)ccc2o1
REMARK SMILES IDX 9 1 10 2 11 3 5 4 4 5 3 6 2 7 1 8 12 9 6 10 7 11 8 12
REMARK H PARENT 8 13
REMARK Flexibility Score: inf
ROOT
ATOM      1  C   UNL     1       9.922  10.968  15.369  1.00  0.00     0.050 A 
ATOM      2  C   UNL     1      11.013  11.649  14.821  1.00  0.00     0.052 A 
ATOM      3  C   UNL     1      11.578  11.215  13.618  1.00  0.00     0.138 A 
ATOM      4  C   UNL     1      11.043  10.087  12.959  1.00  0.00     0.021 A 
ATOM      5  C   UNL     1      11.630   9.676  11.757  1.00  0.00     0.019 A 
ATOM      6  C   UNL     1      12.716  10.387  11.249  1.00  0.00     0.094 A 
ATOM      7  C   UNL     1      13.194  11.495  11.957  1.00  0.00     0.336 A 
ATOM      8  O   UNL     1      14.174  12.149  11.514  1.00  0.00    -0.246 OA
ATOM      9  O   UNL     1      12.617  11.865  13.098  1.00  0.00    -0.423 OA
ATOM     10  C   UNL     1       9.949   9.407  13.512  1.00  0.00     0.058 A 
ATOM     11  C   UNL     1       9.387   9.848  14.719  1.00  0.00     0.116 A 
ENDROOT
BRANCH  11  12
ATOM     12  O   UNL     1       8.300   9.184  15.281  1.00  0.00    -0.508 OA
ATOM     13  H   UNL     1       7.793   8.471  14.769  1.00  0.00     0.293 HD
ENDBRANCH  11  12
TORSDOF 1
ENDMDL
