MODEL 1
REMARK VINA RESULT:    -5.035      0.000      0.000
REMARK INTER + INTRA:          -6.390
REMARK INTER:                  -6.065
REMARK INTRA:                  -0.325
REMARK UNBOUND:                -0.325
REMARK SMILES O=c1c(O)c(-c2ccc(O)c(O)c2)oc2cc(O)cc(O)c12
REMARK SMILES IDX 5 1 3 2 2 3 1 4 22 5 20 6 19 7 17 8 16 9 15 10 14 11 6 12
REMARK SMILES IDX 7 13 8 14 9 15 13 16 11 17 10 18 12 20 4 22 21 24 18 26
REMARK H PARENT 10 19 12 21 4 23 21 25 18 27
REMARK Flexibility Score: inf
ROOT
ATOM      1  C   UNL     1      -2.452 -10.348   5.615  1.00  0.00     0.180 A 
ATOM      2  C   UNL     1      -1.515  -9.299   5.563  1.00  0.00     0.208 A 
ATOM      3  C   UNL     1      -0.151  -9.611   5.454  1.00  0.00     0.238 A 
ATOM      4  O   UNL     1       0.697  -8.680   5.396  1.00  0.00    -0.285 OA
ATOM      5  C   UNL     1       0.253 -10.962   5.419  1.00  0.00     0.111 A 
ATOM      6  C   UNL     1       1.607 -11.362   5.314  1.00  0.00     0.134 A 
ATOM      7  C   UNL     1       1.930 -12.727   5.295  1.00  0.00     0.093 A 
ATOM      8  C   UNL     1       0.928 -13.697   5.380  1.00  0.00     0.123 A 
ATOM      9  C   UNL     1      -0.411 -13.308   5.482  1.00  0.00     0.094 A 
ATOM     10  C   UNL     1      -0.753 -11.952   5.501  1.00  0.00     0.146 A 
ATOM     11  O   UNL     1      -2.033 -11.610   5.595  1.00  0.00    -0.452 OA
ENDROOT
BRANCH   1  12
ATOM     12  C   UNL     1      -3.909 -10.098   5.711  1.00  0.00     0.025 A 
ATOM     13  C   UNL     1      -4.662  -9.941   4.537  1.00  0.00     0.016 A 
ATOM     14  C   UNL     1      -6.033  -9.684   4.604  1.00  0.00     0.051 A 
ATOM     15  C   UNL     1      -6.669  -9.564   5.846  1.00  0.00     0.157 A 
ATOM     16  C   UNL     1      -4.547  -9.956   6.956  1.00  0.00     0.062 A 
ATOM     17  C   UNL     1      -5.920  -9.696   7.028  1.00  0.00     0.158 A 
BRANCH  15  18
ATOM     18  O   UNL     1      -8.039  -9.309   5.911  1.00  0.00    -0.504 OA
ATOM     19  H   UNL     1      -8.673  -9.942   6.385  1.00  0.00     0.293 HD
ENDBRANCH  15  18
BRANCH  17  20
ATOM     20  O   UNL     1      -6.521  -9.567   8.280  1.00  0.00    -0.504 OA
ATOM     21  H   UNL     1      -6.190  -8.904   8.970  1.00  0.00     0.293 HD
ENDBRANCH  17  20
ENDBRANCH   1  12
BRANCH   2  22
ATOM     22  O   UNL     1      -1.938  -7.969   5.650  1.00  0.00    -0.502 OA
ATOM     23  H   UNL     1      -2.828  -7.657   5.280  1.00  0.00     0.293 HD
ENDBRANCH   2  22
BRANCH   6  24
ATOM     24  O   UNL     1       2.631 -10.417   5.229  1.00  0.00    -0.507 OA
ATOM     25  H   UNL     1       2.654  -9.602   5.831  1.00  0.00     0.293 HD
ENDBRANCH   6  24
BRANCH   8  26
ATOM     26  O   UNL     1       1.276 -15.046   5.360  1.00  0.00    -0.508 OA
ATOM     27  H   UNL     1       1.024 -15.670   6.117  1.00  0.00     0.293 HD
ENDBRANCH   8  26
TORSDOF 6
ENDMDL
MODEL 2
REMARK VINA RESULT:    -4.799      1.471      1.567
REMARK INTER + INTRA:          -6.106
REMARK INTER:                  -5.882
REMARK INTRA:                  -0.223
REMARK UNBOUND:                -0.325
REMARK SMILES O=c1c(O)c(-c2ccc(O)c(O)c2)oc2cc(O)cc(O)c12
REMARK SMILES IDX 5 1 3 2 2 3 1 4 22 5 20 6 19 7 17 8 16 9 15 10 14 11 6 12
REMARK SMILES IDX 7 13 8 14 9 15 13 16 11 17 10 18 12 20 4 22 21 24 18 26
REMARK H PARENT 10 19 12 21 4 23 21 25 18 27
REMARK Flexibility Score: inf
ROOT
ATOM      1  C   UNL     1      -2.758 -10.455   5.783  1.00  0.00     0.180 A 
ATOM      2  C   UNL     1      -1.585  -9.882   5.256  1.00  0.00     0.208 A 
ATOM      3  C   UNL     1      -0.368 -10.566   5.408  1.00  0.00     0.238 A 
ATOM      4  O   UNL     1       0.688 -10.068   4.932  1.00  0.00    -0.285 OA
ATOM      5  C   UNL     1      -0.342 -11.795   6.099  1.00  0.00     0.111 A 
ATOM      6  C   UNL     1       0.843 -12.545   6.300  1.00  0.00     0.134 A 
ATOM      7  C   UNL     1       0.788 -13.755   7.007  1.00  0.00     0.093 A 
ATOM      8  C   UNL     1      -0.423 -14.229   7.517  1.00  0.00     0.123 A 
ATOM      9  C   UNL     1      -1.596 -13.493   7.321  1.00  0.00     0.094 A 
ATOM     10  C   UNL     1      -1.563 -12.285   6.618  1.00  0.00     0.146 A 
ATOM     11  O   UNL     1      -2.692 -11.609   6.442  1.00  0.00    -0.452 OA
ENDROOT
BRANCH   1  12
ATOM     12  C   UNL     1      -4.081  -9.804   5.647  1.00  0.00     0.025 A 
ATOM     13  C   UNL     1      -4.691  -9.738   4.384  1.00  0.00     0.016 A 
ATOM     14  C   UNL     1      -5.929  -9.110   4.228  1.00  0.00     0.051 A 
ATOM     15  C   UNL     1      -6.568  -8.525   5.328  1.00  0.00     0.157 A 
ATOM     16  C   UNL     1      -4.715  -9.197   6.745  1.00  0.00     0.062 A 
ATOM     17  C   UNL     1      -5.954  -8.565   6.592  1.00  0.00     0.158 A 
BRANCH  15  18
ATOM     18  O   UNL     1      -7.805  -7.901   5.171  1.00  0.00    -0.504 OA
ATOM     19  H   UNL     1      -8.170  -7.670   4.254  1.00  0.00     0.293 HD
ENDBRANCH  15  18
BRANCH  17  20
ATOM     20  O   UNL     1      -6.558  -7.978   7.704  1.00  0.00    -0.504 OA
ATOM     21  H   UNL     1      -6.182  -8.082   8.639  1.00  0.00     0.293 HD
ENDBRANCH  17  20
ENDBRANCH   1  12
BRANCH   2  22
ATOM     22  O   UNL     1      -1.630  -8.639   4.619  1.00  0.00    -0.502 OA
ATOM     23  H   UNL     1      -1.742  -7.771   5.129  1.00  0.00     0.293 HD
ENDBRANCH   2  22
BRANCH   6  24
ATOM     24  O   UNL     1       2.068 -12.098   5.804  1.00  0.00    -0.507 OA
ATOM     25  H   UNL     1       2.939 -12.559   6.041  1.00  0.00     0.293 HD
ENDBRANCH   6  24
BRANCH   8  26
ATOM     26  O   UNL     1      -0.449 -15.434   8.216  1.00  0.00    -0.508 OA
ATOM     27  H   UNL     1      -0.893 -15.510   9.123  1.00  0.00     0.293 HD
ENDBRANCH   8  26
TORSDOF 6
ENDMDL
MODEL 3
REMARK VINA RESULT:    -4.790     11.879     13.639
REMARK INTER + INTRA:          -6.095
REMARK INTER:                  -5.849
REMARK INTRA:                  -0.246
REMARK UNBOUND:                -0.325
REMARK SMILES O=c1c(O)c(-c2ccc(O)c(O)c2)oc2cc(O)cc(O)c12
REMARK SMILES IDX 5 1 3 2 2 3 1 4 22 5 20 6 19 7 17 8 16 9 15 10 14 11 6 12
REMARK SMILES IDX 7 13 8 14 9 15 13 16 11 17 10 18 12 20 4 22 21 24 18 26
REMARK H PARENT 10 19 12 21 4 23 21 25 18 27
REMARK Flexibility Score: inf
ROOT
ATOM      1  C   UNL     1     -14.254 -12.868   2.209  1.00  0.00     0.180 A 
ATOM      2  C   UNL     1     -13.435 -13.981   2.475  1.00  0.00     0.208 A 
ATOM      3  C   UNL     1     -13.055 -14.243   3.800  1.00  0.00     0.238 A 
ATOM      4  O   UNL     1     -12.330 -15.244   4.052  1.00  0.00    -0.285 OA
ATOM      5  C   UNL     1     -13.479 -13.379   4.831  1.00  0.00     0.111 A 
ATOM      6  C   UNL     1     -13.137 -13.569   6.192  1.00  0.00     0.134 A 
ATOM      7  C   UNL     1     -13.591 -12.660   7.157  1.00  0.00     0.093 A 
ATOM      8  C   UNL     1     -14.379 -11.565   6.791  1.00  0.00     0.123 A 
ATOM      9  C   UNL     1     -14.721 -11.373   5.448  1.00  0.00     0.094 A 
ATOM     10  C   UNL     1     -14.280 -12.270   4.471  1.00  0.00     0.146 A 
ATOM     11  O   UNL     1     -14.623 -12.066   3.205  1.00  0.00    -0.452 OA
ENDROOT
BRANCH   1  12
ATOM     12  C   UNL     1     -14.713 -12.537   0.840  1.00  0.00     0.025 A 
ATOM     13  C   UNL     1     -15.692 -13.335   0.228  1.00  0.00     0.016 A 
ATOM     14  C   UNL     1     -16.124 -13.055  -1.070  1.00  0.00     0.051 A 
ATOM     15  C   UNL     1     -15.573 -11.982  -1.782  1.00  0.00     0.157 A 
ATOM     16  C   UNL     1     -14.146 -11.474   0.115  1.00  0.00     0.062 A 
ATOM     17  C   UNL     1     -14.575 -11.191  -1.187  1.00  0.00     0.158 A 
BRANCH  15  18
ATOM     18  O   UNL     1     -16.008 -11.702  -3.077  1.00  0.00    -0.504 OA
ATOM     19  H   UNL     1     -15.402 -11.834  -3.879  1.00  0.00     0.293 HD
ENDBRANCH  15  18
BRANCH  17  20
ATOM     20  O   UNL     1     -13.996 -10.125  -1.875  1.00  0.00    -0.504 OA
ATOM     21  H   UNL     1     -14.538  -9.510  -2.470  1.00  0.00     0.293 HD
ENDBRANCH  17  20
ENDBRANCH   1  12
BRANCH   2  22
ATOM     22  O   UNL     1     -12.987 -14.794   1.430  1.00  0.00    -0.502 OA
ATOM     23  H   UNL     1     -13.539 -15.557   1.059  1.00  0.00     0.293 HD
ENDBRANCH   2  22
BRANCH   6  24
ATOM     24  O   UNL     1     -12.350 -14.651   6.589  1.00  0.00    -0.507 OA
ATOM     25  H   UNL     1     -11.758 -14.607   7.410  1.00  0.00     0.293 HD
ENDBRANCH   6  24
BRANCH   8  26
ATOM     26  O   UNL     1     -14.817 -10.676   7.770  1.00  0.00    -0.508 OA
ATOM     27  H   UNL     1     -15.634 -10.094   7.629  1.00  0.00     0.293 HD
ENDBRANCH   8  26
TORSDOF 6
ENDMDL
MODEL 4
REMARK VINA RESULT:    -4.757      1.605      7.192
REMARK INTER + INTRA:          -6.055
REMARK INTER:                  -5.745
REMARK INTRA:                  -0.310
REMARK UNBOUND:                -0.325
REMARK SMILES O=c1c(O)c(-c2ccc(O)c(O)c2)oc2cc(O)cc(O)c12
REMARK SMILES IDX 5 1 3 2 2 3 1 4 22 5 20 6 19 7 17 8 16 9 15 10 14 11 6 12
REMARK SMILES IDX 7 13 8 14 9 15 13 16 11 17 10 18 12 20 4 22 21 24 18 26
REMARK H PARENT 10 19 12 21 4 23 21 25 18 27
REMARK Flexibility Score: inf
ROOT
ATOM      1  C   UNL     1      -2.421 -11.429   6.371  1.00  0.00     0.180 A 
ATOM      2  C   UNL     1      -3.095 -11.741   7.567  1.00  0.00     0.208 A 
ATOM      3  C   UNL     1      -4.421 -11.308   7.731  1.00  0.00     0.238 A 
ATOM      4  O   UNL     1      -5.039 -11.590   8.793  1.00  0.00    -0.285 OA
ATOM      5  C   UNL     1      -5.039 -10.556   6.711  1.00  0.00     0.111 A 
ATOM      6  C   UNL     1      -6.370 -10.078   6.799  1.00  0.00     0.134 A 
ATOM      7  C   UNL     1      -6.911  -9.328   5.746  1.00  0.00     0.093 A 
ATOM      8  C   UNL     1      -6.151  -9.046   4.608  1.00  0.00     0.123 A 
ATOM      9  C   UNL     1      -4.837  -9.517   4.514  1.00  0.00     0.094 A 
ATOM     10  C   UNL     1      -4.280 -10.267   5.554  1.00  0.00     0.146 A 
ATOM     11  O   UNL     1      -3.031 -10.705   5.437  1.00  0.00    -0.452 OA
ENDROOT
BRANCH   1  12
ATOM     12  C   UNL     1      -1.029 -11.867   6.116  1.00  0.00     0.025 A 
ATOM     13  C   UNL     1       0.019 -10.941   6.240  1.00  0.00     0.016 A 
ATOM     14  C   UNL     1       1.337 -11.326   5.983  1.00  0.00     0.051 A 
ATOM     15  C   UNL     1       1.625 -12.637   5.584  1.00  0.00     0.157 A 
ATOM     16  C   UNL     1      -0.739 -13.176   5.694  1.00  0.00     0.062 A 
ATOM     17  C   UNL     1       0.580 -13.565   5.434  1.00  0.00     0.158 A 
BRANCH  15  18
ATOM     18  O   UNL     1       2.942 -13.021   5.330  1.00  0.00    -0.504 OA
ATOM     19  H   UNL     1       3.543 -12.479   4.719  1.00  0.00     0.293 HD
ENDBRANCH  15  18
BRANCH  17  20
ATOM     20  O   UNL     1       0.833 -14.874   5.023  1.00  0.00    -0.504 OA
ATOM     21  H   UNL     1       1.341 -15.082   4.172  1.00  0.00     0.293 HD
ENDBRANCH  17  20
ENDBRANCH   1  12
BRANCH   2  22
ATOM     22  O   UNL     1      -2.444 -12.445   8.583  1.00  0.00    -0.502 OA
ATOM     23  H   UNL     1      -2.893 -12.671   9.462  1.00  0.00     0.293 HD
ENDBRANCH   2  22
BRANCH   6  24
ATOM     24  O   UNL     1      -7.154 -10.342   7.923  1.00  0.00    -0.507 OA
ATOM     25  H   UNL     1      -7.903 -11.024   7.901  1.00  0.00     0.293 HD
ENDBRANCH   6  24
BRANCH   8  26
ATOM     26  O   UNL     1      -6.712  -8.298   3.575  1.00  0.00    -0.508 OA
ATOM     27  H   UNL     1      -6.184  -7.581   3.093  1.00  0.00     0.293 HD
ENDBRANCH   8  26
TORSDOF 6
ENDMDL
MODEL 5
REMARK VINA RESULT:    -4.727     10.234     13.249
REMARK INTER + INTRA:          -6.018
REMARK INTER:                  -5.696
REMARK INTRA:                  -0.323
REMARK UNBOUND:                -0.325
REMARK SMILES O=c1c(O)c(-c2ccc(O)c(O)c2)oc2cc(O)cc(O)c12
REMARK SMILES IDX 5 1 3 2 2 3 1 4 22 5 20 6 19 7 17 8 16 9 15 10 14 11 6 12
REMARK SMILES IDX 7 13 8 14 9 15 13 16 11 17 10 18 12 20 4 22 21 24 18 26
REMARK H PARENT 10 19 12 21 4 23 21 25 18 27
REMARK Flexibility Score: inf
ROOT
ATOM      1  C   UNL     1      -2.712 -22.743   8.821  1.00  0.00     0.180 A 
ATOM      2  C   UNL     1      -1.362 -22.431   8.572  1.00  0.00     0.208 A 
ATOM      3  C   UNL     1      -0.954 -21.089   8.627  1.00  0.00     0.238 A 
ATOM      4  O   UNL     1       0.255 -20.799   8.416  1.00  0.00    -0.285 OA
ATOM      5  C   UNL     1      -1.901 -20.084   8.909  1.00  0.00     0.111 A 
ATOM      6  C   UNL     1      -1.574 -18.708   8.979  1.00  0.00     0.134 A 
ATOM      7  C   UNL     1      -2.576 -17.767   9.255  1.00  0.00     0.093 A 
ATOM      8  C   UNL     1      -3.897 -18.173   9.462  1.00  0.00     0.123 A 
ATOM      9  C   UNL     1      -4.226 -19.531   9.395  1.00  0.00     0.094 A 
ATOM     10  C   UNL     1      -3.241 -20.484   9.122  1.00  0.00     0.146 A 
ATOM     11  O   UNL     1      -3.581 -21.767   9.069  1.00  0.00    -0.452 OA
ENDROOT
BRANCH   1  12
ATOM     12  C   UNL     1      -3.215 -24.136   8.800  1.00  0.00     0.025 A 
ATOM     13  C   UNL     1      -3.214 -24.889   9.985  1.00  0.00     0.016 A 
ATOM     14  C   UNL     1      -3.664 -26.211   9.984  1.00  0.00     0.051 A 
ATOM     15  C   UNL     1      -4.107 -26.806   8.795  1.00  0.00     0.157 A 
ATOM     16  C   UNL     1      -3.640 -24.743   7.604  1.00  0.00     0.062 A 
ATOM     17  C   UNL     1      -4.089 -26.068   7.599  1.00  0.00     0.158 A 
BRANCH  15  18
ATOM     18  O   UNL     1      -4.558 -28.125   8.796  1.00  0.00    -0.504 OA
ATOM     19  H   UNL     1      -4.742 -28.622   9.661  1.00  0.00     0.293 HD
ENDBRANCH  15  18
BRANCH  17  20
ATOM     20  O   UNL     1      -4.509 -26.637   6.396  1.00  0.00    -0.504 OA
ATOM     21  H   UNL     1      -4.797 -26.073   5.606  1.00  0.00     0.293 HD
ENDBRANCH  17  20
ENDBRANCH   1  12
BRANCH   2  22
ATOM     22  O   UNL     1      -0.453 -23.441   8.246  1.00  0.00    -0.502 OA
ATOM     23  H   UNL     1      -0.359 -24.287   8.795  1.00  0.00     0.293 HD
ENDBRANCH   2  22
BRANCH   6  24
ATOM     24  O   UNL     1      -0.264 -18.271   8.776  1.00  0.00    -0.507 OA
ATOM     25  H   UNL     1       0.009 -17.310   8.943  1.00  0.00     0.293 HD
ENDBRANCH   6  24
BRANCH   8  26
ATOM     26  O   UNL     1      -4.874 -17.218   9.734  1.00  0.00    -0.508 OA
ATOM     27  H   UNL     1      -5.721 -17.454  10.237  1.00  0.00     0.293 HD
ENDBRANCH   8  26
TORSDOF 6
ENDMDL
MODEL 6
REMARK VINA RESULT:    -4.676      2.241      7.481
REMARK INTER + INTRA:          -5.958
REMARK INTER:                  -5.689
REMARK INTRA:                  -0.269
REMARK UNBOUND:                -0.325
REMARK SMILES O=c1c(O)c(-c2ccc(O)c(O)c2)oc2cc(O)cc(O)c12
REMARK SMILES IDX 5 1 3 2 2 3 1 4 22 5 20 6 19 7 17 8 16 9 15 10 14 11 6 12
REMARK SMILES IDX 7 13 8 14 9 15 13 16 11 17 10 18 12 20 4 22 21 24 18 26
REMARK H PARENT 10 19 12 21 4 23 21 25 18 27
REMARK Flexibility Score: inf
ROOT
ATOM      1  C   UNL     1       1.216 -13.087   5.939  1.00  0.00     0.180 A 
ATOM      2  C   UNL     1       1.912 -11.981   5.415  1.00  0.00     0.208 A 
ATOM      3  C   UNL     1       1.208 -10.792   5.168  1.00  0.00     0.238 A 
ATOM      4  O   UNL     1       1.823  -9.791   4.708  1.00  0.00    -0.285 OA
ATOM      5  C   UNL     1      -0.176 -10.735   5.428  1.00  0.00     0.111 A 
ATOM      6  C   UNL     1      -0.960  -9.577   5.203  1.00  0.00     0.134 A 
ATOM      7  C   UNL     1      -2.334  -9.602   5.479  1.00  0.00     0.093 A 
ATOM      8  C   UNL     1      -2.941 -10.760   5.972  1.00  0.00     0.123 A 
ATOM      9  C   UNL     1      -2.172 -11.907   6.198  1.00  0.00     0.094 A 
ATOM     10  C   UNL     1      -0.800 -11.900   5.931  1.00  0.00     0.146 A 
ATOM     11  O   UNL     1      -0.093 -13.002   6.158  1.00  0.00    -0.452 OA
ENDROOT
BRANCH   1  12
ATOM     12  C   UNL     1       1.892 -14.369   6.243  1.00  0.00     0.025 A 
ATOM     13  C   UNL     1       2.228 -14.675   7.572  1.00  0.00     0.016 A 
ATOM     14  C   UNL     1       2.884 -15.868   7.879  1.00  0.00     0.051 A 
ATOM     15  C   UNL     1       3.230 -16.767   6.863  1.00  0.00     0.157 A 
ATOM     16  C   UNL     1       2.259 -15.264   5.222  1.00  0.00     0.062 A 
ATOM     17  C   UNL     1       2.919 -16.460   5.527  1.00  0.00     0.158 A 
BRANCH  15  18
ATOM     18  O   UNL     1       3.883 -17.960   7.172  1.00  0.00    -0.504 OA
ATOM     19  H   UNL     1       4.575 -18.362   6.549  1.00  0.00     0.293 HD
ENDBRANCH  15  18
BRANCH  17  20
ATOM     20  O   UNL     1       3.263 -17.327   4.490  1.00  0.00    -0.504 OA
ATOM     21  H   UNL     1       3.763 -18.193   4.655  1.00  0.00     0.293 HD
ENDBRANCH  17  20
ENDBRANCH   1  12
BRANCH   2  22
ATOM     22  O   UNL     1       3.274 -12.079   5.118  1.00  0.00    -0.502 OA
ATOM     23  H   UNL     1       3.627 -12.044   4.170  1.00  0.00     0.293 HD
ENDBRANCH   2  22
BRANCH   6  24
ATOM     24  O   UNL     1      -0.384  -8.405   4.710  1.00  0.00    -0.507 OA
ATOM     25  H   UNL     1      -0.140  -7.634   5.320  1.00  0.00     0.293 HD
ENDBRANCH   6  24
BRANCH   8  26
ATOM     26  O   UNL     1      -4.309 -10.759   6.237  1.00  0.00    -0.508 OA
ATOM     27  H   UNL     1      -4.983 -10.459   5.543  1.00  0.00     0.293 HD
ENDBRANCH   8  26
TORSDOF 6
ENDMDL
MODEL 7
REMARK VINA RESULT:    -4.630     11.864     13.987
REMARK INTER + INTRA:          -5.902
REMARK INTER:                  -5.572
REMARK INTRA:                  -0.330
REMARK UNBOUND:                -0.325
REMARK SMILES O=c1c(O)c(-c2ccc(O)c(O)c2)oc2cc(O)cc(O)c12
REMARK SMILES IDX 5 1 3 2 2 3 1 4 22 5 20 6 19 7 17 8 16 9 15 10 14 11 6 12
REMARK SMILES IDX 7 13 8 14 9 15 13 16 11 17 10 18 12 20 4 22 21 24 18 26
REMARK H PARENT 10 19 12 21 4 23 21 25 18 27
REMARK Flexibility Score: inf
ROOT
ATOM      1  C   UNL     1     -14.576 -12.585   3.087  1.00  0.00     0.180 A 
ATOM      2  C   UNL     1     -15.112 -13.480   2.142  1.00  0.00     0.208 A 
ATOM      3  C   UNL     1     -15.207 -13.076   0.801  1.00  0.00     0.238 A 
ATOM      4  O   UNL     1     -15.676 -13.873  -0.056  1.00  0.00    -0.285 OA
ATOM      5  C   UNL     1     -14.785 -11.782   0.433  1.00  0.00     0.111 A 
ATOM      6  C   UNL     1     -14.850 -11.295  -0.896  1.00  0.00     0.134 A 
ATOM      7  C   UNL     1     -14.419  -9.992  -1.181  1.00  0.00     0.093 A 
ATOM      8  C   UNL     1     -13.926  -9.166  -0.167  1.00  0.00     0.123 A 
ATOM      9  C   UNL     1     -13.858  -9.642   1.147  1.00  0.00     0.094 A 
ATOM     10  C   UNL     1     -14.281 -10.939   1.450  1.00  0.00     0.146 A 
ATOM     11  O   UNL     1     -14.202 -11.367   2.705  1.00  0.00    -0.452 OA
ENDROOT
BRANCH   1  12
ATOM     12  C   UNL     1     -14.427 -12.945   4.516  1.00  0.00     0.025 A 
ATOM     13  C   UNL     1     -15.406 -12.538   5.437  1.00  0.00     0.016 A 
ATOM     14  C   UNL     1     -15.275 -12.848   6.792  1.00  0.00     0.051 A 
ATOM     15  C   UNL     1     -14.156 -13.555   7.250  1.00  0.00     0.157 A 
ATOM     16  C   UNL     1     -13.294 -13.636   4.983  1.00  0.00     0.062 A 
ATOM     17  C   UNL     1     -13.159 -13.946   6.340  1.00  0.00     0.158 A 
BRANCH  15  18
ATOM     18  O   UNL     1     -14.028 -13.866   8.604  1.00  0.00    -0.504 OA
ATOM     19  H   UNL     1     -13.129 -14.097   9.012  1.00  0.00     0.293 HD
ENDBRANCH  15  18
BRANCH  17  20
ATOM     20  O   UNL     1     -12.025 -14.638   6.768  1.00  0.00    -0.504 OA
ATOM     21  H   UNL     1     -11.345 -15.011   6.117  1.00  0.00     0.293 HD
ENDBRANCH  17  20
ENDBRANCH   1  12
BRANCH   2  22
ATOM     22  O   UNL     1     -15.569 -14.739   2.542  1.00  0.00    -0.502 OA
ATOM     23  H   UNL     1     -15.616 -15.527   1.907  1.00  0.00     0.293 HD
ENDBRANCH   2  22
BRANCH   6  24
ATOM     24  O   UNL     1     -15.338 -12.095  -1.930  1.00  0.00    -0.507 OA
ATOM     25  H   UNL     1     -15.184 -11.860  -2.903  1.00  0.00     0.293 HD
ENDBRANCH   6  24
BRANCH   8  26
ATOM     26  O   UNL     1     -13.505  -7.875  -0.477  1.00  0.00    -0.508 OA
ATOM     27  H   UNL     1     -13.255  -7.612  -1.423  1.00  0.00     0.293 HD
ENDBRANCH   8  26
TORSDOF 6
ENDMDL
MODEL 8
REMARK VINA RESULT:    -4.606      1.593      6.970
REMARK INTER + INTRA:          -5.873
REMARK INTER:                  -5.635
REMARK INTRA:                  -0.238
REMARK UNBOUND:                -0.325
REMARK SMILES O=c1c(O)c(-c2ccc(O)c(O)c2)oc2cc(O)cc(O)c12
REMARK SMILES IDX 5 1 3 2 2 3 1 4 22 5 20 6 19 7 17 8 16 9 15 10 14 11 6 12
REMARK SMILES IDX 7 13 8 14 9 15 13 16 11 17 10 18 12 20 4 22 21 24 18 26
REMARK H PARENT 10 19 12 21 4 23 21 25 18 27
REMARK Flexibility Score: inf
ROOT
ATOM      1  C   UNL     1      -0.146 -11.856   5.942  1.00  0.00     0.180 A 
ATOM      2  C   UNL     1       0.013 -10.639   5.253  1.00  0.00     0.208 A 
ATOM      3  C   UNL     1      -1.049  -9.722   5.242  1.00  0.00     0.238 A 
ATOM      4  O   UNL     1      -0.915  -8.623   4.637  1.00  0.00    -0.285 OA
ATOM      5  C   UNL     1      -2.254 -10.043   5.899  1.00  0.00     0.111 A 
ATOM      6  C   UNL     1      -3.374  -9.177   5.932  1.00  0.00     0.134 A 
ATOM      7  C   UNL     1      -4.542  -9.574   6.599  1.00  0.00     0.093 A 
ATOM      8  C   UNL     1      -4.613 -10.817   7.232  1.00  0.00     0.123 A 
ATOM      9  C   UNL     1      -3.510 -11.677   7.204  1.00  0.00     0.094 A 
ATOM     10  C   UNL     1      -2.337 -11.299   6.546  1.00  0.00     0.146 A 
ATOM     11  O   UNL     1      -1.302 -12.132   6.539  1.00  0.00    -0.452 OA
ENDROOT
BRANCH   1  12
ATOM     12  C   UNL     1       0.935 -12.866   6.015  1.00  0.00     0.025 A 
ATOM     13  C   UNL     1       2.068 -12.609   6.805  1.00  0.00     0.016 A 
ATOM     14  C   UNL     1       3.109 -13.538   6.872  1.00  0.00     0.051 A 
ATOM     15  C   UNL     1       3.041 -14.729   6.139  1.00  0.00     0.157 A 
ATOM     16  C   UNL     1       0.881 -14.053   5.264  1.00  0.00     0.062 A 
ATOM     17  C   UNL     1       1.923 -14.985   5.327  1.00  0.00     0.158 A 
BRANCH  15  18
ATOM     18  O   UNL     1       4.080 -15.656   6.209  1.00  0.00    -0.504 OA
ATOM     19  H   UNL     1       4.461 -15.960   7.098  1.00  0.00     0.293 HD
ENDBRANCH  15  18
BRANCH  17  20
ATOM     20  O   UNL     1       1.833 -16.155   4.573  1.00  0.00    -0.504 OA
ATOM     21  H   UNL     1       2.135 -16.198   3.607  1.00  0.00     0.293 HD
ENDBRANCH  17  20
ENDBRANCH   1  12
BRANCH   2  22
ATOM     22  O   UNL     1       1.200 -10.365   4.568  1.00  0.00    -0.502 OA
ATOM     23  H   UNL     1       1.210  -9.987   3.628  1.00  0.00     0.293 HD
ENDBRANCH   2  22
BRANCH   6  24
ATOM     24  O   UNL     1      -3.335  -7.930   5.308  1.00  0.00    -0.507 OA
ATOM     25  H   UNL     1      -3.179  -7.076   5.832  1.00  0.00     0.293 HD
ENDBRANCH   6  24
BRANCH   8  26
ATOM     26  O   UNL     1      -5.785 -11.188   7.888  1.00  0.00    -0.508 OA
ATOM     27  H   UNL     1      -5.870 -12.081   8.358  1.00  0.00     0.293 HD
ENDBRANCH   8  26
TORSDOF 6
ENDMDL
MODEL 9
REMARK VINA RESULT:    -4.604     10.238     13.066
REMARK INTER + INTRA:          -5.870
REMARK INTER:                  -5.611
REMARK INTRA:                  -0.259
REMARK UNBOUND:                -0.325
REMARK SMILES O=c1c(O)c(-c2ccc(O)c(O)c2)oc2cc(O)cc(O)c12
REMARK SMILES IDX 5 1 3 2 2 3 1 4 22 5 20 6 19 7 17 8 16 9 15 10 14 11 6 12
REMARK SMILES IDX 7 13 8 14 9 15 13 16 11 17 10 18 12 20 4 22 21 24 18 26
REMARK H PARENT 10 19 12 21 4 23 21 25 18 27
REMARK Flexibility Score: inf
ROOT
ATOM      1  C   UNL     1     -14.126 -12.968   4.480  1.00  0.00     0.180 A 
ATOM      2  C   UNL     1     -15.067 -13.738   5.189  1.00  0.00     0.208 A 
ATOM      3  C   UNL     1     -14.908 -13.897   6.574  1.00  0.00     0.238 A 
ATOM      4  O   UNL     1     -15.750 -14.577   7.221  1.00  0.00    -0.285 OA
ATOM      5  C   UNL     1     -13.804 -13.305   7.221  1.00  0.00     0.111 A 
ATOM      6  C   UNL     1     -13.569 -13.421   8.613  1.00  0.00     0.134 A 
ATOM      7  C   UNL     1     -12.442 -12.809   9.181  1.00  0.00     0.093 A 
ATOM      8  C   UNL     1     -11.547 -12.086   8.389  1.00  0.00     0.123 A 
ATOM      9  C   UNL     1     -11.776 -11.967   7.013  1.00  0.00     0.094 A 
ATOM     10  C   UNL     1     -12.894 -12.568   6.429  1.00  0.00     0.146 A 
ATOM     11  O   UNL     1     -13.089 -12.435   5.121  1.00  0.00    -0.452 OA
ENDROOT
BRANCH   1  12
ATOM     12  C   UNL     1     -14.236 -12.738   3.021  1.00  0.00     0.025 A 
ATOM     13  C   UNL     1     -13.884 -13.765   2.131  1.00  0.00     0.016 A 
ATOM     14  C   UNL     1     -13.959 -13.564   0.751  1.00  0.00     0.051 A 
ATOM     15  C   UNL     1     -14.373 -12.327   0.239  1.00  0.00     0.157 A 
ATOM     16  C   UNL     1     -14.630 -11.491   2.504  1.00  0.00     0.062 A 
ATOM     17  C   UNL     1     -14.705 -11.284   1.122  1.00  0.00     0.158 A 
BRANCH  15  18
ATOM     18  O   UNL     1     -14.450 -12.128  -1.138  1.00  0.00    -0.504 OA
ATOM     19  H   UNL     1     -15.340 -11.995  -1.606  1.00  0.00     0.293 HD
ENDBRANCH  15  18
BRANCH  17  20
ATOM     20  O   UNL     1     -15.105 -10.037   0.643  1.00  0.00    -0.504 OA
ATOM     21  H   UNL     1     -14.994  -9.772  -0.328  1.00  0.00     0.293 HD
ENDBRANCH  17  20
ENDBRANCH   1  12
BRANCH   2  22
ATOM     22  O   UNL     1     -16.124 -14.356   4.516  1.00  0.00    -0.502 OA
ATOM     23  H   UNL     1     -16.097 -15.331   4.240  1.00  0.00     0.293 HD
ENDBRANCH   2  22
BRANCH   6  24
ATOM     24  O   UNL     1     -14.443 -14.137   9.432  1.00  0.00    -0.507 OA
ATOM     25  H   UNL     1     -14.112 -14.664  10.232  1.00  0.00     0.293 HD
ENDBRANCH   6  24
BRANCH   8  26
ATOM     26  O   UNL     1     -10.436 -11.488   8.978  1.00  0.00    -0.508 OA
ATOM     27  H   UNL     1     -10.427 -11.238   9.960  1.00  0.00     0.293 HD
ENDBRANCH   8  26
TORSDOF 6
ENDMDL
