MODEL 1
REMARK VINA RESULT:    -4.650      0.000      0.000
REMARK INTER + INTRA:          -7.658
REMARK INTER:                  -7.097
REMARK INTRA:                  -0.562
REMARK UNBOUND:                -0.562
REMARK SMILES O=C([O-])CCCCCCCCC(=O)[O-]
REMARK SMILES IDX 7 1 6 2 5 3 4 4 2 5 1 6 3 7 8 8 9 9 10 10 11 11 12 12 13 13
REMARK SMILES IDX 14 14
REMARK H PARENT
REMARK Flexibility Score: inf
ROOT
ATOM      1  C   UNL     1      21.622   7.348  12.021  1.00  0.00     0.000 C 
ENDROOT
BRANCH   1   2
ATOM      2  C   UNL     1      22.737   7.865  12.942  1.00  0.00     0.000 C 
BRANCH   2   3
ATOM      3  C   UNL     1      24.057   8.019  12.171  1.00  0.00     0.006 C 
BRANCH   3   4
ATOM      4  C   UNL     1      24.123   9.337  11.389  1.00  0.00     0.053 C 
BRANCH   4   5
ATOM      5  C   UNL     1      23.912   9.123   9.922  1.00  0.00     0.041 C 
ATOM      6  O   UNL     1      24.653   8.332   9.283  1.00  0.00    -0.550 OA
ATOM      7  O   UNL     1      22.873   9.773   9.267  1.00  0.00    -0.550 OA
ENDBRANCH   4   5
ENDBRANCH   3   4
ENDBRANCH   2   3
ENDBRANCH   1   2
BRANCH   1   8
ATOM      8  C   UNL     1      20.553   8.413  11.725  1.00  0.00     0.000 C 
BRANCH   8   9
ATOM      9  C   UNL     1      19.293   7.819  11.071  1.00  0.00     0.000 C 
BRANCH   9  10
ATOM     10  C   UNL     1      19.331   6.283  11.008  1.00  0.00     0.006 C 
BRANCH  10  11
ATOM     11  C   UNL     1      19.149   5.744   9.584  1.00  0.00     0.053 C 
BRANCH  11  12
ATOM     12  C   UNL     1      19.819   6.645   8.595  1.00  0.00     0.041 C 
ATOM     13  O   UNL     1      21.072   6.770   8.599  1.00  0.00    -0.550 OA
ATOM     14  O   UNL     1      19.065   7.309   7.636  1.00  0.00    -0.550 OA
ENDBRANCH  11  12
ENDBRANCH  10  11
ENDBRANCH   9  10
ENDBRANCH   8   9
ENDBRANCH   1   8
TORSDOF 9
ENDMDL
MODEL 2
REMARK VINA RESULT:    -4.650      0.129      4.605
REMARK INTER + INTRA:          -7.658
REMARK INTER:                  -7.102
REMARK INTRA:                  -0.556
REMARK UNBOUND:                -0.562
REMARK SMILES O=C([O-])CCCCCCCCC(=O)[O-]
REMARK SMILES IDX 7 1 6 2 5 3 4 4 2 5 1 6 3 7 8 8 9 9 10 10 11 11 12 12 13 13
REMARK SMILES IDX 14 14
REMARK H PARENT
REMARK Flexibility Score: inf
ROOT
ATOM      1  C   UNL     1      20.437   8.390  11.757  1.00  0.00     0.000 C 
ENDROOT
BRANCH   1   2
ATOM      2  C   UNL     1      19.216   7.781  11.053  1.00  0.00     0.000 C 
BRANCH   2   3
ATOM      3  C   UNL     1      19.366   6.258  10.914  1.00  0.00     0.006 C 
BRANCH   3   4
ATOM      4  C   UNL     1      19.179   5.786   9.466  1.00  0.00     0.053 C 
BRANCH   4   5
ATOM      5  C   UNL     1      19.835   6.713   8.491  1.00  0.00     0.041 C 
ATOM      6  O   UNL     1      21.083   6.873   8.507  1.00  0.00    -0.550 OA
ATOM      7  O   UNL     1      19.069   7.377   7.540  1.00  0.00    -0.550 OA
ENDBRANCH   4   5
ENDBRANCH   3   4
ENDBRANCH   2   3
ENDBRANCH   1   2
BRANCH   1   8
ATOM      8  C   UNL     1      21.623   7.415  11.845  1.00  0.00     0.000 C 
BRANCH   8   9
ATOM      9  C   UNL     1      22.686   7.869  12.860  1.00  0.00     0.000 C 
BRANCH   9  10
ATOM     10  C   UNL     1      24.037   8.185  12.197  1.00  0.00     0.006 C 
BRANCH  10  11
ATOM     11  C   UNL     1      24.003   9.477  11.371  1.00  0.00     0.053 C 
BRANCH  11  12
ATOM     12  C   UNL     1      23.874   9.162   9.913  1.00  0.00     0.041 C 
ATOM     13  O   UNL     1      24.682   8.368   9.363  1.00  0.00    -0.550 OA
ATOM     14  O   UNL     1      22.831   9.705   9.174  1.00  0.00    -0.550 OA
ENDBRANCH  11  12
ENDBRANCH  10  11
ENDBRANCH   9  10
ENDBRANCH   8   9
ENDBRANCH   1   8
TORSDOF 9
ENDMDL
MODEL 3
REMARK VINA RESULT:    -4.549      0.925      4.598
REMARK INTER + INTRA:          -7.504
REMARK INTER:                  -6.758
REMARK INTRA:                  -0.746
REMARK UNBOUND:                -0.562
REMARK SMILES O=C([O-])CCCCCCCCC(=O)[O-]
REMARK SMILES IDX 7 1 6 2 5 3 4 4 2 5 1 6 3 7 8 8 9 9 10 10 11 11 12 12 13 13
REMARK SMILES IDX 14 14
REMARK H PARENT
REMARK Flexibility Score: inf
ROOT
ATOM      1  C   UNL     1      21.831   7.207  11.765  1.00  0.00     0.000 C 
ENDROOT
BRANCH   1   2
ATOM      2  C   UNL     1      20.770   8.317  11.770  1.00  0.00     0.000 C 
BRANCH   2   3
ATOM      3  C   UNL     1      19.566   7.929  10.897  1.00  0.00     0.006 C 
BRANCH   3   4
ATOM      4  C   UNL     1      19.636   8.557   9.499  1.00  0.00     0.053 C 
BRANCH   4   5
ATOM      5  C   UNL     1      19.850   7.523   8.437  1.00  0.00     0.041 C 
ATOM      6  O   UNL     1      20.633   6.558   8.638  1.00  0.00    -0.550 OA
ATOM      7  O   UNL     1      19.157   7.608   7.235  1.00  0.00    -0.550 OA
ENDBRANCH   4   5
ENDBRANCH   3   4
ENDBRANCH   2   3
ENDBRANCH   1   2
BRANCH   1   8
ATOM      8  C   UNL     1      22.827   7.329  12.931  1.00  0.00     0.000 C 
BRANCH   8   9
ATOM      9  C   UNL     1      23.295   8.778  13.157  1.00  0.00     0.000 C 
BRANCH   9  10
ATOM     10  C   UNL     1      24.581   9.109  12.382  1.00  0.00     0.006 C 
BRANCH  10  11
ATOM     11  C   UNL     1      24.335  10.062  11.205  1.00  0.00     0.053 C 
BRANCH  11  12
ATOM     12  C   UNL     1      24.022   9.287   9.963  1.00  0.00     0.041 C 
ATOM     13  O   UNL     1      24.714   8.282   9.652  1.00  0.00    -0.550 OA
ATOM     14  O   UNL     1      22.934   9.644   9.176  1.00  0.00    -0.550 OA
ENDBRANCH  11  12
ENDBRANCH  10  11
ENDBRANCH   9  10
ENDBRANCH   8   9
ENDBRANCH   1   8
TORSDOF 9
ENDMDL
MODEL 4
REMARK VINA RESULT:    -4.547      1.203      1.946
REMARK INTER + INTRA:          -7.502
REMARK INTER:                  -6.916
REMARK INTRA:                  -0.586
REMARK UNBOUND:                -0.562
REMARK SMILES O=C([O-])CCCCCCCCC(=O)[O-]
REMARK SMILES IDX 7 1 6 2 5 3 4 4 2 5 1 6 3 7 8 8 9 9 10 10 11 11 12 12 13 13
REMARK SMILES IDX 14 14
REMARK H PARENT
REMARK Flexibility Score: inf
ROOT
ATOM      1  C   UNL     1      20.652   8.158  11.512  1.00  0.00     0.000 C 
ENDROOT
BRANCH   1   2
ATOM      2  C   UNL     1      21.651   7.169  12.131  1.00  0.00     0.000 C 
BRANCH   2   3
ATOM      3  C   UNL     1      23.096   7.646  11.921  1.00  0.00     0.006 C 
BRANCH   3   4
ATOM      4  C   UNL     1      23.373   8.041  10.465  1.00  0.00     0.053 C 
BRANCH   4   5
ATOM      5  C   UNL     1      23.590   9.516  10.321  1.00  0.00     0.041 C 
ATOM      6  O   UNL     1      22.811  10.206   9.613  1.00  0.00    -0.550 OA
ATOM      7  O   UNL     1      24.635  10.133  10.998  1.00  0.00    -0.550 OA
ENDBRANCH   4   5
ENDBRANCH   3   4
ENDBRANCH   2   3
ENDBRANCH   1   2
BRANCH   1   8
ATOM      8  C   UNL     1      19.273   7.528  11.252  1.00  0.00     0.000 C 
BRANCH   8   9
ATOM      9  C   UNL     1      19.374   6.127  10.625  1.00  0.00     0.000 C 
BRANCH   9  10
ATOM     10  C   UNL     1      20.053   6.147   9.245  1.00  0.00     0.006 C 
BRANCH  10  11
ATOM     11  C   UNL     1      19.105   6.586   8.123  1.00  0.00     0.053 C 
BRANCH  11  12
ATOM     12  C   UNL     1      19.514   7.922   7.587  1.00  0.00     0.041 C 
ATOM     13  O   UNL     1      18.755   8.549   6.802  1.00  0.00    -0.550 OA
ATOM     14  O   UNL     1      20.712   8.497   7.992  1.00  0.00    -0.550 OA
ENDBRANCH  11  12
ENDBRANCH  10  11
ENDBRANCH   9  10
ENDBRANCH   8   9
ENDBRANCH   1   8
TORSDOF 9
ENDMDL
MODEL 5
REMARK VINA RESULT:    -4.540      0.996      1.484
REMARK INTER + INTRA:          -7.491
REMARK INTER:                  -6.686
REMARK INTRA:                  -0.804
REMARK UNBOUND:                -0.562
REMARK SMILES O=C([O-])CCCCCCCCC(=O)[O-]
REMARK SMILES IDX 7 1 6 2 5 3 4 4 2 5 1 6 3 7 8 8 9 9 10 10 11 11 12 12 13 13
REMARK SMILES IDX 14 14
REMARK H PARENT
REMARK Flexibility Score: inf
ROOT
ATOM      1  C   UNL     1      22.764   7.257  12.803  1.00  0.00     0.000 C 
ENDROOT
BRANCH   1   2
ATOM      2  C   UNL     1      23.175   8.715  13.058  1.00  0.00     0.000 C 
BRANCH   2   3
ATOM      3  C   UNL     1      24.421   9.085  12.240  1.00  0.00     0.006 C 
BRANCH   3   4
ATOM      4  C   UNL     1      24.087  10.000  11.054  1.00  0.00     0.053 C 
BRANCH   4   5
ATOM      5  C   UNL     1      23.849   9.218   9.800  1.00  0.00     0.041 C 
ATOM      6  O   UNL     1      24.483   8.152   9.586  1.00  0.00    -0.550 OA
ATOM      7  O   UNL     1      22.901   9.651   8.880  1.00  0.00    -0.550 OA
ENDBRANCH   4   5
ENDBRANCH   3   4
ENDBRANCH   2   3
ENDBRANCH   1   2
BRANCH   1   8
ATOM      8  C   UNL     1      21.650   7.128  11.750  1.00  0.00     0.000 C 
BRANCH   8   9
ATOM      9  C   UNL     1      20.692   8.332  11.754  1.00  0.00     0.000 C 
BRANCH   9  10
ATOM     10  C   UNL     1      19.467   8.113  10.851  1.00  0.00     0.006 C 
BRANCH  10  11
ATOM     11  C   UNL     1      19.770   8.366   9.369  1.00  0.00     0.053 C 
BRANCH  11  12
ATOM     12  C   UNL     1      19.486   7.139   8.561  1.00  0.00     0.041 C 
ATOM     13  O   UNL     1      19.380   7.215   7.309  1.00  0.00    -0.550 OA
ATOM     14  O   UNL     1      19.388   5.902   9.186  1.00  0.00    -0.550 OA
ENDBRANCH  11  12
ENDBRANCH  10  11
ENDBRANCH   9  10
ENDBRANCH   8   9
ENDBRANCH   1   8
TORSDOF 9
ENDMDL
MODEL 6
REMARK VINA RESULT:    -4.409      1.177      4.694
REMARK INTER + INTRA:          -7.291
REMARK INTER:                  -6.664
REMARK INTRA:                  -0.627
REMARK UNBOUND:                -0.562
REMARK SMILES O=C([O-])CCCCCCCCC(=O)[O-]
REMARK SMILES IDX 7 1 6 2 5 3 4 4 2 5 1 6 3 7 8 8 9 9 10 10 11 11 12 12 13 13
REMARK SMILES IDX 14 14
REMARK H PARENT
REMARK Flexibility Score: inf
ROOT
ATOM      1  C   UNL     1      19.188   7.250  11.372  1.00  0.00     0.000 C 
ENDROOT
BRANCH   1   2
ATOM      2  C   UNL     1      19.368   5.927  10.613  1.00  0.00     0.000 C 
BRANCH   2   3
ATOM      3  C   UNL     1      20.068   6.159   9.266  1.00  0.00     0.006 C 
BRANCH   3   4
ATOM      4  C   UNL     1      19.101   6.663   8.187  1.00  0.00     0.053 C 
BRANCH   4   5
ATOM      5  C   UNL     1      19.642   7.863   7.473  1.00  0.00     0.041 C 
ATOM      6  O   UNL     1      19.008   8.367   6.509  1.00  0.00    -0.550 OA
ATOM      7  O   UNL     1      20.831   8.446   7.896  1.00  0.00    -0.550 OA
ENDBRANCH   4   5
ENDBRANCH   3   4
ENDBRANCH   2   3
ENDBRANCH   1   2
BRANCH   1   8
ATOM      8  C   UNL     1      20.343   8.236  11.133  1.00  0.00     0.000 C 
BRANCH   8   9
ATOM      9  C   UNL     1      21.400   8.188  12.251  1.00  0.00     0.000 C 
BRANCH   9  10
ATOM     10  C   UNL     1      22.566   7.242  11.919  1.00  0.00     0.006 C 
BRANCH  10  11
ATOM     11  C   UNL     1      23.926   7.952  11.927  1.00  0.00     0.053 C 
BRANCH  11  12
ATOM     12  C   UNL     1      24.025   8.903  10.775  1.00  0.00     0.041 C 
ATOM     13  O   UNL     1      23.852   8.491   9.598  1.00  0.00    -0.550 OA
ATOM     14  O   UNL     1      24.259  10.252  11.005  1.00  0.00    -0.550 OA
ENDBRANCH  11  12
ENDBRANCH  10  11
ENDBRANCH   9  10
ENDBRANCH   8   9
ENDBRANCH   1   8
TORSDOF 9
ENDMDL
MODEL 7
REMARK VINA RESULT:    -4.331      1.223      1.369
REMARK INTER + INTRA:          -7.172
REMARK INTER:                  -6.730
REMARK INTRA:                  -0.441
REMARK UNBOUND:                -0.562
REMARK SMILES O=C([O-])CCCCCCCCC(=O)[O-]
REMARK SMILES IDX 7 1 6 2 5 3 4 4 2 5 1 6 3 7 8 8 9 9 10 10 11 11 12 12 13 13
REMARK SMILES IDX 14 14
REMARK H PARENT
REMARK Flexibility Score: inf
ROOT
ATOM      1  C   UNL     1      21.748   7.191  12.014  1.00  0.00     0.000 C 
ENDROOT
BRANCH   1   2
ATOM      2  C   UNL     1      22.997   7.606  12.805  1.00  0.00     0.000 C 
BRANCH   2   3
ATOM      3  C   UNL     1      24.233   7.656  11.893  1.00  0.00     0.006 C 
BRANCH   3   4
ATOM      4  C   UNL     1      25.152   8.839  12.224  1.00  0.00     0.053 C 
BRANCH   4   5
ATOM      5  C   UNL     1      24.769  10.070  11.463  1.00  0.00     0.041 C 
ATOM      6  O   UNL     1      23.925  10.003  10.531  1.00  0.00    -0.550 OA
ATOM      7  O   UNL     1      25.321  11.298  11.805  1.00  0.00    -0.550 OA
ENDBRANCH   4   5
ENDBRANCH   3   4
ENDBRANCH   2   3
ENDBRANCH   1   2
BRANCH   1   8
ATOM      8  C   UNL     1      20.779   8.360  11.773  1.00  0.00     0.000 C 
BRANCH   8   9
ATOM      9  C   UNL     1      19.480   7.916  11.079  1.00  0.00     0.000 C 
BRANCH   9  10
ATOM     10  C   UNL     1      19.325   6.387  11.041  1.00  0.00     0.006 C 
BRANCH  10  11
ATOM     11  C   UNL     1      19.061   5.853   9.628  1.00  0.00     0.053 C 
BRANCH  11  12
ATOM     12  C   UNL     1      19.781   6.683   8.613  1.00  0.00     0.041 C 
ATOM     13  O   UNL     1      21.040   6.717   8.600  1.00  0.00    -0.550 OA
ATOM     14  O   UNL     1      19.064   7.380   7.649  1.00  0.00    -0.550 OA
ENDBRANCH  11  12
ENDBRANCH  10  11
ENDBRANCH   9  10
ENDBRANCH   8   9
ENDBRANCH   1   8
TORSDOF 9
ENDMDL
MODEL 8
REMARK VINA RESULT:    -4.180      2.527      5.398
REMARK INTER + INTRA:          -6.941
REMARK INTER:                  -6.384
REMARK INTRA:                  -0.557
REMARK UNBOUND:                -0.562
REMARK SMILES O=C([O-])CCCCCCCCC(=O)[O-]
REMARK SMILES IDX 7 1 6 2 5 3 4 4 2 5 1 6 3 7 8 8 9 9 10 10 11 11 12 12 13 13
REMARK SMILES IDX 14 14
REMARK H PARENT
REMARK Flexibility Score: inf
ROOT
ATOM      1  C   UNL     1      21.552   8.608   9.565  1.00  0.00     0.000 C 
ENDROOT
BRANCH   1   2
ATOM      2  C   UNL     1      20.831   8.299   8.245  1.00  0.00     0.000 C 
BRANCH   2   3
ATOM      3  C   UNL     1      19.558   7.475   8.495  1.00  0.00     0.006 C 
BRANCH   3   4
ATOM      4  C   UNL     1      19.805   6.300   9.451  1.00  0.00     0.053 C 
BRANCH   4   5
ATOM      5  C   UNL     1      18.983   6.416  10.697  1.00  0.00     0.041 C 
ATOM      6  O   UNL     1      18.526   5.383  11.254  1.00  0.00    -0.550 OA
ATOM      7  O   UNL     1      18.751   7.664  11.263  1.00  0.00    -0.550 OA
ENDBRANCH   4   5
ENDBRANCH   3   4
ENDBRANCH   2   3
ENDBRANCH   1   2
BRANCH   1   8
ATOM      8  C   UNL     1      22.695   9.623   9.396  1.00  0.00     0.000 C 
BRANCH   8   9
ATOM      9  C   UNL     1      24.024   9.118   9.982  1.00  0.00     0.000 C 
BRANCH   9  10
ATOM     10  C   UNL     1      23.967   7.634  10.382  1.00  0.00     0.006 C 
BRANCH  10  11
ATOM     11  C   UNL     1      24.497   7.381  11.798  1.00  0.00     0.053 C 
BRANCH  11  12
ATOM     12  C   UNL     1      23.400   6.879  12.684  1.00  0.00     0.041 C 
ATOM     13  O   UNL     1      22.360   7.567  12.856  1.00  0.00    -0.550 OA
ATOM     14  O   UNL     1      23.505   5.628  13.280  1.00  0.00    -0.550 OA
ENDBRANCH  11  12
ENDBRANCH  10  11
ENDBRANCH   9  10
ENDBRANCH   8   9
ENDBRANCH   1   8
TORSDOF 9
ENDMDL
MODEL 9
REMARK VINA RESULT:    -4.173      2.615      3.237
REMARK INTER + INTRA:          -6.930
REMARK INTER:                  -6.577
REMARK INTRA:                  -0.353
REMARK UNBOUND:                -0.562
REMARK SMILES O=C([O-])CCCCCCCCC(=O)[O-]
REMARK SMILES IDX 7 1 6 2 5 3 4 4 2 5 1 6 3 7 8 8 9 9 10 10 11 11 12 12 13 13
REMARK SMILES IDX 14 14
REMARK H PARENT
REMARK Flexibility Score: inf
ROOT
ATOM      1  C   UNL     1      21.714   7.320  11.852  1.00  0.00     0.000 C 
ENDROOT
BRANCH   1   2
ATOM      2  C   UNL     1      22.938   7.818  12.633  1.00  0.00     0.000 C 
BRANCH   2   3
ATOM      3  C   UNL     1      24.158   6.920  12.372  1.00  0.00     0.006 C 
BRANCH   3   4
ATOM      4  C   UNL     1      24.710   6.301  13.663  1.00  0.00     0.053 C 
BRANCH   4   5
ATOM      5  C   UNL     1      24.574   4.810  13.666  1.00  0.00     0.041 C 
ATOM      6  O   UNL     1      23.435   4.276  13.701  1.00  0.00    -0.550 OA
ATOM      7  O   UNL     1      25.708   4.009  13.596  1.00  0.00    -0.550 OA
ENDBRANCH   4   5
ENDBRANCH   3   4
ENDBRANCH   2   3
ENDBRANCH   1   2
BRANCH   1   8
ATOM      8  C   UNL     1      20.598   8.374  11.757  1.00  0.00     0.000 C 
BRANCH   8   9
ATOM      9  C   UNL     1      19.354   7.852  11.018  1.00  0.00     0.000 C 
BRANCH   9  10
ATOM     10  C   UNL     1      19.293   6.315  10.979  1.00  0.00     0.006 C 
BRANCH  10  11
ATOM     11  C   UNL     1      19.108   5.765   9.560  1.00  0.00     0.053 C 
BRANCH  11  12
ATOM     12  C   UNL     1      19.802   6.642   8.565  1.00  0.00     0.041 C 
ATOM     13  O   UNL     1      21.057   6.745   8.578  1.00  0.00    -0.550 OA
ATOM     14  O   UNL     1      19.067   7.307   7.592  1.00  0.00    -0.550 OA
ENDBRANCH  11  12
ENDBRANCH  10  11
ENDBRANCH   9  10
ENDBRANCH   8   9
ENDBRANCH   1   8
TORSDOF 9
ENDMDL
