MODEL 1
REMARK VINA RESULT:    -3.382      0.000      0.000
REMARK INTER + INTRA:          -5.507
REMARK INTER:                  -4.766
REMARK INTRA:                  -0.741
REMARK UNBOUND:                -0.741
REMARK SMILES CCCCCCCCC(=O)[O-]
REMARK SMILES IDX 6 1 7 2 8 3 9 4 10 5 11 6 5 7 4 8 3 9 2 10 1 11
REMARK H PARENT
REMARK Flexibility Score: inf
ROOT
ATOM      1  C   UNL     1     -17.144  22.796  34.326  1.00  0.00     0.000 C 
ENDROOT
BRANCH   1   2
ATOM      2  C   UNL     1     -15.836  22.144  33.851  1.00  0.00     0.006 C 
BRANCH   2   3
ATOM      3  C   UNL     1     -14.600  22.990  34.183  1.00  0.00     0.053 C 
BRANCH   3   4
ATOM      4  C   UNL     1     -13.725  22.273  35.163  1.00  0.00     0.041 C 
ATOM      5  O   UNL     1     -12.532  22.002  34.866  1.00  0.00    -0.550 OA
ATOM      6  O   UNL     1     -14.211  21.950  36.423  1.00  0.00    -0.550 OA
ENDBRANCH   3   4
ENDBRANCH   2   3
ENDBRANCH   1   2
BRANCH   1   7
ATOM      7  C   UNL     1     -16.905  24.076  35.141  1.00  0.00     0.000 C 
BRANCH   7   8
ATOM      8  C   UNL     1     -17.790  25.222  34.635  1.00  0.00    -0.000 C 
BRANCH   8   9
ATOM      9  C   UNL     1     -16.958  26.270  33.886  1.00  0.00    -0.000 C 
BRANCH   9  10
ATOM     10  C   UNL     1     -17.221  26.203  32.377  1.00  0.00    -0.003 C 
ATOM     11  C   UNL     1     -16.151  25.377  31.668  1.00  0.00     0.004 C 
ENDBRANCH   9  10
ENDBRANCH   8   9
ENDBRANCH   7   8
ENDBRANCH   1   7
TORSDOF 7
ENDMDL
MODEL 2
REMARK VINA RESULT:    -3.341      2.998      4.734
REMARK INTER + INTRA:          -5.449
REMARK INTER:                  -4.924
REMARK INTRA:                  -0.525
REMARK UNBOUND:                -0.741
REMARK SMILES CCCCCCCCC(=O)[O-]
REMARK SMILES IDX 6 1 7 2 8 3 9 4 10 5 11 6 5 7 4 8 3 9 2 10 1 11
REMARK H PARENT
REMARK Flexibility Score: inf
ROOT
ATOM      1  C   UNL     1     -17.097  24.285  35.607  1.00  0.00     0.000 C 
ENDROOT
BRANCH   1   2
ATOM      2  C   UNL     1     -17.486  24.670  34.171  1.00  0.00     0.006 C 
BRANCH   2   3
ATOM      3  C   UNL     1     -17.007  26.076  33.786  1.00  0.00     0.053 C 
BRANCH   3   4
ATOM      4  C   UNL     1     -16.746  26.154  32.315  1.00  0.00     0.041 C 
ATOM      5  O   UNL     1     -16.302  25.151  31.696  1.00  0.00    -0.550 OA
ATOM      6  O   UNL     1     -17.042  27.317  31.616  1.00  0.00    -0.550 OA
ENDBRANCH   3   4
ENDBRANCH   2   3
ENDBRANCH   1   2
BRANCH   1   7
ATOM      7  C   UNL     1     -16.354  22.941  35.678  1.00  0.00     0.000 C 
BRANCH   7   8
ATOM      8  C   UNL     1     -16.448  22.192  34.343  1.00  0.00    -0.000 C 
BRANCH   8   9
ATOM      9  C   UNL     1     -15.054  21.826  33.819  1.00  0.00    -0.000 C 
BRANCH   9  10
ATOM     10  C   UNL     1     -14.030  22.909  34.178  1.00  0.00    -0.003 C 
ATOM     11  C   UNL     1     -12.842  22.315  34.930  1.00  0.00     0.004 C 
ENDBRANCH   9  10
ENDBRANCH   8   9
ENDBRANCH   7   8
ENDBRANCH   1   7
TORSDOF 7
ENDMDL
MODEL 3
REMARK VINA RESULT:    -3.163      3.339      4.975
REMARK INTER + INTRA:          -5.198
REMARK INTER:                  -4.756
REMARK INTRA:                  -0.441
REMARK UNBOUND:                -0.741
REMARK SMILES CCCCCCCCC(=O)[O-]
REMARK SMILES IDX 6 1 7 2 8 3 9 4 10 5 11 6 5 7 4 8 3 9 2 10 1 11
REMARK H PARENT
REMARK Flexibility Score: inf
ROOT
ATOM      1  C   UNL     1     -17.460  23.111  32.924  1.00  0.00     0.000 C 
ENDROOT
BRANCH   1   2
ATOM      2  C   UNL     1     -17.444  24.597  33.316  1.00  0.00     0.006 C 
BRANCH   2   3
ATOM      3  C   UNL     1     -16.721  25.473  32.284  1.00  0.00     0.053 C 
BRANCH   3   4
ATOM      4  C   UNL     1     -16.991  26.921  32.548  1.00  0.00     0.041 C 
ATOM      5  O   UNL     1     -16.888  27.382  33.715  1.00  0.00    -0.550 OA
ATOM      6  O   UNL     1     -17.307  27.772  31.497  1.00  0.00    -0.550 OA
ENDBRANCH   3   4
ENDBRANCH   2   3
ENDBRANCH   1   2
BRANCH   1   7
ATOM      7  C   UNL     1     -17.086  22.186  34.093  1.00  0.00     0.000 C 
BRANCH   7   8
ATOM      8  C   UNL     1     -16.548  22.994  35.280  1.00  0.00    -0.000 C 
BRANCH   8   9
ATOM      9  C   UNL     1     -15.140  22.527  35.670  1.00  0.00    -0.000 C 
BRANCH   9  10
ATOM     10  C   UNL     1     -14.195  22.567  34.464  1.00  0.00    -0.003 C 
ATOM     11  C   UNL     1     -12.782  22.145  34.857  1.00  0.00     0.004 C 
ENDBRANCH   9  10
ENDBRANCH   8   9
ENDBRANCH   7   8
ENDBRANCH   1   7
TORSDOF 7
ENDMDL
MODEL 4
REMARK VINA RESULT:    -3.025     15.966     17.302
REMARK INTER + INTRA:          -5.003
REMARK INTER:                  -4.539
REMARK INTRA:                  -0.464
REMARK UNBOUND:                -0.741
REMARK SMILES CCCCCCCCC(=O)[O-]
REMARK SMILES IDX 6 1 7 2 8 3 9 4 10 5 11 6 5 7 4 8 3 9 2 10 1 11
REMARK H PARENT
REMARK Flexibility Score: inf
ROOT
ATOM      1  C   UNL     1      -2.031  26.678  24.199  1.00  0.00     0.000 C 
ENDROOT
BRANCH   1   2
ATOM      2  C   UNL     1      -0.583  26.174  24.101  1.00  0.00     0.006 C 
BRANCH   2   3
ATOM      3  C   UNL     1      -0.473  24.654  24.278  1.00  0.00     0.053 C 
BRANCH   3   4
ATOM      4  C   UNL     1       0.412  24.068  23.224  1.00  0.00     0.041 C 
ATOM      5  O   UNL     1       0.088  22.995  22.649  1.00  0.00    -0.550 OA
ATOM      6  O   UNL     1       1.569  24.732  22.839  1.00  0.00    -0.550 OA
ENDBRANCH   3   4
ENDBRANCH   2   3
ENDBRANCH   1   2
BRANCH   1   7
ATOM      7  C   UNL     1      -2.345  27.312  25.564  1.00  0.00     0.000 C 
BRANCH   7   8
ATOM      8  C   UNL     1      -3.445  26.528  26.292  1.00  0.00    -0.000 C 
BRANCH   8   9
ATOM      9  C   UNL     1      -3.928  25.344  25.447  1.00  0.00    -0.000 C 
BRANCH   9  10
ATOM     10  C   UNL     1      -3.877  24.039  26.251  1.00  0.00    -0.003 C 
ATOM     11  C   UNL     1      -5.237  23.346  26.262  1.00  0.00     0.004 C 
ENDBRANCH   9  10
ENDBRANCH   8   9
ENDBRANCH   7   8
ENDBRANCH   1   7
TORSDOF 7
ENDMDL
MODEL 5
REMARK VINA RESULT:    -2.893     11.920     13.364
REMARK INTER + INTRA:          -4.818
REMARK INTER:                  -4.583
REMARK INTRA:                  -0.235
REMARK UNBOUND:                -0.741
REMARK SMILES CCCCCCCCC(=O)[O-]
REMARK SMILES IDX 6 1 7 2 8 3 9 4 10 5 11 6 5 7 4 8 3 9 2 10 1 11
REMARK H PARENT
REMARK Flexibility Score: inf
ROOT
ATOM      1  C   UNL     1      -6.969  22.599  26.609  1.00  0.00     0.000 C 
ENDROOT
BRANCH   1   2
ATOM      2  C   UNL     1      -8.458  22.958  26.489  1.00  0.00     0.006 C 
BRANCH   2   3
ATOM      3  C   UNL     1      -8.791  23.662  25.168  1.00  0.00     0.053 C 
BRANCH   3   4
ATOM      4  C   UNL     1      -9.886  22.937  24.450  1.00  0.00     0.041 C 
ATOM      5  O   UNL     1     -10.256  21.800  24.844  1.00  0.00    -0.550 OA
ATOM      6  O   UNL     1     -10.532  23.537  23.377  1.00  0.00    -0.550 OA
ENDBRANCH   3   4
ENDBRANCH   2   3
ENDBRANCH   1   2
BRANCH   1   7
ATOM      7  C   UNL     1      -6.056  23.627  25.923  1.00  0.00     0.000 C 
BRANCH   7   8
ATOM      8  C   UNL     1      -4.645  23.594  26.524  1.00  0.00    -0.000 C 
BRANCH   8   9
ATOM      9  C   UNL     1      -3.634  24.271  25.591  1.00  0.00    -0.000 C 
BRANCH   9  10
ATOM     10  C   UNL     1      -3.618  25.789  25.807  1.00  0.00    -0.003 C 
ATOM     11  C   UNL     1      -2.482  26.444  25.026  1.00  0.00     0.004 C 
ENDBRANCH   9  10
ENDBRANCH   8   9
ENDBRANCH   7   8
ENDBRANCH   1   7
TORSDOF 7
ENDMDL
MODEL 6
REMARK VINA RESULT:    -2.839     15.222     16.609
REMARK INTER + INTRA:          -4.741
REMARK INTER:                  -4.141
REMARK INTRA:                  -0.601
REMARK UNBOUND:                -0.741
REMARK SMILES CCCCCCCCC(=O)[O-]
REMARK SMILES IDX 6 1 7 2 8 3 9 4 10 5 11 6 5 7 4 8 3 9 2 10 1 11
REMARK H PARENT
REMARK Flexibility Score: inf
ROOT
ATOM      1  C   UNL     1      -2.707  27.346  25.243  1.00  0.00     0.000 C 
ENDROOT
BRANCH   1   2
ATOM      2  C   UNL     1      -3.533  26.390  26.118  1.00  0.00     0.006 C 
BRANCH   2   3
ATOM      3  C   UNL     1      -3.563  24.960  25.564  1.00  0.00     0.053 C 
BRANCH   3   4
ATOM      4  C   UNL     1      -4.247  24.041  26.527  1.00  0.00     0.041 C 
ATOM      5  O   UNL     1      -3.895  24.016  27.736  1.00  0.00    -0.550 OA
ATOM      6  O   UNL     1      -5.305  23.250  26.102  1.00  0.00    -0.550 OA
ENDBRANCH   3   4
ENDBRANCH   2   3
ENDBRANCH   1   2
BRANCH   1   7
ATOM      7  C   UNL     1      -1.439  27.850  25.950  1.00  0.00     0.000 C 
BRANCH   7   8
ATOM      8  C   UNL     1      -0.181  27.458  25.165  1.00  0.00    -0.000 C 
BRANCH   8   9
ATOM      9  C   UNL     1      -0.540  26.984  23.752  1.00  0.00    -0.000 C 
BRANCH   9  10
ATOM     10  C   UNL     1       0.229  25.709  23.388  1.00  0.00    -0.003 C 
ATOM     11  C   UNL     1      -0.327  24.499  24.134  1.00  0.00     0.004 C 
ENDBRANCH   9  10
ENDBRANCH   8   9
ENDBRANCH   7   8
ENDBRANCH   1   7
TORSDOF 7
ENDMDL
MODEL 7
REMARK VINA RESULT:    -2.743     16.714     17.993
REMARK INTER + INTRA:          -4.605
REMARK INTER:                  -4.115
REMARK INTRA:                  -0.490
REMARK UNBOUND:                -0.741
REMARK SMILES CCCCCCCCC(=O)[O-]
REMARK SMILES IDX 6 1 7 2 8 3 9 4 10 5 11 6 5 7 4 8 3 9 2 10 1 11
REMARK H PARENT
REMARK Flexibility Score: inf
ROOT
ATOM      1  C   UNL     1      -0.612  25.838  23.936  1.00  0.00     0.000 C 
ENDROOT
BRANCH   1   2
ATOM      2  C   UNL     1      -0.297  24.351  24.166  1.00  0.00     0.006 C 
BRANCH   2   3
ATOM      3  C   UNL     1       0.466  23.721  22.994  1.00  0.00     0.053 C 
BRANCH   3   4
ATOM      4  C   UNL     1      -0.213  22.466  22.543  1.00  0.00     0.041 C 
ATOM      5  O   UNL     1      -0.940  21.818  23.342  1.00  0.00    -0.550 OA
ATOM      6  O   UNL     1      -0.084  22.038  21.228  1.00  0.00    -0.550 OA
ENDBRANCH   3   4
ENDBRANCH   2   3
ENDBRANCH   1   2
BRANCH   1   7
ATOM      7  C   UNL     1      -0.214  26.718  25.131  1.00  0.00     0.000 C 
BRANCH   7   8
ATOM      8  C   UNL     1      -1.374  27.631  25.549  1.00  0.00    -0.000 C 
BRANCH   8   9
ATOM      9  C   UNL     1      -2.713  27.092  25.033  1.00  0.00    -0.000 C 
BRANCH   9  10
ATOM     10  C   UNL     1      -3.503  26.415  26.160  1.00  0.00    -0.003 C 
ATOM     11  C   UNL     1      -3.848  24.972  25.801  1.00  0.00     0.004 C 
ENDBRANCH   9  10
ENDBRANCH   8   9
ENDBRANCH   7   8
ENDBRANCH   1   7
TORSDOF 7
ENDMDL
MODEL 8
REMARK VINA RESULT:    -2.729      1.740      3.270
REMARK INTER + INTRA:          -4.586
REMARK INTER:                  -4.027
REMARK INTRA:                  -0.559
REMARK UNBOUND:                -0.741
REMARK SMILES CCCCCCCCC(=O)[O-]
REMARK SMILES IDX 6 1 7 2 8 3 9 4 10 5 11 6 5 7 4 8 3 9 2 10 1 11
REMARK H PARENT
REMARK Flexibility Score: inf
ROOT
ATOM      1  C   UNL     1     -16.575  25.795  31.943  1.00  0.00     0.000 C 
ENDROOT
BRANCH   1   2
ATOM      2  C   UNL     1     -16.534  24.412  32.612  1.00  0.00     0.006 C 
BRANCH   2   3
ATOM      3  C   UNL     1     -15.262  24.194  33.441  1.00  0.00     0.053 C 
BRANCH   3   4
ATOM      4  C   UNL     1     -15.416  23.000  34.329  1.00  0.00     0.041 C 
ATOM      5  O   UNL     1     -15.878  23.132  35.493  1.00  0.00    -0.550 OA
ATOM      6  O   UNL     1     -15.097  21.734  33.855  1.00  0.00    -0.550 OA
ENDBRANCH   3   4
ENDBRANCH   2   3
ENDBRANCH   1   2
BRANCH   1   7
ATOM      7  C   UNL     1     -17.539  26.764  32.645  1.00  0.00     0.000 C 
BRANCH   7   8
ATOM      8  C   UNL     1     -16.795  27.638  33.662  1.00  0.00    -0.000 C 
BRANCH   8   9
ATOM      9  C   UNL     1     -17.531  27.666  35.007  1.00  0.00    -0.000 C 
BRANCH   9  10
ATOM     10  C   UNL     1     -17.651  26.255  35.596  1.00  0.00    -0.003 C 
ATOM     11  C   UNL     1     -17.682  26.297  37.121  1.00  0.00     0.004 C 
ENDBRANCH   9  10
ENDBRANCH   8   9
ENDBRANCH   7   8
ENDBRANCH   1   7
TORSDOF 7
ENDMDL
MODEL 9
REMARK VINA RESULT:    -2.621     16.433     17.789
REMARK INTER + INTRA:          -4.435
REMARK INTER:                  -4.105
REMARK INTRA:                  -0.330
REMARK UNBOUND:                -0.741
REMARK SMILES CCCCCCCCC(=O)[O-]
REMARK SMILES IDX 6 1 7 2 8 3 9 4 10 5 11 6 5 7 4 8 3 9 2 10 1 11
REMARK H PARENT
REMARK Flexibility Score: inf
ROOT
ATOM      1  C   UNL     1      -1.756  26.497  24.363  1.00  0.00     0.000 C 
ENDROOT
BRANCH   1   2
ATOM      2  C   UNL     1      -0.263  26.220  24.602  1.00  0.00     0.006 C 
BRANCH   2   3
ATOM      3  C   UNL     1       0.378  25.415  23.464  1.00  0.00     0.053 C 
BRANCH   3   4
ATOM      4  C   UNL     1       0.782  26.323  22.345  1.00  0.00     0.041 C 
ATOM      5  O   UNL     1       1.043  27.533  22.575  1.00  0.00    -0.550 OA
ATOM      6  O   UNL     1       0.921  25.821  21.058  1.00  0.00    -0.550 OA
ENDBRANCH   3   4
ENDBRANCH   2   3
ENDBRANCH   1   2
BRANCH   1   7
ATOM      7  C   UNL     1      -2.389  27.332  25.487  1.00  0.00     0.000 C 
BRANCH   7   8
ATOM      8  C   UNL     1      -3.489  26.540  26.205  1.00  0.00    -0.000 C 
BRANCH   8   9
ATOM      9  C   UNL     1      -3.771  25.215  25.487  1.00  0.00    -0.000 C 
BRANCH   9  10
ATOM     10  C   UNL     1      -3.982  24.079  26.495  1.00  0.00    -0.003 C 
ATOM     11  C   UNL     1      -5.269  23.313  26.200  1.00  0.00     0.004 C 
ENDBRANCH   9  10
ENDBRANCH   8   9
ENDBRANCH   7   8
ENDBRANCH   1   7
TORSDOF 7
ENDMDL
