MODEL 1
REMARK VINA RESULT:    -8.196      0.000      0.000
REMARK INTER + INTRA:         -10.722
REMARK INTER:                 -10.112
REMARK INTRA:                  -0.609
REMARK UNBOUND:                -0.609
REMARK SMILES COc1ccc(-c2cc3cc(O)c(OC)cc3o2)c(O)c1
REMARK SMILES IDX 7 1 8 2 9 3 10 4 11 5 13 6 16 7 17 8 18 9 6 10 3 11 21 12
REMARK SMILES IDX 4 13 19 14 5 15 2 16 1 17 20 18 12 20 14 22 15 23
REMARK H PARENT 20 19 12 21
REMARK Flexibility Score: inf
ROOT
ATOM      1  C   UNL     1      44.400  45.585  44.007  1.00  0.00     0.139 A 
ATOM      2  C   UNL     1      45.181  45.291  42.887  1.00  0.00     0.060 A 
ATOM      3  C   UNL     1      44.285  45.234  41.847  1.00  0.00     0.025 A 
ATOM      4  C   UNL     1      44.476  44.986  40.492  1.00  0.00     0.062 A 
ATOM      5  C   UNL     1      43.347  45.000  39.650  1.00  0.00     0.158 A 
ATOM      6  C   UNL     1      42.054  45.264  40.183  1.00  0.00     0.164 A 
ATOM      7  C   UNL     1      41.908  45.516  41.571  1.00  0.00     0.098 A 
ATOM      8  C   UNL     1      43.049  45.492  42.367  1.00  0.00     0.138 A 
ATOM      9  O   UNL     1      43.130  45.704  43.656  1.00  0.00    -0.456 OA
ENDROOT
BRANCH   1  10
ATOM     10  C   UNL     1      44.873  45.780  45.398  1.00  0.00     0.059 A 
ATOM     11  C   UNL     1      45.821  46.044  48.045  1.00  0.00     0.122 A 
ATOM     12  C   UNL     1      44.990  47.031  47.487  1.00  0.00     0.093 A 
ATOM     13  C   UNL     1      46.181  44.939  47.271  1.00  0.00     0.047 A 
ATOM     14  C   UNL     1      44.524  46.911  46.168  1.00  0.00     0.130 A 
ATOM     15  C   UNL     1      45.718  44.808  45.960  1.00  0.00     0.020 A 
BRANCH  11  16
ATOM     16  O   UNL     1      46.310  46.125  49.358  1.00  0.00    -0.497 OA
ATOM     17  C   UNL     1      46.757  45.008  50.121  1.00  0.00     0.278 C 
ENDBRANCH  11  16
BRANCH  14  18
ATOM     18  O   UNL     1      43.740  47.928  45.625  1.00  0.00    -0.507 OA
ATOM     19  H   UNL     1      43.919  48.905  45.826  1.00  0.00     0.293 HD
ENDBRANCH  14  18
ENDBRANCH   1  10
BRANCH   5  20
ATOM     20  O   UNL     1      43.523  44.751  38.290  1.00  0.00    -0.504 OA
ATOM     21  H   UNL     1      44.094  43.987  37.950  1.00  0.00     0.293 HD
ENDBRANCH   5  20
BRANCH   6  22
ATOM     22  O   UNL     1      40.954  45.269  39.312  1.00  0.00    -0.493 OA
ATOM     23  C   UNL     1      39.861  44.359  39.390  1.00  0.00     0.278 C 
ENDBRANCH   6  22
TORSDOF 5
ENDMDL
MODEL 2
REMARK VINA RESULT:    -7.964      1.343      2.234
REMARK INTER + INTRA:         -10.436
REMARK INTER:                  -9.854
REMARK INTRA:                  -0.582
REMARK UNBOUND:                -0.609
REMARK SMILES COc1ccc(-c2cc3cc(O)c(OC)cc3o2)c(O)c1
REMARK SMILES IDX 7 1 8 2 9 3 10 4 11 5 13 6 16 7 17 8 18 9 6 10 3 11 21 12
REMARK SMILES IDX 4 13 19 14 5 15 2 16 1 17 20 18 12 20 14 22 15 23
REMARK H PARENT 20 19 12 21
REMARK Flexibility Score: inf
ROOT
ATOM      1  C   UNL     1      43.713  45.882  44.008  1.00  0.00     0.139 A 
ATOM      2  C   UNL     1      42.355  45.672  43.754  1.00  0.00     0.060 A 
ATOM      3  C   UNL     1      42.298  45.371  42.414  1.00  0.00     0.025 A 
ATOM      4  C   UNL     1      41.218  45.059  41.596  1.00  0.00     0.062 A 
ATOM      5  C   UNL     1      41.472  44.783  40.239  1.00  0.00     0.158 A 
ATOM      6  C   UNL     1      42.802  44.823  39.734  1.00  0.00     0.164 A 
ATOM      7  C   UNL     1      43.874  45.140  40.606  1.00  0.00     0.098 A 
ATOM      8  C   UNL     1      43.578  45.407  41.939  1.00  0.00     0.138 A 
ATOM      9  O   UNL     1      44.414  45.710  42.900  1.00  0.00    -0.456 OA
ENDROOT
BRANCH   1  10
ATOM     10  C   UNL     1      44.335  46.219  45.311  1.00  0.00     0.059 A 
ATOM     11  C   UNL     1      45.421  46.829  47.846  1.00  0.00     0.122 A 
ATOM     12  C   UNL     1      46.133  47.140  46.674  1.00  0.00     0.093 A 
ATOM     13  C   UNL     1      44.177  46.203  47.740  1.00  0.00     0.047 A 
ATOM     14  C   UNL     1      45.604  46.831  45.412  1.00  0.00     0.130 A 
ATOM     15  C   UNL     1      43.640  45.896  46.488  1.00  0.00     0.020 A 
BRANCH  11  16
ATOM     16  O   UNL     1      45.914  47.119  49.127  1.00  0.00    -0.497 OA
ATOM     17  C   UNL     1      46.206  46.138  50.119  1.00  0.00     0.278 C 
ENDBRANCH  11  16
BRANCH  14  18
ATOM     18  O   UNL     1      46.353  47.109  44.269  1.00  0.00    -0.507 OA
ATOM     19  H   UNL     1      46.392  48.040  43.870  1.00  0.00     0.293 HD
ENDBRANCH  14  18
ENDBRANCH   1  10
BRANCH   5  20
ATOM     20  O   UNL     1      40.398  44.472  39.406  1.00  0.00    -0.504 OA
ATOM     21  H   UNL     1      40.183  43.521  39.136  1.00  0.00     0.293 HD
ENDBRANCH   5  20
BRANCH   6  22
ATOM     22  O   UNL     1      43.015  44.541  38.375  1.00  0.00    -0.493 OA
ATOM     23  C   UNL     1      44.188  43.922  37.855  1.00  0.00     0.278 C 
ENDBRANCH   6  22
TORSDOF 5
ENDMDL
MODEL 3
REMARK VINA RESULT:    -7.111      1.217      7.889
REMARK INTER + INTRA:          -9.383
REMARK INTER:                  -8.827
REMARK INTRA:                  -0.556
REMARK UNBOUND:                -0.609
REMARK SMILES COc1ccc(-c2cc3cc(O)c(OC)cc3o2)c(O)c1
REMARK SMILES IDX 7 1 8 2 9 3 10 4 11 5 13 6 16 7 17 8 18 9 6 10 3 11 21 12
REMARK SMILES IDX 4 13 19 14 5 15 2 16 1 17 20 18 12 20 14 22 15 23
REMARK H PARENT 20 19 12 21
REMARK Flexibility Score: inf
ROOT
ATOM      1  C   UNL     1      43.932  45.755  44.251  1.00  0.00     0.139 A 
ATOM      2  C   UNL     1      43.636  46.800  45.130  1.00  0.00     0.060 A 
ATOM      3  C   UNL     1      44.423  46.557  46.231  1.00  0.00     0.025 A 
ATOM      4  C   UNL     1      44.565  47.260  47.423  1.00  0.00     0.062 A 
ATOM      5  C   UNL     1      45.469  46.763  48.381  1.00  0.00     0.158 A 
ATOM      6  C   UNL     1      46.211  45.577  48.124  1.00  0.00     0.164 A 
ATOM      7  C   UNL     1      46.037  44.895  46.893  1.00  0.00     0.098 A 
ATOM      8  C   UNL     1      45.134  45.420  45.974  1.00  0.00     0.138 A 
ATOM      9  O   UNL     1      44.835  44.952  44.788  1.00  0.00    -0.456 OA
ENDROOT
BRANCH   1  10
ATOM     10  C   UNL     1      43.371  45.545  42.895  1.00  0.00     0.059 A 
ATOM     11  C   UNL     1      42.201  45.121  40.360  1.00  0.00     0.122 A 
ATOM     12  C   UNL     1      43.584  45.346  40.475  1.00  0.00     0.093 A 
ATOM     13  C   UNL     1      41.412  45.122  41.512  1.00  0.00     0.047 A 
ATOM     14  C   UNL     1      44.170  45.568  41.731  1.00  0.00     0.130 A 
ATOM     15  C   UNL     1      41.988  45.336  42.767  1.00  0.00     0.020 A 
BRANCH  11  16
ATOM     16  O   UNL     1      41.574  44.896  39.125  1.00  0.00    -0.497 OA
ATOM     17  C   UNL     1      40.319  44.241  38.966  1.00  0.00     0.278 C 
ENDBRANCH  11  16
BRANCH  14  18
ATOM     18  O   UNL     1      45.536  45.836  41.810  1.00  0.00    -0.507 OA
ATOM     19  H   UNL     1      45.989  46.489  41.181  1.00  0.00     0.293 HD
ENDBRANCH  14  18
ENDBRANCH   1  10
BRANCH   5  20
ATOM     20  O   UNL     1      45.620  47.456  49.581  1.00  0.00    -0.504 OA
ATOM     21  H   UNL     1      46.319  47.201  50.268  1.00  0.00     0.293 HD
ENDBRANCH   5  20
BRANCH   6  22
ATOM     22  O   UNL     1      47.102  45.113  49.103  1.00  0.00    -0.493 OA
ATOM     23  C   UNL     1      46.763  44.180  50.125  1.00  0.00     0.278 C 
ENDBRANCH   6  22
TORSDOF 5
ENDMDL
MODEL 4
REMARK VINA RESULT:    -6.593      5.420      8.671
REMARK INTER + INTRA:          -8.744
REMARK INTER:                  -8.147
REMARK INTRA:                  -0.597
REMARK UNBOUND:                -0.609
REMARK SMILES COc1ccc(-c2cc3cc(O)c(OC)cc3o2)c(O)c1
REMARK SMILES IDX 7 1 8 2 9 3 10 4 11 5 13 6 16 7 17 8 18 9 6 10 3 11 21 12
REMARK SMILES IDX 4 13 19 14 5 15 2 16 1 17 20 18 12 20 14 22 15 23
REMARK H PARENT 20 19 12 21
REMARK Flexibility Score: inf
ROOT
ATOM      1  C   UNL     1      47.706  42.271  46.720  1.00  0.00     0.139 A 
ATOM      2  C   UNL     1      47.201  41.016  46.373  1.00  0.00     0.060 A 
ATOM      3  C   UNL     1      48.278  40.169  46.484  1.00  0.00     0.025 A 
ATOM      4  C   UNL     1      48.385  38.798  46.274  1.00  0.00     0.062 A 
ATOM      5  C   UNL     1      49.639  38.193  46.478  1.00  0.00     0.158 A 
ATOM      6  C   UNL     1      50.756  38.972  46.889  1.00  0.00     0.164 A 
ATOM      7  C   UNL     1      50.600  40.366  47.096  1.00  0.00     0.098 A 
ATOM      8  C   UNL     1      49.343  40.924  46.883  1.00  0.00     0.138 A 
ATOM      9  O   UNL     1      48.989  42.177  47.024  1.00  0.00    -0.456 OA
ENDROOT
BRANCH   1  10
ATOM     10  C   UNL     1      46.954  43.547  46.786  1.00  0.00     0.059 A 
ATOM     11  C   UNL     1      45.503  45.971  46.798  1.00  0.00     0.122 A 
ATOM     12  C   UNL     1      46.169  45.535  47.957  1.00  0.00     0.093 A 
ATOM     13  C   UNL     1      45.558  45.184  45.646  1.00  0.00     0.047 A 
ATOM     14  C   UNL     1      46.883  44.327  47.961  1.00  0.00     0.130 A 
ATOM     15  C   UNL     1      46.271  43.983  45.638  1.00  0.00     0.020 A 
BRANCH  11  16
ATOM     16  O   UNL     1      44.777  47.170  46.751  1.00  0.00    -0.497 OA
ATOM     17  C   UNL     1      43.809  47.487  45.755  1.00  0.00     0.278 C 
ENDBRANCH  11  16
BRANCH  14  18
ATOM     18  O   UNL     1      47.494  43.898  49.139  1.00  0.00    -0.507 OA
ATOM     19  H   UNL     1      47.556  44.495  49.956  1.00  0.00     0.293 HD
ENDBRANCH  14  18
ENDBRANCH   1  10
BRANCH   5  20
ATOM     20  O   UNL     1      49.762  36.820  46.268  1.00  0.00    -0.504 OA
ATOM     21  H   UNL     1      50.297  36.437  45.499  1.00  0.00     0.293 HD
ENDBRANCH   5  20
BRANCH   6  22
ATOM     22  O   UNL     1      51.990  38.332  47.082  1.00  0.00    -0.493 OA
ATOM     23  C   UNL     1      52.547  38.022  48.356  1.00  0.00     0.278 C 
ENDBRANCH   6  22
TORSDOF 5
ENDMDL
MODEL 5
REMARK VINA RESULT:    -6.510      4.568      7.374
REMARK INTER + INTRA:          -8.641
REMARK INTER:                  -8.071
REMARK INTRA:                  -0.570
REMARK UNBOUND:                -0.609
REMARK SMILES COc1ccc(-c2cc3cc(O)c(OC)cc3o2)c(O)c1
REMARK SMILES IDX 7 1 8 2 9 3 10 4 11 5 13 6 16 7 17 8 18 9 6 10 3 11 21 12
REMARK SMILES IDX 4 13 19 14 5 15 2 16 1 17 20 18 12 20 14 22 15 23
REMARK H PARENT 20 19 12 21
REMARK Flexibility Score: inf
ROOT
ATOM      1  C   UNL     1      48.196  43.532  47.359  1.00  0.00     0.139 A 
ATOM      2  C   UNL     1      47.402  43.534  48.509  1.00  0.00     0.060 A 
ATOM      3  C   UNL     1      46.307  44.292  48.169  1.00  0.00     0.025 A 
ATOM      4  C   UNL     1      45.177  44.639  48.901  1.00  0.00     0.062 A 
ATOM      5  C   UNL     1      44.199  45.434  48.274  1.00  0.00     0.158 A 
ATOM      6  C   UNL     1      44.373  45.861  46.927  1.00  0.00     0.164 A 
ATOM      7  C   UNL     1      45.540  45.479  46.217  1.00  0.00     0.098 A 
ATOM      8  C   UNL     1      46.480  44.693  46.875  1.00  0.00     0.138 A 
ATOM      9  O   UNL     1      47.610  44.231  46.401  1.00  0.00    -0.456 OA
ENDROOT
BRANCH   1  10
ATOM     10  C   UNL     1      49.494  42.840  47.173  1.00  0.00     0.059 A 
ATOM     11  C   UNL     1      52.014  41.595  46.894  1.00  0.00     0.122 A 
ATOM     12  C   UNL     1      50.941  41.221  46.065  1.00  0.00     0.093 A 
ATOM     13  C   UNL     1      51.813  42.579  47.865  1.00  0.00     0.047 A 
ATOM     14  C   UNL     1      49.683  41.828  46.205  1.00  0.00     0.130 A 
ATOM     15  C   UNL     1      50.567  43.193  48.007  1.00  0.00     0.020 A 
BRANCH  11  16
ATOM     16  O   UNL     1      53.286  41.013  46.790  1.00  0.00    -0.497 OA
ATOM     17  C   UNL     1      54.505  41.747  46.723  1.00  0.00     0.278 C 
ENDBRANCH  11  16
BRANCH  14  18
ATOM     18  O   UNL     1      48.627  41.405  45.401  1.00  0.00    -0.507 OA
ATOM     19  H   UNL     1      48.307  41.950  44.608  1.00  0.00     0.293 HD
ENDBRANCH  14  18
ENDBRANCH   1  10
BRANCH   5  20
ATOM     20  O   UNL     1      43.062  45.793  48.997  1.00  0.00    -0.504 OA
ATOM     21  H   UNL     1      42.995  46.670  49.498  1.00  0.00     0.293 HD
ENDBRANCH   5  20
BRANCH   6  22
ATOM     22  O   UNL     1      43.377  46.653  46.336  1.00  0.00    -0.493 OA
ATOM     23  C   UNL     1      42.569  46.243  45.237  1.00  0.00     0.278 C 
ENDBRANCH   6  22
TORSDOF 5
ENDMDL
MODEL 6
REMARK VINA RESULT:    -6.296     10.256     12.661
REMARK INTER + INTRA:          -8.377
REMARK INTER:                  -7.770
REMARK INTRA:                  -0.607
REMARK UNBOUND:                -0.609
REMARK SMILES COc1ccc(-c2cc3cc(O)c(OC)cc3o2)c(O)c1
REMARK SMILES IDX 7 1 8 2 9 3 10 4 11 5 13 6 16 7 17 8 18 9 6 10 3 11 21 12
REMARK SMILES IDX 4 13 19 14 5 15 2 16 1 17 20 18 12 20 14 22 15 23
REMARK H PARENT 20 19 12 21
REMARK Flexibility Score: inf
ROOT
ATOM      1  C   UNL     1      49.929  47.207  35.122  1.00  0.00     0.139 A 
ATOM      2  C   UNL     1      49.364  48.460  34.868  1.00  0.00     0.060 A 
ATOM      3  C   UNL     1      50.352  49.356  35.199  1.00  0.00     0.025 A 
ATOM      4  C   UNL     1      50.376  50.746  35.148  1.00  0.00     0.062 A 
ATOM      5  C   UNL     1      51.553  51.404  35.551  1.00  0.00     0.158 A 
ATOM      6  C   UNL     1      52.681  50.656  35.993  1.00  0.00     0.164 A 
ATOM      7  C   UNL     1      52.613  49.240  36.024  1.00  0.00     0.098 A 
ATOM      8  C   UNL     1      51.430  48.631  35.618  1.00  0.00     0.138 A 
ATOM      9  O   UNL     1      51.167  47.349  35.565  1.00  0.00    -0.456 OA
ENDROOT
BRANCH   1  10
ATOM     10  C   UNL     1      49.293  45.884  34.915  1.00  0.00     0.059 A 
ATOM     11  C   UNL     1      48.015  43.412  34.438  1.00  0.00     0.122 A 
ATOM     12  C   UNL     1      48.918  43.550  35.506  1.00  0.00     0.093 A 
ATOM     13  C   UNL     1      47.768  44.508  33.609  1.00  0.00     0.047 A 
ATOM     14  C   UNL     1      49.565  44.773  35.743  1.00  0.00     0.130 A 
ATOM     15  C   UNL     1      48.402  45.730  33.840  1.00  0.00     0.020 A 
BRANCH  11  16
ATOM     16  O   UNL     1      47.349  42.207  34.165  1.00  0.00    -0.497 OA
ATOM     17  C   UNL     1      45.942  42.019  34.288  1.00  0.00     0.278 C 
ENDBRANCH  11  16
BRANCH  14  18
ATOM     18  O   UNL     1      50.491  44.867  36.780  1.00  0.00    -0.507 OA
ATOM     19  H   UNL     1      50.456  44.252  37.585  1.00  0.00     0.293 HD
ENDBRANCH  14  18
ENDBRANCH   1  10
BRANCH   5  20
ATOM     20  O   UNL     1      51.591  52.797  35.508  1.00  0.00    -0.504 OA
ATOM     21  H   UNL     1      50.817  53.347  35.156  1.00  0.00     0.293 HD
ENDBRANCH   5  20
BRANCH   6  22
ATOM     22  O   UNL     1      53.837  51.348  36.386  1.00  0.00    -0.493 OA
ATOM     23  C   UNL     1      54.952  51.602  35.537  1.00  0.00     0.278 C 
ENDBRANCH   6  22
TORSDOF 5
ENDMDL
MODEL 7
REMARK VINA RESULT:    -6.250      9.449     10.259
REMARK INTER + INTRA:          -8.321
REMARK INTER:                  -7.777
REMARK INTRA:                  -0.543
REMARK UNBOUND:                -0.609
REMARK SMILES COc1ccc(-c2cc3cc(O)c(OC)cc3o2)c(O)c1
REMARK SMILES IDX 7 1 8 2 9 3 10 4 11 5 13 6 16 7 17 8 18 9 6 10 3 11 21 12
REMARK SMILES IDX 4 13 19 14 5 15 2 16 1 17 20 18 12 20 14 22 15 23
REMARK H PARENT 20 19 12 21
REMARK Flexibility Score: inf
ROOT
ATOM      1  C   UNL     1      50.492  45.235  35.967  1.00  0.00     0.139 A 
ATOM      2  C   UNL     1      50.297  45.672  34.654  1.00  0.00     0.060 A 
ATOM      3  C   UNL     1      49.279  44.883  34.176  1.00  0.00     0.025 A 
ATOM      4  C   UNL     1      48.649  44.860  32.936  1.00  0.00     0.062 A 
ATOM      5  C   UNL     1      47.613  43.929  32.736  1.00  0.00     0.158 A 
ATOM      6  C   UNL     1      47.230  43.042  33.781  1.00  0.00     0.164 A 
ATOM      7  C   UNL     1      47.898  43.103  35.031  1.00  0.00     0.098 A 
ATOM      8  C   UNL     1      48.916  44.039  35.186  1.00  0.00     0.138 A 
ATOM      9  O   UNL     1      49.644  44.260  36.251  1.00  0.00    -0.456 OA
ENDROOT
BRANCH   1  10
ATOM     10  C   UNL     1      51.466  45.768  36.949  1.00  0.00     0.059 A 
ATOM     11  C   UNL     1      53.274  46.890  38.806  1.00  0.00     0.122 A 
ATOM     12  C   UNL     1      53.421  45.555  38.388  1.00  0.00     0.093 A 
ATOM     13  C   UNL     1      52.217  47.649  38.300  1.00  0.00     0.047 A 
ATOM     14  C   UNL     1      52.520  44.988  37.474  1.00  0.00     0.130 A 
ATOM     15  C   UNL     1      51.319  47.095  37.385  1.00  0.00     0.020 A 
BRANCH  11  16
ATOM     16  O   UNL     1      54.151  47.495  39.719  1.00  0.00    -0.497 OA
ATOM     17  C   UNL     1      53.794  47.878  41.044  1.00  0.00     0.278 C 
ENDBRANCH  11  16
BRANCH  14  18
ATOM     18  O   UNL     1      52.662  43.649  37.114  1.00  0.00    -0.507 OA
ATOM     19  H   UNL     1      53.548  43.273  36.795  1.00  0.00     0.293 HD
ENDBRANCH  14  18
ENDBRANCH   1  10
BRANCH   5  20
ATOM     20  O   UNL     1      46.974  43.893  31.497  1.00  0.00    -0.504 OA
ATOM     21  H   UNL     1      46.174  43.298  31.319  1.00  0.00     0.293 HD
ENDBRANCH   5  20
BRANCH   6  22
ATOM     22  O   UNL     1      46.193  42.127  33.544  1.00  0.00    -0.493 OA
ATOM     23  C   UNL     1      45.026  42.004  34.352  1.00  0.00     0.278 C 
ENDBRANCH   6  22
TORSDOF 5
ENDMDL
MODEL 8
REMARK VINA RESULT:    -6.193      9.104     10.309
REMARK INTER + INTRA:          -8.251
REMARK INTER:                  -7.674
REMARK INTRA:                  -0.576
REMARK UNBOUND:                -0.609
REMARK SMILES COc1ccc(-c2cc3cc(O)c(OC)cc3o2)c(O)c1
REMARK SMILES IDX 7 1 8 2 9 3 10 4 11 5 13 6 16 7 17 8 18 9 6 10 3 11 21 12
REMARK SMILES IDX 4 13 19 14 5 15 2 16 1 17 20 18 12 20 14 22 15 23
REMARK H PARENT 20 19 12 21
REMARK Flexibility Score: inf
ROOT
ATOM      1  C   UNL     1      50.032  45.318  36.158  1.00  0.00     0.139 A 
ATOM      2  C   UNL     1      49.154  44.248  36.351  1.00  0.00     0.060 A 
ATOM      3  C   UNL     1      48.756  43.896  35.084  1.00  0.00     0.025 A 
ATOM      4  C   UNL     1      47.895  42.896  34.644  1.00  0.00     0.062 A 
ATOM      5  C   UNL     1      47.682  42.768  33.259  1.00  0.00     0.158 A 
ATOM      6  C   UNL     1      48.336  43.641  32.345  1.00  0.00     0.164 A 
ATOM      7  C   UNL     1      49.209  44.643  32.839  1.00  0.00     0.098 A 
ATOM      8  C   UNL     1      49.392  44.735  34.215  1.00  0.00     0.138 A 
ATOM      9  O   UNL     1      50.153  45.578  34.867  1.00  0.00    -0.456 OA
ENDROOT
BRANCH   1  10
ATOM     10  C   UNL     1      50.769  46.066  37.204  1.00  0.00     0.059 A 
ATOM     11  C   UNL     1      52.137  47.414  39.274  1.00  0.00     0.122 A 
ATOM     12  C   UNL     1      52.078  47.968  37.984  1.00  0.00     0.093 A 
ATOM     13  C   UNL     1      51.523  46.184  39.516  1.00  0.00     0.047 A 
ATOM     14  C   UNL     1      51.409  47.299  36.947  1.00  0.00     0.130 A 
ATOM     15  C   UNL     1      50.849  45.513  38.493  1.00  0.00     0.020 A 
BRANCH  11  16
ATOM     16  O   UNL     1      52.797  48.049  40.338  1.00  0.00    -0.497 OA
ATOM     17  C   UNL     1      53.539  47.368  41.346  1.00  0.00     0.278 C 
ENDBRANCH  11  16
BRANCH  14  18
ATOM     18  O   UNL     1      51.406  47.850  35.667  1.00  0.00    -0.507 OA
ATOM     19  H   UNL     1      51.408  48.852  35.517  1.00  0.00     0.293 HD
ENDBRANCH  14  18
ENDBRANCH   1  10
BRANCH   5  20
ATOM     20  O   UNL     1      46.819  41.771  32.803  1.00  0.00    -0.504 OA
ATOM     21  H   UNL     1      47.123  41.041  32.172  1.00  0.00     0.293 HD
ENDBRANCH   5  20
BRANCH   6  22
ATOM     22  O   UNL     1      48.098  43.481  30.971  1.00  0.00    -0.493 OA
ATOM     23  C   UNL     1      49.040  43.794  29.949  1.00  0.00     0.278 C 
ENDBRANCH   6  22
TORSDOF 5
ENDMDL
MODEL 9
REMARK VINA RESULT:    -6.008      8.929      9.736
REMARK INTER + INTRA:          -8.022
REMARK INTER:                  -7.466
REMARK INTRA:                  -0.556
REMARK UNBOUND:                -0.609
REMARK SMILES COc1ccc(-c2cc3cc(O)c(OC)cc3o2)c(O)c1
REMARK SMILES IDX 7 1 8 2 9 3 10 4 11 5 13 6 16 7 17 8 18 9 6 10 3 11 21 12
REMARK SMILES IDX 4 13 19 14 5 15 2 16 1 17 20 18 12 20 14 22 15 23
REMARK H PARENT 20 19 12 21
REMARK Flexibility Score: inf
ROOT
ATOM      1  C   UNL     1      51.490  45.264  38.276  1.00  0.00     0.139 A 
ATOM      2  C   UNL     1      50.545  46.293  38.292  1.00  0.00     0.060 A 
ATOM      3  C   UNL     1      49.926  46.211  37.068  1.00  0.00     0.025 A 
ATOM      4  C   UNL     1      48.898  46.968  36.514  1.00  0.00     0.062 A 
ATOM      5  C   UNL     1      48.458  46.640  35.218  1.00  0.00     0.158 A 
ATOM      6  C   UNL     1      49.054  45.561  34.507  1.00  0.00     0.164 A 
ATOM      7  C   UNL     1      50.096  44.814  35.113  1.00  0.00     0.098 A 
ATOM      8  C   UNL     1      50.501  45.172  36.395  1.00  0.00     0.138 A 
ATOM      9  O   UNL     1      51.431  44.612  37.126  1.00  0.00    -0.456 OA
ENDROOT
BRANCH   1  10
ATOM     10  C   UNL     1      52.423  44.893  39.366  1.00  0.00     0.059 A 
ATOM     11  C   UNL     1      54.167  44.280  41.502  1.00  0.00     0.122 A 
ATOM     12  C   UNL     1      54.193  43.517  40.321  1.00  0.00     0.093 A 
ATOM     13  C   UNL     1      53.259  45.336  41.609  1.00  0.00     0.047 A 
ATOM     14  C   UNL     1      53.322  43.809  39.260  1.00  0.00     0.130 A 
ATOM     15  C   UNL     1      52.393  45.638  40.557  1.00  0.00     0.020 A 
BRANCH  11  16
ATOM     16  O   UNL     1      55.018  44.021  42.586  1.00  0.00    -0.497 OA
ATOM     17  C   UNL     1      55.030  44.771  43.798  1.00  0.00     0.278 C 
ENDBRANCH  11  16
BRANCH  14  18
ATOM     18  O   UNL     1      53.339  43.006  38.121  1.00  0.00    -0.507 OA
ATOM     19  H   UNL     1      52.583  43.022  37.445  1.00  0.00     0.293 HD
ENDBRANCH  14  18
ENDBRANCH   1  10
BRANCH   5  20
ATOM     20  O   UNL     1      47.431  47.391  34.649  1.00  0.00    -0.504 OA
ATOM     21  H   UNL     1      47.390  47.585  33.656  1.00  0.00     0.293 HD
ENDBRANCH   5  20
BRANCH   6  22
ATOM     22  O   UNL     1      48.588  45.264  33.217  1.00  0.00    -0.493 OA
ATOM     23  C   UNL     1      48.952  44.103  32.476  1.00  0.00     0.278 C 
ENDBRANCH   6  22
TORSDOF 5
ENDMDL
