MODEL 1
REMARK VINA RESULT:    -4.250      0.000      0.000
REMARK INTER + INTRA:         -13.976
REMARK INTER:                 -10.710
REMARK INTRA:                  -3.265
REMARK UNBOUND:                -3.265
REMARK SMILES CCCCCCCCCCCCCCCCCCCCCCCCCCCC(=O)[O-]
REMARK SMILES IDX 15 1 16 2 17 3 18 4 19 5 20 6 21 7 22 8 23 9 24 10 25 11
REMARK SMILES IDX 26 12 27 13 28 14 29 15 30 16 14 17 13 18 12 19 11 20 10 21
REMARK SMILES IDX 9 22 8 23 7 24 6 25 5 26 4 27 3 28 2 29 1 30
REMARK H PARENT
REMARK Flexibility Score: inf
ROOT
ATOM      1  C   UNL     1     -17.629 -15.431   1.962  1.00  0.00     0.000 C 
ENDROOT
BRANCH   1   2
ATOM      2  C   UNL     1     -18.955 -16.134   1.636  1.00  0.00     0.000 C 
BRANCH   2   3
ATOM      3  C   UNL     1     -18.824 -17.669   1.594  1.00  0.00     0.000 C 
BRANCH   3   4
ATOM      4  C   UNL     1     -17.623 -18.237   2.373  1.00  0.00     0.000 C 
BRANCH   4   5
ATOM      5  C   UNL     1     -16.970 -19.436   1.665  1.00  0.00     0.000 C 
BRANCH   5   6
ATOM      6  C   UNL     1     -16.656 -20.597   2.625  1.00  0.00     0.000 C 
BRANCH   6   7
ATOM      7  C   UNL     1     -16.771 -20.256   4.124  1.00  0.00     0.000 C 
BRANCH   7   8
ATOM      8  C   UNL     1     -17.742 -21.172   4.900  1.00  0.00     0.000 C 
BRANCH   8   9
ATOM      9  C   UNL     1     -18.612 -22.027   3.962  1.00  0.00     0.000 C 
BRANCH   9  10
ATOM     10  C   UNL     1     -20.116 -21.799   4.180  1.00  0.00     0.000 C 
BRANCH  10  11
ATOM     11  C   UNL     1     -20.700 -20.751   3.216  1.00  0.00     0.000 C 
BRANCH  11  12
ATOM     12  C   UNL     1     -21.406 -21.389   2.005  1.00  0.00     0.006 C 
BRANCH  12  13
ATOM     13  C   UNL     1     -21.378 -20.527   0.732  1.00  0.00     0.053 C 
BRANCH  13  14
ATOM     14  C   UNL     1     -21.823 -21.295  -0.474  1.00  0.00     0.041 C 
ATOM     15  O   UNL     1     -21.541 -20.878  -1.629  1.00  0.00    -0.550 OA
ATOM     16  O   UNL     1     -22.519 -22.488  -0.323  1.00  0.00    -0.550 OA
ENDBRANCH  13  14
ENDBRANCH  12  13
ENDBRANCH  11  12
ENDBRANCH  10  11
ENDBRANCH   9  10
ENDBRANCH   8   9
ENDBRANCH   7   8
ENDBRANCH   6   7
ENDBRANCH   5   6
ENDBRANCH   4   5
ENDBRANCH   3   4
ENDBRANCH   2   3
ENDBRANCH   1   2
BRANCH   1  17
ATOM     17  C   UNL     1     -17.336 -14.312   0.955  1.00  0.00     0.000 C 
BRANCH  17  18
ATOM     18  C   UNL     1     -17.966 -14.623  -0.411  1.00  0.00     0.000 C 
BRANCH  18  19
ATOM     19  C   UNL     1     -16.907 -14.828  -1.516  1.00  0.00     0.000 C 
BRANCH  19  20
ATOM     20  C   UNL     1     -17.147 -13.972  -2.776  1.00  0.00     0.000 C 
BRANCH  20  21
ATOM     21  C   UNL     1     -18.422 -13.110  -2.748  1.00  0.00     0.000 C 
BRANCH  21  22
ATOM     22  C   UNL     1     -18.129 -11.625  -2.473  1.00  0.00    -0.000 C 
BRANCH  22  23
ATOM     23  C   UNL     1     -16.631 -11.291  -2.564  1.00  0.00    -0.000 C 
BRANCH  23  24
ATOM     24  C   UNL     1     -16.077 -10.701  -1.257  1.00  0.00    -0.000 C 
BRANCH  24  25
ATOM     25  C   UNL     1     -15.233 -11.710  -0.458  1.00  0.00    -0.000 C 
BRANCH  25  26
ATOM     26  C   UNL     1     -14.513 -11.087   0.757  1.00  0.00    -0.000 C 
BRANCH  26  27
ATOM     27  C   UNL     1     -14.021 -12.157   1.749  1.00  0.00    -0.000 C 
BRANCH  27  28
ATOM     28  C   UNL     1     -13.573 -13.450   1.052  1.00  0.00    -0.000 C 
BRANCH  28  29
ATOM     29  C   UNL     1     -12.269 -14.017   1.634  1.00  0.00    -0.003 C 
ATOM     30  C   UNL     1     -11.666 -13.064   2.661  1.00  0.00     0.004 C 
ENDBRANCH  28  29
ENDBRANCH  27  28
ENDBRANCH  26  27
ENDBRANCH  25  26
ENDBRANCH  24  25
ENDBRANCH  23  24
ENDBRANCH  22  23
ENDBRANCH  21  22
ENDBRANCH  20  21
ENDBRANCH  19  20
ENDBRANCH  18  19
ENDBRANCH  17  18
ENDBRANCH   1  17
TORSDOF 26
ENDMDL
MODEL 2
REMARK VINA RESULT:    -4.058      3.043      8.330
REMARK INTER + INTRA:         -13.492
REMARK INTER:                  -9.374
REMARK INTRA:                  -4.117
REMARK UNBOUND:                -3.265
REMARK SMILES CCCCCCCCCCCCCCCCCCCCCCCCCCCC(=O)[O-]
REMARK SMILES IDX 15 1 16 2 17 3 18 4 19 5 20 6 21 7 22 8 23 9 24 10 25 11
REMARK SMILES IDX 26 12 27 13 28 14 29 15 30 16 14 17 13 18 12 19 11 20 10 21
REMARK SMILES IDX 9 22 8 23 7 24 6 25 5 26 4 27 3 28 2 29 1 30
REMARK H PARENT
REMARK Flexibility Score: inf
ROOT
ATOM      1  C   UNL     1     -21.439 -16.624   3.413  1.00  0.00     0.000 C 
ENDROOT
BRANCH   1   2
ATOM      2  C   UNL     1     -20.169 -16.024   4.035  1.00  0.00     0.000 C 
BRANCH   2   3
ATOM      3  C   UNL     1     -18.966 -16.986   3.982  1.00  0.00     0.000 C 
BRANCH   3   4
ATOM      4  C   UNL     1     -17.813 -16.531   3.068  1.00  0.00     0.000 C 
BRANCH   4   5
ATOM      5  C   UNL     1     -18.023 -16.941   1.600  1.00  0.00     0.000 C 
BRANCH   5   6
ATOM      6  C   UNL     1     -17.848 -15.765   0.622  1.00  0.00     0.000 C 
BRANCH   6   7
ATOM      7  C   UNL     1     -18.589 -14.472   1.014  1.00  0.00     0.000 C 
BRANCH   7   8
ATOM      8  C   UNL     1     -18.076 -13.212   0.284  1.00  0.00     0.000 C 
BRANCH   8   9
ATOM      9  C   UNL     1     -16.738 -13.460  -0.436  1.00  0.00     0.000 C 
BRANCH   9  10
ATOM     10  C   UNL     1     -16.823 -13.195  -1.948  1.00  0.00     0.000 C 
BRANCH  10  11
ATOM     11  C   UNL     1     -17.223 -14.449  -2.745  1.00  0.00     0.000 C 
BRANCH  11  12
ATOM     12  C   UNL     1     -18.464 -14.220  -3.627  1.00  0.00     0.006 C 
BRANCH  12  13
ATOM     13  C   UNL     1     -19.258 -12.951  -3.282  1.00  0.00     0.053 C 
BRANCH  13  14
ATOM     14  C   UNL     1     -20.683 -13.257  -2.939  1.00  0.00     0.041 C 
ATOM     15  O   UNL     1     -20.977 -13.714  -1.802  1.00  0.00    -0.550 OA
ATOM     16  O   UNL     1     -21.691 -13.006  -3.862  1.00  0.00    -0.550 OA
ENDBRANCH  13  14
ENDBRANCH  12  13
ENDBRANCH  11  12
ENDBRANCH  10  11
ENDBRANCH   9  10
ENDBRANCH   8   9
ENDBRANCH   7   8
ENDBRANCH   6   7
ENDBRANCH   5   6
ENDBRANCH   4   5
ENDBRANCH   3   4
ENDBRANCH   2   3
ENDBRANCH   1   2
BRANCH   1  17
ATOM     17  C   UNL     1     -21.755 -15.968   2.064  1.00  0.00     0.000 C 
BRANCH  17  18
ATOM     18  C   UNL     1     -21.634 -16.983   0.918  1.00  0.00     0.000 C 
BRANCH  18  19
ATOM     19  C   UNL     1     -22.990 -17.623   0.550  1.00  0.00     0.000 C 
BRANCH  19  20
ATOM     20  C   UNL     1     -23.163 -17.897  -0.957  1.00  0.00     0.000 C 
BRANCH  20  21
ATOM     21  C   UNL     1     -23.172 -19.383  -1.355  1.00  0.00     0.000 C 
BRANCH  21  22
ATOM     22  C   UNL     1     -21.792 -20.047  -1.208  1.00  0.00    -0.000 C 
BRANCH  22  23
ATOM     23  C   UNL     1     -21.884 -21.502  -0.723  1.00  0.00    -0.000 C 
BRANCH  23  24
ATOM     24  C   UNL     1     -22.224 -21.606   0.773  1.00  0.00    -0.000 C 
BRANCH  24  25
ATOM     25  C   UNL     1     -21.363 -20.676   1.645  1.00  0.00    -0.000 C 
BRANCH  25  26
ATOM     26  C   UNL     1     -20.351 -21.428   2.536  1.00  0.00    -0.000 C 
BRANCH  26  27
ATOM     27  C   UNL     1     -19.280 -20.487   3.116  1.00  0.00    -0.000 C 
BRANCH  27  28
ATOM     28  C   UNL     1     -17.937 -21.195   3.357  1.00  0.00    -0.000 C 
BRANCH  28  29
ATOM     29  C   UNL     1     -16.740 -20.236   3.289  1.00  0.00    -0.003 C 
ATOM     30  C   UNL     1     -16.165 -20.174   1.878  1.00  0.00     0.004 C 
ENDBRANCH  28  29
ENDBRANCH  27  28
ENDBRANCH  26  27
ENDBRANCH  25  26
ENDBRANCH  24  25
ENDBRANCH  23  24
ENDBRANCH  22  23
ENDBRANCH  21  22
ENDBRANCH  20  21
ENDBRANCH  19  20
ENDBRANCH  18  19
ENDBRANCH  17  18
ENDBRANCH   1  17
TORSDOF 26
ENDMDL
MODEL 3
REMARK VINA RESULT:    -4.038      3.541     10.086
REMARK INTER + INTRA:         -13.440
REMARK INTER:                  -9.840
REMARK INTRA:                  -3.600
REMARK UNBOUND:                -3.265
REMARK SMILES CCCCCCCCCCCCCCCCCCCCCCCCCCCC(=O)[O-]
REMARK SMILES IDX 15 1 16 2 17 3 18 4 19 5 20 6 21 7 22 8 23 9 24 10 25 11
REMARK SMILES IDX 26 12 27 13 28 14 29 15 30 16 14 17 13 18 12 19 11 20 10 21
REMARK SMILES IDX 9 22 8 23 7 24 6 25 5 26 4 27 3 28 2 29 1 30
REMARK H PARENT
REMARK Flexibility Score: inf
ROOT
ATOM      1  C   UNL     1     -18.135 -14.627  -0.489  1.00  0.00     0.000 C 
ENDROOT
BRANCH   1   2
ATOM      2  C   UNL     1     -16.951 -14.773  -1.457  1.00  0.00     0.000 C 
BRANCH   2   3
ATOM      3  C   UNL     1     -17.178 -14.039  -2.792  1.00  0.00     0.000 C 
BRANCH   3   4
ATOM      4  C   UNL     1     -18.651 -13.734  -3.121  1.00  0.00     0.000 C 
BRANCH   4   5
ATOM      5  C   UNL     1     -18.934 -12.226  -3.232  1.00  0.00     0.000 C 
BRANCH   5   6
ATOM      6  C   UNL     1     -19.922 -11.724  -2.164  1.00  0.00     0.000 C 
BRANCH   6   7
ATOM      7  C   UNL     1     -19.273 -11.062  -0.932  1.00  0.00     0.000 C 
BRANCH   7   8
ATOM      8  C   UNL     1     -17.803 -10.644  -1.149  1.00  0.00     0.000 C 
BRANCH   8   9
ATOM      9  C   UNL     1     -16.883 -11.138  -0.019  1.00  0.00     0.000 C 
BRANCH   9  10
ATOM     10  C   UNL     1     -15.474 -11.496  -0.518  1.00  0.00     0.000 C 
BRANCH  10  11
ATOM     11  C   UNL     1     -14.744 -12.467   0.427  1.00  0.00     0.000 C 
BRANCH  11  12
ATOM     12  C   UNL     1     -13.296 -12.034   0.719  1.00  0.00     0.006 C 
BRANCH  12  13
ATOM     13  C   UNL     1     -12.344 -13.194   1.047  1.00  0.00     0.053 C 
BRANCH  13  14
ATOM     14  C   UNL     1     -12.023 -13.261   2.508  1.00  0.00     0.041 C 
ATOM     15  O   UNL     1     -11.330 -12.357   3.046  1.00  0.00    -0.550 OA
ATOM     16  O   UNL     1     -12.519 -14.302   3.283  1.00  0.00    -0.550 OA
ENDBRANCH  13  14
ENDBRANCH  12  13
ENDBRANCH  11  12
ENDBRANCH  10  11
ENDBRANCH   9  10
ENDBRANCH   8   9
ENDBRANCH   7   8
ENDBRANCH   6   7
ENDBRANCH   5   6
ENDBRANCH   4   5
ENDBRANCH   3   4
ENDBRANCH   2   3
ENDBRANCH   1   2
BRANCH   1  17
ATOM     17  C   UNL     1     -17.891 -15.415   0.804  1.00  0.00     0.000 C 
BRANCH  17  18
ATOM     18  C   UNL     1     -19.209 -15.961   1.372  1.00  0.00     0.000 C 
BRANCH  18  19
ATOM     19  C   UNL     1     -18.998 -17.205   2.261  1.00  0.00     0.000 C 
BRANCH  19  20
ATOM     20  C   UNL     1     -17.568 -17.778   2.204  1.00  0.00     0.000 C 
BRANCH  20  21
ATOM     21  C   UNL     1     -17.426 -19.109   1.447  1.00  0.00     0.000 C 
BRANCH  21  22
ATOM     22  C   UNL     1     -16.552 -20.130   2.197  1.00  0.00    -0.000 C 
BRANCH  22  23
ATOM     23  C   UNL     1     -16.557 -19.908   3.717  1.00  0.00    -0.000 C 
BRANCH  23  24
ATOM     24  C   UNL     1     -17.714 -20.638   4.417  1.00  0.00    -0.000 C 
BRANCH  24  25
ATOM     25  C   UNL     1     -18.377 -21.700   3.522  1.00  0.00    -0.000 C 
BRANCH  25  26
ATOM     26  C   UNL     1     -19.813 -22.064   3.955  1.00  0.00    -0.000 C 
BRANCH  26  27
ATOM     27  C   UNL     1     -20.832 -21.846   2.823  1.00  0.00    -0.000 C 
BRANCH  27  28
ATOM     28  C   UNL     1     -20.800 -20.416   2.263  1.00  0.00    -0.000 C 
BRANCH  28  29
ATOM     29  C   UNL     1     -20.991 -20.369   0.740  1.00  0.00    -0.003 C 
ATOM     30  C   UNL     1     -21.330 -18.957   0.272  1.00  0.00     0.004 C 
ENDBRANCH  28  29
ENDBRANCH  27  28
ENDBRANCH  26  27
ENDBRANCH  25  26
ENDBRANCH  24  25
ENDBRANCH  23  24
ENDBRANCH  22  23
ENDBRANCH  21  22
ENDBRANCH  20  21
ENDBRANCH  19  20
ENDBRANCH  18  19
ENDBRANCH  17  18
ENDBRANCH   1  17
TORSDOF 26
ENDMDL
MODEL 4
REMARK VINA RESULT:    -4.037      3.354      7.734
REMARK INTER + INTRA:         -13.438
REMARK INTER:                  -8.877
REMARK INTRA:                  -4.561
REMARK UNBOUND:                -3.265
REMARK SMILES CCCCCCCCCCCCCCCCCCCCCCCCCCCC(=O)[O-]
REMARK SMILES IDX 15 1 16 2 17 3 18 4 19 5 20 6 21 7 22 8 23 9 24 10 25 11
REMARK SMILES IDX 26 12 27 13 28 14 29 15 30 16 14 17 13 18 12 19 11 20 10 21
REMARK SMILES IDX 9 22 8 23 7 24 6 25 5 26 4 27 3 28 2 29 1 30
REMARK H PARENT
REMARK Flexibility Score: inf
ROOT
ATOM      1  C   UNL     1     -21.365 -22.288   2.875  1.00  0.00     0.000 C 
ENDROOT
BRANCH   1   2
ATOM      2  C   UNL     1     -20.460 -21.417   3.758  1.00  0.00     0.000 C 
BRANCH   2   3
ATOM      3  C   UNL     1     -18.974 -21.813   3.664  1.00  0.00     0.000 C 
BRANCH   3   4
ATOM      4  C   UNL     1     -17.985 -20.635   3.726  1.00  0.00     0.000 C 
BRANCH   4   5
ATOM      5  C   UNL     1     -17.008 -20.617   2.537  1.00  0.00     0.000 C 
BRANCH   5   6
ATOM      6  C   UNL     1     -16.856 -19.219   1.912  1.00  0.00     0.000 C 
BRANCH   6   7
ATOM      7  C   UNL     1     -18.032 -18.256   2.168  1.00  0.00     0.000 C 
BRANCH   7   8
ATOM      8  C   UNL     1     -17.655 -17.022   3.016  1.00  0.00     0.000 C 
BRANCH   8   9
ATOM      9  C   UNL     1     -17.757 -15.711   2.215  1.00  0.00     0.000 C 
BRANCH   9  10
ATOM     10  C   UNL     1     -17.700 -15.942   0.697  1.00  0.00     0.000 C 
BRANCH  10  11
ATOM     11  C   UNL     1     -17.819 -14.632  -0.103  1.00  0.00     0.000 C 
BRANCH  11  12
ATOM     12  C   UNL     1     -17.273 -14.761  -1.537  1.00  0.00     0.006 C 
BRANCH  12  13
ATOM     13  C   UNL     1     -17.290 -13.450  -2.338  1.00  0.00     0.053 C 
BRANCH  13  14
ATOM     14  C   UNL     1     -18.488 -13.354  -3.231  1.00  0.00     0.041 C 
ATOM     15  O   UNL     1     -19.185 -12.305  -3.245  1.00  0.00    -0.550 OA
ATOM     16  O   UNL     1     -18.815 -14.409  -4.075  1.00  0.00    -0.550 OA
ENDBRANCH  13  14
ENDBRANCH  12  13
ENDBRANCH  11  12
ENDBRANCH  10  11
ENDBRANCH   9  10
ENDBRANCH   8   9
ENDBRANCH   7   8
ENDBRANCH   6   7
ENDBRANCH   5   6
ENDBRANCH   4   5
ENDBRANCH   3   4
ENDBRANCH   2   3
ENDBRANCH   1   2
BRANCH   1  17
ATOM     17  C   UNL     1     -21.967 -21.471   1.725  1.00  0.00     0.000 C 
BRANCH  17  18
ATOM     18  C   UNL     1     -21.372 -20.055   1.688  1.00  0.00     0.000 C 
BRANCH  18  19
ATOM     19  C   UNL     1     -20.719 -19.725   0.328  1.00  0.00     0.000 C 
BRANCH  19  20
ATOM     20  C   UNL     1     -21.381 -20.433  -0.870  1.00  0.00     0.000 C 
BRANCH  20  21
ATOM     21  C   UNL     1     -22.364 -19.569  -1.679  1.00  0.00     0.000 C 
BRANCH  21  22
ATOM     22  C   UNL     1     -23.743 -19.450  -1.007  1.00  0.00    -0.000 C 
BRANCH  22  23
ATOM     23  C   UNL     1     -24.209 -17.992  -0.869  1.00  0.00    -0.000 C 
BRANCH  23  24
ATOM     24  C   UNL     1     -23.611 -17.294   0.363  1.00  0.00    -0.000 C 
BRANCH  24  25
ATOM     25  C   UNL     1     -22.658 -16.144  -0.007  1.00  0.00    -0.000 C 
BRANCH  25  26
ATOM     26  C   UNL     1     -21.299 -16.208   0.722  1.00  0.00    -0.000 C 
BRANCH  26  27
ATOM     27  C   UNL     1     -21.419 -15.814   2.206  1.00  0.00    -0.000 C 
BRANCH  27  28
ATOM     28  C   UNL     1     -21.357 -17.027   3.148  1.00  0.00    -0.000 C 
BRANCH  28  29
ATOM     29  C   UNL     1     -20.927 -16.650   4.573  1.00  0.00    -0.003 C 
ATOM     30  C   UNL     1     -20.367 -17.859   5.316  1.00  0.00     0.004 C 
ENDBRANCH  28  29
ENDBRANCH  27  28
ENDBRANCH  26  27
ENDBRANCH  25  26
ENDBRANCH  24  25
ENDBRANCH  23  24
ENDBRANCH  22  23
ENDBRANCH  21  22
ENDBRANCH  20  21
ENDBRANCH  19  20
ENDBRANCH  18  19
ENDBRANCH  17  18
ENDBRANCH   1  17
TORSDOF 26
ENDMDL
MODEL 5
REMARK VINA RESULT:    -4.022      3.141      8.752
REMARK INTER + INTRA:         -13.401
REMARK INTER:                  -9.604
REMARK INTRA:                  -3.797
REMARK UNBOUND:                -3.265
REMARK SMILES CCCCCCCCCCCCCCCCCCCCCCCCCCCC(=O)[O-]
REMARK SMILES IDX 15 1 16 2 17 3 18 4 19 5 20 6 21 7 22 8 23 9 24 10 25 11
REMARK SMILES IDX 26 12 27 13 28 14 29 15 30 16 14 17 13 18 12 19 11 20 10 21
REMARK SMILES IDX 9 22 8 23 7 24 6 25 5 26 4 27 3 28 2 29 1 30
REMARK H PARENT
REMARK Flexibility Score: inf
ROOT
ATOM      1  C   UNL     1     -12.372 -14.675   3.833  1.00  0.00     0.000 C 
ENDROOT
BRANCH   1   2
ATOM      2  C   UNL     1     -11.714 -13.705   2.840  1.00  0.00     0.000 C 
BRANCH   2   3
ATOM      3  C   UNL     1     -12.053 -14.031   1.373  1.00  0.00     0.000 C 
BRANCH   3   4
ATOM      4  C   UNL     1     -12.867 -12.948   0.640  1.00  0.00     0.000 C 
BRANCH   4   5
ATOM      5  C   UNL     1     -12.175 -11.574   0.655  1.00  0.00     0.000 C 
BRANCH   5   6
ATOM      6  C   UNL     1     -13.121 -10.435   1.073  1.00  0.00     0.000 C 
BRANCH   6   7
ATOM      7  C   UNL     1     -14.502 -10.446   0.389  1.00  0.00     0.000 C 
BRANCH   7   8
ATOM      8  C   UNL     1     -14.553  -9.646  -0.930  1.00  0.00     0.000 C 
BRANCH   8   9
ATOM      9  C   UNL     1     -15.837  -9.923  -1.731  1.00  0.00     0.000 C 
BRANCH   9  10
ATOM     10  C   UNL     1     -16.470 -11.279  -1.380  1.00  0.00     0.000 C 
BRANCH  10  11
ATOM     11  C   UNL     1     -16.791 -12.120  -2.628  1.00  0.00     0.000 C 
BRANCH  11  12
ATOM     12  C   UNL     1     -18.295 -12.420  -2.771  1.00  0.00     0.006 C 
BRANCH  12  13
ATOM     13  C   UNL     1     -19.058 -11.414  -3.647  1.00  0.00     0.053 C 
BRANCH  13  14
ATOM     14  C   UNL     1     -20.021 -12.093  -4.570  1.00  0.00     0.041 C 
ATOM     15  O   UNL     1     -21.008 -12.723  -4.105  1.00  0.00    -0.550 OA
ATOM     16  O   UNL     1     -19.850 -12.002  -5.946  1.00  0.00    -0.550 OA
ENDBRANCH  13  14
ENDBRANCH  12  13
ENDBRANCH  11  12
ENDBRANCH  10  11
ENDBRANCH   9  10
ENDBRANCH   8   9
ENDBRANCH   7   8
ENDBRANCH   6   7
ENDBRANCH   5   6
ENDBRANCH   4   5
ENDBRANCH   3   4
ENDBRANCH   2   3
ENDBRANCH   1   2
BRANCH   1  17
ATOM     17  C   UNL     1     -13.382 -13.946   4.728  1.00  0.00     0.000 C 
BRANCH  17  18
ATOM     18  C   UNL     1     -13.650 -12.525   4.211  1.00  0.00     0.000 C 
BRANCH  18  19
ATOM     19  C   UNL     1     -15.108 -12.335   3.738  1.00  0.00     0.000 C 
BRANCH  19  20
ATOM     20  C   UNL     1     -15.688 -13.556   2.996  1.00  0.00     0.000 C 
BRANCH  20  21
ATOM     21  C   UNL     1     -16.475 -13.229   1.715  1.00  0.00     0.000 C 
BRANCH  21  22
ATOM     22  C   UNL     1     -16.370 -14.338   0.654  1.00  0.00    -0.000 C 
BRANCH  22  23
ATOM     23  C   UNL     1     -17.726 -14.670   0.011  1.00  0.00    -0.000 C 
BRANCH  23  24
ATOM     24  C   UNL     1     -18.537 -15.686   0.832  1.00  0.00    -0.000 C 
BRANCH  24  25
ATOM     25  C   UNL     1     -17.655 -16.547   1.753  1.00  0.00    -0.000 C 
BRANCH  25  26
ATOM     26  C   UNL     1     -18.449 -17.589   2.570  1.00  0.00    -0.000 C 
BRANCH  26  27
ATOM     27  C   UNL     1     -18.516 -18.953   1.859  1.00  0.00    -0.000 C 
BRANCH  27  28
ATOM     28  C   UNL     1     -17.127 -19.565   1.621  1.00  0.00    -0.000 C 
BRANCH  28  29
ATOM     29  C   UNL     1     -16.718 -20.554   2.722  1.00  0.00    -0.003 C 
ATOM     30  C   UNL     1     -15.611 -19.975   3.597  1.00  0.00     0.004 C 
ENDBRANCH  28  29
ENDBRANCH  27  28
ENDBRANCH  26  27
ENDBRANCH  25  26
ENDBRANCH  24  25
ENDBRANCH  23  24
ENDBRANCH  22  23
ENDBRANCH  21  22
ENDBRANCH  20  21
ENDBRANCH  19  20
ENDBRANCH  18  19
ENDBRANCH  17  18
ENDBRANCH   1  17
TORSDOF 26
ENDMDL
MODEL 6
REMARK VINA RESULT:    -4.003      3.587      8.767
REMARK INTER + INTRA:         -13.352
REMARK INTER:                  -8.045
REMARK INTRA:                  -5.306
REMARK UNBOUND:                -3.265
REMARK SMILES CCCCCCCCCCCCCCCCCCCCCCCCCCCC(=O)[O-]
REMARK SMILES IDX 15 1 16 2 17 3 18 4 19 5 20 6 21 7 22 8 23 9 24 10 25 11
REMARK SMILES IDX 26 12 27 13 28 14 29 15 30 16 14 17 13 18 12 19 11 20 10 21
REMARK SMILES IDX 9 22 8 23 7 24 6 25 5 26 4 27 3 28 2 29 1 30
REMARK H PARENT
REMARK Flexibility Score: inf
ROOT
ATOM      1  C   UNL     1     -22.074 -21.677   1.422  1.00  0.00     0.000 C 
ENDROOT
BRANCH   1   2
ATOM      2  C   UNL     1     -22.156 -21.783  -0.108  1.00  0.00     0.000 C 
BRANCH   2   3
ATOM      3  C   UNL     1     -21.447 -20.619  -0.826  1.00  0.00     0.000 C 
BRANCH   3   4
ATOM      4  C   UNL     1     -22.372 -19.469  -1.265  1.00  0.00     0.000 C 
BRANCH   4   5
ATOM      5  C   UNL     1     -22.226 -18.219  -0.380  1.00  0.00     0.000 C 
BRANCH   5   6
ATOM      6  C   UNL     1     -23.312 -18.129   0.707  1.00  0.00     0.000 C 
BRANCH   6   7
ATOM      7  C   UNL     1     -23.170 -16.939   1.676  1.00  0.00     0.000 C 
BRANCH   7   8
ATOM      8  C   UNL     1     -22.060 -15.940   1.281  1.00  0.00     0.000 C 
BRANCH   8   9
ATOM      9  C   UNL     1     -21.225 -15.489   2.492  1.00  0.00     0.000 C 
BRANCH   9  10
ATOM     10  C   UNL     1     -19.854 -14.925   2.086  1.00  0.00     0.000 C 
BRANCH  10  11
ATOM     11  C   UNL     1     -19.571 -15.087   0.582  1.00  0.00     0.000 C 
BRANCH  11  12
ATOM     12  C   UNL     1     -18.106 -15.456   0.290  1.00  0.00     0.006 C 
BRANCH  12  13
ATOM     13  C   UNL     1     -17.120 -15.048   1.395  1.00  0.00     0.053 C 
BRANCH  13  14
ATOM     14  C   UNL     1     -16.164 -13.992   0.933  1.00  0.00     0.041 C 
ATOM     15  O   UNL     1     -15.225 -13.615   1.682  1.00  0.00    -0.550 OA
ATOM     16  O   UNL     1     -16.289 -13.448  -0.340  1.00  0.00    -0.550 OA
ENDBRANCH  13  14
ENDBRANCH  12  13
ENDBRANCH  11  12
ENDBRANCH  10  11
ENDBRANCH   9  10
ENDBRANCH   8   9
ENDBRANCH   7   8
ENDBRANCH   6   7
ENDBRANCH   5   6
ENDBRANCH   4   5
ENDBRANCH   3   4
ENDBRANCH   2   3
ENDBRANCH   1   2
BRANCH   1  17
ATOM     17  C   UNL     1     -20.789 -20.962   1.858  1.00  0.00     0.000 C 
BRANCH  17  18
ATOM     18  C   UNL     1     -21.089 -19.891   2.917  1.00  0.00     0.000 C 
BRANCH  18  19
ATOM     19  C   UNL     1     -20.075 -18.727   2.882  1.00  0.00     0.000 C 
BRANCH  19  20
ATOM     20  C   UNL     1     -19.084 -18.798   1.704  1.00  0.00     0.000 C 
BRANCH  20  21
ATOM     21  C   UNL     1     -17.597 -18.722   2.095  1.00  0.00     0.000 C 
BRANCH  21  22
ATOM     22  C   UNL     1     -16.900 -20.093   2.050  1.00  0.00    -0.000 C 
BRANCH  22  23
ATOM     23  C   UNL     1     -15.629 -20.138   2.913  1.00  0.00    -0.000 C 
BRANCH  23  24
ATOM     24  C   UNL     1     -15.868 -19.626   4.343  1.00  0.00    -0.000 C 
BRANCH  24  25
ATOM     25  C   UNL     1     -16.648 -20.627   5.212  1.00  0.00    -0.000 C 
BRANCH  25  26
ATOM     26  C   UNL     1     -18.049 -20.127   5.622  1.00  0.00    -0.000 C 
BRANCH  26  27
ATOM     27  C   UNL     1     -19.078 -21.271   5.684  1.00  0.00    -0.000 C 
BRANCH  27  28
ATOM     28  C   UNL     1     -18.811 -22.364   4.638  1.00  0.00    -0.000 C 
BRANCH  28  29
ATOM     29  C   UNL     1     -19.386 -23.729   5.045  1.00  0.00    -0.003 C 
ATOM     30  C   UNL     1     -18.410 -24.495   5.932  1.00  0.00     0.004 C 
ENDBRANCH  28  29
ENDBRANCH  27  28
ENDBRANCH  26  27
ENDBRANCH  25  26
ENDBRANCH  24  25
ENDBRANCH  23  24
ENDBRANCH  22  23
ENDBRANCH  21  22
ENDBRANCH  20  21
ENDBRANCH  19  20
ENDBRANCH  18  19
ENDBRANCH  17  18
ENDBRANCH   1  17
TORSDOF 26
ENDMDL
MODEL 7
REMARK VINA RESULT:    -3.991      3.460     10.211
REMARK INTER + INTRA:         -13.322
REMARK INTER:                  -9.618
REMARK INTRA:                  -3.704
REMARK UNBOUND:                -3.265
REMARK SMILES CCCCCCCCCCCCCCCCCCCCCCCCCCCC(=O)[O-]
REMARK SMILES IDX 15 1 16 2 17 3 18 4 19 5 20 6 21 7 22 8 23 9 24 10 25 11
REMARK SMILES IDX 26 12 27 13 28 14 29 15 30 16 14 17 13 18 12 19 11 20 10 21
REMARK SMILES IDX 9 22 8 23 7 24 6 25 5 26 4 27 3 28 2 29 1 30
REMARK H PARENT
REMARK Flexibility Score: inf
ROOT
ATOM      1  C   UNL     1     -18.546 -17.852   2.521  1.00  0.00     0.000 C 
ENDROOT
BRANCH   1   2
ATOM      2  C   UNL     1     -18.739 -16.494   1.829  1.00  0.00     0.000 C 
BRANCH   2   3
ATOM      3  C   UNL     1     -17.598 -15.504   2.129  1.00  0.00     0.000 C 
BRANCH   3   4
ATOM      4  C   UNL     1     -17.014 -14.795   0.893  1.00  0.00     0.000 C 
BRANCH   4   5
ATOM      5  C   UNL     1     -17.838 -15.050  -0.381  1.00  0.00     0.000 C 
BRANCH   5   6
ATOM      6  C   UNL     1     -17.083 -14.667  -1.666  1.00  0.00     0.000 C 
BRANCH   6   7
ATOM      7  C   UNL     1     -17.622 -13.421  -2.395  1.00  0.00     0.000 C 
BRANCH   7   8
ATOM      8  C   UNL     1     -16.634 -12.235  -2.421  1.00  0.00     0.000 C 
BRANCH   8   9
ATOM      9  C   UNL     1     -16.493 -11.564  -1.043  1.00  0.00     0.000 C 
BRANCH   9  10
ATOM     10  C   UNL     1     -15.340 -10.549  -0.995  1.00  0.00     0.000 C 
BRANCH  10  11
ATOM     11  C   UNL     1     -14.147 -11.049  -0.161  1.00  0.00     0.000 C 
BRANCH  11  12
ATOM     12  C   UNL     1     -14.438 -12.385   0.547  1.00  0.00     0.006 C 
BRANCH  12  13
ATOM     13  C   UNL     1     -13.827 -12.501   1.952  1.00  0.00     0.053 C 
BRANCH  13  14
ATOM     14  C   UNL     1     -12.677 -13.459   1.986  1.00  0.00     0.041 C 
ATOM     15  O   UNL     1     -12.418 -14.100   3.039  1.00  0.00    -0.550 OA
ATOM     16  O   UNL     1     -11.912 -13.671   0.845  1.00  0.00    -0.550 OA
ENDBRANCH  13  14
ENDBRANCH  12  13
ENDBRANCH  11  12
ENDBRANCH  10  11
ENDBRANCH   9  10
ENDBRANCH   8   9
ENDBRANCH   7   8
ENDBRANCH   6   7
ENDBRANCH   5   6
ENDBRANCH   4   5
ENDBRANCH   3   4
ENDBRANCH   2   3
ENDBRANCH   1   2
BRANCH   1  17
ATOM     17  C   UNL     1     -17.911 -18.872   1.567  1.00  0.00     0.000 C 
BRANCH  17  18
ATOM     18  C   UNL     1     -16.709 -19.565   2.226  1.00  0.00     0.000 C 
BRANCH  18  19
ATOM     19  C   UNL     1     -16.502 -19.122   3.690  1.00  0.00     0.000 C 
BRANCH  19  20
ATOM     20  C   UNL     1     -16.171 -20.281   4.651  1.00  0.00     0.000 C 
BRANCH  20  21
ATOM     21  C   UNL     1     -17.226 -20.549   5.739  1.00  0.00     0.000 C 
BRANCH  21  22
ATOM     22  C   UNL     1     -18.648 -20.164   5.296  1.00  0.00    -0.000 C 
BRANCH  22  23
ATOM     23  C   UNL     1     -19.489 -21.382   4.884  1.00  0.00    -0.000 C 
BRANCH  23  24
ATOM     24  C   UNL     1     -19.338 -21.728   3.393  1.00  0.00    -0.000 C 
BRANCH  24  25
ATOM     25  C   UNL     1     -20.667 -21.640   2.623  1.00  0.00    -0.000 C 
BRANCH  25  26
ATOM     26  C   UNL     1     -21.369 -20.272   2.757  1.00  0.00    -0.000 C 
BRANCH  26  27
ATOM     27  C   UNL     1     -22.188 -19.916   1.504  1.00  0.00    -0.000 C 
BRANCH  27  28
ATOM     28  C   UNL     1     -21.329 -19.294   0.392  1.00  0.00    -0.000 C 
BRANCH  28  29
ATOM     29  C   UNL     1     -21.067 -20.265  -0.769  1.00  0.00    -0.003 C 
ATOM     30  C   UNL     1     -22.173 -21.310  -0.872  1.00  0.00     0.004 C 
ENDBRANCH  28  29
ENDBRANCH  27  28
ENDBRANCH  26  27
ENDBRANCH  25  26
ENDBRANCH  24  25
ENDBRANCH  23  24
ENDBRANCH  22  23
ENDBRANCH  21  22
ENDBRANCH  20  21
ENDBRANCH  19  20
ENDBRANCH  18  19
ENDBRANCH  17  18
ENDBRANCH   1  17
TORSDOF 26
ENDMDL
MODEL 8
REMARK VINA RESULT:    -3.984      3.475      9.289
REMARK INTER + INTRA:         -13.304
REMARK INTER:                  -9.502
REMARK INTRA:                  -3.803
REMARK UNBOUND:                -3.265
REMARK SMILES CCCCCCCCCCCCCCCCCCCCCCCCCCCC(=O)[O-]
REMARK SMILES IDX 15 1 16 2 17 3 18 4 19 5 20 6 21 7 22 8 23 9 24 10 25 11
REMARK SMILES IDX 26 12 27 13 28 14 29 15 30 16 14 17 13 18 12 19 11 20 10 21
REMARK SMILES IDX 9 22 8 23 7 24 6 25 5 26 4 27 3 28 2 29 1 30
REMARK H PARENT
REMARK Flexibility Score: inf
ROOT
ATOM      1  C   UNL     1     -18.046 -14.780  -0.330  1.00  0.00     0.000 C 
ENDROOT
BRANCH   1   2
ATOM      2  C   UNL     1     -17.042 -14.711  -1.491  1.00  0.00     0.000 C 
BRANCH   2   3
ATOM      3  C   UNL     1     -17.251 -13.476  -2.388  1.00  0.00     0.000 C 
BRANCH   3   4
ATOM      4  C   UNL     1     -17.264 -12.129  -1.642  1.00  0.00     0.000 C 
BRANCH   4   5
ATOM      5  C   UNL     1     -16.005 -11.287  -1.916  1.00  0.00     0.000 C 
BRANCH   5   6
ATOM      6  C   UNL     1     -15.177 -11.021  -0.646  1.00  0.00     0.000 C 
BRANCH   6   7
ATOM      7  C   UNL     1     -15.715 -11.686   0.637  1.00  0.00     0.000 C 
BRANCH   7   8
ATOM      8  C   UNL     1     -14.623 -12.358   1.497  1.00  0.00     0.000 C 
BRANCH   8   9
ATOM      9  C   UNL     1     -14.054 -13.624   0.833  1.00  0.00     0.000 C 
BRANCH   9  10
ATOM     10  C   UNL     1     -12.539 -13.771   1.042  1.00  0.00     0.000 C 
BRANCH  10  11
ATOM     11  C   UNL     1     -11.975 -12.726   2.022  1.00  0.00     0.000 C 
BRANCH  11  12
ATOM     12  C   UNL     1     -11.584 -13.337   3.380  1.00  0.00     0.006 C 
BRANCH  12  13
ATOM     13  C   UNL     1     -11.590 -14.873   3.406  1.00  0.00     0.053 C 
BRANCH  13  14
ATOM     14  C   UNL     1     -12.272 -15.410   4.626  1.00  0.00     0.041 C 
ATOM     15  O   UNL     1     -13.238 -14.785   5.139  1.00  0.00    -0.550 OA
ATOM     16  O   UNL     1     -11.864 -16.619   5.177  1.00  0.00    -0.550 OA
ENDBRANCH  13  14
ENDBRANCH  12  13
ENDBRANCH  11  12
ENDBRANCH  10  11
ENDBRANCH   9  10
ENDBRANCH   8   9
ENDBRANCH   7   8
ENDBRANCH   6   7
ENDBRANCH   5   6
ENDBRANCH   4   5
ENDBRANCH   3   4
ENDBRANCH   2   3
ENDBRANCH   1   2
BRANCH   1  17
ATOM     17  C   UNL     1     -17.373 -15.285   0.952  1.00  0.00     0.000 C 
BRANCH  17  18
ATOM     18  C   UNL     1     -17.968 -16.631   1.391  1.00  0.00     0.000 C 
BRANCH  18  19
ATOM     19  C   UNL     1     -18.393 -16.632   2.875  1.00  0.00     0.000 C 
BRANCH  19  20
ATOM     20  C   UNL     1     -19.888 -16.934   3.096  1.00  0.00     0.000 C 
BRANCH  20  21
ATOM     21  C   UNL     1     -20.786 -16.727   1.863  1.00  0.00     0.000 C 
BRANCH  21  22
ATOM     22  C   UNL     1     -21.646 -17.961   1.539  1.00  0.00    -0.000 C 
BRANCH  22  23
ATOM     23  C   UNL     1     -20.932 -18.949   0.603  1.00  0.00    -0.000 C 
BRANCH  23  24
ATOM     24  C   UNL     1     -20.141 -20.022   1.368  1.00  0.00    -0.000 C 
BRANCH  24  25
ATOM     25  C   UNL     1     -20.897 -20.556   2.597  1.00  0.00    -0.000 C 
BRANCH  25  26
ATOM     26  C   UNL     1     -19.969 -21.104   3.703  1.00  0.00    -0.000 C 
BRANCH  26  27
ATOM     27  C   UNL     1     -18.518 -21.265   3.214  1.00  0.00    -0.000 C 
BRANCH  27  28
ATOM     28  C   UNL     1     -17.544 -20.313   3.925  1.00  0.00    -0.000 C 
BRANCH  28  29
ATOM     29  C   UNL     1     -16.208 -20.166   3.182  1.00  0.00    -0.003 C 
ATOM     30  C   UNL     1     -16.429 -20.007   1.681  1.00  0.00     0.004 C 
ENDBRANCH  28  29
ENDBRANCH  27  28
ENDBRANCH  26  27
ENDBRANCH  25  26
ENDBRANCH  24  25
ENDBRANCH  23  24
ENDBRANCH  22  23
ENDBRANCH  21  22
ENDBRANCH  20  21
ENDBRANCH  19  20
ENDBRANCH  18  19
ENDBRANCH  17  18
ENDBRANCH   1  17
TORSDOF 26
ENDMDL
MODEL 9
REMARK VINA RESULT:    -3.961      2.306      4.330
REMARK INTER + INTRA:         -13.246
REMARK INTER:                  -8.572
REMARK INTRA:                  -4.674
REMARK UNBOUND:                -3.265
REMARK SMILES CCCCCCCCCCCCCCCCCCCCCCCCCCCC(=O)[O-]
REMARK SMILES IDX 15 1 16 2 17 3 18 4 19 5 20 6 21 7 22 8 23 9 24 10 25 11
REMARK SMILES IDX 26 12 27 13 28 14 29 15 30 16 14 17 13 18 12 19 11 20 10 21
REMARK SMILES IDX 9 22 8 23 7 24 6 25 5 26 4 27 3 28 2 29 1 30
REMARK H PARENT
REMARK Flexibility Score: inf
ROOT
ATOM      1  C   UNL     1     -19.085 -17.810   2.252  1.00  0.00     0.000 C 
ENDROOT
BRANCH   1   2
ATOM      2  C   UNL     1     -17.593 -18.155   2.370  1.00  0.00     0.000 C 
BRANCH   2   3
ATOM      3  C   UNL     1     -17.236 -19.498   1.704  1.00  0.00     0.000 C 
BRANCH   3   4
ATOM      4  C   UNL     1     -16.105 -20.283   2.395  1.00  0.00     0.000 C 
BRANCH   4   5
ATOM      5  C   UNL     1     -15.712 -19.683   3.756  1.00  0.00     0.000 C 
BRANCH   5   6
ATOM      6  C   UNL     1     -16.236 -20.507   4.945  1.00  0.00     0.000 C 
BRANCH   6   7
ATOM      7  C   UNL     1     -17.391 -19.858   5.733  1.00  0.00     0.000 C 
BRANCH   7   8
ATOM      8  C   UNL     1     -18.794 -20.281   5.247  1.00  0.00     0.000 C 
BRANCH   8   9
ATOM      9  C   UNL     1     -18.852 -21.768   4.855  1.00  0.00     0.000 C 
BRANCH   9  10
ATOM     10  C   UNL     1     -19.312 -21.978   3.404  1.00  0.00     0.000 C 
BRANCH  10  11
ATOM     11  C   UNL     1     -20.444 -21.017   2.999  1.00  0.00     0.000 C 
BRANCH  11  12
ATOM     12  C   UNL     1     -21.347 -21.595   1.895  1.00  0.00     0.006 C 
BRANCH  12  13
ATOM     13  C   UNL     1     -21.669 -20.609   0.762  1.00  0.00     0.053 C 
BRANCH  13  14
ATOM     14  C   UNL     1     -21.962 -21.312  -0.527  1.00  0.00     0.041 C 
ATOM     15  O   UNL     1     -21.609 -20.800  -1.623  1.00  0.00    -0.550 OA
ATOM     16  O   UNL     1     -22.594 -22.549  -0.518  1.00  0.00    -0.550 OA
ENDBRANCH  13  14
ENDBRANCH  12  13
ENDBRANCH  11  12
ENDBRANCH  10  11
ENDBRANCH   9  10
ENDBRANCH   8   9
ENDBRANCH   7   8
ENDBRANCH   6   7
ENDBRANCH   5   6
ENDBRANCH   4   5
ENDBRANCH   3   4
ENDBRANCH   2   3
ENDBRANCH   1   2
BRANCH   1  17
ATOM     17  C   UNL     1     -19.502 -16.794   3.322  1.00  0.00     0.000 C 
BRANCH  17  18
ATOM     18  C   UNL     1     -18.399 -16.622   4.377  1.00  0.00     0.000 C 
BRANCH  18  19
ATOM     19  C   UNL     1     -17.893 -15.167   4.469  1.00  0.00     0.000 C 
BRANCH  19  20
ATOM     20  C   UNL     1     -17.177 -14.673   3.196  1.00  0.00     0.000 C 
BRANCH  20  21
ATOM     21  C   UNL     1     -17.846 -13.479   2.492  1.00  0.00     0.000 C 
BRANCH  21  22
ATOM     22  C   UNL     1     -17.702 -13.535   0.961  1.00  0.00    -0.000 C 
BRANCH  22  23
ATOM     23  C   UNL     1     -18.354 -14.786   0.351  1.00  0.00    -0.000 C 
BRANCH  23  24
ATOM     24  C   UNL     1     -19.890 -14.708   0.345  1.00  0.00    -0.000 C 
BRANCH  24  25
ATOM     25  C   UNL     1     -20.414 -13.320  -0.065  1.00  0.00    -0.000 C 
BRANCH  25  26
ATOM     26  C   UNL     1     -20.722 -13.198  -1.573  1.00  0.00    -0.000 C 
BRANCH  26  27
ATOM     27  C   UNL     1     -19.666 -12.358  -2.314  1.00  0.00    -0.000 C 
BRANCH  27  28
ATOM     28  C   UNL     1     -19.216 -13.003  -3.634  1.00  0.00    -0.000 C 
BRANCH  28  29
ATOM     29  C   UNL     1     -18.255 -14.182  -3.421  1.00  0.00    -0.003 C 
ATOM     30  C   UNL     1     -16.973 -13.728  -2.730  1.00  0.00     0.004 C 
ENDBRANCH  28  29
ENDBRANCH  27  28
ENDBRANCH  26  27
ENDBRANCH  25  26
ENDBRANCH  24  25
ENDBRANCH  23  24
ENDBRANCH  22  23
ENDBRANCH  21  22
ENDBRANCH  20  21
ENDBRANCH  19  20
ENDBRANCH  18  19
ENDBRANCH  17  18
ENDBRANCH   1  17
TORSDOF 26
ENDMDL
