MODEL 1
REMARK VINA RESULT:    -2.879      0.000      0.000
REMARK INTER + INTRA:          -3.132
REMARK INTER:                  -3.132
REMARK INTRA:                   0.000
REMARK UNBOUND:                 0.000
REMARK SMILES [NH3+]CC(=O)[O-]
REMARK SMILES IDX 2 1 1 2 3 6 4 7 5 8
REMARK H PARENT 1 3 1 4 1 5
REMARK Flexibility Score: inf
ROOT
ATOM      1  C   UNL     1      29.994   3.205 143.845  1.00  0.00     0.312 C 
ENDROOT
BRANCH   1   2
ATOM      2  N   UNL     1      31.098   2.879 144.746  1.00  0.00    -0.353 N 
ATOM      3  H   UNL     1      31.186   1.842 144.846  1.00  0.00     0.344 HD
ATOM      4  H   UNL     1      31.988   3.258 144.347  1.00  0.00     0.344 HD
ATOM      5  H   UNL     1      30.937   3.313 145.684  1.00  0.00     0.344 HD
ENDBRANCH   1   2
BRANCH   1   6
ATOM      6  C   UNL     1      29.214   4.373 144.366  1.00  0.00     0.096 C 
ATOM      7  O   UNL     1      29.625   5.547 144.169  1.00  0.00    -0.544 OA
ATOM      8  O   UNL     1      28.063   4.163 145.115  1.00  0.00    -0.544 OA
ENDBRANCH   1   6
TORSDOF 2
ENDMDL
MODEL 2
REMARK VINA RESULT:    -2.877      0.093      1.448
REMARK INTER + INTRA:          -3.129
REMARK INTER:                  -3.129
REMARK INTRA:                   0.000
REMARK UNBOUND:                 0.000
REMARK SMILES [NH3+]CC(=O)[O-]
REMARK SMILES IDX 2 1 1 2 3 6 4 7 5 8
REMARK H PARENT 1 3 1 4 1 5
REMARK Flexibility Score: inf
ROOT
ATOM      1  C   UNL     1      29.997   3.212 143.822  1.00  0.00     0.312 C 
ENDROOT
BRANCH   1   2
ATOM      2  N   UNL     1      31.096   2.883 144.727  1.00  0.00    -0.353 N 
ATOM      3  H   UNL     1      30.731   2.738 145.697  1.00  0.00     0.344 HD
ATOM      4  H   UNL     1      31.555   2.001 144.403  1.00  0.00     0.344 HD
ATOM      5  H   UNL     1      31.805   3.653 144.727  1.00  0.00     0.344 HD
ENDBRANCH   1   2
BRANCH   1   6
ATOM      6  C   UNL     1      29.177   4.336 144.373  1.00  0.00     0.096 C 
ATOM      7  O   UNL     1      28.094   4.096 144.971  1.00  0.00    -0.544 OA
ATOM      8  O   UNL     1      29.579   5.651 144.181  1.00  0.00    -0.544 OA
ENDBRANCH   1   6
TORSDOF 2
ENDMDL
MODEL 3
REMARK VINA RESULT:    -2.795      1.940      2.273
REMARK INTER + INTRA:          -3.040
REMARK INTER:                  -3.040
REMARK INTRA:                   0.000
REMARK UNBOUND:                 0.000
REMARK SMILES [NH3+]CC(=O)[O-]
REMARK SMILES IDX 2 1 1 2 3 6 4 7 5 8
REMARK H PARENT 1 3 1 4 1 5
REMARK Flexibility Score: inf
ROOT
ATOM      1  C   UNL     1      30.193   3.808 144.011  1.00  0.00     0.312 C 
ENDROOT
BRANCH   1   2
ATOM      2  N   UNL     1      31.084   2.892 144.720  1.00  0.00    -0.353 N 
ATOM      3  H   UNL     1      30.709   1.916 144.671  1.00  0.00     0.344 HD
ATOM      4  H   UNL     1      32.028   2.915 144.269  1.00  0.00     0.344 HD
ATOM      5  H   UNL     1      31.180   3.184 145.719  1.00  0.00     0.344 HD
ENDBRANCH   1   2
BRANCH   1   6
ATOM      6  C   UNL     1      29.128   3.051 143.281  1.00  0.00     0.096 C 
ATOM      7  O   UNL     1      27.913   3.270 143.529  1.00  0.00    -0.544 OA
ATOM      8  O   UNL     1      29.477   2.066 142.366  1.00  0.00    -0.544 OA
ENDBRANCH   1   6
TORSDOF 2
ENDMDL
MODEL 4
REMARK VINA RESULT:    -2.640     16.831     17.303
REMARK INTER + INTRA:          -2.872
REMARK INTER:                  -2.872
REMARK INTRA:                   0.000
REMARK UNBOUND:                 0.000
REMARK SMILES [NH3+]CC(=O)[O-]
REMARK SMILES IDX 2 1 1 2 3 6 4 7 5 8
REMARK H PARENT 1 3 1 4 1 5
REMARK Flexibility Score: inf
ROOT
ATOM      1  C   UNL     1      25.573  17.531 135.836  1.00  0.00     0.312 C 
ENDROOT
BRANCH   1   2
ATOM      2  N   UNL     1      24.208  18.053 135.845  1.00  0.00    -0.353 N 
ATOM      3  H   UNL     1      24.013  18.536 136.752  1.00  0.00     0.344 HD
ATOM      4  H   UNL     1      24.099  18.741 135.065  1.00  0.00     0.344 HD
ATOM      5  H   UNL     1      23.524  17.273 135.705  1.00  0.00     0.344 HD
ENDBRANCH   1   2
BRANCH   1   6
ATOM      6  C   UNL     1      26.090  17.428 134.434  1.00  0.00     0.096 C 
ATOM      7  O   UNL     1      26.408  16.306 133.958  1.00  0.00    -0.544 OA
ATOM      8  O   UNL     1      26.270  18.575 133.673  1.00  0.00    -0.544 OA
ENDBRANCH   1   6
TORSDOF 2
ENDMDL
MODEL 5
REMARK VINA RESULT:    -2.500     16.582     16.974
REMARK INTER + INTRA:          -2.719
REMARK INTER:                  -2.719
REMARK INTRA:                   0.000
REMARK UNBOUND:                 0.000
REMARK SMILES [NH3+]CC(=O)[O-]
REMARK SMILES IDX 2 1 1 2 3 6 4 7 5 8
REMARK H PARENT 1 3 1 4 1 5
REMARK Flexibility Score: inf
ROOT
ATOM      1  C   UNL     1      25.872  17.628 134.362  1.00  0.00     0.312 C 
ENDROOT
BRANCH   1   2
ATOM      2  N   UNL     1      25.922  19.059 134.072  1.00  0.00    -0.353 N 
ATOM      3  H   UNL     1      26.486  19.554 134.802  1.00  0.00     0.344 HD
ATOM      4  H   UNL     1      26.373  19.204 133.140  1.00  0.00     0.344 HD
ATOM      5  H   UNL     1      24.954  19.455 134.045  1.00  0.00     0.344 HD
ENDBRANCH   1   2
BRANCH   1   6
ATOM      6  C   UNL     1      25.677  17.392 135.828  1.00  0.00     0.096 C 
ATOM      7  O   UNL     1      26.561  16.793 136.496  1.00  0.00    -0.544 OA
ATOM      8  O   UNL     1      24.497  17.786 136.445  1.00  0.00    -0.544 OA
ENDBRANCH   1   6
TORSDOF 2
ENDMDL
MODEL 6
REMARK VINA RESULT:    -2.307     13.361     13.836
REMARK INTER + INTRA:          -2.509
REMARK INTER:                  -2.509
REMARK INTRA:                   0.000
REMARK UNBOUND:                 0.000
REMARK SMILES [NH3+]CC(=O)[O-]
REMARK SMILES IDX 2 1 1 2 3 6 4 7 5 8
REMARK H PARENT 1 3 1 4 1 5
REMARK Flexibility Score: inf
ROOT
ATOM      1  C   UNL     1      34.257  16.106 139.056  1.00  0.00     0.312 C 
ENDROOT
BRANCH   1   2
ATOM      2  N   UNL     1      33.399  16.038 140.237  1.00  0.00    -0.353 N 
ATOM      3  H   UNL     1      33.039  16.992 140.476  1.00  0.00     0.344 HD
ATOM      4  H   UNL     1      32.586  15.412 140.034  1.00  0.00     0.344 HD
ATOM      5  H   UNL     1      33.932  15.648 141.048  1.00  0.00     0.344 HD
ENDBRANCH   1   2
BRANCH   1   6
ATOM      6  C   UNL     1      35.531  15.353 139.286  1.00  0.00     0.096 C 
ATOM      7  O   UNL     1      36.642  15.913 139.086  1.00  0.00    -0.544 OA
ATOM      8  O   UNL     1      35.491  14.019 139.669  1.00  0.00    -0.544 OA
ENDBRANCH   1   6
TORSDOF 2
ENDMDL
MODEL 7
REMARK VINA RESULT:    -2.267     13.899     14.380
REMARK INTER + INTRA:          -2.466
REMARK INTER:                  -2.466
REMARK INTRA:                   0.000
REMARK UNBOUND:                 0.000
REMARK SMILES [NH3+]CC(=O)[O-]
REMARK SMILES IDX 2 1 1 2 3 6 4 7 5 8
REMARK H PARENT 1 3 1 4 1 5
REMARK Flexibility Score: inf
ROOT
ATOM      1  C   UNL     1      31.433  16.727 139.329  1.00  0.00     0.312 C 
ENDROOT
BRANCH   1   2
ATOM      2  N   UNL     1      32.528  16.475 140.263  1.00  0.00    -0.353 N 
ATOM      3  H   UNL     1      33.307  15.973 139.776  1.00  0.00     0.344 HD
ATOM      4  H   UNL     1      32.888  17.389 140.624  1.00  0.00     0.344 HD
ATOM      5  H   UNL     1      32.188  15.903 141.069  1.00  0.00     0.344 HD
ENDBRANCH   1   2
BRANCH   1   6
ATOM      6  C   UNL     1      30.625  17.909 139.769  1.00  0.00     0.096 C 
ATOM      7  O   UNL     1      30.606  18.958 139.073  1.00  0.00    -0.544 OA
ATOM      8  O   UNL     1      29.935  17.870 140.974  1.00  0.00    -0.544 OA
ENDBRANCH   1   6
TORSDOF 2
ENDMDL
MODEL 8
REMARK VINA RESULT:    -2.255     13.861     14.255
REMARK INTER + INTRA:          -2.453
REMARK INTER:                  -2.453
REMARK INTRA:                   0.000
REMARK UNBOUND:                 0.000
REMARK SMILES [NH3+]CC(=O)[O-]
REMARK SMILES IDX 2 1 1 2 3 6 4 7 5 8
REMARK H PARENT 1 3 1 4 1 5
REMARK Flexibility Score: inf
ROOT
ATOM      1  C   UNL     1      35.602  16.514 138.351  1.00  0.00     0.312 C 
ENDROOT
BRANCH   1   2
ATOM      2  N   UNL     1      37.042  16.430 138.592  1.00  0.00    -0.353 N 
ATOM      3  H   UNL     1      37.458  17.390 138.616  1.00  0.00     0.344 HD
ATOM      4  H   UNL     1      37.208  15.966 139.515  1.00  0.00     0.344 HD
ATOM      5  H   UNL     1      37.500  15.864 137.841  1.00  0.00     0.344 HD
ENDBRANCH   1   2
BRANCH   1   6
ATOM      6  C   UNL     1      34.852  15.684 139.346  1.00  0.00     0.096 C 
ATOM      7  O   UNL     1      33.793  16.124 139.868  1.00  0.00    -0.544 OA
ATOM      8  O   UNL     1      35.348  14.447 139.736  1.00  0.00    -0.544 OA
ENDBRANCH   1   6
TORSDOF 2
ENDMDL
MODEL 9
REMARK VINA RESULT:    -2.226      2.038      2.576
REMARK INTER + INTRA:          -2.421
REMARK INTER:                  -2.421
REMARK INTRA:                   0.000
REMARK UNBOUND:                 0.000
REMARK SMILES [NH3+]CC(=O)[O-]
REMARK SMILES IDX 2 1 1 2 3 6 4 7 5 8
REMARK H PARENT 1 3 1 4 1 5
REMARK Flexibility Score: inf
ROOT
ATOM      1  C   UNL     1      28.835   5.757 144.199  1.00  0.00     0.312 C 
ENDROOT
BRANCH   1   2
ATOM      2  N   UNL     1      30.018   6.305 144.859  1.00  0.00    -0.353 N 
ATOM      3  H   UNL     1      30.274   7.226 144.432  1.00  0.00     0.344 HD
ATOM      4  H   UNL     1      29.808   6.450 145.873  1.00  0.00     0.344 HD
ATOM      5  H   UNL     1      30.820   5.639 144.771  1.00  0.00     0.344 HD
ENDBRANCH   1   2
BRANCH   1   6
ATOM      6  C   UNL     1      28.795   4.267 144.339  1.00  0.00     0.096 C 
ATOM      7  O   UNL     1      27.704   3.681 144.568  1.00  0.00    -0.544 OA
ATOM      8  O   UNL     1      29.970   3.530 144.269  1.00  0.00    -0.544 OA
ENDBRANCH   1   6
TORSDOF 2
ENDMDL
