MODEL 1
REMARK VINA RESULT:    -3.813      0.000      0.000
REMARK INTER + INTRA:          -9.017
REMARK INTER:                  -6.934
REMARK INTRA:                  -2.083
REMARK UNBOUND:                -2.083
REMARK SMILES CCCCCCCCCCCCCCCC(=O)[O-]
REMARK SMILES IDX 9 1 10 2 11 3 12 4 13 5 14 6 15 7 16 8 17 9 18 10 8 11 7 12
REMARK SMILES IDX 6 13 5 14 4 15 3 16 2 17 1 18
REMARK H PARENT
REMARK Flexibility Score: inf
ROOT
ATOM      1  C   UNL     1       0.457   8.243  -7.940  1.00  0.00     0.000 C 
ENDROOT
BRANCH   1   2
ATOM      2  C   UNL     1      -0.998   8.007  -8.381  1.00  0.00     0.000 C 
BRANCH   2   3
ATOM      3  C   UNL     1      -1.161   6.757  -9.267  1.00  0.00     0.000 C 
BRANCH   3   4
ATOM      4  C   UNL     1      -1.668   7.026 -10.698  1.00  0.00     0.000 C 
BRANCH   4   5
ATOM      5  C   UNL     1      -3.059   7.683 -10.727  1.00  0.00     0.000 C 
BRANCH   5   6
ATOM      6  C   UNL     1      -3.019   9.131 -11.244  1.00  0.00     0.006 C 
BRANCH   6   7
ATOM      7  C   UNL     1      -4.370   9.602 -11.799  1.00  0.00     0.053 C 
BRANCH   7   8
ATOM      8  C   UNL     1      -5.066  10.471 -10.800  1.00  0.00     0.041 C 
ATOM      9  O   UNL     1      -4.402  11.240 -10.057  1.00  0.00    -0.550 OA
ATOM     10  O   UNL     1      -6.454  10.467 -10.722  1.00  0.00    -0.550 OA
ENDBRANCH   7   8
ENDBRANCH   6   7
ENDBRANCH   5   6
ENDBRANCH   4   5
ENDBRANCH   3   4
ENDBRANCH   2   3
ENDBRANCH   1   2
BRANCH   1  11
ATOM     11  C   UNL     1       1.446   7.281  -8.620  1.00  0.00     0.000 C 
BRANCH  11  12
ATOM     12  C   UNL     1       2.390   7.997  -9.602  1.00  0.00    -0.000 C 
BRANCH  12  13
ATOM     13  C   UNL     1       1.996   7.778 -11.074  1.00  0.00    -0.000 C 
BRANCH  13  14
ATOM     14  C   UNL     1       1.687   9.063 -11.862  1.00  0.00    -0.000 C 
BRANCH  14  15
ATOM     15  C   UNL     1       0.553   9.891 -11.232  1.00  0.00    -0.000 C 
BRANCH  15  16
ATOM     16  C   UNL     1       0.966  11.345 -10.959  1.00  0.00    -0.000 C 
BRANCH  16  17
ATOM     17  C   UNL     1       2.442  11.472 -10.550  1.00  0.00    -0.003 C 
ATOM     18  C   UNL     1       2.582  11.636  -9.039  1.00  0.00     0.004 C 
ENDBRANCH  16  17
ENDBRANCH  15  16
ENDBRANCH  14  15
ENDBRANCH  13  14
ENDBRANCH  12  13
ENDBRANCH  11  12
ENDBRANCH   1  11
TORSDOF 14
ENDMDL
MODEL 2
REMARK VINA RESULT:    -3.619      3.022      5.565
REMARK INTER + INTRA:          -8.663
REMARK INTER:                  -6.461
REMARK INTRA:                  -2.202
REMARK UNBOUND:                -2.083
REMARK SMILES CCCCCCCCCCCCCCCC(=O)[O-]
REMARK SMILES IDX 9 1 10 2 11 3 12 4 13 5 14 6 15 7 16 8 17 9 18 10 8 11 7 12
REMARK SMILES IDX 6 13 5 14 4 15 3 16 2 17 1 18
REMARK H PARENT
REMARK Flexibility Score: inf
ROOT
ATOM      1  C   UNL     1       1.834   7.399  -8.657  1.00  0.00     0.000 C 
ENDROOT
BRANCH   1   2
ATOM      2  C   UNL     1       2.608   8.216  -9.706  1.00  0.00     0.000 C 
BRANCH   2   3
ATOM      3  C   UNL     1       2.178   7.897 -11.151  1.00  0.00     0.000 C 
BRANCH   3   4
ATOM      4  C   UNL     1       1.627   9.093 -11.952  1.00  0.00     0.000 C 
BRANCH   4   5
ATOM      5  C   UNL     1       0.670   9.974 -11.130  1.00  0.00     0.000 C 
BRANCH   5   6
ATOM      6  C   UNL     1       1.171  11.422 -10.990  1.00  0.00     0.006 C 
BRANCH   6   7
ATOM      7  C   UNL     1       2.621  11.597 -11.458  1.00  0.00     0.053 C 
BRANCH   7   8
ATOM      8  C   UNL     1       3.528  11.775 -10.282  1.00  0.00     0.041 C 
ATOM      9  O   UNL     1       4.726  12.122 -10.453  1.00  0.00    -0.550 OA
ATOM     10  O   UNL     1       3.039  11.601  -8.993  1.00  0.00    -0.550 OA
ENDBRANCH   7   8
ENDBRANCH   6   7
ENDBRANCH   5   6
ENDBRANCH   4   5
ENDBRANCH   3   4
ENDBRANCH   2   3
ENDBRANCH   1   2
BRANCH   1  11
ATOM     11  C   UNL     1       0.772   8.234  -7.921  1.00  0.00     0.000 C 
BRANCH  11  12
ATOM     12  C   UNL     1      -0.663   7.876  -8.344  1.00  0.00    -0.000 C 
BRANCH  12  13
ATOM     13  C   UNL     1      -0.720   6.653  -9.278  1.00  0.00    -0.000 C 
BRANCH  13  14
ATOM     14  C   UNL     1      -1.335   6.922 -10.662  1.00  0.00    -0.000 C 
BRANCH  14  15
ATOM     15  C   UNL     1      -2.860   7.126 -10.609  1.00  0.00    -0.000 C 
BRANCH  15  16
ATOM     16  C   UNL     1      -3.319   8.348 -11.419  1.00  0.00    -0.000 C 
BRANCH  16  17
ATOM     17  C   UNL     1      -2.903   9.677 -10.769  1.00  0.00    -0.003 C 
ATOM     18  C   UNL     1      -2.904  10.812 -11.788  1.00  0.00     0.004 C 
ENDBRANCH  16  17
ENDBRANCH  15  16
ENDBRANCH  14  15
ENDBRANCH  13  14
ENDBRANCH  12  13
ENDBRANCH  11  12
ENDBRANCH   1  11
TORSDOF 14
ENDMDL
MODEL 3
REMARK VINA RESULT:    -3.500      1.297      2.475
REMARK INTER + INTRA:          -8.447
REMARK INTER:                  -6.483
REMARK INTRA:                  -1.964
REMARK UNBOUND:                -2.083
REMARK SMILES CCCCCCCCCCCCCCCC(=O)[O-]
REMARK SMILES IDX 9 1 10 2 11 3 12 4 13 5 14 6 15 7 16 8 17 9 18 10 8 11 7 12
REMARK SMILES IDX 6 13 5 14 4 15 3 16 2 17 1 18
REMARK H PARENT
REMARK Flexibility Score: inf
ROOT
ATOM      1  C   UNL     1       2.225   8.406  -9.621  1.00  0.00     0.000 C 
ENDROOT
BRANCH   1   2
ATOM      2  C   UNL     1       1.511   7.441  -8.659  1.00  0.00     0.000 C 
BRANCH   2   3
ATOM      3  C   UNL     1       0.407   8.126  -7.831  1.00  0.00     0.000 C 
BRANCH   3   4
ATOM      4  C   UNL     1      -1.023   7.963  -8.380  1.00  0.00     0.000 C 
BRANCH   4   5
ATOM      5  C   UNL     1      -1.124   6.892  -9.481  1.00  0.00     0.000 C 
BRANCH   5   6
ATOM      6  C   UNL     1      -2.012   7.334 -10.657  1.00  0.00     0.006 C 
BRANCH   6   7
ATOM      7  C   UNL     1      -2.960   8.482 -10.288  1.00  0.00     0.053 C 
BRANCH   7   8
ATOM      8  C   UNL     1      -4.172   8.456 -11.164  1.00  0.00     0.041 C 
ATOM      9  O   UNL     1      -4.244   7.643 -12.123  1.00  0.00    -0.550 OA
ATOM     10  O   UNL     1      -5.244   9.298 -10.894  1.00  0.00    -0.550 OA
ENDBRANCH   7   8
ENDBRANCH   6   7
ENDBRANCH   5   6
ENDBRANCH   4   5
ENDBRANCH   3   4
ENDBRANCH   2   3
ENDBRANCH   1   2
BRANCH   1  11
ATOM     11  C   UNL     1       2.134   7.956 -11.089  1.00  0.00     0.000 C 
BRANCH  11  12
ATOM     12  C   UNL     1       1.474   9.011 -11.994  1.00  0.00    -0.000 C 
BRANCH  12  13
ATOM     13  C   UNL     1       0.495   9.922 -11.230  1.00  0.00    -0.000 C 
BRANCH  13  14
ATOM     14  C   UNL     1       0.248  11.296 -11.876  1.00  0.00    -0.000 C 
BRANCH  14  15
ATOM     15  C   UNL     1       1.364  12.310 -11.568  1.00  0.00    -0.000 C 
BRANCH  15  16
ATOM     16  C   UNL     1       1.091  13.116 -10.289  1.00  0.00    -0.000 C 
BRANCH  16  17
ATOM     17  C   UNL     1       2.327  13.221  -9.383  1.00  0.00    -0.003 C 
ATOM     18  C   UNL     1       2.591  11.905  -8.656  1.00  0.00     0.004 C 
ENDBRANCH  16  17
ENDBRANCH  15  16
ENDBRANCH  14  15
ENDBRANCH  13  14
ENDBRANCH  12  13
ENDBRANCH  11  12
ENDBRANCH   1  11
TORSDOF 14
ENDMDL
MODEL 4
REMARK VINA RESULT:    -3.457     15.670     17.663
REMARK INTER + INTRA:          -8.369
REMARK INTER:                  -6.820
REMARK INTRA:                  -1.549
REMARK UNBOUND:                -2.083
REMARK SMILES CCCCCCCCCCCCCCCC(=O)[O-]
REMARK SMILES IDX 9 1 10 2 11 3 12 4 13 5 14 6 15 7 16 8 17 9 18 10 8 11 7 12
REMARK SMILES IDX 6 13 5 14 4 15 3 16 2 17 1 18
REMARK H PARENT
REMARK Flexibility Score: inf
ROOT
ATOM      1  C   UNL     1      -0.207  12.980   4.026  1.00  0.00     0.000 C 
ENDROOT
BRANCH   1   2
ATOM      2  C   UNL     1       0.776  13.719   4.951  1.00  0.00     0.000 C 
BRANCH   2   3
ATOM      3  C   UNL     1       2.236  13.633   4.467  1.00  0.00     0.000 C 
BRANCH   3   4
ATOM      4  C   UNL     1       3.300  13.650   5.583  1.00  0.00     0.000 C 
BRANCH   4   5
ATOM      5  C   UNL     1       3.018  12.625   6.695  1.00  0.00     0.000 C 
BRANCH   5   6
ATOM      6  C   UNL     1       4.305  12.011   7.274  1.00  0.00     0.006 C 
BRANCH   6   7
ATOM      7  C   UNL     1       5.513  12.176   6.344  1.00  0.00     0.053 C 
BRANCH   7   8
ATOM      8  C   UNL     1       6.050  10.838   5.947  1.00  0.00     0.041 C 
ATOM      9  O   UNL     1       7.273  10.699   5.681  1.00  0.00    -0.550 OA
ATOM     10  O   UNL     1       5.208   9.732   5.916  1.00  0.00    -0.550 OA
ENDBRANCH   7   8
ENDBRANCH   6   7
ENDBRANCH   5   6
ENDBRANCH   4   5
ENDBRANCH   3   4
ENDBRANCH   2   3
ENDBRANCH   1   2
BRANCH   1  11
ATOM     11  C   UNL     1      -0.568  11.577   4.544  1.00  0.00     0.000 C 
BRANCH  11  12
ATOM     12  C   UNL     1      -0.423  11.452   6.070  1.00  0.00    -0.000 C 
BRANCH  12  13
ATOM     13  C   UNL     1      -1.558  10.633   6.711  1.00  0.00    -0.000 C 
BRANCH  13  14
ATOM     14  C   UNL     1      -2.189   9.570   5.794  1.00  0.00    -0.000 C 
BRANCH  14  15
ATOM     15  C   UNL     1      -3.727   9.630   5.782  1.00  0.00    -0.000 C 
BRANCH  15  16
ATOM     16  C   UNL     1      -4.269  10.657   4.776  1.00  0.00    -0.000 C 
BRANCH  16  17
ATOM     17  C   UNL     1      -4.642  11.992   5.439  1.00  0.00    -0.003 C 
ATOM     18  C   UNL     1      -3.961  13.164   4.739  1.00  0.00     0.004 C 
ENDBRANCH  16  17
ENDBRANCH  15  16
ENDBRANCH  14  15
ENDBRANCH  13  14
ENDBRANCH  12  13
ENDBRANCH  11  12
ENDBRANCH   1  11
TORSDOF 14
ENDMDL
MODEL 5
REMARK VINA RESULT:    -3.433     15.583     17.328
REMARK INTER + INTRA:          -8.325
REMARK INTER:                  -6.266
REMARK INTRA:                  -2.060
REMARK UNBOUND:                -2.083
REMARK SMILES CCCCCCCCCCCCCCCC(=O)[O-]
REMARK SMILES IDX 9 1 10 2 11 3 12 4 13 5 14 6 15 7 16 8 17 9 18 10 8 11 7 12
REMARK SMILES IDX 6 13 5 14 4 15 3 16 2 17 1 18
REMARK H PARENT
REMARK Flexibility Score: inf
ROOT
ATOM      1  C   UNL     1      -1.550  10.951   6.647  1.00  0.00     0.000 C 
ENDROOT
BRANCH   1   2
ATOM      2  C   UNL     1      -1.414  10.597   5.156  1.00  0.00     0.000 C 
BRANCH   2   3
ATOM      3  C   UNL     1      -0.351  11.446   4.433  1.00  0.00     0.000 C 
BRANCH   3   4
ATOM      4  C   UNL     1      -0.705  12.936   4.260  1.00  0.00     0.000 C 
BRANCH   4   5
ATOM      5  C   UNL     1       0.303  13.874   4.948  1.00  0.00     0.000 C 
BRANCH   5   6
ATOM      6  C   UNL     1       1.756  13.395   4.798  1.00  0.00     0.006 C 
BRANCH   6   7
ATOM      7  C   UNL     1       2.526  13.407   6.125  1.00  0.00     0.053 C 
BRANCH   7   8
ATOM      8  C   UNL     1       2.800  12.008   6.579  1.00  0.00     0.041 C 
ATOM      9  O   UNL     1       1.908  11.349   7.174  1.00  0.00    -0.550 OA
ATOM     10  O   UNL     1       4.026  11.415   6.304  1.00  0.00    -0.550 OA
ENDBRANCH   7   8
ENDBRANCH   6   7
ENDBRANCH   5   6
ENDBRANCH   4   5
ENDBRANCH   3   4
ENDBRANCH   2   3
ENDBRANCH   1   2
BRANCH   1  11
ATOM     11  C   UNL     1      -2.355   9.902   7.434  1.00  0.00     0.000 C 
BRANCH  11  12
ATOM     12  C   UNL     1      -2.396   8.535   6.731  1.00  0.00    -0.000 C 
BRANCH  12  13
ATOM     13  C   UNL     1      -3.803   7.908   6.727  1.00  0.00    -0.000 C 
BRANCH  13  14
ATOM     14  C   UNL     1      -4.961   8.914   6.610  1.00  0.00    -0.000 C 
BRANCH  14  15
ATOM     15  C   UNL     1      -5.522   9.014   5.180  1.00  0.00    -0.000 C 
BRANCH  15  16
ATOM     16  C   UNL     1      -5.102  10.310   4.472  1.00  0.00    -0.000 C 
BRANCH  16  17
ATOM     17  C   UNL     1      -5.055  11.515   5.424  1.00  0.00    -0.003 C 
ATOM     18  C   UNL     1      -4.436  12.732   4.744  1.00  0.00     0.004 C 
ENDBRANCH  16  17
ENDBRANCH  15  16
ENDBRANCH  14  15
ENDBRANCH  13  14
ENDBRANCH  12  13
ENDBRANCH  11  12
ENDBRANCH   1  11
TORSDOF 14
ENDMDL
MODEL 6
REMARK VINA RESULT:    -3.417     15.887     17.804
REMARK INTER + INTRA:          -8.296
REMARK INTER:                  -6.841
REMARK INTRA:                  -1.455
REMARK UNBOUND:                -2.083
REMARK SMILES CCCCCCCCCCCCCCCC(=O)[O-]
REMARK SMILES IDX 9 1 10 2 11 3 12 4 13 5 14 6 15 7 16 8 17 9 18 10 8 11 7 12
REMARK SMILES IDX 6 13 5 14 4 15 3 16 2 17 1 18
REMARK H PARENT
REMARK Flexibility Score: inf
ROOT
ATOM      1  C   UNL     1      -0.297  12.195   4.471  1.00  0.00     0.000 C 
ENDROOT
BRANCH   1   2
ATOM      2  C   UNL     1       0.985  12.364   5.304  1.00  0.00     0.000 C 
BRANCH   2   3
ATOM      3  C   UNL     1       1.935  13.434   4.733  1.00  0.00     0.000 C 
BRANCH   3   4
ATOM      4  C   UNL     1       3.280  13.581   5.472  1.00  0.00     0.000 C 
BRANCH   4   5
ATOM      5  C   UNL     1       3.285  12.893   6.849  1.00  0.00     0.000 C 
BRANCH   5   6
ATOM      6  C   UNL     1       4.670  12.342   7.230  1.00  0.00     0.006 C 
BRANCH   6   7
ATOM      7  C   UNL     1       5.623  12.249   6.031  1.00  0.00     0.053 C 
BRANCH   7   8
ATOM      8  C   UNL     1       6.181  10.866   5.918  1.00  0.00     0.041 C 
ATOM      9  O   UNL     1       7.427  10.688   5.865  1.00  0.00    -0.550 OA
ATOM     10  O   UNL     1       5.328   9.769   5.917  1.00  0.00    -0.550 OA
ENDBRANCH   7   8
ENDBRANCH   6   7
ENDBRANCH   5   6
ENDBRANCH   4   5
ENDBRANCH   3   4
ENDBRANCH   2   3
ENDBRANCH   1   2
BRANCH   1  11
ATOM     11  C   UNL     1      -1.086  13.508   4.324  1.00  0.00     0.000 C 
BRANCH  11  12
ATOM     12  C   UNL     1      -2.258  13.609   5.315  1.00  0.00    -0.000 C 
BRANCH  12  13
ATOM     13  C   UNL     1      -3.631  13.597   4.617  1.00  0.00    -0.000 C 
BRANCH  13  14
ATOM     14  C   UNL     1      -4.478  12.338   4.871  1.00  0.00    -0.000 C 
BRANCH  14  15
ATOM     15  C   UNL     1      -3.832  11.380   5.889  1.00  0.00    -0.000 C 
BRANCH  15  16
ATOM     16  C   UNL     1      -3.271  10.111   5.230  1.00  0.00    -0.000 C 
BRANCH  16  17
ATOM     17  C   UNL     1      -2.339   9.324   6.164  1.00  0.00    -0.003 C 
ATOM     18  C   UNL     1      -1.779  10.219   7.265  1.00  0.00     0.004 C 
ENDBRANCH  16  17
ENDBRANCH  15  16
ENDBRANCH  14  15
ENDBRANCH  13  14
ENDBRANCH  12  13
ENDBRANCH  11  12
ENDBRANCH   1  11
TORSDOF 14
ENDMDL
MODEL 7
REMARK VINA RESULT:    -3.370     15.285     16.443
REMARK INTER + INTRA:          -8.212
REMARK INTER:                  -7.542
REMARK INTRA:                  -0.670
REMARK UNBOUND:                -2.083
REMARK SMILES CCCCCCCCCCCCCCCC(=O)[O-]
REMARK SMILES IDX 9 1 10 2 11 3 12 4 13 5 14 6 15 7 16 8 17 9 18 10 8 11 7 12
REMARK SMILES IDX 6 13 5 14 4 15 3 16 2 17 1 18
REMARK H PARENT
REMARK Flexibility Score: inf
ROOT
ATOM      1  C   UNL     1      -0.390  11.374   4.603  1.00  0.00     0.000 C 
ENDROOT
BRANCH   1   2
ATOM      2  C   UNL     1      -1.485  10.951   5.598  1.00  0.00     0.000 C 
BRANCH   2   3
ATOM      3  C   UNL     1      -2.879  11.489   5.221  1.00  0.00     0.000 C 
BRANCH   3   4
ATOM      4  C   UNL     1      -4.004  10.437   5.194  1.00  0.00     0.000 C 
BRANCH   4   5
ATOM      5  C   UNL     1      -4.664  10.229   6.568  1.00  0.00     0.000 C 
BRANCH   5   6
ATOM      6  C   UNL     1      -5.527   8.957   6.624  1.00  0.00     0.006 C 
BRANCH   6   7
ATOM      7  C   UNL     1      -6.078   8.551   5.251  1.00  0.00     0.053 C 
BRANCH   7   8
ATOM      8  C   UNL     1      -6.324   7.076   5.205  1.00  0.00     0.041 C 
ATOM      9  O   UNL     1      -6.685   6.527   4.131  1.00  0.00    -0.550 OA
ATOM     10  O   UNL     1      -6.108   6.299   6.337  1.00  0.00    -0.550 OA
ENDBRANCH   7   8
ENDBRANCH   6   7
ENDBRANCH   5   6
ENDBRANCH   4   5
ENDBRANCH   3   4
ENDBRANCH   2   3
ENDBRANCH   1   2
BRANCH   1  11
ATOM     11  C   UNL     1      -0.425  12.879   4.287  1.00  0.00     0.000 C 
BRANCH  11  12
ATOM     12  C   UNL     1       0.574  13.686   5.133  1.00  0.00    -0.000 C 
BRANCH  12  13
ATOM     13  C   UNL     1       2.040  13.405   4.754  1.00  0.00    -0.000 C 
BRANCH  13  14
ATOM     14  C   UNL     1       2.883  12.752   5.864  1.00  0.00    -0.000 C 
BRANCH  14  15
ATOM     15  C   UNL     1       4.329  13.279   5.903  1.00  0.00    -0.000 C 
BRANCH  15  16
ATOM     16  C   UNL     1       5.234  12.447   6.823  1.00  0.00    -0.000 C 
BRANCH  16  17
ATOM     17  C   UNL     1       5.148  10.941   6.530  1.00  0.00    -0.003 C 
ATOM     18  C   UNL     1       6.371  10.460   5.755  1.00  0.00     0.004 C 
ENDBRANCH  16  17
ENDBRANCH  15  16
ENDBRANCH  14  15
ENDBRANCH  13  14
ENDBRANCH  12  13
ENDBRANCH  11  12
ENDBRANCH   1  11
TORSDOF 14
ENDMDL
MODEL 8
REMARK VINA RESULT:    -3.344     15.479     16.855
REMARK INTER + INTRA:          -8.165
REMARK INTER:                  -6.849
REMARK INTRA:                  -1.315
REMARK UNBOUND:                -2.083
REMARK SMILES CCCCCCCCCCCCCCCC(=O)[O-]
REMARK SMILES IDX 9 1 10 2 11 3 12 4 13 5 14 6 15 7 16 8 17 9 18 10 8 11 7 12
REMARK SMILES IDX 6 13 5 14 4 15 3 16 2 17 1 18
REMARK H PARENT
REMARK Flexibility Score: inf
ROOT
ATOM      1  C   UNL     1       0.709  12.249   5.465  1.00  0.00     0.000 C 
ENDROOT
BRANCH   1   2
ATOM      2  C   UNL     1      -0.334  12.220   4.335  1.00  0.00     0.000 C 
BRANCH   2   3
ATOM      3  C   UNL     1      -1.241  13.465   4.324  1.00  0.00     0.000 C 
BRANCH   3   4
ATOM      4  C   UNL     1      -2.325  13.498   5.419  1.00  0.00     0.000 C 
BRANCH   4   5
ATOM      5  C   UNL     1      -3.550  12.632   5.077  1.00  0.00     0.000 C 
BRANCH   5   6
ATOM      6  C   UNL     1      -3.669  11.392   5.980  1.00  0.00     0.006 C 
BRANCH   6   7
ATOM      7  C   UNL     1      -3.094  10.127   5.331  1.00  0.00     0.053 C 
BRANCH   7   8
ATOM      8  C   UNL     1      -2.127   9.461   6.259  1.00  0.00     0.041 C 
ATOM      9  O   UNL     1      -1.901   8.227   6.160  1.00  0.00    -0.550 OA
ATOM     10  O   UNL     1      -1.441  10.213   7.205  1.00  0.00    -0.550 OA
ENDBRANCH   7   8
ENDBRANCH   6   7
ENDBRANCH   5   6
ENDBRANCH   4   5
ENDBRANCH   3   4
ENDBRANCH   2   3
ENDBRANCH   1   2
BRANCH   1  11
ATOM     11  C   UNL     1       1.429  13.604   5.573  1.00  0.00     0.000 C 
BRANCH  11  12
ATOM     12  C   UNL     1       2.658  13.699   4.653  1.00  0.00    -0.000 C 
BRANCH  12  13
ATOM     13  C   UNL     1       3.961  13.978   5.425  1.00  0.00    -0.000 C 
BRANCH  13  14
ATOM     14  C   UNL     1       3.941  13.555   6.904  1.00  0.00    -0.000 C 
BRANCH  14  15
ATOM     15  C   UNL     1       5.064  12.562   7.256  1.00  0.00    -0.000 C 
BRANCH  15  16
ATOM     16  C   UNL     1       5.864  12.116   6.023  1.00  0.00    -0.000 C 
BRANCH  16  17
ATOM     17  C   UNL     1       6.358  10.666   6.133  1.00  0.00    -0.003 C 
ATOM     18  C   UNL     1       5.324   9.782   6.824  1.00  0.00     0.004 C 
ENDBRANCH  16  17
ENDBRANCH  15  16
ENDBRANCH  14  15
ENDBRANCH  13  14
ENDBRANCH  12  13
ENDBRANCH  11  12
ENDBRANCH   1  11
TORSDOF 14
ENDMDL
MODEL 9
REMARK VINA RESULT:    -3.321      3.212      5.778
REMARK INTER + INTRA:          -8.122
REMARK INTER:                  -6.209
REMARK INTRA:                  -1.914
REMARK UNBOUND:                -2.083
REMARK SMILES CCCCCCCCCCCCCCCC(=O)[O-]
REMARK SMILES IDX 9 1 10 2 11 3 12 4 13 5 14 6 15 7 16 8 17 9 18 10 8 11 7 12
REMARK SMILES IDX 6 13 5 14 4 15 3 16 2 17 1 18
REMARK H PARENT
REMARK Flexibility Score: inf
ROOT
ATOM      1  C   UNL     1      -4.120   9.828 -10.307  1.00  0.00     0.000 C 
ENDROOT
BRANCH   1   2
ATOM      2  C   UNL     1      -3.841  11.245 -10.837  1.00  0.00     0.000 C 
BRANCH   2   3
ATOM      3  C   UNL     1      -2.947  11.251 -12.093  1.00  0.00     0.000 C 
BRANCH   3   4
ATOM      4  C   UNL     1      -1.474  11.632 -11.849  1.00  0.00     0.000 C 
BRANCH   4   5
ATOM      5  C   UNL     1      -0.606  10.432 -11.430  1.00  0.00     0.000 C 
BRANCH   5   6
ATOM      6  C   UNL     1       0.900  10.715 -11.564  1.00  0.00     0.006 C 
BRANCH   6   7
ATOM      7  C   UNL     1       1.534  11.194 -10.252  1.00  0.00     0.053 C 
BRANCH   7   8
ATOM      8  C   UNL     1       3.014  10.979 -10.281  1.00  0.00     0.041 C 
ATOM      9  O   UNL     1       3.487   9.884 -10.683  1.00  0.00    -0.550 OA
ATOM     10  O   UNL     1       3.873  12.006  -9.908  1.00  0.00    -0.550 OA
ENDBRANCH   7   8
ENDBRANCH   6   7
ENDBRANCH   5   6
ENDBRANCH   4   5
ENDBRANCH   3   4
ENDBRANCH   2   3
ENDBRANCH   1   2
BRANCH   1  11
ATOM     11  C   UNL     1      -4.165   8.774 -11.427  1.00  0.00     0.000 C 
BRANCH  11  12
ATOM     12  C   UNL     1      -3.101   7.678 -11.253  1.00  0.00    -0.000 C 
BRANCH  12  13
ATOM     13  C   UNL     1      -2.571   7.586  -9.810  1.00  0.00    -0.000 C 
BRANCH  13  14
ATOM     14  C   UNL     1      -1.351   6.667  -9.624  1.00  0.00    -0.000 C 
BRANCH  14  15
ATOM     15  C   UNL     1      -0.233   6.945 -10.645  1.00  0.00    -0.000 C 
BRANCH  15  16
ATOM     16  C   UNL     1       1.073   7.404  -9.978  1.00  0.00    -0.000 C 
BRANCH  16  17
ATOM     17  C   UNL     1       1.056   7.212  -8.454  1.00  0.00    -0.003 C 
ATOM     18  C   UNL     1       0.950   8.552  -7.732  1.00  0.00     0.004 C 
ENDBRANCH  16  17
ENDBRANCH  15  16
ENDBRANCH  14  15
ENDBRANCH  13  14
ENDBRANCH  12  13
ENDBRANCH  11  12
ENDBRANCH   1  11
TORSDOF 14
ENDMDL
