MODEL 1
REMARK VINA RESULT:    -3.618      0.000      0.000
REMARK INTER + INTRA:          -4.043
REMARK INTER:                  -3.935
REMARK INTRA:                  -0.108
REMARK UNBOUND:                -0.108
REMARK SMILES Cc1ccc(C(C)C)cc1O
REMARK SMILES IDX 1 1 2 2 10 3 9 4 5 5 4 6 3 7 11 8 6 10 7 11 8 12
REMARK H PARENT 11 9
REMARK Flexibility Score: inf
ROOT
ATOM      1  C   UNL     1     160.688 153.732 139.786  1.00  0.00     0.048 C 
ATOM      2  C   UNL     1     159.328 154.014 139.215  1.00  0.00    -0.009 A 
ATOM      3  C   UNL     1     158.312 154.541 140.032  1.00  0.00     0.118 A 
ATOM      4  C   UNL     1     157.044 154.802 139.491  1.00  0.00     0.050 A 
ATOM      5  C   UNL     1     156.773 154.542 138.137  1.00  0.00    -0.042 A 
ATOM      6  C   UNL     1     157.796 154.016 137.327  1.00  0.00     0.004 A 
ATOM      7  C   UNL     1     159.060 153.754 137.862  1.00  0.00     0.007 A 
ENDROOT
BRANCH   3   8
ATOM      8  O   UNL     1     158.564 154.805 141.377  1.00  0.00    -0.508 OA
ATOM      9  H   UNL     1     159.417 154.494 141.829  1.00  0.00     0.293 HD
ENDBRANCH   3   8
BRANCH   5  10
ATOM     10  C   UNL     1     155.395 154.831 137.569  1.00  0.00     0.013 C 
ATOM     11  C   UNL     1     154.665 155.890 138.404  1.00  0.00     0.012 C 
ATOM     12  C   UNL     1     154.565 153.546 137.457  1.00  0.00     0.012 C 
ENDBRANCH   5  10
TORSDOF 2
ENDMDL
MODEL 2
REMARK VINA RESULT:    -3.617     10.287     11.383
REMARK INTER + INTRA:          -4.042
REMARK INTER:                  -3.933
REMARK INTRA:                  -0.109
REMARK UNBOUND:                -0.108
REMARK SMILES Cc1ccc(C(C)C)cc1O
REMARK SMILES IDX 1 1 2 2 10 3 9 4 5 5 4 6 3 7 11 8 6 10 7 11 8 12
REMARK H PARENT 11 9
REMARK Flexibility Score: inf
ROOT
ATOM      1  C   UNL     1     147.599 160.637 139.749  1.00  0.00     0.048 C 
ATOM      2  C   UNL     1     147.289 159.275 139.198  1.00  0.00    -0.009 A 
ATOM      3  C   UNL     1     146.745 158.280 140.030  1.00  0.00     0.118 A 
ATOM      4  C   UNL     1     146.458 157.010 139.509  1.00  0.00     0.050 A 
ATOM      5  C   UNL     1     146.708 156.716 138.157  1.00  0.00    -0.042 A 
ATOM      6  C   UNL     1     147.251 157.718 137.332  1.00  0.00     0.004 A 
ATOM      7  C   UNL     1     147.539 158.983 137.848  1.00  0.00     0.007 A 
ENDROOT
BRANCH   3   8
ATOM      8  O   UNL     1     146.491 158.556 141.373  1.00  0.00    -0.508 OA
ATOM      9  H   UNL     1     145.701 159.123 141.660  1.00  0.00     0.293 HD
ENDBRANCH   3   8
BRANCH   5  10
ATOM     10  C   UNL     1     146.391 155.337 137.610  1.00  0.00     0.013 C 
ATOM     11  C   UNL     1     145.354 154.620 138.484  1.00  0.00     0.012 C 
ATOM     12  C   UNL     1     147.665 154.495 137.462  1.00  0.00     0.012 C 
ENDBRANCH   5  10
TORSDOF 2
ENDMDL
MODEL 3
REMARK VINA RESULT:    -3.592      9.984     11.151
REMARK INTER + INTRA:          -4.015
REMARK INTER:                  -3.905
REMARK INTRA:                  -0.110
REMARK UNBOUND:                -0.108
REMARK SMILES Cc1ccc(C(C)C)cc1O
REMARK SMILES IDX 1 1 2 2 10 3 9 4 5 5 4 6 3 7 11 8 6 10 7 11 8 12
REMARK H PARENT 11 9
REMARK Flexibility Score: inf
ROOT
ATOM      1  C   UNL     1     153.605 140.893 139.616  1.00  0.00     0.048 C 
ATOM      2  C   UNL     1     154.014 142.229 139.062  1.00  0.00    -0.009 A 
ATOM      3  C   UNL     1     154.491 143.236 139.919  1.00  0.00     0.118 A 
ATOM      4  C   UNL     1     154.871 144.480 139.394  1.00  0.00     0.050 A 
ATOM      5  C   UNL     1     154.779 144.735 138.015  1.00  0.00    -0.042 A 
ATOM      6  C   UNL     1     154.300 143.722 137.165  1.00  0.00     0.004 A 
ATOM      7  C   UNL     1     153.921 142.482 137.685  1.00  0.00     0.007 A 
ENDROOT
BRANCH   3   8
ATOM      8  O   UNL     1     154.589 142.998 141.289  1.00  0.00    -0.508 OA
ATOM      9  H   UNL     1     155.452 143.157 141.797  1.00  0.00     0.293 HD
ENDBRANCH   3   8
BRANCH   5  10
ATOM     10  C   UNL     1     155.194 146.088 137.465  1.00  0.00     0.013 C 
ATOM     11  C   UNL     1     156.093 146.836 138.457  1.00  0.00     0.012 C 
ATOM     12  C   UNL     1     153.968 146.929 137.087  1.00  0.00     0.012 C 
ENDBRANCH   5  10
TORSDOF 2
ENDMDL
MODEL 4
REMARK VINA RESULT:    -3.569     13.221     15.891
REMARK INTER + INTRA:          -3.990
REMARK INTER:                  -3.883
REMARK INTRA:                  -0.107
REMARK UNBOUND:                -0.108
REMARK SMILES Cc1ccc(C(C)C)cc1O
REMARK SMILES IDX 1 1 2 2 10 3 9 4 5 5 4 6 3 7 11 8 6 10 7 11 8 12
REMARK H PARENT 11 9
REMARK Flexibility Score: inf
ROOT
ATOM      1  C   UNL     1     140.949 147.609 139.548  1.00  0.00     0.048 C 
ATOM      2  C   UNL     1     142.300 147.225 139.014  1.00  0.00    -0.009 A 
ATOM      3  C   UNL     1     143.310 146.787 139.889  1.00  0.00     0.118 A 
ATOM      4  C   UNL     1     144.568 146.431 139.383  1.00  0.00     0.050 A 
ATOM      5  C   UNL     1     144.836 146.507 138.005  1.00  0.00    -0.042 A 
ATOM      6  C   UNL     1     143.819 146.945 137.138  1.00  0.00     0.004 A 
ATOM      7  C   UNL     1     142.565 147.301 137.638  1.00  0.00     0.007 A 
ENDROOT
BRANCH   3   8
ATOM      8  O   UNL     1     143.060 146.707 141.258  1.00  0.00    -0.508 OA
ATOM      9  H   UNL     1     143.453 145.966 141.828  1.00  0.00     0.293 HD
ENDBRANCH   3   8
BRANCH   5  10
ATOM     10  C   UNL     1     146.204 146.117 137.475  1.00  0.00     0.013 C 
ATOM     11  C   UNL     1     146.891 145.110 138.406  1.00  0.00     0.012 C 
ATOM     12  C   UNL     1     147.083 147.355 137.255  1.00  0.00     0.012 C 
ENDBRANCH   5  10
TORSDOF 2
ENDMDL
MODEL 5
REMARK VINA RESULT:    -3.207     10.108     12.040
REMARK INTER + INTRA:          -3.596
REMARK INTER:                  -3.470
REMARK INTRA:                  -0.126
REMARK UNBOUND:                -0.108
REMARK SMILES Cc1ccc(C(C)C)cc1O
REMARK SMILES IDX 1 1 2 2 10 3 9 4 5 5 4 6 3 7 11 8 6 10 7 11 8 12
REMARK H PARENT 11 9
REMARK Flexibility Score: inf
ROOT
ATOM      1  C   UNL     1     148.598 144.550 138.862  1.00  0.00     0.048 C 
ATOM      2  C   UNL     1     150.091 144.462 138.716  1.00  0.00    -0.009 A 
ATOM      3  C   UNL     1     150.913 144.412 139.855  1.00  0.00     0.118 A 
ATOM      4  C   UNL     1     152.306 144.331 139.711  1.00  0.00     0.050 A 
ATOM      5  C   UNL     1     152.894 144.299 138.435  1.00  0.00    -0.042 A 
ATOM      6  C   UNL     1     152.064 144.350 137.300  1.00  0.00     0.004 A 
ATOM      7  C   UNL     1     150.677 144.431 137.441  1.00  0.00     0.007 A 
ENDROOT
BRANCH   3   8
ATOM      8  O   UNL     1     150.344 144.442 141.128  1.00  0.00    -0.508 OA
ATOM      9  H   UNL     1     150.339 145.287 141.688  1.00  0.00     0.293 HD
ENDBRANCH   3   8
BRANCH   5  10
ATOM     10  C   UNL     1     154.403 144.212 138.297  1.00  0.00     0.013 C 
ATOM     11  C   UNL     1     155.066 145.557 138.614  1.00  0.00     0.012 C 
ATOM     12  C   UNL     1     154.802 143.714 136.902  1.00  0.00     0.012 C 
ENDBRANCH   5  10
TORSDOF 2
ENDMDL
MODEL 6
REMARK VINA RESULT:    -3.205     13.256     14.346
REMARK INTER + INTRA:          -3.594
REMARK INTER:                  -3.469
REMARK INTRA:                  -0.126
REMARK UNBOUND:                -0.108
REMARK SMILES Cc1ccc(C(C)C)cc1O
REMARK SMILES IDX 1 1 2 2 10 3 9 4 5 5 4 6 3 7 11 8 6 10 7 11 8 12
REMARK H PARENT 11 9
REMARK Flexibility Score: inf
ROOT
ATOM      1  C   UNL     1     144.563 152.711 138.847  1.00  0.00     0.048 C 
ATOM      2  C   UNL     1     144.469 151.219 138.703  1.00  0.00    -0.009 A 
ATOM      3  C   UNL     1     144.416 150.399 139.844  1.00  0.00     0.118 A 
ATOM      4  C   UNL     1     144.328 149.006 139.702  1.00  0.00     0.050 A 
ATOM      5  C   UNL     1     144.294 148.416 138.427  1.00  0.00    -0.042 A 
ATOM      6  C   UNL     1     144.347 149.244 137.291  1.00  0.00     0.004 A 
ATOM      7  C   UNL     1     144.435 150.631 137.429  1.00  0.00     0.007 A 
ENDROOT
BRANCH   3   8
ATOM      8  O   UNL     1     144.448 150.970 141.116  1.00  0.00    -0.508 OA
ATOM      9  H   UNL     1     143.622 151.380 141.536  1.00  0.00     0.293 HD
ENDBRANCH   3   8
BRANCH   5  10
ATOM     10  C   UNL     1     144.199 146.907 138.292  1.00  0.00     0.013 C 
ATOM     11  C   UNL     1     145.536 146.237 138.631  1.00  0.00     0.012 C 
ATOM     12  C   UNL     1     143.720 146.507 136.890  1.00  0.00     0.012 C 
ENDBRANCH   5  10
TORSDOF 2
ENDMDL
MODEL 7
REMARK VINA RESULT:    -3.195      3.226      3.638
REMARK INTER + INTRA:          -3.583
REMARK INTER:                  -3.457
REMARK INTRA:                  -0.126
REMARK UNBOUND:                -0.108
REMARK SMILES Cc1ccc(C(C)C)cc1O
REMARK SMILES IDX 1 1 2 2 10 3 9 4 5 5 4 6 3 7 11 8 6 10 7 11 8 12
REMARK H PARENT 11 9
REMARK Flexibility Score: inf
ROOT
ATOM      1  C   UNL     1     156.806 148.616 138.829  1.00  0.00     0.048 C 
ATOM      2  C   UNL     1     156.895 150.108 138.682  1.00  0.00    -0.009 A 
ATOM      3  C   UNL     1     156.904 150.933 139.820  1.00  0.00     0.118 A 
ATOM      4  C   UNL     1     156.987 152.326 139.675  1.00  0.00     0.050 A 
ATOM      5  C   UNL     1     157.061 152.911 138.399  1.00  0.00    -0.042 A 
ATOM      6  C   UNL     1     157.051 152.078 137.266  1.00  0.00     0.004 A 
ATOM      7  C   UNL     1     156.969 150.691 137.407  1.00  0.00     0.007 A 
ENDROOT
BRANCH   3   8
ATOM      8  O   UNL     1     156.832 150.368 141.093  1.00  0.00    -0.508 OA
ATOM      9  H   UNL     1     156.452 149.440 141.242  1.00  0.00     0.293 HD
ENDBRANCH   3   8
BRANCH   5  10
ATOM     10  C   UNL     1     157.150 154.420 138.261  1.00  0.00     0.013 C 
ATOM     11  C   UNL     1     155.822 155.089 138.637  1.00  0.00     0.012 C 
ATOM     12  C   UNL     1     157.588 154.820 136.846  1.00  0.00     0.012 C 
ENDBRANCH   5  10
TORSDOF 2
ENDMDL
MODEL 8
REMARK VINA RESULT:    -3.186      6.254      8.608
REMARK INTER + INTRA:          -3.574
REMARK INTER:                  -3.448
REMARK INTRA:                  -0.126
REMARK UNBOUND:                -0.108
REMARK SMILES Cc1ccc(C(C)C)cc1O
REMARK SMILES IDX 1 1 2 2 10 3 9 4 5 5 4 6 3 7 11 8 6 10 7 11 8 12
REMARK H PARENT 11 9
REMARK Flexibility Score: inf
ROOT
ATOM      1  C   UNL     1     152.715 156.709 138.856  1.00  0.00     0.048 C 
ATOM      2  C   UNL     1     151.226 156.835 138.695  1.00  0.00    -0.009 A 
ATOM      3  C   UNL     1     150.392 156.877 139.826  1.00  0.00     0.118 A 
ATOM      4  C   UNL     1     149.003 156.994 139.667  1.00  0.00     0.050 A 
ATOM      5  C   UNL     1     148.430 157.069 138.386  1.00  0.00    -0.042 A 
ATOM      6  C   UNL     1     149.273 157.027 137.260  1.00  0.00     0.004 A 
ATOM      7  C   UNL     1     150.656 156.910 137.414  1.00  0.00     0.007 A 
ENDROOT
BRANCH   3   8
ATOM      8  O   UNL     1     150.945 156.803 141.104  1.00  0.00    -0.508 OA
ATOM      9  H   UNL     1     150.460 157.170 141.915  1.00  0.00     0.293 HD
ENDBRANCH   3   8
BRANCH   5  10
ATOM     10  C   UNL     1     146.926 157.195 138.234  1.00  0.00     0.013 C 
ATOM     11  C   UNL     1     146.208 155.966 138.803  1.00  0.00     0.012 C 
ATOM     12  C   UNL     1     146.537 157.433 136.769  1.00  0.00     0.012 C 
ENDBRANCH   5  10
TORSDOF 2
ENDMDL
MODEL 9
REMARK VINA RESULT:    -1.381     10.140     11.196
REMARK INTER + INTRA:          -1.610
REMARK INTER:                  -1.485
REMARK INTRA:                  -0.125
REMARK UNBOUND:                -0.108
REMARK SMILES Cc1ccc(C(C)C)cc1O
REMARK SMILES IDX 1 1 2 2 10 3 9 4 5 5 4 6 3 7 11 8 6 10 7 11 8 12
REMARK H PARENT 11 9
REMARK Flexibility Score: inf
ROOT
ATOM      1  C   UNL     1     149.885 153.915 145.715  1.00  0.00     0.048 C 
ATOM      2  C   UNL     1     150.290 152.471 145.806  1.00  0.00    -0.009 A 
ATOM      3  C   UNL     1     149.330 151.455 145.659  1.00  0.00     0.118 A 
ATOM      4  C   UNL     1     149.715 150.109 145.746  1.00  0.00     0.050 A 
ATOM      5  C   UNL     1     151.057 149.760 145.979  1.00  0.00    -0.042 A 
ATOM      6  C   UNL     1     152.011 150.784 146.125  1.00  0.00     0.004 A 
ATOM      7  C   UNL     1     151.630 152.124 146.039  1.00  0.00     0.007 A 
ENDROOT
BRANCH   3   8
ATOM      8  O   UNL     1     147.995 151.784 145.426  1.00  0.00    -0.508 OA
ATOM      9  H   UNL     1     147.585 152.634 145.796  1.00  0.00     0.293 HD
ENDBRANCH   3   8
BRANCH   5  10
ATOM     10  C   UNL     1     151.456 148.299 146.070  1.00  0.00     0.013 C 
ATOM     11  C   UNL     1     152.870 148.077 145.520  1.00  0.00     0.012 C 
ATOM     12  C   UNL     1     150.438 147.403 145.354  1.00  0.00     0.012 C 
ENDBRANCH   5  10
TORSDOF 2
ENDMDL
