MODEL 1
REMARK VINA RESULT:    -2.945      0.000      0.000
REMARK INTER + INTRA:         -10.740
REMARK INTER:                  -6.389
REMARK INTRA:                  -4.351
REMARK UNBOUND:                -4.351
REMARK SMILES CCCCCCCCCCCCCCCCCCCCCC(=O)[O-]
REMARK SMILES IDX 12 1 11 2 10 3 9 4 8 5 7 6 6 7 5 8 4 9 3 10 2 11 1 12 13 13
REMARK SMILES IDX 14 14 15 15 16 16 17 17 18 18 19 19 20 20 21 21 22 22 23 23
REMARK SMILES IDX 24 24
REMARK H PARENT
REMARK Flexibility Score: inf
ROOT
ATOM      1  C   UNL     1      52.833  35.348  87.143  1.00  0.00     0.000 C 
ENDROOT
BRANCH   1   2
ATOM      2  C   UNL     1      51.480  34.707  87.499  1.00  0.00     0.000 C 
BRANCH   2   3
ATOM      3  C   UNL     1      50.305  35.690  87.350  1.00  0.00     0.000 C 
BRANCH   3   4
ATOM      4  C   UNL     1      48.943  35.018  87.085  1.00  0.00    -0.000 C 
BRANCH   4   5
ATOM      5  C   UNL     1      48.916  33.545  87.531  1.00  0.00    -0.000 C 
BRANCH   5   6
ATOM      6  C   UNL     1      48.643  32.584  86.361  1.00  0.00    -0.000 C 
BRANCH   6   7
ATOM      7  C   UNL     1      49.847  31.681  86.007  1.00  0.00    -0.000 C 
BRANCH   7   8
ATOM      8  C   UNL     1      50.469  31.990  84.635  1.00  0.00    -0.000 C 
BRANCH   8   9
ATOM      9  C   UNL     1      49.791  33.172  83.926  1.00  0.00    -0.000 C 
BRANCH   9  10
ATOM     10  C   UNL     1      50.678  34.428  83.866  1.00  0.00    -0.000 C 
BRANCH  10  11
ATOM     11  C   UNL     1      52.139  34.142  83.460  1.00  0.00    -0.003 C 
ATOM     12  C   UNL     1      52.308  33.976  81.950  1.00  0.00     0.004 C 
ENDBRANCH  10  11
ENDBRANCH   9  10
ENDBRANCH   8   9
ENDBRANCH   7   8
ENDBRANCH   6   7
ENDBRANCH   5   6
ENDBRANCH   4   5
ENDBRANCH   3   4
ENDBRANCH   2   3
ENDBRANCH   1   2
BRANCH   1  13
ATOM     13  C   UNL     1      53.894  34.307  86.748  1.00  0.00     0.000 C 
BRANCH  13  14
ATOM     14  C   UNL     1      53.335  32.874  86.732  1.00  0.00     0.000 C 
BRANCH  14  15
ATOM     15  C   UNL     1      54.200  31.889  87.535  1.00  0.00     0.000 C 
BRANCH  15  16
ATOM     16  C   UNL     1      55.304  32.593  88.342  1.00  0.00     0.000 C 
BRANCH  16  17
ATOM     17  C   UNL     1      55.099  32.478  89.863  1.00  0.00     0.000 C 
BRANCH  17  18
ATOM     18  C   UNL     1      53.892  33.259  90.426  1.00  0.00     0.000 C 
BRANCH  18  19
ATOM     19  C   UNL     1      52.760  32.392  91.004  1.00  0.00     0.000 C 
BRANCH  19  20
ATOM     20  C   UNL     1      51.544  32.290  90.068  1.00  0.00     0.006 C 
BRANCH  20  21
ATOM     21  C   UNL     1      51.253  30.842  89.652  1.00  0.00     0.053 C 
BRANCH  21  22
ATOM     22  C   UNL     1      49.789  30.529  89.711  1.00  0.00     0.041 C 
ATOM     23  O   UNL     1      49.053  31.092  90.564  1.00  0.00    -0.550 OA
ATOM     24  O   UNL     1      49.235  29.634  88.807  1.00  0.00    -0.550 OA
ENDBRANCH  21  22
ENDBRANCH  20  21
ENDBRANCH  19  20
ENDBRANCH  18  19
ENDBRANCH  17  18
ENDBRANCH  16  17
ENDBRANCH  15  16
ENDBRANCH  14  15
ENDBRANCH  13  14
ENDBRANCH   1  13
TORSDOF 20
ENDMDL
MODEL 2
REMARK VINA RESULT:    -2.881      2.703      4.912
REMARK INTER + INTRA:         -10.602
REMARK INTER:                  -7.698
REMARK INTRA:                  -2.904
REMARK UNBOUND:                -4.351
REMARK SMILES CCCCCCCCCCCCCCCCCCCCCC(=O)[O-]
REMARK SMILES IDX 12 1 11 2 10 3 9 4 8 5 7 6 6 7 5 8 4 9 3 10 2 11 1 12 13 13
REMARK SMILES IDX 14 14 15 15 16 16 17 17 18 18 19 19 20 20 21 21 22 22 23 23
REMARK SMILES IDX 24 24
REMARK H PARENT
REMARK Flexibility Score: inf
ROOT
ATOM      1  C   UNL     1      52.597  31.904  87.286  1.00  0.00     0.000 C 
ENDROOT
BRANCH   1   2
ATOM      2  C   UNL     1      53.593  32.419  86.232  1.00  0.00     0.000 C 
BRANCH   2   3
ATOM      3  C   UNL     1      53.663  33.956  86.189  1.00  0.00     0.000 C 
BRANCH   3   4
ATOM      4  C   UNL     1      52.906  34.594  85.008  1.00  0.00    -0.000 C 
BRANCH   4   5
ATOM      5  C   UNL     1      52.768  33.637  83.810  1.00  0.00    -0.000 C 
BRANCH   5   6
ATOM      6  C   UNL     1      51.320  33.547  83.296  1.00  0.00    -0.000 C 
BRANCH   6   7
ATOM      7  C   UNL     1      50.352  34.525  84.000  1.00  0.00    -0.000 C 
BRANCH   7   8
ATOM      8  C   UNL     1      49.128  33.838  84.629  1.00  0.00    -0.000 C 
BRANCH   8   9
ATOM      9  C   UNL     1      49.446  33.167  85.973  1.00  0.00    -0.000 C 
BRANCH   9  10
ATOM     10  C   UNL     1      48.772  33.864  87.168  1.00  0.00    -0.000 C 
BRANCH  10  11
ATOM     11  C   UNL     1      48.948  35.397  87.177  1.00  0.00    -0.003 C 
ATOM     12  C   UNL     1      50.381  35.823  87.491  1.00  0.00     0.004 C 
ENDBRANCH  10  11
ENDBRANCH   9  10
ENDBRANCH   8   9
ENDBRANCH   7   8
ENDBRANCH   6   7
ENDBRANCH   5   6
ENDBRANCH   4   5
ENDBRANCH   3   4
ENDBRANCH   2   3
ENDBRANCH   1   2
BRANCH   1  13
ATOM     13  C   UNL     1      52.387  32.901  88.438  1.00  0.00     0.000 C 
BRANCH  13  14
ATOM     14  C   UNL     1      51.317  32.429  89.436  1.00  0.00     0.000 C 
BRANCH  14  15
ATOM     15  C   UNL     1      51.777  31.228  90.279  1.00  0.00     0.000 C 
BRANCH  15  16
ATOM     16  C   UNL     1      50.610  30.318  90.698  1.00  0.00     0.000 C 
BRANCH  16  17
ATOM     17  C   UNL     1      49.359  30.508  89.820  1.00  0.00     0.000 C 
BRANCH  17  18
ATOM     18  C   UNL     1      48.038  30.715  90.591  1.00  0.00     0.000 C 
BRANCH  18  19
ATOM     19  C   UNL     1      47.051  31.705  89.948  1.00  0.00     0.000 C 
BRANCH  19  20
ATOM     20  C   UNL     1      45.582  31.276  90.109  1.00  0.00     0.006 C 
BRANCH  20  21
ATOM     21  C   UNL     1      45.358  30.442  91.377  1.00  0.00     0.053 C 
BRANCH  21  22
ATOM     22  C   UNL     1      44.241  30.988  92.213  1.00  0.00     0.041 C 
ATOM     23  O   UNL     1      43.165  30.345  92.334  1.00  0.00    -0.550 OA
ATOM     24  O   UNL     1      44.399  32.197  92.878  1.00  0.00    -0.550 OA
ENDBRANCH  21  22
ENDBRANCH  20  21
ENDBRANCH  19  20
ENDBRANCH  18  19
ENDBRANCH  17  18
ENDBRANCH  16  17
ENDBRANCH  15  16
ENDBRANCH  14  15
ENDBRANCH  13  14
ENDBRANCH   1  13
TORSDOF 20
ENDMDL
MODEL 3
REMARK VINA RESULT:    -2.860      3.275      6.790
REMARK INTER + INTRA:         -10.555
REMARK INTER:                  -6.864
REMARK INTRA:                  -3.691
REMARK UNBOUND:                -4.351
REMARK SMILES CCCCCCCCCCCCCCCCCCCCCC(=O)[O-]
REMARK SMILES IDX 12 1 11 2 10 3 9 4 8 5 7 6 6 7 5 8 4 9 3 10 2 11 1 12 13 13
REMARK SMILES IDX 14 14 15 15 16 16 17 17 18 18 19 19 20 20 21 21 22 22 23 23
REMARK SMILES IDX 24 24
REMARK H PARENT
REMARK Flexibility Score: inf
ROOT
ATOM      1  C   UNL     1      53.027  31.567  87.950  1.00  0.00     0.000 C 
ENDROOT
BRANCH   1   2
ATOM      2  C   UNL     1      52.545  32.481  89.090  1.00  0.00     0.000 C 
BRANCH   2   3
ATOM      3  C   UNL     1      51.085  32.203  89.491  1.00  0.00     0.000 C 
BRANCH   3   4
ATOM      4  C   UNL     1      50.919  31.561  90.882  1.00  0.00    -0.000 C 
BRANCH   4   5
ATOM      5  C   UNL     1      49.606  30.767  91.012  1.00  0.00    -0.000 C 
BRANCH   5   6
ATOM      6  C   UNL     1      49.164  30.145  89.676  1.00  0.00    -0.000 C 
BRANCH   6   7
ATOM      7  C   UNL     1      47.635  30.181  89.453  1.00  0.00    -0.000 C 
BRANCH   7   8
ATOM      8  C   UNL     1      46.979  31.506  89.877  1.00  0.00    -0.000 C 
BRANCH   8   9
ATOM      9  C   UNL     1      45.866  31.313  90.917  1.00  0.00    -0.000 C 
BRANCH   9  10
ATOM     10  C   UNL     1      45.720  29.852  91.380  1.00  0.00    -0.000 C 
BRANCH  10  11
ATOM     11  C   UNL     1      44.263  29.426  91.651  1.00  0.00    -0.003 C 
ATOM     12  C   UNL     1      43.502  30.438  92.506  1.00  0.00     0.004 C 
ENDBRANCH  10  11
ENDBRANCH   9  10
ENDBRANCH   8   9
ENDBRANCH   7   8
ENDBRANCH   6   7
ENDBRANCH   5   6
ENDBRANCH   4   5
ENDBRANCH   3   4
ENDBRANCH   2   3
ENDBRANCH   1   2
BRANCH   1  13
ATOM     13  C   UNL     1      51.864  30.896  87.199  1.00  0.00     0.000 C 
BRANCH  13  14
ATOM     14  C   UNL     1      51.835  31.268  85.707  1.00  0.00     0.000 C 
BRANCH  14  15
ATOM     15  C   UNL     1      50.409  31.497  85.178  1.00  0.00     0.000 C 
BRANCH  15  16
ATOM     16  C   UNL     1      49.346  31.398  86.286  1.00  0.00     0.000 C 
BRANCH  16  17
ATOM     17  C   UNL     1      48.344  32.568  86.260  1.00  0.00     0.000 C 
BRANCH  17  18
ATOM     18  C   UNL     1      48.526  33.615  87.378  1.00  0.00     0.000 C 
BRANCH  18  19
ATOM     19  C   UNL     1      49.050  34.986  86.917  1.00  0.00     0.000 C 
BRANCH  19  20
ATOM     20  C   UNL     1      50.541  35.195  87.232  1.00  0.00     0.006 C 
BRANCH  20  21
ATOM     21  C   UNL     1      51.436  34.897  86.021  1.00  0.00     0.053 C 
BRANCH  21  22
ATOM     22  C   UNL     1      52.890  34.951  86.377  1.00  0.00     0.041 C 
ATOM     23  O   UNL     1      53.726  34.256  85.740  1.00  0.00    -0.550 OA
ATOM     24  O   UNL     1      53.324  35.788  87.395  1.00  0.00    -0.550 OA
ENDBRANCH  21  22
ENDBRANCH  20  21
ENDBRANCH  19  20
ENDBRANCH  18  19
ENDBRANCH  17  18
ENDBRANCH  16  17
ENDBRANCH  15  16
ENDBRANCH  14  15
ENDBRANCH  13  14
ENDBRANCH   1  13
TORSDOF 20
ENDMDL
MODEL 4
REMARK VINA RESULT:    -2.854      1.592      4.182
REMARK INTER + INTRA:         -10.542
REMARK INTER:                  -6.920
REMARK INTRA:                  -3.622
REMARK UNBOUND:                -4.351
REMARK SMILES CCCCCCCCCCCCCCCCCCCCCC(=O)[O-]
REMARK SMILES IDX 12 1 11 2 10 3 9 4 8 5 7 6 6 7 5 8 4 9 3 10 2 11 1 12 13 13
REMARK SMILES IDX 14 14 15 15 16 16 17 17 18 18 19 19 20 20 21 21 22 22 23 23
REMARK SMILES IDX 24 24
REMARK H PARENT
REMARK Flexibility Score: inf
ROOT
ATOM      1  C   UNL     1      51.423  35.080  87.307  1.00  0.00     0.000 C 
ENDROOT
BRANCH   1   2
ATOM      2  C   UNL     1      52.771  35.739  87.645  1.00  0.00     0.000 C 
BRANCH   2   3
ATOM      3  C   UNL     1      53.658  34.845  88.531  1.00  0.00     0.000 C 
BRANCH   3   4
ATOM      4  C   UNL     1      53.098  33.429  88.767  1.00  0.00    -0.000 C 
BRANCH   4   5
ATOM      5  C   UNL     1      54.168  32.335  88.595  1.00  0.00    -0.000 C 
BRANCH   5   6
ATOM      6  C   UNL     1      54.640  32.204  87.135  1.00  0.00    -0.000 C 
BRANCH   6   7
ATOM      7  C   UNL     1      53.507  31.842  86.148  1.00  0.00    -0.000 C 
BRANCH   7   8
ATOM      8  C   UNL     1      53.360  32.837  84.984  1.00  0.00    -0.000 C 
BRANCH   8   9
ATOM      9  C   UNL     1      51.917  32.943  84.469  1.00  0.00    -0.000 C 
BRANCH   9  10
ATOM     10  C   UNL     1      51.648  34.246  83.697  1.00  0.00    -0.000 C 
BRANCH  10  11
ATOM     11  C   UNL     1      50.151  34.603  83.577  1.00  0.00    -0.003 C 
ATOM     12  C   UNL     1      49.548  34.173  82.241  1.00  0.00     0.004 C 
ENDBRANCH  10  11
ENDBRANCH   9  10
ENDBRANCH   8   9
ENDBRANCH   7   8
ENDBRANCH   6   7
ENDBRANCH   5   6
ENDBRANCH   4   5
ENDBRANCH   3   4
ENDBRANCH   2   3
ENDBRANCH   1   2
BRANCH   1  13
ATOM     13  C   UNL     1      50.233  36.038  87.492  1.00  0.00     0.000 C 
BRANCH  13  14
ATOM     14  C   UNL     1      48.910  35.435  86.993  1.00  0.00     0.000 C 
BRANCH  14  15
ATOM     15  C   UNL     1      48.673  34.007  87.512  1.00  0.00     0.000 C 
BRANCH  15  16
ATOM     16  C   UNL     1      48.566  32.975  86.376  1.00  0.00     0.000 C 
BRANCH  16  17
ATOM     17  C   UNL     1      48.897  31.544  86.835  1.00  0.00     0.000 C 
BRANCH  17  18
ATOM     18  C   UNL     1      50.261  31.376  87.538  1.00  0.00     0.000 C 
BRANCH  18  19
ATOM     19  C   UNL     1      50.194  31.154  89.059  1.00  0.00     0.000 C 
BRANCH  19  20
ATOM     20  C   UNL     1      48.936  30.386  89.499  1.00  0.00     0.006 C 
BRANCH  20  21
ATOM     21  C   UNL     1      48.242  31.050  90.696  1.00  0.00     0.053 C 
BRANCH  21  22
ATOM     22  C   UNL     1      46.804  31.352  90.408  1.00  0.00     0.041 C 
ATOM     23  O   UNL     1      46.492  32.107  89.449  1.00  0.00    -0.550 OA
ATOM     24  O   UNL     1      45.806  30.778  91.184  1.00  0.00    -0.550 OA
ENDBRANCH  21  22
ENDBRANCH  20  21
ENDBRANCH  19  20
ENDBRANCH  18  19
ENDBRANCH  17  18
ENDBRANCH  16  17
ENDBRANCH  15  16
ENDBRANCH  14  15
ENDBRANCH  13  14
ENDBRANCH   1  13
TORSDOF 20
ENDMDL
MODEL 5
REMARK VINA RESULT:    -2.854      3.095      6.359
REMARK INTER + INTRA:         -10.541
REMARK INTER:                  -6.976
REMARK INTRA:                  -3.565
REMARK UNBOUND:                -4.351
REMARK SMILES CCCCCCCCCCCCCCCCCCCCCC(=O)[O-]
REMARK SMILES IDX 12 1 11 2 10 3 9 4 8 5 7 6 6 7 5 8 4 9 3 10 2 11 1 12 13 13
REMARK SMILES IDX 14 14 15 15 16 16 17 17 18 18 19 19 20 20 21 21 22 22 23 23
REMARK SMILES IDX 24 24
REMARK H PARENT
REMARK Flexibility Score: inf
ROOT
ATOM      1  C   UNL     1      48.507  32.286  86.470  1.00  0.00     0.000 C 
ENDROOT
BRANCH   1   2
ATOM      2  C   UNL     1      47.449  31.553  87.313  1.00  0.00     0.000 C 
BRANCH   2   3
ATOM      3  C   UNL     1      47.369  32.089  88.754  1.00  0.00     0.000 C 
BRANCH   3   4
ATOM      4  C   UNL     1      46.088  31.687  89.511  1.00  0.00    -0.000 C 
BRANCH   4   5
ATOM      5  C   UNL     1      46.390  30.974  90.842  1.00  0.00    -0.000 C 
BRANCH   5   6
ATOM      6  C   UNL     1      46.591  29.458  90.661  1.00  0.00    -0.000 C 
BRANCH   6   7
ATOM      7  C   UNL     1      48.057  29.003  90.842  1.00  0.00    -0.000 C 
BRANCH   7   8
ATOM      8  C   UNL     1      48.820  28.836  89.517  1.00  0.00    -0.000 C 
BRANCH   8   9
ATOM      9  C   UNL     1      50.190  29.531  89.528  1.00  0.00    -0.000 C 
BRANCH   9  10
ATOM     10  C   UNL     1      50.269  30.690  90.537  1.00  0.00    -0.000 C 
BRANCH  10  11
ATOM     11  C   UNL     1      51.097  31.894  90.042  1.00  0.00    -0.003 C 
ATOM     12  C   UNL     1      52.055  31.524  88.910  1.00  0.00     0.004 C 
ENDBRANCH  10  11
ENDBRANCH   9  10
ENDBRANCH   8   9
ENDBRANCH   7   8
ENDBRANCH   6   7
ENDBRANCH   5   6
ENDBRANCH   4   5
ENDBRANCH   3   4
ENDBRANCH   2   3
ENDBRANCH   1   2
BRANCH   1  13
ATOM     13  C   UNL     1      49.338  33.281  87.299  1.00  0.00     0.000 C 
BRANCH  13  14
ATOM     14  C   UNL     1      48.976  34.745  86.995  1.00  0.00     0.000 C 
BRANCH  14  15
ATOM     15  C   UNL     1      50.159  35.705  87.203  1.00  0.00     0.000 C 
BRANCH  15  16
ATOM     16  C   UNL     1      51.475  34.966  87.500  1.00  0.00     0.000 C 
BRANCH  16  17
ATOM     17  C   UNL     1      52.411  34.897  86.280  1.00  0.00     0.000 C 
BRANCH  17  18
ATOM     18  C   UNL     1      52.624  33.486  85.692  1.00  0.00     0.000 C 
BRANCH  18  19
ATOM     19  C   UNL     1      51.794  33.165  84.436  1.00  0.00     0.000 C 
BRANCH  19  20
ATOM     20  C   UNL     1      51.320  34.426  83.692  1.00  0.00     0.006 C 
BRANCH  20  21
ATOM     21  C   UNL     1      49.801  34.434  83.477  1.00  0.00     0.053 C 
BRANCH  21  22
ATOM     22  C   UNL     1      49.443  34.285  82.030  1.00  0.00     0.041 C 
ATOM     23  O   UNL     1      49.926  35.071  81.172  1.00  0.00    -0.550 OA
ATOM     24  O   UNL     1      48.595  33.263  81.628  1.00  0.00    -0.550 OA
ENDBRANCH  21  22
ENDBRANCH  20  21
ENDBRANCH  19  20
ENDBRANCH  18  19
ENDBRANCH  17  18
ENDBRANCH  16  17
ENDBRANCH  15  16
ENDBRANCH  14  15
ENDBRANCH  13  14
ENDBRANCH   1  13
TORSDOF 20
ENDMDL
MODEL 6
REMARK VINA RESULT:    -2.828      2.986      5.792
REMARK INTER + INTRA:         -10.485
REMARK INTER:                  -7.569
REMARK INTRA:                  -2.915
REMARK UNBOUND:                -4.351
REMARK SMILES CCCCCCCCCCCCCCCCCCCCCC(=O)[O-]
REMARK SMILES IDX 12 1 11 2 10 3 9 4 8 5 7 6 6 7 5 8 4 9 3 10 2 11 1 12 13 13
REMARK SMILES IDX 14 14 15 15 16 16 17 17 18 18 19 19 20 20 21 21 22 22 23 23
REMARK SMILES IDX 24 24
REMARK H PARENT
REMARK Flexibility Score: inf
ROOT
ATOM      1  C   UNL     1      49.110  32.351  86.375  1.00  0.00     0.000 C 
ENDROOT
BRANCH   1   2
ATOM      2  C   UNL     1      48.648  33.704  86.945  1.00  0.00     0.000 C 
BRANCH   2   3
ATOM      3  C   UNL     1      49.461  34.886  86.388  1.00  0.00     0.000 C 
BRANCH   3   4
ATOM      4  C   UNL     1      50.262  35.664  87.450  1.00  0.00    -0.000 C 
BRANCH   4   5
ATOM      5  C   UNL     1      51.771  35.365  87.386  1.00  0.00    -0.000 C 
BRANCH   5   6
ATOM      6  C   UNL     1      52.209  34.863  85.999  1.00  0.00    -0.000 C 
BRANCH   6   7
ATOM      7  C   UNL     1      53.202  33.680  86.054  1.00  0.00    -0.000 C 
BRANCH   7   8
ATOM      8  C   UNL     1      54.334  33.870  87.078  1.00  0.00    -0.000 C 
BRANCH   8   9
ATOM      9  C   UNL     1      54.807  32.546  87.697  1.00  0.00    -0.000 C 
BRANCH   9  10
ATOM     10  C   UNL     1      53.977  32.125  88.923  1.00  0.00    -0.000 C 
BRANCH  10  11
ATOM     11  C   UNL     1      53.600  33.297  89.853  1.00  0.00    -0.003 C 
ATOM     12  C   UNL     1      54.740  33.697  90.788  1.00  0.00     0.004 C 
ENDBRANCH  10  11
ENDBRANCH   9  10
ENDBRANCH   8   9
ENDBRANCH   7   8
ENDBRANCH   6   7
ENDBRANCH   5   6
ENDBRANCH   4   5
ENDBRANCH   3   4
ENDBRANCH   2   3
ENDBRANCH   1   2
BRANCH   1  13
ATOM     13  C   UNL     1      50.336  31.786  87.112  1.00  0.00     0.000 C 
BRANCH  13  14
ATOM     14  C   UNL     1      50.257  31.999  88.633  1.00  0.00     0.000 C 
BRANCH  14  15
ATOM     15  C   UNL     1      49.637  30.801  89.370  1.00  0.00     0.000 C 
BRANCH  15  16
ATOM     16  C   UNL     1      48.332  31.167  90.099  1.00  0.00     0.000 C 
BRANCH  16  17
ATOM     17  C   UNL     1      47.090  31.047  89.197  1.00  0.00     0.000 C 
BRANCH  17  18
ATOM     18  C   UNL     1      45.793  31.648  89.779  1.00  0.00     0.000 C 
BRANCH  18  19
ATOM     19  C   UNL     1      45.697  31.644  91.314  1.00  0.00     0.000 C 
BRANCH  19  20
ATOM     20  C   UNL     1      44.329  31.163  91.828  1.00  0.00     0.006 C 
BRANCH  20  21
ATOM     21  C   UNL     1      44.445  29.889  92.676  1.00  0.00     0.053 C 
BRANCH  21  22
ATOM     22  C   UNL     1      45.071  28.765  91.909  1.00  0.00     0.041 C 
ATOM     23  O   UNL     1      46.203  28.322  92.242  1.00  0.00    -0.550 OA
ATOM     24  O   UNL     1      44.394  28.191  90.842  1.00  0.00    -0.550 OA
ENDBRANCH  21  22
ENDBRANCH  20  21
ENDBRANCH  19  20
ENDBRANCH  18  19
ENDBRANCH  17  18
ENDBRANCH  16  17
ENDBRANCH  15  16
ENDBRANCH  14  15
ENDBRANCH  13  14
ENDBRANCH   1  13
TORSDOF 20
ENDMDL
MODEL 7
REMARK VINA RESULT:    -2.825      2.194      4.757
REMARK INTER + INTRA:         -10.479
REMARK INTER:                  -7.111
REMARK INTRA:                  -3.368
REMARK UNBOUND:                -4.351
REMARK SMILES CCCCCCCCCCCCCCCCCCCCCC(=O)[O-]
REMARK SMILES IDX 12 1 11 2 10 3 9 4 8 5 7 6 6 7 5 8 4 9 3 10 2 11 1 12 13 13
REMARK SMILES IDX 14 14 15 15 16 16 17 17 18 18 19 19 20 20 21 21 22 22 23 23
REMARK SMILES IDX 24 24
REMARK H PARENT
REMARK Flexibility Score: inf
ROOT
ATOM      1  C   UNL     1      48.234  33.285  87.677  1.00  0.00     0.000 C 
ENDROOT
BRANCH   1   2
ATOM      2  C   UNL     1      48.760  34.277  86.625  1.00  0.00     0.000 C 
BRANCH   2   3
ATOM      3  C   UNL     1      49.191  35.619  87.244  1.00  0.00     0.000 C 
BRANCH   3   4
ATOM      4  C   UNL     1      50.711  35.764  87.453  1.00  0.00    -0.000 C 
BRANCH   4   5
ATOM      5  C   UNL     1      51.501  34.578  86.872  1.00  0.00    -0.000 C 
BRANCH   5   6
ATOM      6  C   UNL     1      52.857  35.010  86.284  1.00  0.00    -0.000 C 
BRANCH   6   7
ATOM      7  C   UNL     1      53.044  34.612  84.802  1.00  0.00    -0.000 C 
BRANCH   7   8
ATOM      8  C   UNL     1      51.722  34.335  84.065  1.00  0.00    -0.000 C 
BRANCH   8   9
ATOM      9  C   UNL     1      51.886  33.351  82.897  1.00  0.00    -0.000 C 
BRANCH   9  10
ATOM     10  C   UNL     1      51.236  31.983  83.167  1.00  0.00    -0.000 C 
BRANCH  10  11
ATOM     11  C   UNL     1      50.578  31.868  84.557  1.00  0.00    -0.003 C 
ATOM     12  C   UNL     1      51.239  30.807  85.436  1.00  0.00     0.004 C 
ENDBRANCH  10  11
ENDBRANCH   9  10
ENDBRANCH   8   9
ENDBRANCH   7   8
ENDBRANCH   6   7
ENDBRANCH   5   6
ENDBRANCH   4   5
ENDBRANCH   3   4
ENDBRANCH   2   3
ENDBRANCH   1   2
BRANCH   1  13
ATOM     13  C   UNL     1      47.989  31.881  87.097  1.00  0.00     0.000 C 
BRANCH  13  14
ATOM     14  C   UNL     1      47.102  31.015  88.007  1.00  0.00     0.000 C 
BRANCH  14  15
ATOM     15  C   UNL     1      46.556  31.790  89.218  1.00  0.00     0.000 C 
BRANCH  15  16
ATOM     16  C   UNL     1      47.087  31.247  90.555  1.00  0.00     0.000 C 
BRANCH  16  17
ATOM     17  C   UNL     1      48.313  30.331  90.384  1.00  0.00     0.000 C 
BRANCH  17  18
ATOM     18  C   UNL     1      49.641  30.899  90.928  1.00  0.00     0.000 C 
BRANCH  18  19
ATOM     19  C   UNL     1      50.854  30.743  89.995  1.00  0.00     0.000 C 
BRANCH  19  20
ATOM     20  C   UNL     1      51.261  32.062  89.316  1.00  0.00     0.006 C 
BRANCH  20  21
ATOM     21  C   UNL     1      52.560  32.635  89.897  1.00  0.00     0.053 C 
BRANCH  21  22
ATOM     22  C   UNL     1      53.720  32.436  88.971  1.00  0.00     0.041 C 
ATOM     23  O   UNL     1      53.601  31.708  87.950  1.00  0.00    -0.550 OA
ATOM     24  O   UNL     1      54.927  33.076  89.222  1.00  0.00    -0.550 OA
ENDBRANCH  21  22
ENDBRANCH  20  21
ENDBRANCH  19  20
ENDBRANCH  18  19
ENDBRANCH  17  18
ENDBRANCH  16  17
ENDBRANCH  15  16
ENDBRANCH  14  15
ENDBRANCH  13  14
ENDBRANCH   1  13
TORSDOF 20
ENDMDL
MODEL 8
REMARK VINA RESULT:    -2.776      3.419      6.672
REMARK INTER + INTRA:         -10.372
REMARK INTER:                  -6.645
REMARK INTRA:                  -3.728
REMARK UNBOUND:                -4.351
REMARK SMILES CCCCCCCCCCCCCCCCCCCCCC(=O)[O-]
REMARK SMILES IDX 12 1 11 2 10 3 9 4 8 5 7 6 6 7 5 8 4 9 3 10 2 11 1 12 13 13
REMARK SMILES IDX 14 14 15 15 16 16 17 17 18 18 19 19 20 20 21 21 22 22 23 23
REMARK SMILES IDX 24 24
REMARK H PARENT
REMARK Flexibility Score: inf
ROOT
ATOM      1  C   UNL     1      48.742  32.662  85.696  1.00  0.00     0.000 C 
ENDROOT
BRANCH   1   2
ATOM      2  C   UNL     1      49.971  31.741  85.799  1.00  0.00     0.000 C 
BRANCH   2   3
ATOM      3  C   UNL     1      50.197  31.218  87.229  1.00  0.00     0.000 C 
BRANCH   3   4
ATOM      4  C   UNL     1      51.679  31.028  87.609  1.00  0.00    -0.000 C 
BRANCH   4   5
ATOM      5  C   UNL     1      51.894  30.981  89.133  1.00  0.00    -0.000 C 
BRANCH   5   6
ATOM      6  C   UNL     1      50.907  31.886  89.892  1.00  0.00    -0.000 C 
BRANCH   6   7
ATOM      7  C   UNL     1      50.295  31.219  91.145  1.00  0.00    -0.000 C 
BRANCH   7   8
ATOM      8  C   UNL     1      49.608  29.874  90.856  1.00  0.00    -0.000 C 
BRANCH   8   9
ATOM      9  C   UNL     1      48.283  30.032  90.095  1.00  0.00    -0.000 C 
BRANCH   9  10
ATOM     10  C   UNL     1      47.498  31.289  90.509  1.00  0.00    -0.000 C 
BRANCH  10  11
ATOM     11  C   UNL     1      46.361  31.663  89.535  1.00  0.00    -0.003 C 
ATOM     12  C   UNL     1      46.504  30.985  88.174  1.00  0.00     0.004 C 
ENDBRANCH  10  11
ENDBRANCH   9  10
ENDBRANCH   8   9
ENDBRANCH   7   8
ENDBRANCH   6   7
ENDBRANCH   5   6
ENDBRANCH   4   5
ENDBRANCH   3   4
ENDBRANCH   2   3
ENDBRANCH   1   2
BRANCH   1  13
ATOM     13  C   UNL     1      48.683  33.697  86.832  1.00  0.00     0.000 C 
BRANCH  13  14
ATOM     14  C   UNL     1      49.203  35.078  86.396  1.00  0.00     0.000 C 
BRANCH  14  15
ATOM     15  C   UNL     1      50.202  35.681  87.398  1.00  0.00     0.000 C 
BRANCH  15  16
ATOM     16  C   UNL     1      51.434  34.785  87.615  1.00  0.00     0.000 C 
BRANCH  16  17
ATOM     17  C   UNL     1      52.589  35.114  86.652  1.00  0.00     0.000 C 
BRANCH  17  18
ATOM     18  C   UNL     1      52.930  34.010  85.630  1.00  0.00     0.000 C 
BRANCH  18  19
ATOM     19  C   UNL     1      52.843  34.431  84.152  1.00  0.00     0.000 C 
BRANCH  19  20
ATOM     20  C   UNL     1      51.434  34.254  83.560  1.00  0.00     0.006 C 
BRANCH  20  21
ATOM     21  C   UNL     1      51.416  33.249  82.401  1.00  0.00     0.053 C 
BRANCH  21  22
ATOM     22  C   UNL     1      52.157  33.765  81.205  1.00  0.00     0.041 C 
ATOM     23  O   UNL     1      51.822  34.857  80.673  1.00  0.00    -0.550 OA
ATOM     24  O   UNL     1      53.233  33.052  80.695  1.00  0.00    -0.550 OA
ENDBRANCH  21  22
ENDBRANCH  20  21
ENDBRANCH  19  20
ENDBRANCH  18  19
ENDBRANCH  17  18
ENDBRANCH  16  17
ENDBRANCH  15  16
ENDBRANCH  14  15
ENDBRANCH  13  14
ENDBRANCH   1  13
TORSDOF 20
ENDMDL
MODEL 9
REMARK VINA RESULT:    -2.751      2.881      6.379
REMARK INTER + INTRA:         -10.320
REMARK INTER:                  -6.887
REMARK INTRA:                  -3.432
REMARK UNBOUND:                -4.351
REMARK SMILES CCCCCCCCCCCCCCCCCCCCCC(=O)[O-]
REMARK SMILES IDX 12 1 11 2 10 3 9 4 8 5 7 6 6 7 5 8 4 9 3 10 2 11 1 12 13 13
REMARK SMILES IDX 14 14 15 15 16 16 17 17 18 18 19 19 20 20 21 21 22 22 23 23
REMARK SMILES IDX 24 24
REMARK H PARENT
REMARK Flexibility Score: inf
ROOT
ATOM      1  C   UNL     1      47.576  31.271  87.649  1.00  0.00     0.000 C 
ENDROOT
BRANCH   1   2
ATOM      2  C   UNL     1      46.977  31.781  88.972  1.00  0.00     0.000 C 
BRANCH   2   3
ATOM      3  C   UNL     1      46.992  30.710  90.078  1.00  0.00     0.000 C 
BRANCH   3   4
ATOM      4  C   UNL     1      48.389  30.141  90.393  1.00  0.00    -0.000 C 
BRANCH   4   5
ATOM      5  C   UNL     1      49.375  31.226  90.864  1.00  0.00    -0.000 C 
BRANCH   5   6
ATOM      6  C   UNL     1      50.647  30.628  91.490  1.00  0.00    -0.000 C 
BRANCH   6   7
ATOM      7  C   UNL     1      51.654  31.694  91.982  1.00  0.00    -0.000 C 
BRANCH   7   8
ATOM      8  C   UNL     1      52.948  31.752  91.152  1.00  0.00    -0.000 C 
BRANCH   8   9
ATOM      9  C   UNL     1      52.808  32.615  89.890  1.00  0.00    -0.000 C 
BRANCH   9  10
ATOM     10  C   UNL     1      53.006  31.816  88.590  1.00  0.00    -0.000 C 
BRANCH  10  11
ATOM     11  C   UNL     1      51.690  31.325  87.952  1.00  0.00    -0.003 C 
ATOM     12  C   UNL     1      51.540  29.805  88.009  1.00  0.00     0.004 C 
ENDBRANCH  10  11
ENDBRANCH   9  10
ENDBRANCH   8   9
ENDBRANCH   7   8
ENDBRANCH   6   7
ENDBRANCH   5   6
ENDBRANCH   4   5
ENDBRANCH   3   4
ENDBRANCH   2   3
ENDBRANCH   1   2
BRANCH   1  13
ATOM     13  C   UNL     1      48.250  32.388  86.835  1.00  0.00     0.000 C 
BRANCH  13  14
ATOM     14  C   UNL     1      48.684  33.574  87.712  1.00  0.00     0.000 C 
BRANCH  14  15
ATOM     15  C   UNL     1      48.685  34.910  86.949  1.00  0.00     0.000 C 
BRANCH  15  16
ATOM     16  C   UNL     1      49.945  35.747  87.225  1.00  0.00     0.000 C 
BRANCH  16  17
ATOM     17  C   UNL     1      51.159  34.887  87.621  1.00  0.00     0.000 C 
BRANCH  17  18
ATOM     18  C   UNL     1      52.519  35.377  87.079  1.00  0.00     0.000 C 
BRANCH  18  19
ATOM     19  C   UNL     1      52.844  34.951  85.637  1.00  0.00     0.000 C 
BRANCH  19  20
ATOM     20  C   UNL     1      51.931  33.824  85.124  1.00  0.00     0.006 C 
BRANCH  20  21
ATOM     21  C   UNL     1      51.105  34.256  83.906  1.00  0.00     0.053 C 
BRANCH  21  22
ATOM     22  C   UNL     1      51.834  34.005  82.622  1.00  0.00     0.041 C 
ATOM     23  O   UNL     1      52.803  33.201  82.588  1.00  0.00    -0.550 OA
ATOM     24  O   UNL     1      51.426  34.640  81.457  1.00  0.00    -0.550 OA
ENDBRANCH  21  22
ENDBRANCH  20  21
ENDBRANCH  19  20
ENDBRANCH  18  19
ENDBRANCH  17  18
ENDBRANCH  16  17
ENDBRANCH  15  16
ENDBRANCH  14  15
ENDBRANCH  13  14
ENDBRANCH   1  13
TORSDOF 20
ENDMDL
