MODEL 1
REMARK VINA RESULT:    -2.805      0.000      0.000
REMARK INTER + INTRA:          -3.365
REMARK INTER:                  -3.297
REMARK INTRA:                  -0.068
REMARK UNBOUND:                -0.068
REMARK SMILES CCCCC(=O)[O-]
REMARK SMILES IDX 4 1 5 2 6 3 7 4 3 5 2 6 1 7
REMARK H PARENT
REMARK Flexibility Score: inf
ROOT
ATOM      1  C   UNL     1      13.032  -4.516 -22.776  1.00  0.00     0.053 C 
ENDROOT
BRANCH   1   2
ATOM      2  C   UNL     1      12.985  -3.037 -22.555  1.00  0.00     0.041 C 
ATOM      3  O   UNL     1      13.819  -2.284 -23.122  1.00  0.00    -0.550 OA
ATOM      4  O   UNL     1      11.989  -2.484 -21.759  1.00  0.00    -0.550 OA
ENDBRANCH   1   2
BRANCH   1   5
ATOM      5  C   UNL     1      13.823  -5.200 -21.657  1.00  0.00     0.006 C 
BRANCH   5   6
ATOM      6  C   UNL     1      12.886  -5.724 -20.563  1.00  0.00    -0.003 C 
ATOM      7  C   UNL     1      13.493  -5.527 -19.177  1.00  0.00     0.004 C 
ENDBRANCH   5   6
ENDBRANCH   1   5
TORSDOF 3
ENDMDL
MODEL 2
REMARK VINA RESULT:    -2.703     18.379     19.478
REMARK INTER + INTRA:          -3.245
REMARK INTER:                  -3.229
REMARK INTRA:                  -0.016
REMARK UNBOUND:                -0.068
REMARK SMILES CCCCC(=O)[O-]
REMARK SMILES IDX 4 1 5 2 6 3 7 4 3 5 2 6 1 7
REMARK H PARENT
REMARK Flexibility Score: inf
ROOT
ATOM      1  C   UNL     1      -2.304 -13.711 -14.630  1.00  0.00     0.053 C 
ENDROOT
BRANCH   1   2
ATOM      2  C   UNL     1      -2.155 -14.760 -13.573  1.00  0.00     0.041 C 
ATOM      3  O   UNL     1      -2.976 -14.823 -12.621  1.00  0.00    -0.550 OA
ATOM      4  O   UNL     1      -1.135 -15.699 -13.665  1.00  0.00    -0.550 OA
ENDBRANCH   1   2
BRANCH   1   5
ATOM      5  C   UNL     1      -1.335 -12.553 -14.376  1.00  0.00     0.006 C 
BRANCH   5   6
ATOM      6  C   UNL     1      -1.728 -11.319 -15.196  1.00  0.00    -0.003 C 
ATOM      7  C   UNL     1      -0.975 -10.079 -14.721  1.00  0.00     0.004 C 
ENDBRANCH   5   6
ENDBRANCH   1   5
TORSDOF 3
ENDMDL
MODEL 3
REMARK VINA RESULT:    -2.689      2.824      4.839
REMARK INTER + INTRA:          -3.228
REMARK INTER:                  -3.194
REMARK INTRA:                  -0.034
REMARK UNBOUND:                -0.068
REMARK SMILES CCCCC(=O)[O-]
REMARK SMILES IDX 4 1 5 2 6 3 7 4 3 5 2 6 1 7
REMARK H PARENT
REMARK Flexibility Score: inf
ROOT
ATOM      1  C   UNL     1      12.825  -2.175 -24.348  1.00  0.00     0.053 C 
ENDROOT
BRANCH   1   2
ATOM      2  C   UNL     1      12.921  -2.891 -23.038  1.00  0.00     0.041 C 
ATOM      3  O   UNL     1      13.700  -3.871 -22.906  1.00  0.00    -0.550 OA
ATOM      4  O   UNL     1      12.184  -2.447 -21.947  1.00  0.00    -0.550 OA
ENDBRANCH   1   2
BRANCH   1   5
ATOM      5  C   UNL     1      11.592  -2.645 -25.127  1.00  0.00     0.006 C 
BRANCH   5   6
ATOM      6  C   UNL     1      11.440  -1.865 -26.437  1.00  0.00    -0.003 C 
ATOM      7  C   UNL     1      12.545  -0.822 -26.589  1.00  0.00     0.004 C 
ENDBRANCH   5   6
ENDBRANCH   1   5
TORSDOF 3
ENDMDL
MODEL 4
REMARK VINA RESULT:    -2.672     17.623     18.352
REMARK INTER + INTRA:          -3.208
REMARK INTER:                  -3.108
REMARK INTRA:                  -0.101
REMARK UNBOUND:                -0.068
REMARK SMILES CCCCC(=O)[O-]
REMARK SMILES IDX 4 1 5 2 6 3 7 4 3 5 2 6 1 7
REMARK H PARENT
REMARK Flexibility Score: inf
ROOT
ATOM      1  C   UNL     1      -4.930  -2.235 -25.698  1.00  0.00     0.053 C 
ENDROOT
BRANCH   1   2
ATOM      2  C   UNL     1      -4.604  -0.833 -26.104  1.00  0.00     0.041 C 
ATOM      3  O   UNL     1      -5.397   0.106 -25.833  1.00  0.00    -0.550 OA
ATOM      4  O   UNL     1      -3.401  -0.556 -26.740  1.00  0.00    -0.550 OA
ENDBRANCH   1   2
BRANCH   1   5
ATOM      5  C   UNL     1      -5.071  -3.132 -26.932  1.00  0.00     0.006 C 
BRANCH   5   6
ATOM      6  C   UNL     1      -4.234  -4.407 -26.782  1.00  0.00    -0.003 C 
ATOM      7  C   UNL     1      -2.741  -4.095 -26.834  1.00  0.00     0.004 C 
ENDBRANCH   5   6
ENDBRANCH   1   5
TORSDOF 3
ENDMDL
MODEL 5
REMARK VINA RESULT:    -2.645     19.483     20.400
REMARK INTER + INTRA:          -3.177
REMARK INTER:                  -3.076
REMARK INTRA:                  -0.101
REMARK UNBOUND:                -0.068
REMARK SMILES CCCCC(=O)[O-]
REMARK SMILES IDX 4 1 5 2 6 3 7 4 3 5 2 6 1 7
REMARK H PARENT
REMARK Flexibility Score: inf
ROOT
ATOM      1  C   UNL     1      -5.386 -11.948 -17.727  1.00  0.00     0.053 C 
ENDROOT
BRANCH   1   2
ATOM      2  C   UNL     1      -5.072 -13.387 -17.460  1.00  0.00     0.041 C 
ATOM      3  O   UNL     1      -5.783 -14.295 -17.964  1.00  0.00    -0.550 OA
ATOM      4  O   UNL     1      -3.964 -13.726 -16.694  1.00  0.00    -0.550 OA
ENDBRANCH   1   2
BRANCH   1   5
ATOM      5  C   UNL     1      -5.389 -11.149 -16.420  1.00  0.00     0.006 C 
BRANCH   5   6
ATOM      6  C   UNL     1      -4.534  -9.883 -16.549  1.00  0.00    -0.003 C 
ATOM      7  C   UNL     1      -3.055 -10.193 -16.333  1.00  0.00     0.004 C 
ENDBRANCH   5   6
ENDBRANCH   1   5
TORSDOF 3
ENDMDL
MODEL 6
REMARK VINA RESULT:    -2.638      7.084      7.871
REMARK INTER + INTRA:          -3.168
REMARK INTER:                  -3.119
REMARK INTRA:                  -0.050
REMARK UNBOUND:                -0.068
REMARK SMILES CCCCC(=O)[O-]
REMARK SMILES IDX 4 1 5 2 6 3 7 4 3 5 2 6 1 7
REMARK H PARENT
REMARK Flexibility Score: inf
ROOT
ATOM      1  C   UNL     1      12.952  -9.673 -23.893  1.00  0.00     0.053 C 
ENDROOT
BRANCH   1   2
ATOM      2  C   UNL     1      12.927 -11.168 -23.953  1.00  0.00     0.041 C 
ATOM      3  O   UNL     1      12.092 -11.760 -24.687  1.00  0.00    -0.550 OA
ATOM      4  O   UNL     1      13.857 -11.908 -23.234  1.00  0.00    -0.550 OA
ENDBRANCH   1   2
BRANCH   1   5
ATOM      5  C   UNL     1      13.775  -9.104 -25.053  1.00  0.00     0.006 C 
BRANCH   5   6
ATOM      6  C   UNL     1      12.869  -8.695 -26.220  1.00  0.00    -0.003 C 
ATOM      7  C   UNL     1      13.622  -8.747 -27.546  1.00  0.00     0.004 C 
ENDBRANCH   5   6
ENDBRANCH   1   5
TORSDOF 3
ENDMDL
MODEL 7
REMARK VINA RESULT:    -2.629     16.738     17.540
REMARK INTER + INTRA:          -3.158
REMARK INTER:                  -3.118
REMARK INTRA:                  -0.040
REMARK UNBOUND:                -0.068
REMARK SMILES CCCCC(=O)[O-]
REMARK SMILES IDX 4 1 5 2 6 3 7 4 3 5 2 6 1 7
REMARK H PARENT
REMARK Flexibility Score: inf
ROOT
ATOM      1  C   UNL     1      -3.136  -2.377 -27.272  1.00  0.00     0.053 C 
ENDROOT
BRANCH   1   2
ATOM      2  C   UNL     1      -4.562  -2.228 -26.844  1.00  0.00     0.041 C 
ATOM      3  O   UNL     1      -5.370  -3.182 -26.988  1.00  0.00    -0.550 OA
ATOM      4  O   UNL     1      -4.988  -1.051 -26.241  1.00  0.00    -0.550 OA
ENDBRANCH   1   2
BRANCH   1   5
ATOM      5  C   UNL     1      -2.614  -3.773 -26.921  1.00  0.00     0.006 C 
BRANCH   5   6
ATOM      6  C   UNL     1      -1.280  -4.052 -27.621  1.00  0.00    -0.003 C 
ATOM      7  C   UNL     1      -0.733  -2.793 -28.288  1.00  0.00     0.004 C 
ENDBRANCH   5   6
ENDBRANCH   1   5
TORSDOF 3
ENDMDL
MODEL 8
REMARK VINA RESULT:    -2.623     18.731     19.602
REMARK INTER + INTRA:          -3.151
REMARK INTER:                  -3.058
REMARK INTRA:                  -0.093
REMARK UNBOUND:                -0.068
REMARK SMILES CCCCC(=O)[O-]
REMARK SMILES IDX 4 1 5 2 6 3 7 4 3 5 2 6 1 7
REMARK H PARENT
REMARK Flexibility Score: inf
ROOT
ATOM      1  C   UNL     1      -5.505   2.082 -17.595  1.00  0.00     0.053 C 
ENDROOT
BRANCH   1   2
ATOM      2  C   UNL     1      -4.547   0.936 -17.493  1.00  0.00     0.041 C 
ATOM      3  O   UNL     1      -3.614   0.814 -18.330  1.00  0.00    -0.550 OA
ATOM      4  O   UNL     1      -4.656   0.030 -16.447  1.00  0.00    -0.550 OA
ENDBRANCH   1   2
BRANCH   1   5
ATOM      5  C   UNL     1      -4.991   3.123 -18.593  1.00  0.00     0.006 C 
BRANCH   5   6
ATOM      6  C   UNL     1      -5.839   3.124 -19.870  1.00  0.00    -0.003 C 
ATOM      7  C   UNL     1      -4.963   2.990 -21.113  1.00  0.00     0.004 C 
ENDBRANCH   5   6
ENDBRANCH   1   5
TORSDOF 3
ENDMDL
MODEL 9
REMARK VINA RESULT:    -0.360     15.093     15.735
REMARK INTER + INTRA:          -0.491
REMARK INTER:                  -0.457
REMARK INTRA:                  -0.034
REMARK UNBOUND:                -0.068
REMARK SMILES CCCCC(=O)[O-]
REMARK SMILES IDX 4 1 5 2 6 3 7 4 3 5 2 6 1 7
REMARK H PARENT
REMARK Flexibility Score: inf
ROOT
ATOM      1  C   UNL     1      -1.842  -5.091 -21.916  1.00  0.00     0.053 C 
ENDROOT
BRANCH   1   2
ATOM      2  C   UNL     1      -3.306  -5.391 -21.971  1.00  0.00     0.041 C 
ATOM      3  O   UNL     1      -4.040  -4.817 -22.818  1.00  0.00    -0.550 OA
ATOM      4  O   UNL     1      -3.854  -6.341 -21.118  1.00  0.00    -0.550 OA
ENDBRANCH   1   2
BRANCH   1   5
ATOM      5  C   UNL     1      -1.479  -4.004 -22.931  1.00  0.00     0.006 C 
BRANCH   5   6
ATOM      6  C   UNL     1      -0.559  -4.558 -24.025  1.00  0.00    -0.003 C 
ATOM      7  C   UNL     1      -0.428  -6.075 -23.918  1.00  0.00     0.004 C 
ENDBRANCH   5   6
ENDBRANCH   1   5
TORSDOF 3
ENDMDL
