MODEL 1
REMARK VINA RESULT:    -4.541      0.000      0.000
REMARK INTER + INTRA:         -10.302
REMARK INTER:                  -8.523
REMARK INTRA:                  -1.779
REMARK UNBOUND:                -1.779
REMARK SMILES CCCCCCCCC=CCCCCCCCC(=O)[O-]
REMARK SMILES IDX 10 1 9 2 11 3 12 4 13 5 14 6 15 7 16 8 17 9 18 10 19 11
REMARK SMILES IDX 20 12 8 13 7 14 6 15 5 16 4 17 3 18 2 19 1 20
REMARK H PARENT
REMARK Flexibility Score: inf
ROOT
ATOM      1  C   UNL     1      68.182 -36.828   8.790  1.00  0.00    -0.031 C 
ATOM      2  C   UNL     1      69.172 -36.846   7.885  1.00  0.00    -0.031 C 
ENDROOT
BRANCH   1   3
ATOM      3  C   UNL     1      68.023 -37.925   9.810  1.00  0.00     0.027 C 
BRANCH   3   4
ATOM      4  C   UNL     1      69.159 -37.903  10.845  1.00  0.00     0.004 C 
BRANCH   4   5
ATOM      5  C   UNL     1      70.099 -39.123  10.779  1.00  0.00     0.000 C 
BRANCH   5   6
ATOM      6  C   UNL     1      71.558 -38.841  11.187  1.00  0.00     0.000 C 
BRANCH   6   7
ATOM      7  C   UNL     1      72.153 -37.577  10.532  1.00  0.00     0.000 C 
BRANCH   7   8
ATOM      8  C   UNL     1      73.240 -36.925  11.400  1.00  0.00     0.006 C 
BRANCH   8   9
ATOM      9  C   UNL     1      74.483 -37.814  11.484  1.00  0.00     0.053 C 
BRANCH   9  10
ATOM     10  C   UNL     1      75.667 -37.118  10.890  1.00  0.00     0.041 C 
ATOM     11  O   UNL     1      76.712 -36.951  11.574  1.00  0.00    -0.550 OA
ATOM     12  O   UNL     1      75.598 -36.607   9.601  1.00  0.00    -0.550 OA
ENDBRANCH   9  10
ENDBRANCH   8   9
ENDBRANCH   7   8
ENDBRANCH   6   7
ENDBRANCH   5   6
ENDBRANCH   4   5
ENDBRANCH   3   4
ENDBRANCH   1   3
BRANCH   2  13
ATOM     13  C   UNL     1      69.288 -35.782   6.828  1.00  0.00     0.027 C 
BRANCH  13  14
ATOM     14  C   UNL     1      68.913 -34.403   7.388  1.00  0.00     0.004 C 
BRANCH  14  15
ATOM     15  C   UNL     1      69.811 -33.281   6.841  1.00  0.00     0.000 C 
BRANCH  15  16
ATOM     16  C   UNL     1      70.670 -33.743   5.651  1.00  0.00     0.000 C 
BRANCH  16  17
ATOM     17  C   UNL     1      72.063 -33.092   5.639  1.00  0.00    -0.000 C 
BRANCH  17  18
ATOM     18  C   UNL     1      73.194 -34.123   5.489  1.00  0.00    -0.000 C 
BRANCH  18  19
ATOM     19  C   UNL     1      72.826 -35.491   6.086  1.00  0.00    -0.003 C 
ATOM     20  C   UNL     1      72.924 -35.516   7.611  1.00  0.00     0.004 C 
ENDBRANCH  18  19
ENDBRANCH  17  18
ENDBRANCH  16  17
ENDBRANCH  15  16
ENDBRANCH  14  15
ENDBRANCH  13  14
ENDBRANCH   2  13
TORSDOF 15
ENDMDL
MODEL 2
REMARK VINA RESULT:    -4.497      1.386      5.657
REMARK INTER + INTRA:         -10.220
REMARK INTER:                  -8.693
REMARK INTRA:                  -1.526
REMARK UNBOUND:                -1.779
REMARK SMILES CCCCCCCCC=CCCCCCCCC(=O)[O-]
REMARK SMILES IDX 10 1 9 2 11 3 12 4 13 5 14 6 15 7 16 8 17 9 18 10 19 11
REMARK SMILES IDX 20 12 8 13 7 14 6 15 5 16 4 17 3 18 2 19 1 20
REMARK H PARENT
REMARK Flexibility Score: inf
ROOT
ATOM      1  C   UNL     1      69.043 -36.541   7.836  1.00  0.00    -0.031 C 
ATOM      2  C   UNL     1      69.882 -36.764   8.860  1.00  0.00    -0.031 C 
ENDROOT
BRANCH   1   3
ATOM      3  C   UNL     1      69.360 -35.537   6.759  1.00  0.00     0.027 C 
BRANCH   3   4
ATOM      4  C   UNL     1      69.457 -34.112   7.325  1.00  0.00     0.004 C 
BRANCH   4   5
ATOM      5  C   UNL     1      69.972 -33.065   6.317  1.00  0.00     0.000 C 
BRANCH   5   6
ATOM      6  C   UNL     1      71.224 -33.488   5.526  1.00  0.00     0.000 C 
BRANCH   6   7
ATOM      7  C   UNL     1      72.449 -33.789   6.415  1.00  0.00     0.000 C 
BRANCH   7   8
ATOM      8  C   UNL     1      73.200 -35.052   5.970  1.00  0.00     0.006 C 
BRANCH   8   9
ATOM      9  C   UNL     1      73.540 -35.942   7.169  1.00  0.00     0.053 C 
BRANCH   9  10
ATOM     10  C   UNL     1      74.625 -36.908   6.814  1.00  0.00     0.041 C 
ATOM     11  O   UNL     1      74.432 -37.777   5.922  1.00  0.00    -0.550 OA
ATOM     12  O   UNL     1      75.830 -36.884   7.504  1.00  0.00    -0.550 OA
ENDBRANCH   9  10
ENDBRANCH   8   9
ENDBRANCH   7   8
ENDBRANCH   6   7
ENDBRANCH   5   6
ENDBRANCH   4   5
ENDBRANCH   3   4
ENDBRANCH   1   3
BRANCH   2  13
ATOM     13  C   UNL     1      69.532 -37.721   9.966  1.00  0.00     0.027 C 
BRANCH  13  14
ATOM     14  C   UNL     1      70.601 -38.813  10.112  1.00  0.00     0.004 C 
BRANCH  14  15
ATOM     15  C   UNL     1      71.072 -38.984  11.566  1.00  0.00     0.000 C 
BRANCH  15  16
ATOM     16  C   UNL     1      72.057 -37.885  12.000  1.00  0.00     0.000 C 
BRANCH  16  17
ATOM     17  C   UNL     1      73.076 -37.536  10.902  1.00  0.00    -0.000 C 
BRANCH  17  18
ATOM     18  C   UNL     1      74.481 -38.082  11.206  1.00  0.00    -0.000 C 
BRANCH  18  19
ATOM     19  C   UNL     1      75.577 -37.019  11.026  1.00  0.00    -0.003 C 
ATOM     20  C   UNL     1      76.884 -37.394  11.723  1.00  0.00     0.004 C 
ENDBRANCH  18  19
ENDBRANCH  17  18
ENDBRANCH  16  17
ENDBRANCH  15  16
ENDBRANCH  14  15
ENDBRANCH  13  14
ENDBRANCH   2  13
TORSDOF 15
ENDMDL
MODEL 3
REMARK VINA RESULT:    -4.455      3.683      5.736
REMARK INTER + INTRA:         -10.141
REMARK INTER:                  -8.031
REMARK INTRA:                  -2.109
REMARK UNBOUND:                -1.779
REMARK SMILES CCCCCCCCC=CCCCCCCCC(=O)[O-]
REMARK SMILES IDX 10 1 9 2 11 3 12 4 13 5 14 6 15 7 16 8 17 9 18 10 19 11
REMARK SMILES IDX 20 12 8 13 7 14 6 15 5 16 4 17 3 18 2 19 1 20
REMARK H PARENT
REMARK Flexibility Score: inf
ROOT
ATOM      1  C   UNL     1      72.251 -36.887  10.235  1.00  0.00    -0.031 C 
ATOM      2  C   UNL     1      73.048 -36.789   9.160  1.00  0.00    -0.031 C 
ENDROOT
BRANCH   1   3
ATOM      3  C   UNL     1      72.486 -37.925  11.301  1.00  0.00     0.027 C 
BRANCH   3   4
ATOM      4  C   UNL     1      71.168 -38.561  11.771  1.00  0.00     0.004 C 
BRANCH   4   5
ATOM      5  C   UNL     1      70.612 -39.639  10.821  1.00  0.00     0.000 C 
BRANCH   5   6
ATOM      6  C   UNL     1      69.598 -39.126   9.780  1.00  0.00     0.000 C 
BRANCH   6   7
ATOM      7  C   UNL     1      68.837 -37.859  10.227  1.00  0.00     0.000 C 
BRANCH   7   8
ATOM      8  C   UNL     1      67.314 -38.020  10.110  1.00  0.00     0.006 C 
BRANCH   8   9
ATOM      9  C   UNL     1      66.586 -37.083  11.077  1.00  0.00     0.053 C 
BRANCH   9  10
ATOM     10  C   UNL     1      65.452 -36.394  10.387  1.00  0.00     0.041 C 
ATOM     11  O   UNL     1      64.437 -37.048  10.031  1.00  0.00    -0.550 OA
ATOM     12  O   UNL     1      65.539 -35.041  10.089  1.00  0.00    -0.550 OA
ENDBRANCH   9  10
ENDBRANCH   8   9
ENDBRANCH   7   8
ENDBRANCH   6   7
ENDBRANCH   5   6
ENDBRANCH   4   5
ENDBRANCH   3   4
ENDBRANCH   1   3
BRANCH   2  13
ATOM     13  C   UNL     1      72.773 -35.793   8.068  1.00  0.00     0.027 C 
BRANCH  13  14
ATOM     14  C   UNL     1      72.375 -36.498   6.763  1.00  0.00     0.004 C 
BRANCH  14  15
ATOM     15  C   UNL     1      70.985 -37.151   6.848  1.00  0.00     0.000 C 
BRANCH  15  16
ATOM     16  C   UNL     1      69.879 -36.260   6.257  1.00  0.00     0.000 C 
BRANCH  16  17
ATOM     17  C   UNL     1      69.015 -35.591   7.339  1.00  0.00    -0.000 C 
BRANCH  17  18
ATOM     18  C   UNL     1      69.170 -34.061   7.355  1.00  0.00    -0.000 C 
BRANCH  18  19
ATOM     19  C   UNL     1      70.089 -33.552   6.233  1.00  0.00    -0.003 C 
ATOM     20  C   UNL     1      71.277 -32.748   6.761  1.00  0.00     0.004 C 
ENDBRANCH  18  19
ENDBRANCH  17  18
ENDBRANCH  16  17
ENDBRANCH  15  16
ENDBRANCH  14  15
ENDBRANCH  13  14
ENDBRANCH   2  13
TORSDOF 15
ENDMDL
MODEL 4
REMARK VINA RESULT:    -4.455      1.102      4.970
REMARK INTER + INTRA:         -10.140
REMARK INTER:                  -8.553
REMARK INTRA:                  -1.586
REMARK UNBOUND:                -1.779
REMARK SMILES CCCCCCCCC=CCCCCCCCC(=O)[O-]
REMARK SMILES IDX 10 1 9 2 11 3 12 4 13 5 14 6 15 7 16 8 17 9 18 10 19 11
REMARK SMILES IDX 20 12 8 13 7 14 6 15 5 16 4 17 3 18 2 19 1 20
REMARK H PARENT
REMARK Flexibility Score: inf
ROOT
ATOM      1  C   UNL     1      70.233 -33.603   6.235  1.00  0.00    -0.031 C 
ATOM      2  C   UNL     1      69.850 -34.712   6.887  1.00  0.00    -0.031 C 
ENDROOT
BRANCH   1   3
ATOM      3  C   UNL     1      71.533 -33.540   5.479  1.00  0.00     0.027 C 
BRANCH   3   4
ATOM      4  C   UNL     1      72.720 -33.966   6.358  1.00  0.00     0.004 C 
BRANCH   4   5
ATOM      5  C   UNL     1      73.393 -35.280   5.919  1.00  0.00     0.000 C 
BRANCH   5   6
ATOM      6  C   UNL     1      73.696 -36.268   7.062  1.00  0.00     0.000 C 
BRANCH   6   7
ATOM      7  C   UNL     1      72.684 -36.200   8.226  1.00  0.00     0.000 C 
BRANCH   7   8
ATOM      8  C   UNL     1      73.273 -36.720   9.545  1.00  0.00     0.006 C 
BRANCH   8   9
ATOM      9  C   UNL     1      74.778 -36.971   9.414  1.00  0.00     0.053 C 
BRANCH   9  10
ATOM     10  C   UNL     1      75.400 -37.150  10.762  1.00  0.00     0.041 C 
ATOM     11  O   UNL     1      74.987 -38.055  11.535  1.00  0.00    -0.550 OA
ATOM     12  O   UNL     1      76.399 -36.285  11.187  1.00  0.00    -0.550 OA
ENDBRANCH   9  10
ENDBRANCH   8   9
ENDBRANCH   7   8
ENDBRANCH   6   7
ENDBRANCH   5   6
ENDBRANCH   4   5
ENDBRANCH   3   4
ENDBRANCH   1   3
BRANCH   2  13
ATOM     13  C   UNL     1      68.581 -34.749   7.693  1.00  0.00     0.027 C 
BRANCH  13  14
ATOM     14  C   UNL     1      68.069 -36.188   7.853  1.00  0.00     0.004 C 
BRANCH  14  15
ATOM     15  C   UNL     1      69.010 -37.055   8.706  1.00  0.00     0.000 C 
BRANCH  15  16
ATOM     16  C   UNL     1      68.268 -37.804   9.826  1.00  0.00     0.000 C 
BRANCH  16  17
ATOM     17  C   UNL     1      68.650 -39.291   9.898  1.00  0.00    -0.000 C 
BRANCH  17  18
ATOM     18  C   UNL     1      70.172 -39.511   9.900  1.00  0.00    -0.000 C 
BRANCH  18  19
ATOM     19  C   UNL     1      70.747 -39.628  11.320  1.00  0.00    -0.003 C 
ATOM     20  C   UNL     1      71.355 -38.319  11.822  1.00  0.00     0.004 C 
ENDBRANCH  18  19
ENDBRANCH  17  18
ENDBRANCH  16  17
ENDBRANCH  15  16
ENDBRANCH  14  15
ENDBRANCH  13  14
ENDBRANCH   2  13
TORSDOF 15
ENDMDL
MODEL 5
REMARK VINA RESULT:    -4.452      1.271      5.351
REMARK INTER + INTRA:         -10.135
REMARK INTER:                  -8.223
REMARK INTRA:                  -1.913
REMARK UNBOUND:                -1.779
REMARK SMILES CCCCCCCCC=CCCCCCCCC(=O)[O-]
REMARK SMILES IDX 10 1 9 2 11 3 12 4 13 5 14 6 15 7 16 8 17 9 18 10 19 11
REMARK SMILES IDX 20 12 8 13 7 14 6 15 5 16 4 17 3 18 2 19 1 20
REMARK H PARENT
REMARK Flexibility Score: inf
ROOT
ATOM      1  C   UNL     1      69.185 -34.578   7.365  1.00  0.00    -0.031 C 
ATOM      2  C   UNL     1      69.213 -35.756   6.722  1.00  0.00    -0.031 C 
ENDROOT
BRANCH   1   3
ATOM      3  C   UNL     1      69.794 -33.338   6.768  1.00  0.00     0.027 C 
BRANCH   3   4
ATOM      4  C   UNL     1      71.301 -33.250   7.058  1.00  0.00     0.004 C 
BRANCH   4   5
ATOM      5  C   UNL     1      72.172 -33.009   5.811  1.00  0.00     0.000 C 
BRANCH   5   6
ATOM      6  C   UNL     1      73.127 -34.165   5.452  1.00  0.00     0.000 C 
BRANCH   6   7
ATOM      7  C   UNL     1      72.402 -35.486   5.117  1.00  0.00     0.000 C 
BRANCH   7   8
ATOM      8  C   UNL     1      72.759 -36.613   6.098  1.00  0.00     0.006 C 
BRANCH   8   9
ATOM      9  C   UNL     1      73.677 -36.102   7.212  1.00  0.00     0.053 C 
BRANCH   9  10
ATOM     10  C   UNL     1      74.923 -36.925   7.284  1.00  0.00     0.041 C 
ATOM     11  O   UNL     1      75.791 -36.683   8.165  1.00  0.00    -0.550 OA
ATOM     12  O   UNL     1      75.152 -37.923   6.348  1.00  0.00    -0.550 OA
ENDBRANCH   9  10
ENDBRANCH   8   9
ENDBRANCH   7   8
ENDBRANCH   6   7
ENDBRANCH   5   6
ENDBRANCH   4   5
ENDBRANCH   3   4
ENDBRANCH   1   3
BRANCH   2  13
ATOM     13  C   UNL     1      68.660 -37.006   7.350  1.00  0.00     0.027 C 
BRANCH  13  14
ATOM     14  C   UNL     1      68.413 -36.808   8.853  1.00  0.00     0.004 C 
BRANCH  14  15
ATOM     15  C   UNL     1      68.728 -38.070   9.672  1.00  0.00     0.000 C 
BRANCH  15  16
ATOM     16  C   UNL     1      70.238 -38.273   9.886  1.00  0.00     0.000 C 
BRANCH  16  17
ATOM     17  C   UNL     1      70.682 -37.948  11.322  1.00  0.00    -0.000 C 
BRANCH  17  18
ATOM     18  C   UNL     1      72.150 -38.324  11.584  1.00  0.00    -0.000 C 
BRANCH  18  19
ATOM     19  C   UNL     1      73.133 -37.406  10.842  1.00  0.00    -0.003 C 
ATOM     20  C   UNL     1      74.582 -37.607  11.288  1.00  0.00     0.004 C 
ENDBRANCH  18  19
ENDBRANCH  17  18
ENDBRANCH  16  17
ENDBRANCH  15  16
ENDBRANCH  14  15
ENDBRANCH  13  14
ENDBRANCH   2  13
TORSDOF 15
ENDMDL
MODEL 6
REMARK VINA RESULT:    -4.385      4.126      6.755
REMARK INTER + INTRA:         -10.008
REMARK INTER:                  -8.267
REMARK INTRA:                  -1.742
REMARK UNBOUND:                -1.779
REMARK SMILES CCCCCCCCC=CCCCCCCCC(=O)[O-]
REMARK SMILES IDX 10 1 9 2 11 3 12 4 13 5 14 6 15 7 16 8 17 9 18 10 19 11
REMARK SMILES IDX 20 12 8 13 7 14 6 15 5 16 4 17 3 18 2 19 1 20
REMARK H PARENT
REMARK Flexibility Score: inf
ROOT
ATOM      1  C   UNL     1      66.676 -36.903  11.494  1.00  0.00    -0.031 C 
ATOM      2  C   UNL     1      65.811 -36.631  12.483  1.00  0.00    -0.031 C 
ENDROOT
BRANCH   1   3
ATOM      3  C   UNL     1      66.434 -38.025  10.520  1.00  0.00     0.027 C 
BRANCH   3   4
ATOM      4  C   UNL     1      67.682 -38.315   9.669  1.00  0.00     0.004 C 
BRANCH   4   5
ATOM      5  C   UNL     1      68.941 -37.545  10.111  1.00  0.00     0.000 C 
BRANCH   5   6
ATOM      6  C   UNL     1      70.256 -38.345  10.020  1.00  0.00     0.000 C 
BRANCH   6   7
ATOM      7  C   UNL     1      70.777 -38.841  11.386  1.00  0.00     0.000 C 
BRANCH   7   8
ATOM      8  C   UNL     1      72.073 -38.136  11.809  1.00  0.00     0.006 C 
BRANCH   8   9
ATOM      9  C   UNL     1      72.718 -37.412  10.623  1.00  0.00     0.053 C 
BRANCH   9  10
ATOM     10  C   UNL     1      74.209 -37.464  10.725  1.00  0.00     0.041 C 
ATOM     11  O   UNL     1      74.923 -36.944   9.827  1.00  0.00    -0.550 OA
ATOM     12  O   UNL     1      74.811 -38.130  11.784  1.00  0.00    -0.550 OA
ENDBRANCH   9  10
ENDBRANCH   8   9
ENDBRANCH   7   8
ENDBRANCH   6   7
ENDBRANCH   5   6
ENDBRANCH   4   5
ENDBRANCH   3   4
ENDBRANCH   1   3
BRANCH   2  13
ATOM     13  C   UNL     1      66.088 -35.550  13.492  1.00  0.00     0.027 C 
BRANCH  13  14
ATOM     14  C   UNL     1      64.901 -35.367  14.447  1.00  0.00     0.004 C 
BRANCH  14  15
ATOM     15  C   UNL     1      63.580 -35.880  13.849  1.00  0.00     0.000 C 
BRANCH  15  16
ATOM     16  C   UNL     1      62.520 -34.773  13.724  1.00  0.00     0.000 C 
BRANCH  16  17
ATOM     17  C   UNL     1      62.135 -34.482  12.264  1.00  0.00    -0.000 C 
BRANCH  17  18
ATOM     18  C   UNL     1      63.064 -33.449  11.604  1.00  0.00    -0.000 C 
BRANCH  18  19
ATOM     19  C   UNL     1      63.996 -34.081  10.558  1.00  0.00    -0.003 C 
ATOM     20  C   UNL     1      63.482 -35.424  10.042  1.00  0.00     0.004 C 
ENDBRANCH  18  19
ENDBRANCH  17  18
ENDBRANCH  16  17
ENDBRANCH  15  16
ENDBRANCH  14  15
ENDBRANCH  13  14
ENDBRANCH   2  13
TORSDOF 15
ENDMDL
MODEL 7
REMARK VINA RESULT:    -4.288      2.669      6.820
REMARK INTER + INTRA:          -9.826
REMARK INTER:                  -7.887
REMARK INTRA:                  -1.939
REMARK UNBOUND:                -1.779
REMARK SMILES CCCCCCCCC=CCCCCCCCC(=O)[O-]
REMARK SMILES IDX 10 1 9 2 11 3 12 4 13 5 14 6 15 7 16 8 17 9 18 10 19 11
REMARK SMILES IDX 20 12 8 13 7 14 6 15 5 16 4 17 3 18 2 19 1 20
REMARK H PARENT
REMARK Flexibility Score: inf
ROOT
ATOM      1  C   UNL     1      74.425 -36.865   8.768  1.00  0.00    -0.031 C 
ATOM      2  C   UNL     1      75.031 -37.362   9.857  1.00  0.00    -0.031 C 
ENDROOT
BRANCH   1   3
ATOM      3  C   UNL     1      75.121 -36.804   7.435  1.00  0.00     0.027 C 
BRANCH   3   4
ATOM      4  C   UNL     1      74.161 -37.132   6.280  1.00  0.00     0.004 C 
BRANCH   4   5
ATOM      5  C   UNL     1      73.262 -35.955   5.852  1.00  0.00     0.000 C 
BRANCH   5   6
ATOM      6  C   UNL     1      71.944 -36.362   5.165  1.00  0.00     0.000 C 
BRANCH   6   7
ATOM      7  C   UNL     1      70.785 -36.626   6.150  1.00  0.00     0.000 C 
BRANCH   7   8
ATOM      8  C   UNL     1      70.809 -35.669   7.350  1.00  0.00     0.006 C 
BRANCH   8   9
ATOM      9  C   UNL     1      69.771 -34.555   7.185  1.00  0.00     0.053 C 
BRANCH   9  10
ATOM     10  C   UNL     1      70.405 -33.328   6.612  1.00  0.00     0.041 C 
ATOM     11  O   UNL     1      70.921 -32.467   7.374  1.00  0.00    -0.550 OA
ATOM     12  O   UNL     1      70.381 -33.108   5.241  1.00  0.00    -0.550 OA
ENDBRANCH   9  10
ENDBRANCH   8   9
ENDBRANCH   7   8
ENDBRANCH   6   7
ENDBRANCH   5   6
ENDBRANCH   4   5
ENDBRANCH   3   4
ENDBRANCH   1   3
BRANCH   2  13
ATOM     13  C   UNL     1      74.354 -37.362  11.201  1.00  0.00     0.027 C 
BRANCH  13  14
ATOM     14  C   UNL     1      72.834 -37.202  11.055  1.00  0.00     0.004 C 
BRANCH  14  15
ATOM     15  C   UNL     1      72.052 -38.154  11.975  1.00  0.00     0.000 C 
BRANCH  15  16
ATOM     16  C   UNL     1      70.860 -38.816  11.261  1.00  0.00     0.000 C 
BRANCH  16  17
ATOM     17  C   UNL     1      70.569 -38.189   9.888  1.00  0.00    -0.000 C 
BRANCH  17  18
ATOM     18  C   UNL     1      69.158 -38.522   9.374  1.00  0.00    -0.000 C 
BRANCH  18  19
ATOM     19  C   UNL     1      68.062 -37.748  10.124  1.00  0.00    -0.003 C 
ATOM     20  C   UNL     1      67.169 -36.933   9.189  1.00  0.00     0.004 C 
ENDBRANCH  18  19
ENDBRANCH  17  18
ENDBRANCH  16  17
ENDBRANCH  15  16
ENDBRANCH  14  15
ENDBRANCH  13  14
ENDBRANCH   2  13
TORSDOF 15
ENDMDL
MODEL 8
REMARK VINA RESULT:    -4.277      4.027      6.083
REMARK INTER + INTRA:          -9.806
REMARK INTER:                  -7.608
REMARK INTRA:                  -2.197
REMARK UNBOUND:                -1.779
REMARK SMILES CCCCCCCCC=CCCCCCCCC(=O)[O-]
REMARK SMILES IDX 10 1 9 2 11 3 12 4 13 5 14 6 15 7 16 8 17 9 18 10 19 11
REMARK SMILES IDX 20 12 8 13 7 14 6 15 5 16 4 17 3 18 2 19 1 20
REMARK H PARENT
REMARK Flexibility Score: inf
ROOT
ATOM      1  C   UNL     1      71.828 -37.306  10.225  1.00  0.00    -0.031 C 
ATOM      2  C   UNL     1      71.635 -36.685   9.051  1.00  0.00    -0.031 C 
ENDROOT
BRANCH   1   3
ATOM      3  C   UNL     1      70.678 -37.853  11.028  1.00  0.00     0.027 C 
BRANCH   3   4
ATOM      4  C   UNL     1      69.340 -37.680  10.291  1.00  0.00     0.004 C 
BRANCH   4   5
ATOM      5  C   UNL     1      68.721 -38.997   9.786  1.00  0.00     0.000 C 
BRANCH   5   6
ATOM      6  C   UNL     1      67.183 -39.061   9.857  1.00  0.00     0.000 C 
BRANCH   6   7
ATOM      7  C   UNL     1      66.515 -37.690  10.097  1.00  0.00     0.000 C 
BRANCH   7   8
ATOM      8  C   UNL     1      65.783 -37.624  11.446  1.00  0.00     0.006 C 
BRANCH   8   9
ATOM      9  C   UNL     1      65.831 -36.209  12.028  1.00  0.00     0.053 C 
BRANCH   9  10
ATOM     10  C   UNL     1      64.883 -35.310  11.301  1.00  0.00     0.041 C 
ATOM     11  O   UNL     1      65.323 -34.356  10.605  1.00  0.00    -0.550 OA
ATOM     12  O   UNL     1      63.513 -35.491  11.433  1.00  0.00    -0.550 OA
ENDBRANCH   9  10
ENDBRANCH   8   9
ENDBRANCH   7   8
ENDBRANCH   6   7
ENDBRANCH   5   6
ENDBRANCH   4   5
ENDBRANCH   3   4
ENDBRANCH   1   3
BRANCH   2  13
ATOM     13  C   UNL     1      72.780 -36.084   8.284  1.00  0.00     0.027 C 
BRANCH  13  14
ATOM     14  C   UNL     1      72.277 -35.281   7.076  1.00  0.00     0.004 C 
BRANCH  14  15
ATOM     15  C   UNL     1      72.146 -33.780   7.381  1.00  0.00     0.000 C 
BRANCH  15  16
ATOM     16  C   UNL     1      70.853 -33.173   6.808  1.00  0.00     0.000 C 
BRANCH  16  17
ATOM     17  C   UNL     1      69.811 -34.241   6.435  1.00  0.00    -0.000 C 
BRANCH  17  18
ATOM     18  C   UNL     1      68.835 -34.539   7.586  1.00  0.00    -0.000 C 
BRANCH  18  19
ATOM     19  C   UNL     1      67.950 -35.764   7.302  1.00  0.00    -0.003 C 
ATOM     20  C   UNL     1      68.720 -36.911   6.648  1.00  0.00     0.004 C 
ENDBRANCH  18  19
ENDBRANCH  17  18
ENDBRANCH  16  17
ENDBRANCH  15  16
ENDBRANCH  14  15
ENDBRANCH  13  14
ENDBRANCH   2  13
TORSDOF 15
ENDMDL
MODEL 9
REMARK VINA RESULT:    -4.253      3.868      6.246
REMARK INTER + INTRA:          -9.761
REMARK INTER:                  -8.109
REMARK INTRA:                  -1.652
REMARK UNBOUND:                -1.779
REMARK SMILES CCCCCCCCC=CCCCCCCCC(=O)[O-]
REMARK SMILES IDX 10 1 9 2 11 3 12 4 13 5 14 6 15 7 16 8 17 9 18 10 19 11
REMARK SMILES IDX 20 12 8 13 7 14 6 15 5 16 4 17 3 18 2 19 1 20
REMARK H PARENT
REMARK Flexibility Score: inf
ROOT
ATOM      1  C   UNL     1      69.106 -35.100   7.081  1.00  0.00    -0.031 C 
ATOM      2  C   UNL     1      69.593 -33.850   7.128  1.00  0.00    -0.031 C 
ENDROOT
BRANCH   1   3
ATOM      3  C   UNL     1      67.875 -35.498   7.849  1.00  0.00     0.027 C 
BRANCH   3   4
ATOM      4  C   UNL     1      67.559 -36.993   7.677  1.00  0.00     0.004 C 
BRANCH   4   5
ATOM      5  C   UNL     1      68.235 -37.906   8.717  1.00  0.00     0.000 C 
BRANCH   5   6
ATOM      6  C   UNL     1      67.519 -37.979  10.080  1.00  0.00     0.000 C 
BRANCH   6   7
ATOM      7  C   UNL     1      66.066 -38.492   9.991  1.00  0.00     0.000 C 
BRANCH   7   8
ATOM      8  C   UNL     1      65.135 -37.787  10.988  1.00  0.00     0.006 C 
BRANCH   8   9
ATOM      9  C   UNL     1      65.706 -36.430  11.409  1.00  0.00     0.053 C 
BRANCH   9  10
ATOM     10  C   UNL     1      65.557 -36.232  12.884  1.00  0.00     0.041 C 
ATOM     11  O   UNL     1      66.446 -35.621  13.533  1.00  0.00    -0.550 OA
ATOM     12  O   UNL     1      64.464 -36.769  13.550  1.00  0.00    -0.550 OA
ENDBRANCH   9  10
ENDBRANCH   8   9
ENDBRANCH   7   8
ENDBRANCH   6   7
ENDBRANCH   5   6
ENDBRANCH   4   5
ENDBRANCH   3   4
ENDBRANCH   1   3
BRANCH   2  13
ATOM     13  C   UNL     1      70.859 -33.473   6.410  1.00  0.00     0.027 C 
BRANCH  13  14
ATOM     14  C   UNL     1      72.097 -33.852   7.235  1.00  0.00     0.004 C 
BRANCH  14  15
ATOM     15  C   UNL     1      72.552 -35.299   6.981  1.00  0.00     0.000 C 
BRANCH  15  16
ATOM     16  C   UNL     1      72.976 -36.019   8.274  1.00  0.00     0.000 C 
BRANCH  16  17
ATOM     17  C   UNL     1      71.776 -36.534   9.085  1.00  0.00    -0.000 C 
BRANCH  17  18
ATOM     18  C   UNL     1      72.199 -37.204  10.403  1.00  0.00    -0.000 C 
BRANCH  18  19
ATOM     19  C   UNL     1      71.009 -37.814  11.161  1.00  0.00    -0.003 C 
ATOM     20  C   UNL     1      71.118 -39.332  11.308  1.00  0.00     0.004 C 
ENDBRANCH  18  19
ENDBRANCH  17  18
ENDBRANCH  16  17
ENDBRANCH  15  16
ENDBRANCH  14  15
ENDBRANCH  13  14
ENDBRANCH   2  13
TORSDOF 15
ENDMDL
