MODEL 1
REMARK VINA RESULT:    -6.669      0.000      0.000
REMARK INTER + INTRA:         -11.028
REMARK INTER:                  -9.593
REMARK INTRA:                  -1.435
REMARK UNBOUND:                -1.435
REMARK SMILES O=c1cc(-c2ccc(O)c(O)c2)oc2cc(O[C@@H]3O[C@H](CO)[C@@H](O)[C@@H](O)[C@H]3O)cc(O)c12
REMARK SMILES IDX 17 1 16 2 4 3 3 4 13 5 2 6 14 7 1 8 32 9 15 10 30 11 29 12
REMARK SMILES IDX 5 13 6 14 7 15 8 16 12 17 10 18 9 19 11 21 31 23 18 25 27 26
REMARK SMILES IDX 19 27 25 28 20 29 23 30 28 31 26 33 21 35 22 36 24 38
REMARK H PARENT 9 20 11 22 31 24 28 32 26 34 22 37 24 39
REMARK Flexibility Score: inf
ROOT
ATOM      1  O   UNL     1      27.306   0.625  37.628  1.00  0.00    -0.462 OA
ENDROOT
BRANCH   1   2
ATOM      2  C   UNL     1      26.977   1.961  37.925  1.00  0.00     0.130 A 
ATOM      3  C   UNL     1      22.727   2.444  39.262  1.00  0.00     0.138 A 
ATOM      4  C   UNL     1      22.413   2.894  37.952  1.00  0.00     0.100 A 
ATOM      5  O   UNL     1      24.006   2.717  39.694  1.00  0.00    -0.456 OA
ATOM      6  C   UNL     1      23.378   3.785  37.421  1.00  0.00     0.197 A 
ATOM      7  C   UNL     1      24.989   2.822  38.808  1.00  0.00     0.146 A 
ATOM      8  O   UNL     1      23.097   5.014  37.284  1.00  0.00    -0.289 OA
ATOM      9  C   UNL     1      24.708   3.424  37.577  1.00  0.00     0.107 A 
ATOM     10  C   UNL     1      26.251   2.240  39.048  1.00  0.00     0.094 A 
ATOM     11  C   UNL     1      25.767   3.626  36.663  1.00  0.00     0.134 A 
ATOM     12  C   UNL     1      26.942   2.897  36.877  1.00  0.00     0.093 A 
BRANCH   3  13
ATOM     13  C   UNL     1      22.479   3.349  40.548  1.00  0.00     0.021 A 
ATOM     14  C   UNL     1      21.883   4.616  40.511  1.00  0.00     0.016 A 
ATOM     15  C   UNL     1      21.837   5.421  41.666  1.00  0.00     0.051 A 
ATOM     16  C   UNL     1      22.357   4.941  42.872  1.00  0.00     0.157 A 
ATOM     17  C   UNL     1      22.904   2.831  41.787  1.00  0.00     0.062 A 
ATOM     18  C   UNL     1      22.845   3.614  42.951  1.00  0.00     0.158 A 
BRANCH  16  19
ATOM     19  O   UNL     1      22.327   5.779  43.983  1.00  0.00    -0.504 OA
ATOM     20  H   UNL     1      22.196   6.803  43.941  1.00  0.00     0.293 HD
ENDBRANCH  16  19
BRANCH  18  21
ATOM     21  O   UNL     1      23.314   3.073  44.148  1.00  0.00    -0.504 OA
ATOM     22  H   UNL     1      23.648   3.640  44.937  1.00  0.00     0.293 HD
ENDBRANCH  18  21
ENDBRANCH   3  13
BRANCH  11  23
ATOM     23  O   UNL     1      25.630   4.362  35.479  1.00  0.00    -0.507 OA
ATOM     24  H   UNL     1      26.360   4.890  35.038  1.00  0.00     0.293 HD
ENDBRANCH  11  23
ENDBRANCH   1   2
BRANCH   1  25
ATOM     25  C   UNL     1      26.705  -0.026  36.507  1.00  0.00     0.339 C 
ATOM     26  C   UNL     1      27.268  -1.440  36.211  1.00  0.00     0.214 C 
ATOM     27  O   UNL     1      25.304  -0.184  36.748  1.00  0.00    -0.332 OA
ATOM     28  C   UNL     1      26.302  -2.209  35.212  1.00  0.00     0.180 C 
ATOM     29  C   UNL     1      24.569  -0.330  35.535  1.00  0.00     0.179 C 
ATOM     30  C   UNL     1      25.287  -1.266  34.505  1.00  0.00     0.177 C 
BRANCH  26  31
ATOM     31  O   UNL     1      28.622  -1.358  35.756  1.00  0.00    -0.384 OA
ATOM     32  H   UNL     1      29.038  -2.218  35.973  1.00  0.00     0.211 HD
ENDBRANCH  26  31
BRANCH  28  33
ATOM     33  O   UNL     1      26.987  -3.038  34.268  1.00  0.00    -0.387 OA
ATOM     34  H   UNL     1      26.373  -3.675  33.912  1.00  0.00     0.211 HD
ENDBRANCH  28  33
BRANCH  29  35
ATOM     35  C   UNL     1      23.181  -0.881  35.904  1.00  0.00     0.191 C 
BRANCH  35  36
ATOM     36  O   UNL     1      22.828  -0.523  37.225  1.00  0.00    -0.394 OA
ATOM     37  H   UNL     1      23.336   0.309  37.446  1.00  0.00     0.210 HD
ENDBRANCH  35  36
ENDBRANCH  29  35
BRANCH  30  38
ATOM     38  O   UNL     1      25.890  -0.477  33.501  1.00  0.00    -0.387 OA
ATOM     39  H   UNL     1      26.506   0.212  33.900  1.00  0.00     0.211 HD
ENDBRANCH  30  38
ENDBRANCH   1  25
TORSDOF 11
ENDMDL
MODEL 2
REMARK VINA RESULT:    -6.185      5.366      8.525
REMARK INTER + INTRA:         -10.332
REMARK INTER:                  -9.348
REMARK INTRA:                  -0.984
REMARK UNBOUND:                -1.435
REMARK SMILES O=c1cc(-c2ccc(O)c(O)c2)oc2cc(O[C@@H]3O[C@H](CO)[C@@H](O)[C@@H](O)[C@H]3O)cc(O)c12
REMARK SMILES IDX 17 1 16 2 4 3 3 4 13 5 2 6 14 7 1 8 32 9 15 10 30 11 29 12
REMARK SMILES IDX 5 13 6 14 7 15 8 16 12 17 10 18 9 19 11 21 31 23 18 25 27 26
REMARK SMILES IDX 19 27 25 28 20 29 23 30 28 31 26 33 21 35 22 36 24 38
REMARK H PARENT 9 20 11 22 31 24 28 32 26 34 22 37 24 39
REMARK Flexibility Score: inf
ROOT
ATOM      1  O   UNL     1      20.541   1.648  32.044  1.00  0.00    -0.462 OA
ENDROOT
BRANCH   1   2
ATOM      2  C   UNL     1      21.734   2.025  32.689  1.00  0.00     0.130 A 
ATOM      3  C   UNL     1      23.002  -0.894  35.843  1.00  0.00     0.138 A 
ATOM      4  C   UNL     1      22.460  -0.011  36.815  1.00  0.00     0.100 A 
ATOM      5  O   UNL     1      23.489  -0.297  34.702  1.00  0.00    -0.456 OA
ATOM      6  C   UNL     1      22.764   1.349  36.564  1.00  0.00     0.197 A 
ATOM      7  C   UNL     1      22.971   0.856  34.292  1.00  0.00     0.146 A 
ATOM      8  O   UNL     1      23.587   1.963  37.310  1.00  0.00    -0.289 OA
ATOM      9  C   UNL     1      22.595   1.792  35.260  1.00  0.00     0.107 A 
ATOM     10  C   UNL     1      22.695   1.085  32.928  1.00  0.00     0.094 A 
ATOM     11  C   UNL     1      22.131   3.058  34.835  1.00  0.00     0.134 A 
ATOM     12  C   UNL     1      21.729   3.174  33.500  1.00  0.00     0.093 A 
BRANCH   3  13
ATOM     13  C   UNL     1      24.535  -1.321  35.849  1.00  0.00     0.021 A 
ATOM     14  C   UNL     1      25.435  -0.991  36.872  1.00  0.00     0.016 A 
ATOM     15  C   UNL     1      26.809  -1.270  36.734  1.00  0.00     0.051 A 
ATOM     16  C   UNL     1      27.279  -1.914  35.587  1.00  0.00     0.157 A 
ATOM     17  C   UNL     1      24.998  -2.063  34.746  1.00  0.00     0.062 A 
ATOM     18  C   UNL     1      26.362  -2.366  34.607  1.00  0.00     0.158 A 
BRANCH  16  19
ATOM     19  O   UNL     1      28.647  -2.140  35.471  1.00  0.00    -0.504 OA
ATOM     20  H   UNL     1      29.354  -1.815  36.150  1.00  0.00     0.293 HD
ENDBRANCH  16  19
BRANCH  18  21
ATOM     21  O   UNL     1      26.781  -3.069  33.477  1.00  0.00    -0.504 OA
ATOM     22  H   UNL     1      27.360  -2.660  32.733  1.00  0.00     0.293 HD
ENDBRANCH  18  21
ENDBRANCH   3  13
BRANCH  11  23
ATOM     23  O   UNL     1      21.886   4.122  35.713  1.00  0.00    -0.507 OA
ATOM     24  H   UNL     1      21.016   4.298  36.180  1.00  0.00     0.293 HD
ENDBRANCH  11  23
ENDBRANCH   1   2
BRANCH   1  25
ATOM     25  C   UNL     1      20.190   2.235  30.789  1.00  0.00     0.339 C 
ATOM     26  C   UNL     1      19.370   1.307  29.857  1.00  0.00     0.214 C 
ATOM     27  O   UNL     1      19.390   3.398  31.020  1.00  0.00    -0.332 OA
ATOM     28  C   UNL     1      18.725   2.156  28.680  1.00  0.00     0.180 C 
ATOM     29  C   UNL     1      19.436   4.301  29.919  1.00  0.00     0.179 C 
ATOM     30  C   UNL     1      19.358   3.570  28.536  1.00  0.00     0.177 C 
BRANCH  26  31
ATOM     31  O   UNL     1      20.171   0.212  29.404  1.00  0.00    -0.384 OA
ATOM     32  H   UNL     1      19.984   0.110  28.447  1.00  0.00     0.211 HD
ENDBRANCH  26  31
BRANCH  28  33
ATOM     33  O   UNL     1      18.687   1.471  27.425  1.00  0.00    -0.387 OA
ATOM     34  H   UNL     1      18.119   0.709  27.505  1.00  0.00     0.211 HD
ENDBRANCH  28  33
BRANCH  29  35
ATOM     35  C   UNL     1      18.267   5.287  30.085  1.00  0.00     0.191 C 
BRANCH  35  36
ATOM     36  O   UNL     1      17.082   4.610  30.455  1.00  0.00    -0.394 OA
ATOM     37  H   UNL     1      16.326   5.248  30.311  1.00  0.00     0.210 HD
ENDBRANCH  35  36
ENDBRANCH  29  35
BRANCH  30  38
ATOM     38  O   UNL     1      20.645   3.528  27.957  1.00  0.00    -0.387 OA
ATOM     39  H   UNL     1      21.362   3.652  28.654  1.00  0.00     0.211 HD
ENDBRANCH  30  38
ENDBRANCH   1  25
TORSDOF 11
ENDMDL
MODEL 3
REMARK VINA RESULT:    -6.131      2.292      7.209
REMARK INTER + INTRA:         -10.254
REMARK INTER:                  -9.229
REMARK INTRA:                  -1.026
REMARK UNBOUND:                -1.435
REMARK SMILES O=c1cc(-c2ccc(O)c(O)c2)oc2cc(O[C@@H]3O[C@H](CO)[C@@H](O)[C@@H](O)[C@H]3O)cc(O)c12
REMARK SMILES IDX 17 1 16 2 4 3 3 4 13 5 2 6 14 7 1 8 32 9 15 10 30 11 29 12
REMARK SMILES IDX 5 13 6 14 7 15 8 16 12 17 10 18 9 19 11 21 31 23 18 25 27 26
REMARK SMILES IDX 19 27 25 28 20 29 23 30 28 31 26 33 21 35 22 36 24 38
REMARK H PARENT 9 20 11 22 31 24 28 32 26 34 22 37 24 39
REMARK Flexibility Score: inf
ROOT
ATOM      1  O   UNL     1      26.787   3.489  40.244  1.00  0.00    -0.462 OA
ENDROOT
BRANCH   1   2
ATOM      2  C   UNL     1      27.033   3.696  38.873  1.00  0.00     0.130 A 
ATOM      3  C   UNL     1      25.601   0.302  36.322  1.00  0.00     0.138 A 
ATOM      4  C   UNL     1      26.942  -0.162  36.264  1.00  0.00     0.100 A 
ATOM      5  O   UNL     1      25.447   1.664  36.447  1.00  0.00    -0.456 OA
ATOM      6  C   UNL     1      27.884   0.877  36.069  1.00  0.00     0.197 A 
ATOM      7  C   UNL     1      26.391   2.378  37.051  1.00  0.00     0.146 A 
ATOM      8  O   UNL     1      28.486   0.986  34.957  1.00  0.00    -0.289 OA
ATOM      9  C   UNL     1      27.726   2.013  36.849  1.00  0.00     0.107 A 
ATOM     10  C   UNL     1      26.058   3.400  37.964  1.00  0.00     0.094 A 
ATOM     11  C   UNL     1      28.742   2.821  37.409  1.00  0.00     0.134 A 
ATOM     12  C   UNL     1      28.365   3.710  38.421  1.00  0.00     0.093 A 
BRANCH   3  13
ATOM     13  C   UNL     1      24.782   0.686  35.013  1.00  0.00     0.021 A 
ATOM     14  C   UNL     1      25.361   1.234  33.860  1.00  0.00     0.016 A 
ATOM     15  C   UNL     1      24.553   1.691  32.801  1.00  0.00     0.051 A 
ATOM     16  C   UNL     1      23.163   1.565  32.879  1.00  0.00     0.157 A 
ATOM     17  C   UNL     1      23.391   0.465  35.039  1.00  0.00     0.062 A 
ATOM     18  C   UNL     1      22.576   0.897  33.981  1.00  0.00     0.158 A 
BRANCH  16  19
ATOM     19  O   UNL     1      22.395   2.061  31.829  1.00  0.00    -0.504 OA
ATOM     20  H   UNL     1      21.757   2.870  31.902  1.00  0.00     0.293 HD
ENDBRANCH  16  19
BRANCH  18  21
ATOM     21  O   UNL     1      21.199   0.693  34.068  1.00  0.00    -0.504 OA
ATOM     22  H   UNL     1      20.625   0.340  33.293  1.00  0.00     0.293 HD
ENDBRANCH  18  21
ENDBRANCH   3  13
BRANCH  11  23
ATOM     23  O   UNL     1      30.104   2.643  37.134  1.00  0.00    -0.507 OA
ATOM     24  H   UNL     1      30.573   1.758  37.078  1.00  0.00     0.293 HD
ENDBRANCH  11  23
ENDBRANCH   1   2
BRANCH   1  25
ATOM     25  C   UNL     1      25.463   3.204  40.697  1.00  0.00     0.339 C 
ATOM     26  C   UNL     1      25.399   2.316  41.966  1.00  0.00     0.214 C 
ATOM     27  O   UNL     1      24.800   4.430  41.019  1.00  0.00    -0.332 OA
ATOM     28  C   UNL     1      23.939   2.369  42.590  1.00  0.00     0.180 C 
ATOM     29  C   UNL     1      23.382   4.296  40.972  1.00  0.00     0.179 C 
ATOM     30  C   UNL     1      22.883   2.955  41.611  1.00  0.00     0.177 C 
BRANCH  26  31
ATOM     31  O   UNL     1      25.854   0.991  41.678  1.00  0.00    -0.384 OA
ATOM     32  H   UNL     1      26.220   1.017  40.769  1.00  0.00     0.211 HD
ENDBRANCH  26  31
BRANCH  28  33
ATOM     33  O   UNL     1      23.501   1.125  43.145  1.00  0.00    -0.387 OA
ATOM     34  H   UNL     1      22.570   1.017  42.967  1.00  0.00     0.211 HD
ENDBRANCH  28  33
BRANCH  29  35
ATOM     35  C   UNL     1      22.782   5.509  41.703  1.00  0.00     0.191 C 
BRANCH  35  36
ATOM     36  O   UNL     1      23.588   5.888  42.801  1.00  0.00    -0.394 OA
ATOM     37  H   UNL     1      23.363   6.839  43.012  1.00  0.00     0.210 HD
ENDBRANCH  35  36
ENDBRANCH  29  35
BRANCH  30  38
ATOM     38  O   UNL     1      22.537   2.050  40.583  1.00  0.00    -0.387 OA
ATOM     39  H   UNL     1      23.358   1.695  40.120  1.00  0.00     0.211 HD
ENDBRANCH  30  38
ENDBRANCH   1  25
TORSDOF 11
ENDMDL
MODEL 4
REMARK VINA RESULT:    -6.117      2.920      4.731
REMARK INTER + INTRA:         -10.235
REMARK INTER:                  -8.822
REMARK INTRA:                  -1.413
REMARK UNBOUND:                -1.435
REMARK SMILES O=c1cc(-c2ccc(O)c(O)c2)oc2cc(O[C@@H]3O[C@H](CO)[C@@H](O)[C@@H](O)[C@H]3O)cc(O)c12
REMARK SMILES IDX 17 1 16 2 4 3 3 4 13 5 2 6 14 7 1 8 32 9 15 10 30 11 29 12
REMARK SMILES IDX 5 13 6 14 7 15 8 16 12 17 10 18 9 19 11 21 31 23 18 25 27 26
REMARK SMILES IDX 19 27 25 28 20 29 23 30 28 31 26 33 21 35 22 36 24 38
REMARK H PARENT 9 20 11 22 31 24 28 32 26 34 22 37 24 39
REMARK Flexibility Score: inf
ROOT
ATOM      1  O   UNL     1      22.665  -0.463  34.247  1.00  0.00    -0.462 OA
ENDROOT
BRANCH   1   2
ATOM      2  C   UNL     1      23.075  -0.786  35.554  1.00  0.00     0.130 A 
ATOM      3  C   UNL     1      24.728   2.738  37.774  1.00  0.00     0.138 A 
ATOM      4  C   UNL     1      26.031   2.252  37.486  1.00  0.00     0.100 A 
ATOM      5  O   UNL     1      23.749   1.778  37.899  1.00  0.00    -0.456 OA
ATOM      6  C   UNL     1      26.153   0.850  37.648  1.00  0.00     0.197 A 
ATOM      7  C   UNL     1      23.866   0.632  37.237  1.00  0.00     0.146 A 
ATOM      8  O   UNL     1      26.822   0.381  38.618  1.00  0.00    -0.289 OA
ATOM      9  C   UNL     1      25.141   0.073  37.105  1.00  0.00     0.107 A 
ATOM     10  C   UNL     1      22.758   0.053  36.584  1.00  0.00     0.094 A 
ATOM     11  C   UNL     1      25.265  -1.192  36.486  1.00  0.00     0.134 A 
ATOM     12  C   UNL     1      24.180  -1.639  35.724  1.00  0.00     0.093 A 
BRANCH   3  13
ATOM     13  C   UNL     1      24.216   2.949  39.267  1.00  0.00     0.021 A 
ATOM     14  C   UNL     1      22.863   2.987  39.632  1.00  0.00     0.016 A 
ATOM     15  C   UNL     1      22.485   3.331  40.944  1.00  0.00     0.051 A 
ATOM     16  C   UNL     1      23.464   3.602  41.904  1.00  0.00     0.157 A 
ATOM     17  C   UNL     1      25.197   3.118  40.263  1.00  0.00     0.062 A 
ATOM     18  C   UNL     1      24.833   3.441  41.580  1.00  0.00     0.158 A 
BRANCH  16  19
ATOM     19  O   UNL     1      23.052   3.974  43.181  1.00  0.00    -0.504 OA
ATOM     20  H   UNL     1      22.853   3.312  43.948  1.00  0.00     0.293 HD
ENDBRANCH  16  19
BRANCH  18  21
ATOM     21  O   UNL     1      25.841   3.639  42.524  1.00  0.00    -0.504 OA
ATOM     22  H   UNL     1      26.805   3.305  42.407  1.00  0.00     0.293 HD
ENDBRANCH  18  21
ENDBRANCH   3  13
BRANCH  11  23
ATOM     23  O   UNL     1      26.465  -1.914  36.447  1.00  0.00    -0.507 OA
ATOM     24  H   UNL     1      27.036  -2.130  37.243  1.00  0.00     0.293 HD
ENDBRANCH  11  23
ENDBRANCH   1   2
BRANCH   1  25
ATOM     25  C   UNL     1      22.571   0.905  33.844  1.00  0.00     0.339 C 
ATOM     26  C   UNL     1      23.799   1.425  33.055  1.00  0.00     0.214 C 
ATOM     27  O   UNL     1      21.435   1.069  32.991  1.00  0.00    -0.332 OA
ATOM     28  C   UNL     1      23.444   2.802  32.347  1.00  0.00     0.180 C 
ATOM     29  C   UNL     1      20.974   2.417  32.973  1.00  0.00     0.179 C 
ATOM     30  C   UNL     1      22.147   3.453  32.906  1.00  0.00     0.177 C 
BRANCH  26  31
ATOM     31  O   UNL     1      24.951   1.493  33.902  1.00  0.00    -0.384 OA
ATOM     32  H   UNL     1      24.872   2.329  34.407  1.00  0.00     0.211 HD
ENDBRANCH  26  31
BRANCH  28  33
ATOM     33  O   UNL     1      24.528   3.736  32.322  1.00  0.00    -0.387 OA
ATOM     34  H   UNL     1      25.112   3.513  31.601  1.00  0.00     0.211 HD
ENDBRANCH  28  33
BRANCH  29  35
ATOM     35  C   UNL     1      20.041   2.567  31.759  1.00  0.00     0.191 C 
BRANCH  35  36
ATOM     36  O   UNL     1      20.080   1.412  30.944  1.00  0.00    -0.394 OA
ATOM     37  H   UNL     1      20.963   1.417  30.474  1.00  0.00     0.210 HD
ENDBRANCH  35  36
ENDBRANCH  29  35
BRANCH  30  38
ATOM     38  O   UNL     1      22.337   4.025  34.184  1.00  0.00    -0.387 OA
ATOM     39  H   UNL     1      23.228   3.762  34.572  1.00  0.00     0.211 HD
ENDBRANCH  30  38
ENDBRANCH   1  25
TORSDOF 11
ENDMDL
MODEL 5
REMARK VINA RESULT:    -6.111      5.131      8.350
REMARK INTER + INTRA:         -10.225
REMARK INTER:                  -9.306
REMARK INTRA:                  -0.920
REMARK UNBOUND:                -1.435
REMARK SMILES O=c1cc(-c2ccc(O)c(O)c2)oc2cc(O[C@@H]3O[C@H](CO)[C@@H](O)[C@@H](O)[C@H]3O)cc(O)c12
REMARK SMILES IDX 17 1 16 2 4 3 3 4 13 5 2 6 14 7 1 8 32 9 15 10 30 11 29 12
REMARK SMILES IDX 5 13 6 14 7 15 8 16 12 17 10 18 9 19 11 21 31 23 18 25 27 26
REMARK SMILES IDX 19 27 25 28 20 29 23 30 28 31 26 33 21 35 22 36 24 38
REMARK H PARENT 9 20 11 22 31 24 28 32 26 34 22 37 24 39
REMARK Flexibility Score: inf
ROOT
ATOM      1  O   UNL     1      19.808   2.856  32.968  1.00  0.00    -0.462 OA
ENDROOT
BRANCH   1   2
ATOM      2  C   UNL     1      21.125   2.958  33.455  1.00  0.00     0.130 A 
ATOM      3  C   UNL     1      22.455  -0.721  35.641  1.00  0.00     0.138 A 
ATOM      4  C   UNL     1      22.190  -0.039  36.859  1.00  0.00     0.100 A 
ATOM      5  O   UNL     1      22.839   0.074  34.585  1.00  0.00    -0.456 OA
ATOM      6  C   UNL     1      22.632   1.307  36.852  1.00  0.00     0.197 A 
ATOM      7  C   UNL     1      22.423   1.335  34.528  1.00  0.00     0.146 A 
ATOM      8  O   UNL     1      23.633   1.649  37.552  1.00  0.00    -0.289 OA
ATOM      9  C   UNL     1      22.328   2.054  35.723  1.00  0.00     0.107 A 
ATOM     10  C   UNL     1      21.977   1.899  33.315  1.00  0.00     0.094 A 
ATOM     11  C   UNL     1      21.978   3.422  35.666  1.00  0.00     0.134 A 
ATOM     12  C   UNL     1      21.397   3.882  34.479  1.00  0.00     0.093 A 
BRANCH   3  13
ATOM     13  C   UNL     1      23.901  -1.283  35.284  1.00  0.00     0.021 A 
ATOM     14  C   UNL     1      24.193  -2.010  34.122  1.00  0.00     0.016 A 
ATOM     15  C   UNL     1      25.457  -2.606  33.949  1.00  0.00     0.051 A 
ATOM     16  C   UNL     1      26.445  -2.444  34.924  1.00  0.00     0.157 A 
ATOM     17  C   UNL     1      24.932  -1.035  36.211  1.00  0.00     0.062 A 
ATOM     18  C   UNL     1      26.203  -1.606  36.040  1.00  0.00     0.158 A 
BRANCH  16  19
ATOM     19  O   UNL     1      27.669  -3.079  34.736  1.00  0.00    -0.504 OA
ATOM     20  H   UNL     1      28.071  -3.313  33.814  1.00  0.00     0.293 HD
ENDBRANCH  16  19
BRANCH  18  21
ATOM     21  O   UNL     1      27.181  -1.365  37.005  1.00  0.00    -0.504 OA
ATOM     22  H   UNL     1      27.134  -1.725  37.966  1.00  0.00     0.293 HD
ENDBRANCH  18  21
ENDBRANCH   3  13
BRANCH  11  23
ATOM     23  O   UNL     1      22.014   4.272  36.779  1.00  0.00    -0.507 OA
ATOM     24  H   UNL     1      22.681   5.006  36.926  1.00  0.00     0.293 HD
ENDBRANCH  11  23
ENDBRANCH   1   2
BRANCH   1  25
ATOM     25  C   UNL     1      19.549   2.156  31.750  1.00  0.00     0.339 C 
ATOM     26  C   UNL     1      18.250   1.311  31.762  1.00  0.00     0.214 C 
ATOM     27  O   UNL     1      19.416   3.100  30.683  1.00  0.00    -0.332 OA
ATOM     28  C   UNL     1      17.865   0.888  30.280  1.00  0.00     0.180 C 
ATOM     29  C   UNL     1      19.673   2.506  29.413  1.00  0.00     0.179 C 
ATOM     30  C   UNL     1      19.033   1.084  29.273  1.00  0.00     0.177 C 
BRANCH  26  31
ATOM     31  O   UNL     1      18.376   0.206  32.662  1.00  0.00    -0.384 OA
ATOM     32  H   UNL     1      17.520   0.138  33.136  1.00  0.00     0.211 HD
ENDBRANCH  26  31
BRANCH  28  33
ATOM     33  O   UNL     1      17.304  -0.425  30.180  1.00  0.00    -0.387 OA
ATOM     34  H   UNL     1      17.786  -1.012  30.757  1.00  0.00     0.211 HD
ENDBRANCH  28  33
BRANCH  29  35
ATOM     35  C   UNL     1      19.126   3.463  28.340  1.00  0.00     0.191 C 
BRANCH  35  36
ATOM     36  O   UNL     1      18.800   2.763  27.156  1.00  0.00    -0.394 OA
ATOM     37  H   UNL     1      19.424   3.086  26.446  1.00  0.00     0.210 HD
ENDBRANCH  35  36
ENDBRANCH  29  35
BRANCH  30  38
ATOM     38  O   UNL     1      20.040   0.104  29.416  1.00  0.00    -0.387 OA
ATOM     39  H   UNL     1      19.642  -0.811  29.553  1.00  0.00     0.211 HD
ENDBRANCH  30  38
ENDBRANCH   1  25
TORSDOF 11
ENDMDL
MODEL 6
REMARK VINA RESULT:    -6.109      8.947     13.430
REMARK INTER + INTRA:         -10.223
REMARK INTER:                  -9.534
REMARK INTRA:                  -0.689
REMARK UNBOUND:                -1.435
REMARK SMILES O=c1cc(-c2ccc(O)c(O)c2)oc2cc(O[C@@H]3O[C@H](CO)[C@@H](O)[C@@H](O)[C@H]3O)cc(O)c12
REMARK SMILES IDX 17 1 16 2 4 3 3 4 13 5 2 6 14 7 1 8 32 9 15 10 30 11 29 12
REMARK SMILES IDX 5 13 6 14 7 15 8 16 12 17 10 18 9 19 11 21 31 23 18 25 27 26
REMARK SMILES IDX 19 27 25 28 20 29 23 30 28 31 26 33 21 35 22 36 24 38
REMARK H PARENT 9 20 11 22 31 24 28 32 26 34 22 37 24 39
REMARK Flexibility Score: inf
ROOT
ATOM      1  O   UNL     1      36.171  -1.997  30.396  1.00  0.00    -0.462 OA
ENDROOT
BRANCH   1   2
ATOM      2  C   UNL     1      35.472  -3.199  30.622  1.00  0.00     0.130 A 
ATOM      3  C   UNL     1      33.238  -3.204  34.505  1.00  0.00     0.138 A 
ATOM      4  C   UNL     1      34.294  -3.975  35.061  1.00  0.00     0.100 A 
ATOM      5  O   UNL     1      33.012  -3.386  33.159  1.00  0.00    -0.456 OA
ATOM      6  C   UNL     1      34.752  -4.998  34.196  1.00  0.00     0.197 A 
ATOM      7  C   UNL     1      34.018  -3.746  32.369  1.00  0.00     0.146 A 
ATOM      8  O   UNL     1      34.502  -6.213  34.464  1.00  0.00    -0.289 OA
ATOM      9  C   UNL     1      34.965  -4.643  32.872  1.00  0.00     0.107 A 
ATOM     10  C   UNL     1      34.194  -3.153  31.101  1.00  0.00     0.094 A 
ATOM     11  C   UNL     1      35.985  -5.106  32.010  1.00  0.00     0.134 A 
ATOM     12  C   UNL     1      36.208  -4.377  30.837  1.00  0.00     0.093 A 
BRANCH   3  13
ATOM     13  C   UNL     1      31.736  -3.731  34.467  1.00  0.00     0.021 A 
ATOM     14  C   UNL     1      31.260  -4.673  33.545  1.00  0.00     0.016 A 
ATOM     15  C   UNL     1      29.886  -4.974  33.474  1.00  0.00     0.051 A 
ATOM     16  C   UNL     1      28.990  -4.360  34.352  1.00  0.00     0.157 A 
ATOM     17  C   UNL     1      30.845  -3.196  35.418  1.00  0.00     0.062 A 
ATOM     18  C   UNL     1      29.476  -3.505  35.371  1.00  0.00     0.158 A 
BRANCH  16  19
ATOM     19  O   UNL     1      27.636  -4.655  34.227  1.00  0.00    -0.504 OA
ATOM     20  H   UNL     1      27.093  -5.214  34.906  1.00  0.00     0.293 HD
ENDBRANCH  16  19
BRANCH  18  21
ATOM     21  O   UNL     1      28.625  -2.920  36.309  1.00  0.00    -0.504 OA
ATOM     22  H   UNL     1      28.536  -3.246  37.279  1.00  0.00     0.293 HD
ENDBRANCH  18  21
ENDBRANCH   3  13
BRANCH  11  23
ATOM     23  O   UNL     1      36.882  -6.125  32.359  1.00  0.00    -0.507 OA
ATOM     24  H   UNL     1      37.041  -6.962  31.830  1.00  0.00     0.293 HD
ENDBRANCH  11  23
ENDBRANCH   1   2
BRANCH   1  25
ATOM     25  C   UNL     1      35.715  -1.082  29.398  1.00  0.00     0.339 C 
ATOM     26  C   UNL     1      35.624   0.390  29.874  1.00  0.00     0.214 C 
ATOM     27  O   UNL     1      36.621  -1.101  28.292  1.00  0.00    -0.332 OA
ATOM     28  C   UNL     1      35.476   1.356  28.622  1.00  0.00     0.180 C 
ATOM     29  C   UNL     1      36.002  -0.648  27.090  1.00  0.00     0.179 C 
ATOM     30  C   UNL     1      35.086   0.601  27.319  1.00  0.00     0.177 C 
BRANCH  26  31
ATOM     31  O   UNL     1      34.585   0.542  30.846  1.00  0.00    -0.384 OA
ATOM     32  H   UNL     1      34.441   1.507  30.947  1.00  0.00     0.211 HD
ENDBRANCH  26  31
BRANCH  28  33
ATOM     33  O   UNL     1      34.615   2.476  28.853  1.00  0.00    -0.387 OA
ATOM     34  H   UNL     1      34.059   2.601  28.089  1.00  0.00     0.211 HD
ENDBRANCH  28  33
BRANCH  29  35
ATOM     35  C   UNL     1      37.124  -0.330  26.088  1.00  0.00     0.191 C 
BRANCH  35  36
ATOM     36  O   UNL     1      36.723   0.677  25.181  1.00  0.00    -0.394 OA
ATOM     37  H   UNL     1      36.013   1.213  25.637  1.00  0.00     0.210 HD
ENDBRANCH  35  36
ENDBRANCH  29  35
BRANCH  30  38
ATOM     38  O   UNL     1      33.733   0.195  27.314  1.00  0.00    -0.387 OA
ATOM     39  H   UNL     1      33.377   0.126  26.375  1.00  0.00     0.211 HD
ENDBRANCH  30  38
ENDBRANCH   1  25
TORSDOF 11
ENDMDL
MODEL 7
REMARK VINA RESULT:    -6.099      4.911      8.721
REMARK INTER + INTRA:         -10.208
REMARK INTER:                  -9.205
REMARK INTRA:                  -1.002
REMARK UNBOUND:                -1.435
REMARK SMILES O=c1cc(-c2ccc(O)c(O)c2)oc2cc(O[C@@H]3O[C@H](CO)[C@@H](O)[C@@H](O)[C@H]3O)cc(O)c12
REMARK SMILES IDX 17 1 16 2 4 3 3 4 13 5 2 6 14 7 1 8 32 9 15 10 30 11 29 12
REMARK SMILES IDX 5 13 6 14 7 15 8 16 12 17 10 18 9 19 11 21 31 23 18 25 27 26
REMARK SMILES IDX 19 27 25 28 20 29 23 30 28 31 26 33 21 35 22 36 24 38
REMARK H PARENT 9 20 11 22 31 24 28 32 26 34 22 37 24 39
REMARK Flexibility Score: inf
ROOT
ATOM      1  O   UNL     1      23.564   1.981  30.409  1.00  0.00    -0.462 OA
ENDROOT
BRANCH   1   2
ATOM      2  C   UNL     1      24.264   2.101  31.624  1.00  0.00     0.130 A 
ATOM      3  C   UNL     1      24.281  -1.699  33.999  1.00  0.00     0.138 A 
ATOM      4  C   UNL     1      23.244  -1.151  34.800  1.00  0.00     0.100 A 
ATOM      5  O   UNL     1      25.162  -0.788  33.461  1.00  0.00    -0.456 OA
ATOM      6  C   UNL     1      23.455   0.209  35.132  1.00  0.00     0.197 A 
ATOM      7  C   UNL     1      24.752   0.450  33.206  1.00  0.00     0.146 A 
ATOM      8  O   UNL     1      23.753   0.532  36.322  1.00  0.00    -0.289 OA
ATOM      9  C   UNL     1      23.856   1.045  34.100  1.00  0.00     0.107 A 
ATOM     10  C   UNL     1      25.114   1.105  32.011  1.00  0.00     0.094 A 
ATOM     11  C   UNL     1      23.486   2.394  33.891  1.00  0.00     0.134 A 
ATOM     12  C   UNL     1      23.738   2.936  32.626  1.00  0.00     0.093 A 
BRANCH   3  13
ATOM     13  C   UNL     1      25.677  -2.152  34.616  1.00  0.00     0.021 A 
ATOM     14  C   UNL     1      26.240  -1.592  35.771  1.00  0.00     0.016 A 
ATOM     15  C   UNL     1      27.547  -1.935  36.168  1.00  0.00     0.051 A 
ATOM     16  C   UNL     1      28.279  -2.869  35.430  1.00  0.00     0.157 A 
ATOM     17  C   UNL     1      26.377  -3.169  33.939  1.00  0.00     0.062 A 
ATOM     18  C   UNL     1      27.672  -3.536  34.338  1.00  0.00     0.158 A 
BRANCH  16  19
ATOM     19  O   UNL     1      29.580  -3.155  35.833  1.00  0.00    -0.504 OA
ATOM     20  H   UNL     1      29.871  -4.035  36.290  1.00  0.00     0.293 HD
ENDBRANCH  16  19
BRANCH  18  21
ATOM     21  O   UNL     1      28.343  -4.520  33.613  1.00  0.00    -0.504 OA
ATOM     22  H   UNL     1      29.185  -5.002  33.951  1.00  0.00     0.293 HD
ENDBRANCH  18  21
ENDBRANCH   3  13
BRANCH  11  23
ATOM     23  O   UNL     1      22.729   3.134  34.809  1.00  0.00    -0.507 OA
ATOM     24  H   UNL     1      22.512   4.109  34.727  1.00  0.00     0.293 HD
ENDBRANCH  11  23
ENDBRANCH   1   2
BRANCH   1  25
ATOM     25  C   UNL     1      22.246   2.518  30.287  1.00  0.00     0.339 C 
ATOM     26  C   UNL     1      22.114   3.661  29.249  1.00  0.00     0.214 C 
ATOM     27  O   UNL     1      21.350   1.482  29.873  1.00  0.00    -0.332 OA
ATOM     28  C   UNL     1      20.582   3.925  28.925  1.00  0.00     0.180 C 
ATOM     29  C   UNL     1      20.000   1.776  30.222  1.00  0.00     0.179 C 
ATOM     30  C   UNL     1      19.623   3.273  29.962  1.00  0.00     0.177 C 
BRANCH  26  31
ATOM     31  O   UNL     1      22.818   4.826  29.690  1.00  0.00    -0.384 OA
ATOM     32  H   UNL     1      23.604   4.909  29.110  1.00  0.00     0.211 HD
ENDBRANCH  26  31
BRANCH  28  33
ATOM     33  O   UNL     1      20.263   5.304  28.715  1.00  0.00    -0.387 OA
ATOM     34  H   UNL     1      19.410   5.363  28.292  1.00  0.00     0.211 HD
ENDBRANCH  28  33
BRANCH  29  35
ATOM     35  C   UNL     1      19.100   0.833  29.404  1.00  0.00     0.191 C 
BRANCH  35  36
ATOM     36  O   UNL     1      18.549  -0.178  30.223  1.00  0.00    -0.394 OA
ATOM     37  H   UNL     1      19.213  -0.360  30.948  1.00  0.00     0.210 HD
ENDBRANCH  35  36
ENDBRANCH  29  35
BRANCH  30  38
ATOM     38  O   UNL     1      19.604   3.969  31.191  1.00  0.00    -0.387 OA
ATOM     39  H   UNL     1      19.481   3.337  31.965  1.00  0.00     0.211 HD
ENDBRANCH  30  38
ENDBRANCH   1  25
TORSDOF 11
ENDMDL
MODEL 8
REMARK VINA RESULT:    -6.082      2.214      7.676
REMARK INTER + INTRA:         -10.184
REMARK INTER:                  -8.988
REMARK INTRA:                  -1.195
REMARK UNBOUND:                -1.435
REMARK SMILES O=c1cc(-c2ccc(O)c(O)c2)oc2cc(O[C@@H]3O[C@H](CO)[C@@H](O)[C@@H](O)[C@H]3O)cc(O)c12
REMARK SMILES IDX 17 1 16 2 4 3 3 4 13 5 2 6 14 7 1 8 32 9 15 10 30 11 29 12
REMARK SMILES IDX 5 13 6 14 7 15 8 16 12 17 10 18 9 19 11 21 31 23 18 25 27 26
REMARK SMILES IDX 19 27 25 28 20 29 23 30 28 31 26 33 21 35 22 36 24 38
REMARK H PARENT 9 20 11 22 31 24 28 32 26 34 22 37 24 39
REMARK Flexibility Score: inf
ROOT
ATOM      1  O   UNL     1      22.385   3.544  38.912  1.00  0.00    -0.462 OA
ENDROOT
BRANCH   1   2
ATOM      2  C   UNL     1      22.044   2.500  38.031  1.00  0.00     0.130 A 
ATOM      3  C   UNL     1      25.082   1.903  34.791  1.00  0.00     0.138 A 
ATOM      4  C   UNL     1      24.224   2.622  33.916  1.00  0.00     0.100 A 
ATOM      5  O   UNL     1      24.454   1.195  35.791  1.00  0.00    -0.456 OA
ATOM      6  C   UNL     1      22.861   2.265  34.054  1.00  0.00     0.197 A 
ATOM      7  C   UNL     1      23.282   1.614  36.256  1.00  0.00     0.146 A 
ATOM      8  O   UNL     1      22.283   1.603  33.139  1.00  0.00    -0.289 OA
ATOM      9  C   UNL     1      22.373   2.168  35.349  1.00  0.00     0.107 A 
ATOM     10  C   UNL     1      23.004   1.612  37.638  1.00  0.00     0.094 A 
ATOM     11  C   UNL     1      21.088   2.531  35.814  1.00  0.00     0.134 A 
ATOM     12  C   UNL     1      20.923   2.659  37.197  1.00  0.00     0.093 A 
BRANCH   3  13
ATOM     13  C   UNL     1      25.529   0.404  34.496  1.00  0.00     0.021 A 
ATOM     14  C   UNL     1      25.270  -0.267  33.293  1.00  0.00     0.016 A 
ATOM     15  C   UNL     1      25.558  -1.639  33.162  1.00  0.00     0.051 A 
ATOM     16  C   UNL     1      26.143  -2.334  34.225  1.00  0.00     0.157 A 
ATOM     17  C   UNL     1      26.213  -0.275  35.522  1.00  0.00     0.062 A 
ATOM     18  C   UNL     1      26.526  -1.637  35.397  1.00  0.00     0.158 A 
BRANCH  16  19
ATOM     19  O   UNL     1      26.380  -3.697  34.072  1.00  0.00    -0.504 OA
ATOM     20  H   UNL     1      26.479  -4.175  33.161  1.00  0.00     0.293 HD
ENDBRANCH  16  19
BRANCH  18  21
ATOM     21  O   UNL     1      27.169  -2.278  36.456  1.00  0.00    -0.504 OA
ATOM     22  H   UNL     1      27.722  -3.137  36.350  1.00  0.00     0.293 HD
ENDBRANCH  18  21
ENDBRANCH   3  13
BRANCH  11  23
ATOM     23  O   UNL     1      20.050   2.939  34.965  1.00  0.00    -0.507 OA
ATOM     24  H   UNL     1      19.407   3.685  35.154  1.00  0.00     0.293 HD
ENDBRANCH  11  23
ENDBRANCH   1   2
BRANCH   1  25
ATOM     25  C   UNL     1      23.329   3.316  39.959  1.00  0.00     0.339 C 
ATOM     26  C   UNL     1      24.578   4.233  39.905  1.00  0.00     0.214 C 
ATOM     27  O   UNL     1      22.700   3.552  41.222  1.00  0.00    -0.332 OA
ATOM     28  C   UNL     1      25.361   4.162  41.285  1.00  0.00     0.180 C 
ATOM     29  C   UNL     1      23.366   2.872  42.283  1.00  0.00     0.179 C 
ATOM     30  C   UNL     1      24.925   2.958  42.167  1.00  0.00     0.177 C 
BRANCH  26  31
ATOM     31  O   UNL     1      25.386   3.917  38.768  1.00  0.00    -0.384 OA
ATOM     32  H   UNL     1      25.625   4.773  38.354  1.00  0.00     0.211 HD
ENDBRANCH  26  31
BRANCH  28  33
ATOM     33  O   UNL     1      26.784   4.219  41.147  1.00  0.00    -0.387 OA
ATOM     34  H   UNL     1      27.057   5.133  41.138  1.00  0.00     0.211 HD
ENDBRANCH  28  33
BRANCH  29  35
ATOM     35  C   UNL     1      22.878   3.493  43.602  1.00  0.00     0.191 C 
BRANCH  35  36
ATOM     36  O   UNL     1      23.271   2.705  44.709  1.00  0.00    -0.394 OA
ATOM     37  H   UNL     1      22.433   2.422  45.176  1.00  0.00     0.210 HD
ENDBRANCH  35  36
ENDBRANCH  29  35
BRANCH  30  38
ATOM     38  O   UNL     1      25.425   1.727  41.687  1.00  0.00    -0.387 OA
ATOM     39  H   UNL     1      26.352   1.833  41.308  1.00  0.00     0.211 HD
ENDBRANCH  30  38
ENDBRANCH   1  25
TORSDOF 11
ENDMDL
MODEL 9
REMARK VINA RESULT:    -5.886      8.628     13.097
REMARK INTER + INTRA:          -9.902
REMARK INTER:                  -9.252
REMARK INTRA:                  -0.650
REMARK UNBOUND:                -1.435
REMARK SMILES O=c1cc(-c2ccc(O)c(O)c2)oc2cc(O[C@@H]3O[C@H](CO)[C@@H](O)[C@@H](O)[C@H]3O)cc(O)c12
REMARK SMILES IDX 17 1 16 2 4 3 3 4 13 5 2 6 14 7 1 8 32 9 15 10 30 11 29 12
REMARK SMILES IDX 5 13 6 14 7 15 8 16 12 17 10 18 9 19 11 21 31 23 18 25 27 26
REMARK SMILES IDX 19 27 25 28 20 29 23 30 28 31 26 33 21 35 22 36 24 38
REMARK H PARENT 9 20 11 22 31 24 28 32 26 34 22 37 24 39
REMARK Flexibility Score: inf
ROOT
ATOM      1  O   UNL     1      36.424  -1.680  31.030  1.00  0.00    -0.462 OA
ENDROOT
BRANCH   1   2
ATOM      2  C   UNL     1      35.681  -2.876  31.050  1.00  0.00     0.130 A 
ATOM      3  C   UNL     1      33.416  -3.447  34.874  1.00  0.00     0.138 A 
ATOM      4  C   UNL     1      34.440  -4.338  35.295  1.00  0.00     0.100 A 
ATOM      5  O   UNL     1      33.196  -3.393  33.516  1.00  0.00    -0.456 OA
ATOM      6  C   UNL     1      34.868  -5.219  34.273  1.00  0.00     0.197 A 
ATOM      7  C   UNL     1      34.194  -3.653  32.679  1.00  0.00     0.146 A 
ATOM      8  O   UNL     1      34.573  -6.451  34.333  1.00  0.00    -0.289 OA
ATOM      9  C   UNL     1      35.104  -4.656  33.027  1.00  0.00     0.107 A 
ATOM     10  C   UNL     1      34.402  -2.864  31.528  1.00  0.00     0.094 A 
ATOM     11  C   UNL     1      36.114  -5.006  32.102  1.00  0.00     0.134 A 
ATOM     12  C   UNL     1      36.373  -4.100  31.067  1.00  0.00     0.093 A 
BRANCH   3  13
ATOM     13  C   UNL     1      31.897  -3.904  34.745  1.00  0.00     0.021 A 
ATOM     14  C   UNL     1      31.466  -4.972  33.946  1.00  0.00     0.016 A 
ATOM     15  C   UNL     1      30.092  -5.219  33.762  1.00  0.00     0.051 A 
ATOM     16  C   UNL     1      29.146  -4.420  34.410  1.00  0.00     0.157 A 
ATOM     17  C   UNL     1      30.943  -3.172  35.478  1.00  0.00     0.062 A 
ATOM     18  C   UNL     1      29.571  -3.422  35.320  1.00  0.00     0.158 A 
BRANCH  16  19
ATOM     19  O   UNL     1      27.797  -4.672  34.175  1.00  0.00    -0.504 OA
ATOM     20  H   UNL     1      27.351  -4.650  33.243  1.00  0.00     0.293 HD
ENDBRANCH  16  19
BRANCH  18  21
ATOM     21  O   UNL     1      28.661  -2.645  36.036  1.00  0.00    -0.504 OA
ATOM     22  H   UNL     1      28.227  -1.790  35.666  1.00  0.00     0.293 HD
ENDBRANCH  18  21
ENDBRANCH   3  13
BRANCH  11  23
ATOM     23  O   UNL     1      36.971  -6.100  32.278  1.00  0.00    -0.507 OA
ATOM     24  H   UNL     1      36.679  -7.040  32.468  1.00  0.00     0.293 HD
ENDBRANCH  11  23
ENDBRANCH   1   2
BRANCH   1  25
ATOM     25  C   UNL     1      36.140  -0.679  30.051  1.00  0.00     0.339 C 
ATOM     26  C   UNL     1      35.782  -1.238  28.650  1.00  0.00     0.214 C 
ATOM     27  O   UNL     1      35.020   0.099  30.482  1.00  0.00    -0.332 OA
ATOM     28  C   UNL     1      35.134  -0.093  27.760  1.00  0.00     0.180 C 
ATOM     29  C   UNL     1      34.997   1.384  29.868  1.00  0.00     0.179 C 
ATOM     30  C   UNL     1      35.362   1.330  28.345  1.00  0.00     0.177 C 
BRANCH  26  31
ATOM     31  O   UNL     1      36.923  -1.858  28.049  1.00  0.00    -0.384 OA
ATOM     32  H   UNL     1      37.654  -1.209  28.111  1.00  0.00     0.211 HD
ENDBRANCH  26  31
BRANCH  28  33
ATOM     33  O   UNL     1      35.503  -0.154  26.379  1.00  0.00    -0.387 OA
ATOM     34  H   UNL     1      35.711  -1.058  26.154  1.00  0.00     0.211 HD
ENDBRANCH  28  33
BRANCH  29  35
ATOM     35  C   UNL     1      33.589   1.966  30.074  1.00  0.00     0.191 C 
BRANCH  35  36
ATOM     36  O   UNL     1      32.597   0.983  29.857  1.00  0.00    -0.394 OA
ATOM     37  H   UNL     1      32.893   0.439  29.072  1.00  0.00     0.210 HD
ENDBRANCH  35  36
ENDBRANCH  29  35
BRANCH  30  38
ATOM     38  O   UNL     1      36.688   1.782  28.168  1.00  0.00    -0.387 OA
ATOM     39  H   UNL     1      37.346   1.025  28.257  1.00  0.00     0.211 HD
ENDBRANCH  30  38
ENDBRANCH   1  25
TORSDOF 11
ENDMDL
