MODEL 1
REMARK VINA RESULT:    23.007      0.000      0.000
REMARK INTER + INTRA:          27.026
REMARK INTER:                  27.042
REMARK INTRA:                  -0.016
REMARK UNBOUND:                -0.016
REMARK SMILES O=c1c(O)c(-c2ccc(O)c(O)c2)oc2cc(O)ccc12
REMARK SMILES IDX 5 1 3 2 2 3 1 4 21 5 15 6 14 7 16 8 17 9 19 10 20 11 6 12
REMARK SMILES IDX 7 13 8 14 9 15 13 16 11 17 10 18 12 20 4 22 18 24
REMARK H PARENT 10 19 12 21 4 23 18 25
REMARK Flexibility Score: inf
ROOT
ATOM      1  C   UNL     1      -4.292   2.781  14.221  1.00  0.00     0.180 A 
ATOM      2  C   UNL     1      -4.394   2.372  15.567  1.00  0.00     0.208 A 
ATOM      3  C   UNL     1      -5.464   2.850  16.340  1.00  0.00     0.235 A 
ATOM      4  O   UNL     1      -5.571   2.507  17.550  1.00  0.00    -0.285 OA
ATOM      5  C   UNL     1      -6.411   3.704  15.754  1.00  0.00     0.069 A 
ATOM      6  C   UNL     1      -6.252   4.048  14.394  1.00  0.00     0.142 A 
ATOM      7  O   UNL     1      -5.221   3.580  13.699  1.00  0.00    -0.452 OA
ATOM      8  C   UNL     1      -7.181   4.888  13.771  1.00  0.00     0.094 A 
ATOM      9  C   UNL     1      -8.272   5.392  14.493  1.00  0.00     0.119 A 
ATOM     10  C   UNL     1      -8.431   5.053  15.841  1.00  0.00     0.047 A 
ATOM     11  C   UNL     1      -7.509   4.214  16.472  1.00  0.00     0.020 A 
ENDROOT
BRANCH   1  12
ATOM     12  C   UNL     1      -3.184   2.336  13.346  1.00  0.00     0.025 A 
ATOM     13  C   UNL     1      -2.387   3.295  12.700  1.00  0.00     0.016 A 
ATOM     14  C   UNL     1      -1.324   2.899  11.885  1.00  0.00     0.051 A 
ATOM     15  C   UNL     1      -1.031   1.538  11.717  1.00  0.00     0.157 A 
ATOM     16  C   UNL     1      -2.874   0.973  13.191  1.00  0.00     0.062 A 
ATOM     17  C   UNL     1      -1.806   0.574  12.375  1.00  0.00     0.158 A 
BRANCH  15  18
ATOM     18  O   UNL     1       0.027   1.139  10.904  1.00  0.00    -0.504 OA
ATOM     19  H   UNL     1       0.978   1.440  11.085  1.00  0.00     0.293 HD
ENDBRANCH  15  18
BRANCH  17  20
ATOM     20  O   UNL     1      -1.504  -0.777  12.216  1.00  0.00    -0.504 OA
ATOM     21  H   UNL     1      -0.831  -1.244  12.814  1.00  0.00     0.293 HD
ENDBRANCH  17  20
ENDBRANCH   1  12
BRANCH   2  22
ATOM     22  O   UNL     1      -3.463   1.483  16.108  1.00  0.00    -0.502 OA
ATOM     23  H   UNL     1      -3.733   0.720  16.718  1.00  0.00     0.293 HD
ENDBRANCH   2  22
BRANCH   9  24
ATOM     24  O   UNL     1      -9.201   6.230  13.881  1.00  0.00    -0.508 OA
ATOM     25  H   UNL     1      -8.937   7.138  13.516  1.00  0.00     0.293 HD
ENDBRANCH   9  24
TORSDOF 5
ENDMDL
MODEL 2
REMARK VINA RESULT:    23.405      2.238      3.824
REMARK INTER + INTRA:          27.494
REMARK INTER:                  27.794
REMARK INTRA:                  -0.300
REMARK UNBOUND:                -0.016
REMARK SMILES O=c1c(O)c(-c2ccc(O)c(O)c2)oc2cc(O)ccc12
REMARK SMILES IDX 5 1 3 2 2 3 1 4 21 5 15 6 14 7 16 8 17 9 19 10 20 11 6 12
REMARK SMILES IDX 7 13 8 14 9 15 13 16 11 17 10 18 12 20 4 22 18 24
REMARK H PARENT 10 19 12 21 4 23 18 25
REMARK Flexibility Score: inf
ROOT
ATOM      1  C   UNL     1      -5.754   3.933  14.870  1.00  0.00     0.180 A 
ATOM      2  C   UNL     1      -6.950   3.664  14.172  1.00  0.00     0.208 A 
ATOM      3  C   UNL     1      -7.892   4.693  14.023  1.00  0.00     0.235 A 
ATOM      4  O   UNL     1      -8.974   4.474  13.412  1.00  0.00    -0.285 OA
ATOM      5  C   UNL     1      -7.615   5.964  14.552  1.00  0.00     0.069 A 
ATOM      6  C   UNL     1      -6.385   6.160  15.217  1.00  0.00     0.142 A 
ATOM      7  O   UNL     1      -5.524   5.156  15.344  1.00  0.00    -0.452 OA
ATOM      8  C   UNL     1      -6.069   7.414  15.749  1.00  0.00     0.094 A 
ATOM      9  C   UNL     1      -6.970   8.480  15.626  1.00  0.00     0.119 A 
ATOM     10  C   UNL     1      -8.190   8.289  14.969  1.00  0.00     0.047 A 
ATOM     11  C   UNL     1      -8.515   7.039  14.433  1.00  0.00     0.020 A 
ENDROOT
BRANCH   1  12
ATOM     12  C   UNL     1      -4.720   2.896  15.086  1.00  0.00     0.025 A 
ATOM     13  C   UNL     1      -3.773   2.645  14.079  1.00  0.00     0.016 A 
ATOM     14  C   UNL     1      -2.776   1.685  14.269  1.00  0.00     0.051 A 
ATOM     15  C   UNL     1      -2.700   0.974  15.474  1.00  0.00     0.157 A 
ATOM     16  C   UNL     1      -4.627   2.194  16.301  1.00  0.00     0.062 A 
ATOM     17  C   UNL     1      -3.625   1.232  16.494  1.00  0.00     0.158 A 
BRANCH  15  18
ATOM     18  O   UNL     1      -1.708   0.014  15.667  1.00  0.00    -0.504 OA
ATOM     19  H   UNL     1      -1.226  -0.414  14.884  1.00  0.00     0.293 HD
ENDBRANCH  15  18
BRANCH  17  20
ATOM     20  O   UNL     1      -3.539   0.532  17.695  1.00  0.00    -0.504 OA
ATOM     21  H   UNL     1      -2.668   0.115  18.006  1.00  0.00     0.293 HD
ENDBRANCH  17  20
ENDBRANCH   1  12
BRANCH   2  22
ATOM     22  O   UNL     1      -7.175   2.403  13.615  1.00  0.00    -0.502 OA
ATOM     23  H   UNL     1      -7.631   2.281  12.719  1.00  0.00     0.293 HD
ENDBRANCH   2  22
BRANCH   9  24
ATOM     24  O   UNL     1      -6.663   9.732  16.153  1.00  0.00    -0.508 OA
ATOM     25  H   UNL     1      -7.006  10.024  17.061  1.00  0.00     0.293 HD
ENDBRANCH   9  24
TORSDOF 5
ENDMDL
MODEL 3
REMARK VINA RESULT:    23.853      2.171      6.845
REMARK INTER + INTRA:          28.020
REMARK INTER:                  28.315
REMARK INTRA:                  -0.294
REMARK UNBOUND:                -0.016
REMARK SMILES O=c1c(O)c(-c2ccc(O)c(O)c2)oc2cc(O)ccc12
REMARK SMILES IDX 5 1 3 2 2 3 1 4 21 5 15 6 14 7 16 8 17 9 19 10 20 11 6 12
REMARK SMILES IDX 7 13 8 14 9 15 13 16 11 17 10 18 12 20 4 22 18 24
REMARK H PARENT 10 19 12 21 4 23 18 25
REMARK Flexibility Score: inf
ROOT
ATOM      1  C   UNL     1      -6.289   5.215  15.519  1.00  0.00     0.180 A 
ATOM      2  C   UNL     1      -6.565   4.559  16.737  1.00  0.00     0.208 A 
ATOM      3  C   UNL     1      -5.940   3.331  17.000  1.00  0.00     0.235 A 
ATOM      4  O   UNL     1      -6.179   2.720  18.078  1.00  0.00    -0.285 OA
ATOM      5  C   UNL     1      -5.045   2.796  16.060  1.00  0.00     0.069 A 
ATOM      6  C   UNL     1      -4.803   3.525  14.876  1.00  0.00     0.142 A 
ATOM      7  O   UNL     1      -5.422   4.681  14.661  1.00  0.00    -0.452 OA
ATOM      8  C   UNL     1      -3.910   3.030  13.920  1.00  0.00     0.094 A 
ATOM      9  C   UNL     1      -3.253   1.811  14.132  1.00  0.00     0.119 A 
ATOM     10  C   UNL     1      -3.492   1.086  15.304  1.00  0.00     0.047 A 
ATOM     11  C   UNL     1      -4.382   1.572  16.266  1.00  0.00     0.020 A 
ENDROOT
BRANCH   1  12
ATOM     12  C   UNL     1      -6.922   6.504  15.158  1.00  0.00     0.025 A 
ATOM     13  C   UNL     1      -6.378   7.702  15.650  1.00  0.00     0.016 A 
ATOM     14  C   UNL     1      -6.947   8.930  15.307  1.00  0.00     0.051 A 
ATOM     15  C   UNL     1      -8.058   8.981  14.454  1.00  0.00     0.157 A 
ATOM     16  C   UNL     1      -8.024   6.561  14.286  1.00  0.00     0.062 A 
ATOM     17  C   UNL     1      -8.594   7.794  13.940  1.00  0.00     0.158 A 
BRANCH  15  18
ATOM     18  O   UNL     1      -8.630  10.205  14.111  1.00  0.00    -0.504 OA
ATOM     19  H   UNL     1      -9.630  10.305  13.984  1.00  0.00     0.293 HD
ENDBRANCH  15  18
BRANCH  17  20
ATOM     20  O   UNL     1      -9.690   7.849  13.081  1.00  0.00    -0.504 OA
ATOM     21  H   UNL     1      -9.601   8.183  12.128  1.00  0.00     0.293 HD
ENDBRANCH  17  20
ENDBRANCH   1  12
BRANCH   2  22
ATOM     22  O   UNL     1      -7.423   5.140  17.674  1.00  0.00    -0.502 OA
ATOM     23  H   UNL     1      -8.431   5.084  17.592  1.00  0.00     0.293 HD
ENDBRANCH   2  22
BRANCH   9  24
ATOM     24  O   UNL     1      -2.363   1.310  13.185  1.00  0.00    -0.508 OA
ATOM     25  H   UNL     1      -1.365   1.470  13.258  1.00  0.00     0.293 HD
ENDBRANCH   9  24
TORSDOF 5
ENDMDL
