MODEL 1
REMARK VINA RESULT:    -4.272      0.000      0.000
REMARK INTER + INTRA:          -6.248
REMARK INTER:                  -5.771
REMARK INTRA:                  -0.477
REMARK UNBOUND:                -0.477
REMARK SMILES [NH3+]CCCC[C@H]([NH3+])C(=O)[O-]
REMARK SMILES IDX 4 1 3 2 2 3 1 4 5 8 6 9 7 10 8 14 9 15 10 16
REMARK H PARENT 1 5 1 6 1 7 7 11 7 12 7 13
REMARK Flexibility Score: inf
ROOT
ATOM      1  C   UNL     1     189.719 193.128  84.733  1.00  0.00     0.012 C 
ENDROOT
BRANCH   1   2
ATOM      2  C   UNL     1     188.436 193.956  84.865  1.00  0.00     0.061 C 
BRANCH   2   3
ATOM      3  C   UNL     1     188.172 194.771  83.592  1.00  0.00     0.258 C 
BRANCH   3   4
ATOM      4  N   UNL     1     188.316 196.204  83.849  1.00  0.00    -0.358 N 
ATOM      5  H   UNL     1     189.257 196.533  83.531  1.00  0.00     0.344 HD
ATOM      6  H   UNL     1     187.568 196.736  83.347  1.00  0.00     0.344 HD
ATOM      7  H   UNL     1     188.225 196.379  84.876  1.00  0.00     0.344 HD
ENDBRANCH   3   4
ENDBRANCH   2   3
ENDBRANCH   1   2
BRANCH   1   8
ATOM      8  C   UNL     1     190.277 193.204  83.300  1.00  0.00     0.072 C 
BRANCH   8   9
ATOM      9  C   UNL     1     191.761 193.631  83.218  1.00  0.00     0.227 C 
BRANCH   9  10
ATOM     10  N   UNL     1     192.433 193.542  84.521  1.00  0.00    -0.350 N 
ATOM     11  H   UNL     1     193.396 193.146  84.429  1.00  0.00     0.345 HD
ATOM     12  H   UNL     1     192.491 194.491  84.957  1.00  0.00     0.345 HD
ATOM     13  H   UNL     1     191.878 192.925  85.157  1.00  0.00     0.345 HD
ENDBRANCH   9  10
BRANCH   9  14
ATOM     14  C   UNL     1     191.909 195.005  82.614  1.00  0.00     0.099 C 
ATOM     15  O   UNL     1     192.569 195.156  81.552  1.00  0.00    -0.544 OA
ATOM     16  O   UNL     1     191.285 196.105  83.191  1.00  0.00    -0.544 OA
ENDBRANCH   9  14
ENDBRANCH   8   9
ENDBRANCH   1   8
TORSDOF 7
ENDMDL
MODEL 2
REMARK VINA RESULT:    -4.134      1.352      1.539
REMARK INTER + INTRA:          -6.061
REMARK INTER:                  -5.530
REMARK INTRA:                  -0.531
REMARK UNBOUND:                -0.477
REMARK SMILES [NH3+]CCCC[C@H]([NH3+])C(=O)[O-]
REMARK SMILES IDX 4 1 3 2 2 3 1 4 5 8 6 9 7 10 8 14 9 15 10 16
REMARK H PARENT 1 5 1 6 1 7 7 11 7 12 7 13
REMARK Flexibility Score: inf
ROOT
ATOM      1  C   UNL     1     190.179 193.107  83.402  1.00  0.00     0.012 C 
ENDROOT
BRANCH   1   2
ATOM      2  C   UNL     1     189.202 193.901  84.277  1.00  0.00     0.061 C 
BRANCH   2   3
ATOM      3  C   UNL     1     188.314 194.815  83.423  1.00  0.00     0.258 C 
BRANCH   3   4
ATOM      4  N   UNL     1     188.510 196.220  83.781  1.00  0.00    -0.358 N 
ATOM      5  H   UNL     1     187.706 196.559  84.358  1.00  0.00     0.344 HD
ATOM      6  H   UNL     1     189.401 196.333  84.316  1.00  0.00     0.344 HD
ATOM      7  H   UNL     1     188.565 196.792  82.907  1.00  0.00     0.344 HD
ENDBRANCH   3   4
ENDBRANCH   2   3
ENDBRANCH   1   2
BRANCH   1   8
ATOM      8  C   UNL     1     191.524 193.845  83.273  1.00  0.00     0.072 C 
BRANCH   8   9
ATOM      9  C   UNL     1     191.790 194.439  81.870  1.00  0.00     0.227 C 
BRANCH   9  10
ATOM     10  N   UNL     1     193.124 194.085  81.366  1.00  0.00    -0.350 N 
ATOM     11  H   UNL     1     193.872 194.331  82.053  1.00  0.00     0.345 HD
ATOM     12  H   UNL     1     193.167 193.060  81.161  1.00  0.00     0.345 HD
ATOM     13  H   UNL     1     193.306 194.602  80.475  1.00  0.00     0.345 HD
ENDBRANCH   9  10
BRANCH   9  14
ATOM     14  C   UNL     1     191.573 195.932  81.850  1.00  0.00     0.099 C 
ATOM     15  O   UNL     1     191.538 196.545  80.751  1.00  0.00    -0.544 OA
ATOM     16  O   UNL     1     191.362 196.634  83.031  1.00  0.00    -0.544 OA
ENDBRANCH   9  14
ENDBRANCH   8   9
ENDBRANCH   1   8
TORSDOF 7
ENDMDL
MODEL 3
REMARK VINA RESULT:    -4.051      2.335      4.242
REMARK INTER + INTRA:          -5.949
REMARK INTER:                  -5.482
REMARK INTRA:                  -0.466
REMARK UNBOUND:                -0.477
REMARK SMILES [NH3+]CCCC[C@H]([NH3+])C(=O)[O-]
REMARK SMILES IDX 4 1 3 2 2 3 1 4 5 8 6 9 7 10 8 14 9 15 10 16
REMARK H PARENT 1 5 1 6 1 7 7 11 7 12 7 13
REMARK Flexibility Score: inf
ROOT
ATOM      1  C   UNL     1     191.850 196.422  81.586  1.00  0.00     0.012 C 
ENDROOT
BRANCH   1   2
ATOM      2  C   UNL     1     191.210 195.478  80.562  1.00  0.00     0.061 C 
BRANCH   2   3
ATOM      3  C   UNL     1     192.225 194.448  80.050  1.00  0.00     0.258 C 
BRANCH   3   4
ATOM      4  N   UNL     1     193.125 194.022  81.121  1.00  0.00    -0.358 N 
ATOM      5  H   UNL     1     194.119 194.185  80.841  1.00  0.00     0.344 HD
ATOM      6  H   UNL     1     192.914 194.549  81.999  1.00  0.00     0.344 HD
ATOM      7  H   UNL     1     192.986 193.000  81.298  1.00  0.00     0.344 HD
ENDBRANCH   3   4
ENDBRANCH   2   3
ENDBRANCH   1   2
BRANCH   1   8
ATOM      8  C   UNL     1     191.260 196.192  82.989  1.00  0.00     0.072 C 
BRANCH   8   9
ATOM      9  C   UNL     1     190.026 195.260  83.013  1.00  0.00     0.227 C 
BRANCH   9  10
ATOM     10  N   UNL     1     188.835 195.936  83.547  1.00  0.00    -0.350 N 
ATOM     11  H   UNL     1     188.479 195.462  84.407  1.00  0.00     0.345 HD
ATOM     12  H   UNL     1     189.061 196.932  83.771  1.00  0.00     0.345 HD
ATOM     13  H   UNL     1     188.078 195.929  82.825  1.00  0.00     0.345 HD
ENDBRANCH   9  10
BRANCH   9  14
ATOM     14  C   UNL     1     190.312 193.980  83.759  1.00  0.00     0.099 C 
ATOM     15  O   UNL     1     191.432 193.419  83.632  1.00  0.00    -0.544 OA
ATOM     16  O   UNL     1     189.370 193.437  84.624  1.00  0.00    -0.544 OA
ENDBRANCH   9  14
ENDBRANCH   8   9
ENDBRANCH   1   8
TORSDOF 7
ENDMDL
MODEL 4
REMARK VINA RESULT:    -4.030      1.767      2.040
REMARK INTER + INTRA:          -5.920
REMARK INTER:                  -5.749
REMARK INTRA:                  -0.171
REMARK UNBOUND:                -0.477
REMARK SMILES [NH3+]CCCC[C@H]([NH3+])C(=O)[O-]
REMARK SMILES IDX 4 1 3 2 2 3 1 4 5 8 6 9 7 10 8 14 9 15 10 16
REMARK H PARENT 1 5 1 6 1 7 7 11 7 12 7 13
REMARK Flexibility Score: inf
ROOT
ATOM      1  C   UNL     1     190.113 193.429  83.504  1.00  0.00     0.012 C 
ENDROOT
BRANCH   1   2
ATOM      2  C   UNL     1     189.574 193.028  84.882  1.00  0.00     0.061 C 
BRANCH   2   3
ATOM      3  C   UNL     1     188.094 193.407  85.028  1.00  0.00     0.258 C 
BRANCH   3   4
ATOM      4  N   UNL     1     187.945 194.662  85.764  1.00  0.00    -0.358 N 
ATOM      5  H   UNL     1     188.607 195.380  85.388  1.00  0.00     0.344 HD
ATOM      6  H   UNL     1     186.962 195.011  85.683  1.00  0.00     0.344 HD
ATOM      7  H   UNL     1     188.163 194.496  86.773  1.00  0.00     0.344 HD
ENDBRANCH   3   4
ENDBRANCH   2   3
ENDBRANCH   1   2
BRANCH   1   8
ATOM      8  C   UNL     1     191.530 194.020  83.620  1.00  0.00     0.072 C 
BRANCH   8   9
ATOM      9  C   UNL     1     191.693 195.411  82.965  1.00  0.00     0.227 C 
BRANCH   9  10
ATOM     10  N   UNL     1     190.509 196.258  83.165  1.00  0.00    -0.350 N 
ATOM     11  H   UNL     1     189.990 196.409  82.271  1.00  0.00     0.345 HD
ATOM     12  H   UNL     1     189.870 195.816  83.865  1.00  0.00     0.345 HD
ATOM     13  H   UNL     1     190.807 197.188  83.539  1.00  0.00     0.345 HD
ENDBRANCH   9  10
BRANCH   9  14
ATOM     14  C   UNL     1     192.046 195.297  81.502  1.00  0.00     0.099 C 
ATOM     15  O   UNL     1     192.857 194.413  81.121  1.00  0.00    -0.544 OA
ATOM     16  O   UNL     1     191.448 196.126  80.561  1.00  0.00    -0.544 OA
ENDBRANCH   9  14
ENDBRANCH   8   9
ENDBRANCH   1   8
TORSDOF 7
ENDMDL
MODEL 5
REMARK VINA RESULT:    -3.829     13.509     14.509
REMARK INTER + INTRA:          -5.649
REMARK INTER:                  -5.140
REMARK INTRA:                  -0.509
REMARK UNBOUND:                -0.477
REMARK SMILES [NH3+]CCCC[C@H]([NH3+])C(=O)[O-]
REMARK SMILES IDX 4 1 3 2 2 3 1 4 5 8 6 9 7 10 8 14 9 15 10 16
REMARK H PARENT 1 5 1 6 1 7 7 11 7 12 7 13
REMARK Flexibility Score: inf
ROOT
ATOM      1  C   UNL     1     178.827 201.124  87.420  1.00  0.00     0.012 C 
ENDROOT
BRANCH   1   2
ATOM      2  C   UNL     1     178.719 200.513  88.822  1.00  0.00     0.061 C 
BRANCH   2   3
ATOM      3  C   UNL     1     178.070 201.498  89.804  1.00  0.00     0.258 C 
BRANCH   3   4
ATOM      4  N   UNL     1     178.982 201.820  90.902  1.00  0.00    -0.358 N 
ATOM      5  H   UNL     1     178.443 201.952  91.789  1.00  0.00     0.344 HD
ATOM      6  H   UNL     1     179.683 201.054  91.024  1.00  0.00     0.344 HD
ATOM      7  H   UNL     1     179.487 202.708  90.678  1.00  0.00     0.344 HD
ENDBRANCH   3   4
ENDBRANCH   2   3
ENDBRANCH   1   2
BRANCH   1   8
ATOM      8  C   UNL     1     180.249 201.656  87.162  1.00  0.00     0.072 C 
BRANCH   8   9
ATOM      9  C   UNL     1     180.303 203.142  86.738  1.00  0.00     0.227 C 
BRANCH   9  10
ATOM     10  N   UNL     1     181.536 203.462  86.006  1.00  0.00    -0.350 N 
ATOM     11  H   UNL     1     182.384 203.140  86.524  1.00  0.00     0.345 HD
ATOM     12  H   UNL     1     181.516 203.012  85.062  1.00  0.00     0.345 HD
ATOM     13  H   UNL     1     181.601 204.498  85.871  1.00  0.00     0.345 HD
ENDBRANCH   9  10
BRANCH   9  14
ATOM     14  C   UNL     1     180.110 204.062  87.918  1.00  0.00     0.099 C 
ATOM     15  O   UNL     1     179.371 205.076  87.809  1.00  0.00    -0.544 OA
ATOM     16  O   UNL     1     180.702 203.779  89.144  1.00  0.00    -0.544 OA
ENDBRANCH   9  14
ENDBRANCH   8   9
ENDBRANCH   1   8
TORSDOF 7
ENDMDL
MODEL 6
REMARK VINA RESULT:    -3.807     13.464     14.701
REMARK INTER + INTRA:          -5.619
REMARK INTER:                  -5.090
REMARK INTRA:                  -0.529
REMARK UNBOUND:                -0.477
REMARK SMILES [NH3+]CCCC[C@H]([NH3+])C(=O)[O-]
REMARK SMILES IDX 4 1 3 2 2 3 1 4 5 8 6 9 7 10 8 14 9 15 10 16
REMARK H PARENT 1 5 1 6 1 7 7 11 7 12 7 13
REMARK Flexibility Score: inf
ROOT
ATOM      1  C   UNL     1     178.607 201.723  87.220  1.00  0.00     0.012 C 
ENDROOT
BRANCH   1   2
ATOM      2  C   UNL     1     179.191 202.470  86.015  1.00  0.00     0.061 C 
BRANCH   2   3
ATOM      3  C   UNL     1     180.702 202.229  85.895  1.00  0.00     0.258 C 
BRANCH   3   4
ATOM      4  N   UNL     1     181.439 203.491  85.960  1.00  0.00    -0.358 N 
ATOM      5  H   UNL     1     181.674 203.820  84.995  1.00  0.00     0.344 HD
ATOM      6  H   UNL     1     180.869 204.216  86.453  1.00  0.00     0.344 HD
ATOM      7  H   UNL     1     182.328 203.340  86.492  1.00  0.00     0.344 HD
ENDBRANCH   3   4
ENDBRANCH   2   3
ENDBRANCH   1   2
BRANCH   1   8
ATOM      8  C   UNL     1     178.461 202.664  88.430  1.00  0.00     0.072 C 
BRANCH   8   9
ATOM      9  C   UNL     1     179.636 202.595  89.433  1.00  0.00     0.227 C 
BRANCH   9  10
ATOM     10  N   UNL     1     179.187 202.241  90.786  1.00  0.00    -0.350 N 
ATOM     11  H   UNL     1     178.726 201.303  90.803  1.00  0.00     0.345 HD
ATOM     12  H   UNL     1     180.001 202.237  91.442  1.00  0.00     0.345 HD
ATOM     13  H   UNL     1     178.500 202.955  91.122  1.00  0.00     0.345 HD
ENDBRANCH   9  10
BRANCH   9  14
ATOM     14  C   UNL     1     180.437 203.874  89.437  1.00  0.00     0.099 C 
ATOM     15  O   UNL     1     180.258 204.728  88.529  1.00  0.00    -0.544 OA
ATOM     16  O   UNL     1     181.337 204.144  90.460  1.00  0.00    -0.544 OA
ENDBRANCH   9  14
ENDBRANCH   8   9
ENDBRANCH   1   8
TORSDOF 7
ENDMDL
MODEL 7
REMARK VINA RESULT:    -3.775      2.268      2.680
REMARK INTER + INTRA:          -5.575
REMARK INTER:                  -5.349
REMARK INTRA:                  -0.226
REMARK UNBOUND:                -0.477
REMARK SMILES [NH3+]CCCC[C@H]([NH3+])C(=O)[O-]
REMARK SMILES IDX 4 1 3 2 2 3 1 4 5 8 6 9 7 10 8 14 9 15 10 16
REMARK H PARENT 1 5 1 6 1 7 7 11 7 12 7 13
REMARK Flexibility Score: inf
ROOT
ATOM      1  C   UNL     1     191.522 193.097  84.187  1.00  0.00     0.012 C 
ENDROOT
BRANCH   1   2
ATOM      2  C   UNL     1     190.067 192.853  84.603  1.00  0.00     0.061 C 
BRANCH   2   3
ATOM      3  C   UNL     1     189.166 194.018  84.173  1.00  0.00     0.258 C 
BRANCH   3   4
ATOM      4  N   UNL     1     188.276 194.422  85.261  1.00  0.00    -0.358 N 
ATOM      5  H   UNL     1     188.303 193.712  86.029  1.00  0.00     0.344 HD
ATOM      6  H   UNL     1     188.565 195.356  85.633  1.00  0.00     0.344 HD
ATOM      7  H   UNL     1     187.298 194.491  84.897  1.00  0.00     0.344 HD
ENDBRANCH   3   4
ENDBRANCH   2   3
ENDBRANCH   1   2
BRANCH   1   8
ATOM      8  C   UNL     1     191.604 194.166  83.082  1.00  0.00     0.072 C 
BRANCH   8   9
ATOM      9  C   UNL     1     192.047 193.623  81.704  1.00  0.00     0.227 C 
BRANCH   9  10
ATOM     10  N   UNL     1     193.125 194.428  81.114  1.00  0.00    -0.350 N 
ATOM     11  H   UNL     1     193.854 194.670  81.823  1.00  0.00     0.345 HD
ATOM     12  H   UNL     1     193.571 193.904  80.327  1.00  0.00     0.345 HD
ATOM     13  H   UNL     1     192.725 195.315  80.730  1.00  0.00     0.345 HD
ENDBRANCH   9  10
BRANCH   9  14
ATOM     14  C   UNL     1     190.878 193.492  80.758  1.00  0.00     0.099 C 
ATOM     15  O   UNL     1     190.030 194.419  80.678  1.00  0.00    -0.544 OA
ATOM     16  O   UNL     1     190.752 192.379  79.936  1.00  0.00    -0.544 OA
ENDBRANCH   9  14
ENDBRANCH   8   9
ENDBRANCH   1   8
TORSDOF 7
ENDMDL
MODEL 8
REMARK VINA RESULT:    -3.769      2.251      3.043
REMARK INTER + INTRA:          -5.568
REMARK INTER:                  -5.369
REMARK INTRA:                  -0.199
REMARK UNBOUND:                -0.477
REMARK SMILES [NH3+]CCCC[C@H]([NH3+])C(=O)[O-]
REMARK SMILES IDX 4 1 3 2 2 3 1 4 5 8 6 9 7 10 8 14 9 15 10 16
REMARK H PARENT 1 5 1 6 1 7 7 11 7 12 7 13
REMARK Flexibility Score: inf
ROOT
ATOM      1  C   UNL     1     190.956 196.116  83.108  1.00  0.00     0.012 C 
ENDROOT
BRANCH   1   2
ATOM      2  C   UNL     1     190.297 194.745  83.300  1.00  0.00     0.061 C 
BRANCH   2   3
ATOM      3  C   UNL     1     188.774 194.878  83.437  1.00  0.00     0.258 C 
BRANCH   3   4
ATOM      4  N   UNL     1     188.394 196.256  83.745  1.00  0.00    -0.358 N 
ATOM      5  H   UNL     1     189.133 196.916  83.408  1.00  0.00     0.344 HD
ATOM      6  H   UNL     1     187.481 196.487  83.291  1.00  0.00     0.344 HD
ATOM      7  H   UNL     1     188.294 196.361  84.780  1.00  0.00     0.344 HD
ENDBRANCH   3   4
ENDBRANCH   2   3
ENDBRANCH   1   2
BRANCH   1   8
ATOM      8  C   UNL     1     191.970 196.079  81.950  1.00  0.00     0.072 C 
BRANCH   8   9
ATOM      9  C   UNL     1     191.897 194.801  81.082  1.00  0.00     0.227 C 
BRANCH   9  10
ATOM     10  N   UNL     1     193.125 193.999  81.178  1.00  0.00    -0.350 N 
ATOM     11  H   UNL     1     193.241 193.376  80.347  1.00  0.00     0.345 HD
ATOM     12  H   UNL     1     193.956 194.629  81.255  1.00  0.00     0.345 HD
ATOM     13  H   UNL     1     193.085 193.405  82.038  1.00  0.00     0.345 HD
ENDBRANCH   9  10
BRANCH   9  14
ATOM     14  C   UNL     1     191.562 195.124  79.647  1.00  0.00     0.099 C 
ATOM     15  O   UNL     1     191.107 196.260  79.350  1.00  0.00    -0.544 OA
ATOM     16  O   UNL     1     191.794 194.196  78.639  1.00  0.00    -0.544 OA
ENDBRANCH   9  14
ENDBRANCH   8   9
ENDBRANCH   1   8
TORSDOF 7
ENDMDL
