MODEL 1
REMARK VINA RESULT:    -4.172      0.000      0.000
REMARK INTER + INTRA:          -4.666
REMARK INTER:                  -4.538
REMARK INTRA:                  -0.128
REMARK UNBOUND:                -0.128
REMARK SMILES Cc1ccc(C(C)C)cc1O
REMARK SMILES IDX 1 1 2 2 10 3 9 4 5 5 4 6 3 7 11 8 6 10 7 11 8 12
REMARK H PARENT 11 9
REMARK Flexibility Score: inf
ROOT
ATOM      1  C   UNL     1      -2.607  81.963  -7.825  1.00  0.00     0.048 C 
ATOM      2  C   UNL     1      -3.949  82.446  -8.301  1.00  0.00    -0.009 A 
ATOM      3  C   UNL     1      -4.244  82.550  -9.678  1.00  0.00     0.118 A 
ATOM      4  C   UNL     1      -5.502  83.004 -10.087  1.00  0.00     0.050 A 
ATOM      5  C   UNL     1      -6.485  83.361  -9.145  1.00  0.00    -0.042 A 
ATOM      6  C   UNL     1      -6.183  83.254  -7.778  1.00  0.00     0.004 A 
ATOM      7  C   UNL     1      -4.929  82.803  -7.360  1.00  0.00     0.007 A 
ENDROOT
BRANCH   3   8
ATOM      8  O   UNL     1      -3.311  82.212 -10.660  1.00  0.00    -0.508 OA
ATOM      9  H   UNL     1      -2.311  82.243 -10.507  1.00  0.00     0.293 HD
ENDBRANCH   3   8
BRANCH   5  10
ATOM     10  C   UNL     1      -7.851  83.852  -9.584  1.00  0.00     0.013 C 
ATOM     11  C   UNL     1      -8.924  82.781  -9.352  1.00  0.00     0.012 C 
ATOM     12  C   UNL     1      -8.221  85.163  -8.882  1.00  0.00     0.012 C 
ENDBRANCH   5  10
TORSDOF 2
ENDMDL
MODEL 2
REMARK VINA RESULT:    -4.115      2.155      2.611
REMARK INTER + INTRA:          -4.604
REMARK INTER:                  -4.487
REMARK INTRA:                  -0.117
REMARK UNBOUND:                -0.128
REMARK SMILES Cc1ccc(C(C)C)cc1O
REMARK SMILES IDX 1 1 2 2 10 3 9 4 5 5 4 6 3 7 11 8 6 10 7 11 8 12
REMARK H PARENT 11 9
REMARK Flexibility Score: inf
ROOT
ATOM      1  C   UNL     1      -2.602  81.783  -8.557  1.00  0.00     0.048 C 
ATOM      2  C   UNL     1      -3.542  82.901  -8.915  1.00  0.00    -0.009 A 
ATOM      3  C   UNL     1      -3.340  84.211  -8.430  1.00  0.00     0.118 A 
ATOM      4  C   UNL     1      -4.233  85.229  -8.782  1.00  0.00     0.050 A 
ATOM      5  C   UNL     1      -5.335  84.967  -9.617  1.00  0.00    -0.042 A 
ATOM      6  C   UNL     1      -5.528  83.662 -10.095  1.00  0.00     0.004 A 
ATOM      7  C   UNL     1      -4.642  82.640  -9.748  1.00  0.00     0.007 A 
ENDROOT
BRANCH   3   8
ATOM      8  O   UNL     1      -2.266  84.533  -7.598  1.00  0.00    -0.508 OA
ATOM      9  H   UNL     1      -2.178  84.188  -6.651  1.00  0.00     0.293 HD
ENDBRANCH   3   8
BRANCH   5  10
ATOM     10  C   UNL     1      -6.306  86.068 -10.003  1.00  0.00     0.013 C 
ATOM     11  C   UNL     1      -7.734  85.723  -9.566  1.00  0.00     0.012 C 
ATOM     12  C   UNL     1      -5.866  87.420  -9.431  1.00  0.00     0.012 C 
ENDBRANCH   5  10
TORSDOF 2
ENDMDL
MODEL 3
REMARK VINA RESULT:    -3.961      3.351      4.001
REMARK INTER + INTRA:          -4.437
REMARK INTER:                  -4.317
REMARK INTRA:                  -0.119
REMARK UNBOUND:                -0.128
REMARK SMILES Cc1ccc(C(C)C)cc1O
REMARK SMILES IDX 1 1 2 2 10 3 9 4 5 5 4 6 3 7 11 8 6 10 7 11 8 12
REMARK H PARENT 11 9
REMARK Flexibility Score: inf
ROOT
ATOM      1  C   UNL     1      -3.323  88.257  -6.915  1.00  0.00     0.048 C 
ATOM      2  C   UNL     1      -3.896  87.106  -7.693  1.00  0.00    -0.009 A 
ATOM      3  C   UNL     1      -3.162  85.915  -7.888  1.00  0.00     0.118 A 
ATOM      4  C   UNL     1      -3.725  84.863  -8.617  1.00  0.00     0.050 A 
ATOM      5  C   UNL     1      -5.017  84.970  -9.163  1.00  0.00    -0.042 A 
ATOM      6  C   UNL     1      -5.740  86.157  -8.964  1.00  0.00     0.004 A 
ATOM      7  C   UNL     1      -5.186  87.213  -8.238  1.00  0.00     0.007 A 
ENDROOT
BRANCH   3   8
ATOM      8  O   UNL     1      -1.875  85.749  -7.372  1.00  0.00    -0.508 OA
ATOM      9  H   UNL     1      -1.077  85.506  -7.946  1.00  0.00     0.293 HD
ENDBRANCH   3   8
BRANCH   5  10
ATOM     10  C   UNL     1      -5.632  83.830  -9.954  1.00  0.00     0.013 C 
ATOM     11  C   UNL     1      -4.694  82.618  -9.995  1.00  0.00     0.012 C 
ATOM     12  C   UNL     1      -7.006  83.446  -9.394  1.00  0.00     0.012 C 
ENDBRANCH   5  10
TORSDOF 2
ENDMDL
MODEL 4
REMARK VINA RESULT:    -3.952      3.556      4.648
REMARK INTER + INTRA:          -4.426
REMARK INTER:                  -4.304
REMARK INTRA:                  -0.122
REMARK UNBOUND:                -0.128
REMARK SMILES Cc1ccc(C(C)C)cc1O
REMARK SMILES IDX 1 1 2 2 10 3 9 4 5 5 4 6 3 7 11 8 6 10 7 11 8 12
REMARK H PARENT 11 9
REMARK Flexibility Score: inf
ROOT
ATOM      1  C   UNL     1      -5.162  82.877  -9.971  1.00  0.00     0.048 C 
ATOM      2  C   UNL     1      -4.608  84.075  -9.250  1.00  0.00    -0.009 A 
ATOM      3  C   UNL     1      -3.376  84.011  -8.563  1.00  0.00     0.118 A 
ATOM      4  C   UNL     1      -2.889  85.144  -7.902  1.00  0.00     0.050 A 
ATOM      5  C   UNL     1      -3.608  86.352  -7.910  1.00  0.00    -0.042 A 
ATOM      6  C   UNL     1      -4.832  86.407  -8.596  1.00  0.00     0.004 A 
ATOM      7  C   UNL     1      -5.327  85.282  -9.258  1.00  0.00     0.007 A 
ENDROOT
BRANCH   3   8
ATOM      8  O   UNL     1      -2.616  82.840  -8.517  1.00  0.00    -0.508 OA
ATOM      9  H   UNL     1      -2.625  82.206  -7.728  1.00  0.00     0.293 HD
ENDBRANCH   3   8
BRANCH   5  10
ATOM     10  C   UNL     1      -3.083  87.584  -7.196  1.00  0.00     0.013 C 
ATOM     11  C   UNL     1      -4.188  88.260  -6.376  1.00  0.00     0.012 C 
ATOM     12  C   UNL     1      -1.875  87.241  -6.318  1.00  0.00     0.012 C 
ENDBRANCH   5  10
TORSDOF 2
ENDMDL
MODEL 5
REMARK VINA RESULT:    -3.948      2.357      2.739
REMARK INTER + INTRA:          -4.422
REMARK INTER:                  -4.295
REMARK INTRA:                  -0.127
REMARK UNBOUND:                -0.128
REMARK SMILES Cc1ccc(C(C)C)cc1O
REMARK SMILES IDX 1 1 2 2 10 3 9 4 5 5 4 6 3 7 11 8 6 10 7 11 8 12
REMARK H PARENT 11 9
REMARK Flexibility Score: inf
ROOT
ATOM      1  C   UNL     1      -2.929  82.144  -8.612  1.00  0.00     0.048 C 
ATOM      2  C   UNL     1      -3.722  83.391  -8.889  1.00  0.00    -0.009 A 
ATOM      3  C   UNL     1      -4.839  83.372  -9.752  1.00  0.00     0.118 A 
ATOM      4  C   UNL     1      -5.555  84.550  -9.989  1.00  0.00     0.050 A 
ATOM      5  C   UNL     1      -5.180  85.760  -9.378  1.00  0.00    -0.042 A 
ATOM      6  C   UNL     1      -4.068  85.770  -8.521  1.00  0.00     0.004 A 
ATOM      7  C   UNL     1      -3.347  84.599  -8.279  1.00  0.00     0.007 A 
ENDROOT
BRANCH   3   8
ATOM      8  O   UNL     1      -5.261  82.203 -10.389  1.00  0.00    -0.508 OA
ATOM      9  H   UNL     1      -4.721  81.740 -11.109  1.00  0.00     0.293 HD
ENDBRANCH   3   8
BRANCH   5  10
ATOM     10  C   UNL     1      -5.954  87.040  -9.630  1.00  0.00     0.013 C 
ATOM     11  C   UNL     1      -7.465  86.778  -9.642  1.00  0.00     0.012 C 
ATOM     12  C   UNL     1      -5.589  88.120  -8.606  1.00  0.00     0.012 C 
ENDBRANCH   5  10
TORSDOF 2
ENDMDL
MODEL 6
REMARK VINA RESULT:    -3.925      2.330      4.445
REMARK INTER + INTRA:          -4.397
REMARK INTER:                  -4.269
REMARK INTRA:                  -0.128
REMARK UNBOUND:                -0.128
REMARK SMILES Cc1ccc(C(C)C)cc1O
REMARK SMILES IDX 1 1 2 2 10 3 9 4 5 5 4 6 3 7 11 8 6 10 7 11 8 12
REMARK H PARENT 11 9
REMARK Flexibility Score: inf
ROOT
ATOM      1  C   UNL     1      -6.917  86.842 -10.397  1.00  0.00     0.048 C 
ATOM      2  C   UNL     1      -6.227  85.624  -9.848  1.00  0.00    -0.009 A 
ATOM      3  C   UNL     1      -6.907  84.392  -9.722  1.00  0.00     0.118 A 
ATOM      4  C   UNL     1      -6.236  83.278  -9.207  1.00  0.00     0.050 A 
ATOM      5  C   UNL     1      -4.888  83.363  -8.813  1.00  0.00    -0.042 A 
ATOM      6  C   UNL     1      -4.220  84.591  -8.943  1.00  0.00     0.004 A 
ATOM      7  C   UNL     1      -4.882  85.709  -9.454  1.00  0.00     0.007 A 
ENDROOT
BRANCH   3   8
ATOM      8  O   UNL     1      -8.244  84.245 -10.095  1.00  0.00    -0.508 OA
ATOM      9  H   UNL     1      -9.016  84.415  -9.463  1.00  0.00     0.293 HD
ENDBRANCH   3   8
BRANCH   5  10
ATOM     10  C   UNL     1      -4.156  82.156  -8.256  1.00  0.00     0.013 C 
ATOM     11  C   UNL     1      -2.819  81.941  -8.975  1.00  0.00     0.012 C 
ATOM     12  C   UNL     1      -3.954  82.280  -6.742  1.00  0.00     0.012 C 
ENDBRANCH   5  10
TORSDOF 2
ENDMDL
MODEL 7
REMARK VINA RESULT:    -3.899      7.922      9.187
REMARK INTER + INTRA:          -4.369
REMARK INTER:                  -4.242
REMARK INTRA:                  -0.127
REMARK UNBOUND:                -0.128
REMARK SMILES Cc1ccc(C(C)C)cc1O
REMARK SMILES IDX 1 1 2 2 10 3 9 4 5 5 4 6 3 7 11 8 6 10 7 11 8 12
REMARK H PARENT 11 9
REMARK Flexibility Score: inf
ROOT
ATOM      1  C   UNL     1      -3.767  92.309 -15.676  1.00  0.00     0.048 C 
ATOM      2  C   UNL     1      -4.763  91.368 -15.055  1.00  0.00    -0.009 A 
ATOM      3  C   UNL     1      -4.345  90.198 -14.385  1.00  0.00     0.118 A 
ATOM      4  C   UNL     1      -5.297  89.343 -13.819  1.00  0.00     0.050 A 
ATOM      5  C   UNL     1      -6.671  89.632 -13.906  1.00  0.00    -0.042 A 
ATOM      6  C   UNL     1      -7.077  90.798 -14.574  1.00  0.00     0.004 A 
ATOM      7  C   UNL     1      -6.134  91.656 -15.142  1.00  0.00     0.007 A 
ENDROOT
BRANCH   3   8
ATOM      8  O   UNL     1      -2.996  89.857 -14.266  1.00  0.00    -0.508 OA
ATOM      9  H   UNL     1      -2.319  90.015 -15.002  1.00  0.00     0.293 HD
ENDBRANCH   3   8
BRANCH   5  10
ATOM     10  C   UNL     1      -7.707  88.709 -13.291  1.00  0.00     0.013 C 
ATOM     11  C   UNL     1      -7.600  88.700 -11.762  1.00  0.00     0.012 C 
ATOM     12  C   UNL     1      -9.122  89.087 -13.743  1.00  0.00     0.012 C 
ENDBRANCH   5  10
TORSDOF 2
ENDMDL
MODEL 8
REMARK VINA RESULT:    -3.881      9.421     10.405
REMARK INTER + INTRA:          -4.350
REMARK INTER:                  -4.229
REMARK INTRA:                  -0.121
REMARK UNBOUND:                -0.128
REMARK SMILES Cc1ccc(C(C)C)cc1O
REMARK SMILES IDX 1 1 2 2 10 3 9 4 5 5 4 6 3 7 11 8 6 10 7 11 8 12
REMARK H PARENT 11 9
REMARK Flexibility Score: inf
ROOT
ATOM      1  C   UNL     1      -2.868  91.916 -17.959  1.00  0.00     0.048 C 
ATOM      2  C   UNL     1      -3.624  91.268 -16.832  1.00  0.00    -0.009 A 
ATOM      3  C   UNL     1      -4.954  90.826 -17.002  1.00  0.00     0.118 A 
ATOM      4  C   UNL     1      -5.630  90.228 -15.933  1.00  0.00     0.050 A 
ATOM      5  C   UNL     1      -5.003  90.058 -14.685  1.00  0.00    -0.042 A 
ATOM      6  C   UNL     1      -3.680  90.501 -14.525  1.00  0.00     0.004 A 
ATOM      7  C   UNL     1      -2.999  91.099 -15.586  1.00  0.00     0.007 A 
ENDROOT
BRANCH   3   8
ATOM      8  O   UNL     1      -5.630  90.967 -18.216  1.00  0.00    -0.508 OA
ATOM      9  H   UNL     1      -6.625  90.806 -18.316  1.00  0.00     0.293 HD
ENDBRANCH   3   8
BRANCH   5  10
ATOM     10  C   UNL     1      -5.731  89.408 -13.523  1.00  0.00     0.013 C 
ATOM     11  C   UNL     1      -5.636  90.272 -12.260  1.00  0.00     0.012 C 
ATOM     12  C   UNL     1      -7.192  89.113 -13.881  1.00  0.00     0.012 C 
ENDBRANCH   5  10
TORSDOF 2
ENDMDL
MODEL 9
REMARK VINA RESULT:    -3.825     10.880     11.903
REMARK INTER + INTRA:          -4.288
REMARK INTER:                  -4.161
REMARK INTRA:                  -0.128
REMARK UNBOUND:                -0.128
REMARK SMILES Cc1ccc(C(C)C)cc1O
REMARK SMILES IDX 1 1 2 2 10 3 9 4 5 5 4 6 3 7 11 8 6 10 7 11 8 12
REMARK H PARENT 11 9
REMARK Flexibility Score: inf
ROOT
ATOM      1  C   UNL     1      -3.572  92.179 -20.072  1.00  0.00     0.048 C 
ATOM      2  C   UNL     1      -4.013  91.736 -18.704  1.00  0.00    -0.009 A 
ATOM      3  C   UNL     1      -5.362  91.415 -18.438  1.00  0.00     0.118 A 
ATOM      4  C   UNL     1      -5.740  91.007 -17.154  1.00  0.00     0.050 A 
ATOM      5  C   UNL     1      -4.793  90.910 -16.118  1.00  0.00    -0.042 A 
ATOM      6  C   UNL     1      -3.454  91.231 -16.392  1.00  0.00     0.004 A 
ATOM      7  C   UNL     1      -3.068  91.640 -17.670  1.00  0.00     0.007 A 
ENDROOT
BRANCH   3   8
ATOM      8  O   UNL     1      -6.348  91.492 -19.424  1.00  0.00    -0.508 OA
ATOM      9  H   UNL     1      -6.711  90.679 -19.907  1.00  0.00     0.293 HD
ENDBRANCH   3   8
BRANCH   5  10
ATOM     10  C   UNL     1      -5.197  90.466 -14.725  1.00  0.00     0.013 C 
ATOM     11  C   UNL     1      -6.093  89.223 -14.779  1.00  0.00     0.012 C 
ATOM     12  C   UNL     1      -3.968  90.221 -13.843  1.00  0.00     0.012 C 
ENDBRANCH   5  10
TORSDOF 2
ENDMDL
