MODEL 1
REMARK VINA RESULT:    -2.267      0.000      0.000
REMARK INTER + INTRA:          -2.571
REMARK INTER:                  -2.533
REMARK INTRA:                  -0.038
REMARK UNBOUND:                -0.038
REMARK SMILES CCCC(=O)[O-]
REMARK SMILES IDX 3 1 4 2 5 3 6 4 2 5 1 6
REMARK H PARENT
REMARK Flexibility Score: inf
ROOT
ATOM      1  C   UNL     1     -24.588  29.892 -21.056  1.00  0.00     0.052 C 
ENDROOT
BRANCH   1   2
ATOM      2  C   UNL     1     -23.506  29.186 -21.814  1.00  0.00     0.041 C 
ATOM      3  O   UNL     1     -22.304  29.293 -21.453  1.00  0.00    -0.550 OA
ATOM      4  O   UNL     1     -23.822  28.438 -22.941  1.00  0.00    -0.550 OA
ENDBRANCH   1   2
BRANCH   1   5
ATOM      5  C   UNL     1     -24.874  29.212 -19.711  1.00  0.00     0.003 C 
ATOM      6  C   UNL     1     -24.355  30.025 -18.525  1.00  0.00     0.004 C 
ENDBRANCH   1   5
TORSDOF 2
ENDMDL
MODEL 2
REMARK VINA RESULT:    -2.256     15.286     16.037
REMARK INTER + INTRA:          -2.558
REMARK INTER:                  -2.524
REMARK INTRA:                  -0.034
REMARK UNBOUND:                -0.038
REMARK SMILES CCCC(=O)[O-]
REMARK SMILES IDX 3 1 4 2 5 3 6 4 2 5 1 6
REMARK H PARENT
REMARK Flexibility Score: inf
ROOT
ATOM      1  C   UNL     1     -21.779  13.133 -23.626  1.00  0.00     0.052 C 
ENDROOT
BRANCH   1   2
ATOM      2  C   UNL     1     -22.172  14.527 -23.241  1.00  0.00     0.041 C 
ATOM      3  O   UNL     1     -21.406  15.230 -22.531  1.00  0.00    -0.550 OA
ATOM      4  O   UNL     1     -23.401  15.037 -23.640  1.00  0.00    -0.550 OA
ENDBRANCH   1   2
BRANCH   1   5
ATOM      5  C   UNL     1     -20.826  13.124 -24.828  1.00  0.00     0.003 C 
ATOM      6  C   UNL     1     -19.358  13.052 -24.407  1.00  0.00     0.004 C 
ENDBRANCH   1   5
TORSDOF 2
ENDMDL
MODEL 3
REMARK VINA RESULT:    -2.245     15.280     16.077
REMARK INTER + INTRA:          -2.545
REMARK INTER:                  -2.510
REMARK INTRA:                  -0.035
REMARK UNBOUND:                -0.038
REMARK SMILES CCCC(=O)[O-]
REMARK SMILES IDX 3 1 4 2 5 3 6 4 2 5 1 6
REMARK H PARENT
REMARK Flexibility Score: inf
ROOT
ATOM      1  C   UNL     1     -21.757  13.126 -23.607  1.00  0.00     0.052 C 
ENDROOT
BRANCH   1   2
ATOM      2  C   UNL     1     -22.129  14.519 -23.199  1.00  0.00     0.041 C 
ATOM      3  O   UNL     1     -23.190  15.044 -23.627  1.00  0.00    -0.550 OA
ATOM      4  O   UNL     1     -21.284  15.249 -22.372  1.00  0.00    -0.550 OA
ENDBRANCH   1   2
BRANCH   1   5
ATOM      5  C   UNL     1     -20.800  13.122 -24.806  1.00  0.00     0.003 C 
ATOM      6  C   UNL     1     -19.333  13.109 -24.379  1.00  0.00     0.004 C 
ENDBRANCH   1   5
TORSDOF 2
ENDMDL
MODEL 4
REMARK VINA RESULT:    -2.223      2.122      3.224
REMARK INTER + INTRA:          -2.521
REMARK INTER:                  -2.489
REMARK INTRA:                  -0.032
REMARK UNBOUND:                -0.038
REMARK SMILES CCCC(=O)[O-]
REMARK SMILES IDX 3 1 4 2 5 3 6 4 2 5 1 6
REMARK H PARENT
REMARK Flexibility Score: inf
ROOT
ATOM      1  C   UNL     1     -24.742  29.818 -20.769  1.00  0.00     0.052 C 
ENDROOT
BRANCH   1   2
ATOM      2  C   UNL     1     -24.356  29.524 -19.352  1.00  0.00     0.041 C 
ATOM      3  O   UNL     1     -24.397  30.432 -18.481  1.00  0.00    -0.550 OA
ATOM      4  O   UNL     1     -23.920  28.252 -19.001  1.00  0.00    -0.550 OA
ENDBRANCH   1   2
BRANCH   1   5
ATOM      5  C   UNL     1     -23.564  29.617 -21.731  1.00  0.00     0.003 C 
ATOM      6  C   UNL     1     -23.667  28.307 -22.512  1.00  0.00     0.004 C 
ENDBRANCH   1   5
TORSDOF 2
ENDMDL
MODEL 5
REMARK VINA RESULT:    -2.211     16.046     16.677
REMARK INTER + INTRA:          -2.508
REMARK INTER:                  -2.471
REMARK INTRA:                  -0.037
REMARK UNBOUND:                -0.038
REMARK SMILES CCCC(=O)[O-]
REMARK SMILES IDX 3 1 4 2 5 3 6 4 2 5 1 6
REMARK H PARENT
REMARK Flexibility Score: inf
ROOT
ATOM      1  C   UNL     1     -20.726  13.006 -24.752  1.00  0.00     0.052 C 
ENDROOT
BRANCH   1   2
ATOM      2  C   UNL     1     -19.313  13.354 -24.395  1.00  0.00     0.041 C 
ATOM      3  O   UNL     1     -19.000  14.545 -24.129  1.00  0.00    -0.550 OA
ATOM      4  O   UNL     1     -18.335  12.367 -24.388  1.00  0.00    -0.550 OA
ENDBRANCH   1   2
BRANCH   1   5
ATOM      5  C   UNL     1     -21.676  13.199 -23.563  1.00  0.00     0.003 C 
ATOM      6  C   UNL     1     -22.538  14.454 -23.705  1.00  0.00     0.004 C 
ENDBRANCH   1   5
TORSDOF 2
ENDMDL
MODEL 6
REMARK VINA RESULT:    -2.207      2.297      3.351
REMARK INTER + INTRA:          -2.503
REMARK INTER:                  -2.466
REMARK INTRA:                  -0.037
REMARK UNBOUND:                -0.038
REMARK SMILES CCCC(=O)[O-]
REMARK SMILES IDX 3 1 4 2 5 3 6 4 2 5 1 6
REMARK H PARENT
REMARK Flexibility Score: inf
ROOT
ATOM      1  C   UNL     1     -24.905  29.057 -19.715  1.00  0.00     0.052 C 
ENDROOT
BRANCH   1   2
ATOM      2  C   UNL     1     -24.012  29.604 -18.643  1.00  0.00     0.041 C 
ATOM      3  O   UNL     1     -22.876  29.098 -18.444  1.00  0.00    -0.550 OA
ATOM      4  O   UNL     1     -24.450  30.650 -17.842  1.00  0.00    -0.550 OA
ENDBRANCH   1   2
BRANCH   1   5
ATOM      5  C   UNL     1     -24.872  29.927 -20.979  1.00  0.00     0.003 C 
ATOM      6  C   UNL     1     -23.613  29.695 -21.813  1.00  0.00     0.004 C 
ENDBRANCH   1   5
TORSDOF 2
ENDMDL
MODEL 7
REMARK VINA RESULT:    -2.101     16.419     17.160
REMARK INTER + INTRA:          -2.385
REMARK INTER:                  -2.347
REMARK INTRA:                  -0.038
REMARK UNBOUND:                -0.038
REMARK SMILES CCCC(=O)[O-]
REMARK SMILES IDX 3 1 4 2 5 3 6 4 2 5 1 6
REMARK H PARENT
REMARK Flexibility Score: inf
ROOT
ATOM      1  C   UNL     1     -19.973  13.640 -23.541  1.00  0.00     0.052 C 
ENDROOT
BRANCH   1   2
ATOM      2  C   UNL     1     -21.295  13.171 -24.067  1.00  0.00     0.041 C 
ATOM      3  O   UNL     1     -22.366  13.575 -23.543  1.00  0.00    -0.550 OA
ATOM      4  O   UNL     1     -21.341  12.259 -25.113  1.00  0.00    -0.550 OA
ENDBRANCH   1   2
BRANCH   1   5
ATOM      5  C   UNL     1     -18.895  13.638 -24.633  1.00  0.00     0.003 C 
ATOM      6  C   UNL     1     -17.840  12.556 -24.407  1.00  0.00     0.004 C 
ENDBRANCH   1   5
TORSDOF 2
ENDMDL
MODEL 8
REMARK VINA RESULT:    -2.011     14.896     15.597
REMARK INTER + INTRA:          -2.284
REMARK INTER:                  -2.250
REMARK INTRA:                  -0.033
REMARK UNBOUND:                -0.038
REMARK SMILES CCCC(=O)[O-]
REMARK SMILES IDX 3 1 4 2 5 3 6 4 2 5 1 6
REMARK H PARENT
REMARK Flexibility Score: inf
ROOT
ATOM      1  C   UNL     1     -22.148  14.614 -23.381  1.00  0.00     0.052 C 
ENDROOT
BRANCH   1   2
ATOM      2  C   UNL     1     -21.650  14.997 -22.021  1.00  0.00     0.041 C 
ATOM      3  O   UNL     1     -20.843  14.250 -21.407  1.00  0.00    -0.550 OA
ATOM      4  O   UNL     1     -22.105  16.162 -21.417  1.00  0.00    -0.550 OA
ENDBRANCH   1   2
BRANCH   1   5
ATOM      5  C   UNL     1     -21.822  13.153 -23.714  1.00  0.00     0.003 C 
ATOM      6  C   UNL     1     -21.005  13.017 -24.999  1.00  0.00     0.004 C 
ENDBRANCH   1   5
TORSDOF 2
ENDMDL
MODEL 9
REMARK VINA RESULT:    -1.945      1.862      2.460
REMARK INTER + INTRA:          -2.210
REMARK INTER:                  -2.165
REMARK INTRA:                  -0.045
REMARK UNBOUND:                -0.038
REMARK SMILES CCCC(=O)[O-]
REMARK SMILES IDX 3 1 4 2 5 3 6 4 2 5 1 6
REMARK H PARENT
REMARK Flexibility Score: inf
ROOT
ATOM      1  C   UNL     1     -23.322  28.201 -21.798  1.00  0.00     0.052 C 
ENDROOT
BRANCH   1   2
ATOM      2  C   UNL     1     -22.218  27.940 -20.818  1.00  0.00     0.041 C 
ATOM      3  O   UNL     1     -21.089  28.473 -20.977  1.00  0.00    -0.550 OA
ATOM      4  O   UNL     1     -22.429  27.079 -19.748  1.00  0.00    -0.550 OA
ENDBRANCH   1   2
BRANCH   1   5
ATOM      5  C   UNL     1     -23.770  29.668 -21.769  1.00  0.00     0.003 C 
ATOM      6  C   UNL     1     -24.850  29.926 -20.719  1.00  0.00     0.004 C 
ENDBRANCH   1   5
TORSDOF 2
ENDMDL
