MODEL 1
REMARK VINA RESULT:    -4.788      0.000      0.000
REMARK INTER + INTRA:         -13.781
REMARK INTER:                 -10.945
REMARK INTRA:                  -2.836
REMARK UNBOUND:                -2.836
REMARK SMILES CCCCCCCCCCCCCCCCCCCCCCCC(=O)[O-]
REMARK SMILES IDX 13 1 14 2 15 3 16 4 17 5 18 6 19 7 20 8 21 9 22 10 23 11
REMARK SMILES IDX 24 12 25 13 26 14 12 15 11 16 10 17 9 18 8 19 7 20 6 21 5 22
REMARK SMILES IDX 4 23 3 24 2 25 1 26
REMARK H PARENT
REMARK Flexibility Score: inf
ROOT
ATOM      1  C   UNL     1       0.488  -5.908   4.160  1.00  0.00     0.000 C 
ENDROOT
BRANCH   1   2
ATOM      2  C   UNL     1       1.606  -6.729   4.824  1.00  0.00     0.000 C 
BRANCH   2   3
ATOM      3  C   UNL     1       1.158  -8.150   5.194  1.00  0.00     0.000 C 
BRANCH   3   4
ATOM      4  C   UNL     1       1.432  -8.442   6.676  1.00  0.00     0.000 C 
BRANCH   4   5
ATOM      5  C   UNL     1       0.148  -8.548   7.520  1.00  0.00     0.000 C 
BRANCH   5   6
ATOM      6  C   UNL     1      -1.084  -7.827   6.941  1.00  0.00     0.000 C 
BRANCH   6   7
ATOM      7  C   UNL     1      -1.417  -6.517   7.675  1.00  0.00     0.000 C 
BRANCH   7   8
ATOM      8  C   UNL     1      -2.690  -5.841   7.137  1.00  0.00     0.000 C 
BRANCH   8   9
ATOM      9  C   UNL     1      -2.441  -4.440   6.539  1.00  0.00     0.000 C 
BRANCH   9  10
ATOM     10  C   UNL     1      -3.693  -3.548   6.613  1.00  0.00     0.006 C 
BRANCH  10  11
ATOM     11  C   UNL     1      -4.662  -3.814   5.454  1.00  0.00     0.053 C 
BRANCH  11  12
ATOM     12  C   UNL     1      -6.068  -3.443   5.815  1.00  0.00     0.041 C 
ATOM     13  O   UNL     1      -6.369  -3.180   7.009  1.00  0.00    -0.550 OA
ATOM     14  O   UNL     1      -7.041  -3.360   4.827  1.00  0.00    -0.550 OA
ENDBRANCH  11  12
ENDBRANCH  10  11
ENDBRANCH   9  10
ENDBRANCH   8   9
ENDBRANCH   7   8
ENDBRANCH   6   7
ENDBRANCH   5   6
ENDBRANCH   4   5
ENDBRANCH   3   4
ENDBRANCH   2   3
ENDBRANCH   1   2
BRANCH   1  15
ATOM     15  C   UNL     1      -0.363  -6.740   3.185  1.00  0.00     0.000 C 
BRANCH  15  16
ATOM     16  C   UNL     1      -1.846  -6.832   3.609  1.00  0.00     0.000 C 
BRANCH  16  17
ATOM     17  C   UNL     1      -2.750  -5.772   2.949  1.00  0.00     0.000 C 
BRANCH  17  18
ATOM     18  C   UNL     1      -2.367  -5.411   1.503  1.00  0.00    -0.000 C 
BRANCH  18  19
ATOM     19  C   UNL     1      -3.080  -4.145   0.977  1.00  0.00    -0.000 C 
BRANCH  19  20
ATOM     20  C   UNL     1      -2.616  -3.759  -0.436  1.00  0.00    -0.000 C 
BRANCH  20  21
ATOM     21  C   UNL     1      -1.787  -4.865  -1.110  1.00  0.00    -0.000 C 
BRANCH  21  22
ATOM     22  C   UNL     1      -2.334  -5.244  -2.497  1.00  0.00    -0.000 C 
BRANCH  22  23
ATOM     23  C   UNL     1      -3.021  -6.620  -2.510  1.00  0.00    -0.000 C 
BRANCH  23  24
ATOM     24  C   UNL     1      -4.431  -6.579  -1.895  1.00  0.00    -0.000 C 
BRANCH  24  25
ATOM     25  C   UNL     1      -5.428  -5.800  -2.767  1.00  0.00    -0.003 C 
ATOM     26  C   UNL     1      -6.211  -4.753  -1.974  1.00  0.00     0.004 C 
ENDBRANCH  24  25
ENDBRANCH  23  24
ENDBRANCH  22  23
ENDBRANCH  21  22
ENDBRANCH  20  21
ENDBRANCH  19  20
ENDBRANCH  18  19
ENDBRANCH  17  18
ENDBRANCH  16  17
ENDBRANCH  15  16
ENDBRANCH   1  15
TORSDOF 22
ENDMDL
MODEL 2
REMARK VINA RESULT:    -4.513     12.096     13.986
REMARK INTER + INTRA:         -13.153
REMARK INTER:                 -10.855
REMARK INTRA:                  -2.298
REMARK UNBOUND:                -2.836
REMARK SMILES CCCCCCCCCCCCCCCCCCCCCCCC(=O)[O-]
REMARK SMILES IDX 13 1 14 2 15 3 16 4 17 5 18 6 19 7 20 8 21 9 22 10 23 11
REMARK SMILES IDX 24 12 25 13 26 14 12 15 11 16 10 17 9 18 8 19 7 20 6 21 5 22
REMARK SMILES IDX 4 23 3 24 2 25 1 26
REMARK H PARENT
REMARK Flexibility Score: inf
ROOT
ATOM      1  C   UNL     1      -0.375   6.754   3.211  1.00  0.00     0.000 C 
ENDROOT
BRANCH   1   2
ATOM      2  C   UNL     1      -1.012   6.199   4.496  1.00  0.00     0.000 C 
BRANCH   2   3
ATOM      3  C   UNL     1      -2.180   7.059   4.999  1.00  0.00     0.000 C 
BRANCH   3   4
ATOM      4  C   UNL     1      -1.707   8.480   5.339  1.00  0.00     0.000 C 
BRANCH   4   5
ATOM      5  C   UNL     1      -1.136   8.602   6.764  1.00  0.00     0.000 C 
BRANCH   5   6
ATOM      6  C   UNL     1       0.401   8.615   6.862  1.00  0.00     0.000 C 
BRANCH   6   7
ATOM      7  C   UNL     1       0.947   7.651   7.929  1.00  0.00     0.000 C 
BRANCH   7   8
ATOM      8  C   UNL     1       1.424   6.315   7.335  1.00  0.00     0.000 C 
BRANCH   8   9
ATOM      9  C   UNL     1       2.911   6.009   7.614  1.00  0.00     0.000 C 
BRANCH   9  10
ATOM     10  C   UNL     1       3.206   4.499   7.592  1.00  0.00     0.006 C 
BRANCH  10  11
ATOM     11  C   UNL     1       4.175   4.117   6.465  1.00  0.00     0.053 C 
BRANCH  11  12
ATOM     12  C   UNL     1       5.588   4.034   6.958  1.00  0.00     0.041 C 
ATOM     13  O   UNL     1       6.026   4.886   7.775  1.00  0.00    -0.550 OA
ATOM     14  O   UNL     1       6.413   2.999   6.536  1.00  0.00    -0.550 OA
ENDBRANCH  11  12
ENDBRANCH  10  11
ENDBRANCH   9  10
ENDBRANCH   8   9
ENDBRANCH   7   8
ENDBRANCH   6   7
ENDBRANCH   5   6
ENDBRANCH   4   5
ENDBRANCH   3   4
ENDBRANCH   2   3
ENDBRANCH   1   2
BRANCH   1  15
ATOM     15  C   UNL     1       1.113   7.101   3.386  1.00  0.00     0.000 C 
BRANCH  15  16
ATOM     16  C   UNL     1       1.945   5.924   3.945  1.00  0.00     0.000 C 
BRANCH  16  17
ATOM     17  C   UNL     1       3.131   5.517   3.048  1.00  0.00     0.000 C 
BRANCH  17  18
ATOM     18  C   UNL     1       2.742   4.711   1.796  1.00  0.00    -0.000 C 
BRANCH  18  19
ATOM     19  C   UNL     1       3.128   5.409   0.473  1.00  0.00    -0.000 C 
BRANCH  19  20
ATOM     20  C   UNL     1       2.211   5.000  -0.691  1.00  0.00    -0.000 C 
BRANCH  20  21
ATOM     21  C   UNL     1       2.659   5.599  -2.035  1.00  0.00    -0.000 C 
BRANCH  21  22
ATOM     22  C   UNL     1       3.785   6.634  -1.869  1.00  0.00    -0.000 C 
BRANCH  22  23
ATOM     23  C   UNL     1       5.086   6.215  -2.573  1.00  0.00    -0.000 C 
BRANCH  23  24
ATOM     24  C   UNL     1       5.722   4.965  -1.939  1.00  0.00    -0.000 C 
BRANCH  24  25
ATOM     25  C   UNL     1       7.202   4.804  -2.319  1.00  0.00    -0.003 C 
ATOM     26  C   UNL     1       7.565   5.545  -3.607  1.00  0.00     0.004 C 
ENDBRANCH  24  25
ENDBRANCH  23  24
ENDBRANCH  22  23
ENDBRANCH  21  22
ENDBRANCH  20  21
ENDBRANCH  19  20
ENDBRANCH  18  19
ENDBRANCH  17  18
ENDBRANCH  16  17
ENDBRANCH  15  16
ENDBRANCH   1  15
TORSDOF 22
ENDMDL
MODEL 3
REMARK VINA RESULT:    -4.378      1.445      2.110
REMARK INTER + INTRA:         -12.845
REMARK INTER:                 -10.119
REMARK INTRA:                  -2.726
REMARK UNBOUND:                -2.836
REMARK SMILES CCCCCCCCCCCCCCCCCCCCCCCC(=O)[O-]
REMARK SMILES IDX 13 1 14 2 15 3 16 4 17 5 18 6 19 7 20 8 21 9 22 10 23 11
REMARK SMILES IDX 24 12 25 13 26 14 12 15 11 16 10 17 9 18 8 19 7 20 6 21 5 22
REMARK SMILES IDX 4 23 3 24 2 25 1 26
REMARK H PARENT
REMARK Flexibility Score: inf
ROOT
ATOM      1  C   UNL     1      -1.294  -5.945   2.650  1.00  0.00     0.000 C 
ENDROOT
BRANCH   1   2
ATOM      2  C   UNL     1      -0.385  -7.016   3.275  1.00  0.00     0.000 C 
BRANCH   2   3
ATOM      3  C   UNL     1      -1.124  -7.904   4.288  1.00  0.00     0.000 C 
BRANCH   3   4
ATOM      4  C   UNL     1      -0.712  -7.554   5.725  1.00  0.00     0.000 C 
BRANCH   4   5
ATOM      5  C   UNL     1      -1.706  -6.610   6.427  1.00  0.00     0.000 C 
BRANCH   5   6
ATOM      6  C   UNL     1      -1.073  -5.544   7.341  1.00  0.00     0.000 C 
BRANCH   6   7
ATOM      7  C   UNL     1      -2.112  -4.619   7.998  1.00  0.00     0.000 C 
BRANCH   7   8
ATOM      8  C   UNL     1      -3.391  -5.363   8.416  1.00  0.00     0.000 C 
BRANCH   8   9
ATOM      9  C   UNL     1      -4.691  -4.620   8.042  1.00  0.00     0.000 C 
BRANCH   9  10
ATOM     10  C   UNL     1      -4.552  -3.838   6.724  1.00  0.00     0.006 C 
BRANCH  10  11
ATOM     11  C   UNL     1      -5.914  -3.449   6.136  1.00  0.00     0.053 C 
BRANCH  11  12
ATOM     12  C   UNL     1      -5.904  -2.050   5.599  1.00  0.00     0.041 C 
ATOM     13  O   UNL     1      -5.886  -1.848   4.356  1.00  0.00    -0.550 OA
ATOM     14  O   UNL     1      -5.942  -0.969   6.471  1.00  0.00    -0.550 OA
ENDBRANCH  11  12
ENDBRANCH  10  11
ENDBRANCH   9  10
ENDBRANCH   8   9
ENDBRANCH   7   8
ENDBRANCH   6   7
ENDBRANCH   5   6
ENDBRANCH   4   5
ENDBRANCH   3   4
ENDBRANCH   2   3
ENDBRANCH   1   2
BRANCH   1  15
ATOM     15  C   UNL     1      -2.751  -6.045   3.132  1.00  0.00     0.000 C 
BRANCH  15  16
ATOM     16  C   UNL     1      -3.403  -4.665   3.371  1.00  0.00     0.000 C 
BRANCH  16  17
ATOM     17  C   UNL     1      -2.801  -3.533   2.515  1.00  0.00     0.000 C 
BRANCH  17  18
ATOM     18  C   UNL     1      -3.748  -2.963   1.446  1.00  0.00    -0.000 C 
BRANCH  18  19
ATOM     19  C   UNL     1      -3.361  -3.365   0.005  1.00  0.00    -0.000 C 
BRANCH  19  20
ATOM     20  C   UNL     1      -3.386  -4.888  -0.203  1.00  0.00    -0.000 C 
BRANCH  20  21
ATOM     21  C   UNL     1      -2.518  -5.338  -1.390  1.00  0.00    -0.000 C 
BRANCH  21  22
ATOM     22  C   UNL     1      -3.309  -6.175  -2.410  1.00  0.00    -0.000 C 
BRANCH  22  23
ATOM     23  C   UNL     1      -4.627  -6.722  -1.836  1.00  0.00    -0.000 C 
BRANCH  23  24
ATOM     24  C   UNL     1      -5.834  -6.413  -2.737  1.00  0.00    -0.000 C 
BRANCH  24  25
ATOM     25  C   UNL     1      -5.952  -4.916  -3.067  1.00  0.00    -0.003 C 
ATOM     26  C   UNL     1      -6.552  -4.105  -1.918  1.00  0.00     0.004 C 
ENDBRANCH  24  25
ENDBRANCH  23  24
ENDBRANCH  22  23
ENDBRANCH  21  22
ENDBRANCH  20  21
ENDBRANCH  19  20
ENDBRANCH  18  19
ENDBRANCH  17  18
ENDBRANCH  16  17
ENDBRANCH  15  16
ENDBRANCH   1  15
TORSDOF 22
ENDMDL
MODEL 4
REMARK VINA RESULT:    -4.359     12.274     15.614
REMARK INTER + INTRA:         -12.802
REMARK INTER:                 -10.093
REMARK INTRA:                  -2.709
REMARK UNBOUND:                -2.836
REMARK SMILES CCCCCCCCCCCCCCCCCCCCCCCC(=O)[O-]
REMARK SMILES IDX 13 1 14 2 15 3 16 4 17 5 18 6 19 7 20 8 21 9 22 10 23 11
REMARK SMILES IDX 24 12 25 13 26 14 12 15 11 16 10 17 9 18 8 19 7 20 6 21 5 22
REMARK SMILES IDX 4 23 3 24 2 25 1 26
REMARK H PARENT
REMARK Flexibility Score: inf
ROOT
ATOM      1  C   UNL     1       2.035   6.270   4.193  1.00  0.00     0.000 C 
ENDROOT
BRANCH   1   2
ATOM      2  C   UNL     1       3.072   5.736   3.192  1.00  0.00     0.000 C 
BRANCH   2   3
ATOM      3  C   UNL     1       2.517   4.613   2.304  1.00  0.00     0.000 C 
BRANCH   3   4
ATOM      4  C   UNL     1       3.018   4.758   0.860  1.00  0.00     0.000 C 
BRANCH   4   5
ATOM      5  C   UNL     1       1.949   5.315  -0.098  1.00  0.00     0.000 C 
BRANCH   5   6
ATOM      6  C   UNL     1       1.849   4.606  -1.462  1.00  0.00     0.000 C 
BRANCH   6   7
ATOM      7  C   UNL     1       2.535   5.382  -2.598  1.00  0.00     0.000 C 
BRANCH   7   8
ATOM      8  C   UNL     1       3.044   6.764  -2.152  1.00  0.00     0.000 C 
BRANCH   8   9
ATOM      9  C   UNL     1       4.563   6.807  -1.880  1.00  0.00     0.000 C 
BRANCH   9  10
ATOM     10  C   UNL     1       5.246   5.465  -2.198  1.00  0.00     0.006 C 
BRANCH  10  11
ATOM     11  C   UNL     1       6.674   5.655  -2.724  1.00  0.00     0.053 C 
BRANCH  11  12
ATOM     12  C   UNL     1       6.749   5.445  -4.206  1.00  0.00     0.041 C 
ATOM     13  O   UNL     1       5.701   5.220  -4.868  1.00  0.00    -0.550 OA
ATOM     14  O   UNL     1       7.972   5.526  -4.860  1.00  0.00    -0.550 OA
ENDBRANCH  11  12
ENDBRANCH  10  11
ENDBRANCH   9  10
ENDBRANCH   8   9
ENDBRANCH   7   8
ENDBRANCH   6   7
ENDBRANCH   5   6
ENDBRANCH   4   5
ENDBRANCH   3   4
ENDBRANCH   2   3
ENDBRANCH   1   2
BRANCH   1  15
ATOM     15  C   UNL     1       1.099   7.324   3.576  1.00  0.00     0.000 C 
BRANCH  15  16
ATOM     16  C   UNL     1      -0.339   6.800   3.361  1.00  0.00     0.000 C 
BRANCH  16  17
ATOM     17  C   UNL     1      -1.327   7.217   4.468  1.00  0.00     0.000 C 
BRANCH  17  18
ATOM     18  C   UNL     1      -0.999   8.557   5.150  1.00  0.00    -0.000 C 
BRANCH  18  19
ATOM     19  C   UNL     1      -1.296   8.563   6.666  1.00  0.00    -0.000 C 
BRANCH  19  20
ATOM     20  C   UNL     1      -0.042   8.851   7.506  1.00  0.00    -0.000 C 
BRANCH  20  21
ATOM     21  C   UNL     1       1.050   7.784   7.324  1.00  0.00    -0.000 C 
BRANCH  21  22
ATOM     22  C   UNL     1       0.769   6.512   8.143  1.00  0.00    -0.000 C 
BRANCH  22  23
ATOM     23  C   UNL     1       0.422   5.301   7.262  1.00  0.00    -0.000 C 
BRANCH  23  24
ATOM     24  C   UNL     1       1.422   4.145   7.428  1.00  0.00    -0.000 C 
BRANCH  24  25
ATOM     25  C   UNL     1       2.757   4.608   8.035  1.00  0.00    -0.003 C 
ATOM     26  C   UNL     1       3.880   4.686   7.001  1.00  0.00     0.004 C 
ENDBRANCH  24  25
ENDBRANCH  23  24
ENDBRANCH  22  23
ENDBRANCH  21  22
ENDBRANCH  20  21
ENDBRANCH  19  20
ENDBRANCH  18  19
ENDBRANCH  17  18
ENDBRANCH  16  17
ENDBRANCH  15  16
ENDBRANCH   1  15
TORSDOF 22
ENDMDL
MODEL 5
REMARK VINA RESULT:    -4.354     11.610     13.666
REMARK INTER + INTRA:         -12.791
REMARK INTER:                 -10.084
REMARK INTRA:                  -2.706
REMARK UNBOUND:                -2.836
REMARK SMILES CCCCCCCCCCCCCCCCCCCCCCCC(=O)[O-]
REMARK SMILES IDX 13 1 14 2 15 3 16 4 17 5 18 6 19 7 20 8 21 9 22 10 23 11
REMARK SMILES IDX 24 12 25 13 26 14 12 15 11 16 10 17 9 18 8 19 7 20 6 21 5 22
REMARK SMILES IDX 4 23 3 24 2 25 1 26
REMARK H PARENT
REMARK Flexibility Score: inf
ROOT
ATOM      1  C   UNL     1      -2.597   7.393   6.537  1.00  0.00     0.000 C 
ENDROOT
BRANCH   1   2
ATOM      2  C   UNL     1      -1.758   8.603   6.979  1.00  0.00     0.000 C 
BRANCH   2   3
ATOM      3  C   UNL     1      -0.383   8.654   6.298  1.00  0.00     0.000 C 
BRANCH   3   4
ATOM      4  C   UNL     1       0.726   8.228   7.271  1.00  0.00     0.000 C 
BRANCH   4   5
ATOM      5  C   UNL     1       1.416   6.913   6.863  1.00  0.00     0.000 C 
BRANCH   5   6
ATOM      6  C   UNL     1       2.450   6.370   7.867  1.00  0.00     0.000 C 
BRANCH   6   7
ATOM      7  C   UNL     1       3.271   5.194   7.312  1.00  0.00     0.000 C 
BRANCH   7   8
ATOM      8  C   UNL     1       2.681   4.617   6.014  1.00  0.00     0.000 C 
BRANCH   8   9
ATOM      9  C   UNL     1       3.514   4.944   4.756  1.00  0.00     0.000 C 
BRANCH   9  10
ATOM     10  C   UNL     1       4.184   3.692   4.164  1.00  0.00     0.006 C 
BRANCH  10  11
ATOM     11  C   UNL     1       4.779   2.787   5.250  1.00  0.00     0.053 C 
BRANCH  11  12
ATOM     12  C   UNL     1       6.144   3.246   5.664  1.00  0.00     0.041 C 
ATOM     13  O   UNL     1       6.410   3.427   6.882  1.00  0.00    -0.550 OA
ATOM     14  O   UNL     1       7.131   3.447   4.707  1.00  0.00    -0.550 OA
ENDBRANCH  11  12
ENDBRANCH  10  11
ENDBRANCH   9  10
ENDBRANCH   8   9
ENDBRANCH   7   8
ENDBRANCH   6   7
ENDBRANCH   5   6
ENDBRANCH   4   5
ENDBRANCH   3   4
ENDBRANCH   2   3
ENDBRANCH   1   2
BRANCH   1  15
ATOM     15  C   UNL     1      -2.222   6.890   5.132  1.00  0.00     0.000 C 
BRANCH  15  16
ATOM     16  C   UNL     1      -1.632   5.462   5.142  1.00  0.00     0.000 C 
BRANCH  16  17
ATOM     17  C   UNL     1      -0.503   5.245   4.115  1.00  0.00     0.000 C 
BRANCH  17  18
ATOM     18  C   UNL     1      -0.302   6.408   3.128  1.00  0.00    -0.000 C 
BRANCH  18  19
ATOM     19  C   UNL     1       1.091   6.412   2.459  1.00  0.00    -0.000 C 
BRANCH  19  20
ATOM     20  C   UNL     1       1.201   5.371   1.334  1.00  0.00    -0.000 C 
BRANCH  20  21
ATOM     21  C   UNL     1       2.652   4.931   1.075  1.00  0.00    -0.000 C 
BRANCH  21  22
ATOM     22  C   UNL     1       2.890   4.533  -0.392  1.00  0.00    -0.000 C 
BRANCH  22  23
ATOM     23  C   UNL     1       2.853   5.737  -1.348  1.00  0.00    -0.000 C 
BRANCH  23  24
ATOM     24  C   UNL     1       4.199   6.479  -1.413  1.00  0.00    -0.000 C 
BRANCH  24  25
ATOM     25  C   UNL     1       5.328   5.595  -1.967  1.00  0.00    -0.003 C 
ATOM     26  C   UNL     1       6.409   6.402  -2.688  1.00  0.00     0.004 C 
ENDBRANCH  24  25
ENDBRANCH  23  24
ENDBRANCH  22  23
ENDBRANCH  21  22
ENDBRANCH  20  21
ENDBRANCH  19  20
ENDBRANCH  18  19
ENDBRANCH  17  18
ENDBRANCH  16  17
ENDBRANCH  15  16
ENDBRANCH   1  15
TORSDOF 22
ENDMDL
MODEL 6
REMARK VINA RESULT:    -4.345     11.826     13.776
REMARK INTER + INTRA:         -12.770
REMARK INTER:                 -10.041
REMARK INTRA:                  -2.729
REMARK UNBOUND:                -2.836
REMARK SMILES CCCCCCCCCCCCCCCCCCCCCCCC(=O)[O-]
REMARK SMILES IDX 13 1 14 2 15 3 16 4 17 5 18 6 19 7 20 8 21 9 22 10 23 11
REMARK SMILES IDX 24 12 25 13 26 14 12 15 11 16 10 17 9 18 8 19 7 20 6 21 5 22
REMARK SMILES IDX 4 23 3 24 2 25 1 26
REMARK H PARENT
REMARK Flexibility Score: inf
ROOT
ATOM      1  C   UNL     1       3.047   5.445   2.256  1.00  0.00     0.000 C 
ENDROOT
BRANCH   1   2
ATOM      2  C   UNL     1       2.260   6.370   3.198  1.00  0.00     0.000 C 
BRANCH   2   3
ATOM      3  C   UNL     1       0.739   6.218   3.046  1.00  0.00     0.000 C 
BRANCH   3   4
ATOM      4  C   UNL     1      -0.003   7.067   4.089  1.00  0.00     0.000 C 
BRANCH   4   5
ATOM      5  C   UNL     1       0.931   7.993   4.890  1.00  0.00     0.000 C 
BRANCH   5   6
ATOM      6  C   UNL     1       1.085   7.647   6.383  1.00  0.00     0.000 C 
BRANCH   6   7
ATOM      7  C   UNL     1       0.674   6.202   6.713  1.00  0.00     0.000 C 
BRANCH   7   8
ATOM      8  C   UNL     1       1.863   5.334   7.160  1.00  0.00     0.000 C 
BRANCH   8   9
ATOM      9  C   UNL     1       1.866   3.921   6.539  1.00  0.00     0.000 C 
BRANCH   9  10
ATOM     10  C   UNL     1       3.008   3.737   5.525  1.00  0.00     0.006 C 
BRANCH  10  11
ATOM     11  C   UNL     1       4.292   4.452   5.964  1.00  0.00     0.053 C 
BRANCH  11  12
ATOM     12  C   UNL     1       5.505   3.608   5.719  1.00  0.00     0.041 C 
ATOM     13  O   UNL     1       5.714   3.113   4.580  1.00  0.00    -0.550 OA
ATOM     14  O   UNL     1       6.420   3.390   6.741  1.00  0.00    -0.550 OA
ENDBRANCH  11  12
ENDBRANCH  10  11
ENDBRANCH   9  10
ENDBRANCH   8   9
ENDBRANCH   7   8
ENDBRANCH   6   7
ENDBRANCH   5   6
ENDBRANCH   4   5
ENDBRANCH   3   4
ENDBRANCH   2   3
ENDBRANCH   1   2
BRANCH   1  15
ATOM     15  C   UNL     1       2.183   4.312   1.676  1.00  0.00     0.000 C 
BRANCH  15  16
ATOM     16  C   UNL     1       2.370   4.132   0.152  1.00  0.00     0.000 C 
BRANCH  16  17
ATOM     17  C   UNL     1       1.843   5.313  -0.685  1.00  0.00     0.000 C 
BRANCH  17  18
ATOM     18  C   UNL     1       2.341   5.341  -2.140  1.00  0.00    -0.000 C 
BRANCH  18  19
ATOM     19  C   UNL     1       3.180   6.594  -2.477  1.00  0.00    -0.000 C 
BRANCH  19  20
ATOM     20  C   UNL     1       4.466   6.678  -1.640  1.00  0.00    -0.000 C 
BRANCH  20  21
ATOM     21  C   UNL     1       5.725   6.864  -2.504  1.00  0.00    -0.000 C 
BRANCH  21  22
ATOM     22  C   UNL     1       6.402   5.525  -2.847  1.00  0.00    -0.000 C 
BRANCH  22  23
ATOM     23  C   UNL     1       6.096   4.423  -1.819  1.00  0.00    -0.000 C 
BRANCH  23  24
ATOM     24  C   UNL     1       7.311   3.523  -1.542  1.00  0.00    -0.000 C 
BRANCH  24  25
ATOM     25  C   UNL     1       8.567   3.983  -2.301  1.00  0.00    -0.003 C 
ATOM     26  C   UNL     1       9.636   4.564  -1.375  1.00  0.00     0.004 C 
ENDBRANCH  24  25
ENDBRANCH  23  24
ENDBRANCH  22  23
ENDBRANCH  21  22
ENDBRANCH  20  21
ENDBRANCH  19  20
ENDBRANCH  18  19
ENDBRANCH  17  18
ENDBRANCH  16  17
ENDBRANCH  15  16
ENDBRANCH   1  15
TORSDOF 22
ENDMDL
MODEL 7
REMARK VINA RESULT:    -4.335     11.748     13.540
REMARK INTER + INTRA:         -12.747
REMARK INTER:                  -9.909
REMARK INTRA:                  -2.838
REMARK UNBOUND:                -2.836
REMARK SMILES CCCCCCCCCCCCCCCCCCCCCCCC(=O)[O-]
REMARK SMILES IDX 13 1 14 2 15 3 16 4 17 5 18 6 19 7 20 8 21 9 22 10 23 11
REMARK SMILES IDX 24 12 25 13 26 14 12 15 11 16 10 17 9 18 8 19 7 20 6 21 5 22
REMARK SMILES IDX 4 23 3 24 2 25 1 26
REMARK H PARENT
REMARK Flexibility Score: inf
ROOT
ATOM      1  C   UNL     1       1.862   6.819   3.505  1.00  0.00     0.000 C 
ENDROOT
BRANCH   1   2
ATOM      2  C   UNL     1       0.461   6.252   3.789  1.00  0.00     0.000 C 
BRANCH   2   3
ATOM      3  C   UNL     1      -0.524   7.323   4.281  1.00  0.00     0.000 C 
BRANCH   3   4
ATOM      4  C   UNL     1       0.225   8.538   4.845  1.00  0.00     0.000 C 
BRANCH   4   5
ATOM      5  C   UNL     1      -0.063   8.786   6.338  1.00  0.00     0.000 C 
BRANCH   5   6
ATOM      6  C   UNL     1       0.884   8.072   7.321  1.00  0.00     0.000 C 
BRANCH   6   7
ATOM      7  C   UNL     1       0.304   6.757   7.870  1.00  0.00     0.000 C 
BRANCH   7   8
ATOM      8  C   UNL     1       1.032   5.515   7.329  1.00  0.00     0.000 C 
BRANCH   8   9
ATOM      9  C   UNL     1       2.571   5.625   7.385  1.00  0.00     0.000 C 
BRANCH   9  10
ATOM     10  C   UNL     1       3.258   4.273   7.125  1.00  0.00     0.006 C 
BRANCH  10  11
ATOM     11  C   UNL     1       4.782   4.362   7.274  1.00  0.00     0.053 C 
BRANCH  11  12
ATOM     12  C   UNL     1       5.483   3.421   6.342  1.00  0.00     0.041 C 
ATOM     13  O   UNL     1       6.671   3.070   6.570  1.00  0.00    -0.550 OA
ATOM     14  O   UNL     1       4.815   2.910   5.236  1.00  0.00    -0.550 OA
ENDBRANCH  11  12
ENDBRANCH  10  11
ENDBRANCH   9  10
ENDBRANCH   8   9
ENDBRANCH   7   8
ENDBRANCH   6   7
ENDBRANCH   5   6
ENDBRANCH   4   5
ENDBRANCH   3   4
ENDBRANCH   2   3
ENDBRANCH   1   2
BRANCH   1  15
ATOM     15  C   UNL     1       2.977   5.780   3.710  1.00  0.00     0.000 C 
BRANCH  15  16
ATOM     16  C   UNL     1       2.963   4.662   2.642  1.00  0.00     0.000 C 
BRANCH  16  17
ATOM     17  C   UNL     1       2.800   5.180   1.199  1.00  0.00     0.000 C 
BRANCH  17  18
ATOM     18  C   UNL     1       1.543   4.670   0.473  1.00  0.00    -0.000 C 
BRANCH  18  19
ATOM     19  C   UNL     1       1.433   5.169  -0.985  1.00  0.00    -0.000 C 
BRANCH  19  20
ATOM     20  C   UNL     1       2.783   5.133  -1.719  1.00  0.00    -0.000 C 
BRANCH  20  21
ATOM     21  C   UNL     1       3.166   6.494  -2.322  1.00  0.00    -0.000 C 
BRANCH  21  22
ATOM     22  C   UNL     1       4.684   6.743  -2.289  1.00  0.00    -0.000 C 
BRANCH  22  23
ATOM     23  C   UNL     1       5.470   5.548  -1.726  1.00  0.00    -0.000 C 
BRANCH  23  24
ATOM     24  C   UNL     1       6.107   4.689  -2.831  1.00  0.00    -0.000 C 
BRANCH  24  25
ATOM     25  C   UNL     1       6.476   3.280  -2.339  1.00  0.00    -0.003 C 
ATOM     26  C   UNL     1       5.656   2.846  -1.124  1.00  0.00     0.004 C 
ENDBRANCH  24  25
ENDBRANCH  23  24
ENDBRANCH  22  23
ENDBRANCH  21  22
ENDBRANCH  20  21
ENDBRANCH  19  20
ENDBRANCH  18  19
ENDBRANCH  17  18
ENDBRANCH  16  17
ENDBRANCH  15  16
ENDBRANCH   1  15
TORSDOF 22
ENDMDL
MODEL 8
REMARK VINA RESULT:    -4.334     11.169     13.530
REMARK INTER + INTRA:         -12.744
REMARK INTER:                  -8.657
REMARK INTRA:                  -4.088
REMARK UNBOUND:                -2.836
REMARK SMILES CCCCCCCCCCCCCCCCCCCCCCCC(=O)[O-]
REMARK SMILES IDX 13 1 14 2 15 3 16 4 17 5 18 6 19 7 20 8 21 9 22 10 23 11
REMARK SMILES IDX 24 12 25 13 26 14 12 15 11 16 10 17 9 18 8 19 7 20 6 21 5 22
REMARK SMILES IDX 4 23 3 24 2 25 1 26
REMARK H PARENT
REMARK Flexibility Score: inf
ROOT
ATOM      1  C   UNL     1       3.460   5.243   7.846  1.00  0.00     0.000 C 
ENDROOT
BRANCH   1   2
ATOM      2  C   UNL     1       3.180   3.744   7.654  1.00  0.00     0.000 C 
BRANCH   2   3
ATOM      3  C   UNL     1       4.147   3.081   6.662  1.00  0.00     0.000 C 
BRANCH   3   4
ATOM      4  C   UNL     1       4.639   4.093   5.617  1.00  0.00     0.000 C 
BRANCH   4   5
ATOM      5  C   UNL     1       3.799   4.087   4.326  1.00  0.00     0.000 C 
BRANCH   5   6
ATOM      6  C   UNL     1       3.133   5.427   3.964  1.00  0.00     0.000 C 
BRANCH   6   7
ATOM      7  C   UNL     1       3.076   5.683   2.449  1.00  0.00     0.000 C 
BRANCH   7   8
ATOM      8  C   UNL     1       2.252   4.624   1.697  1.00  0.00     0.000 C 
BRANCH   8   9
ATOM      9  C   UNL     1       1.354   5.211   0.588  1.00  0.00     0.000 C 
BRANCH   9  10
ATOM     10  C   UNL     1       1.783   4.741  -0.813  1.00  0.00     0.006 C 
BRANCH  10  11
ATOM     11  C   UNL     1       2.408   5.874  -1.637  1.00  0.00     0.053 C 
BRANCH  11  12
ATOM     12  C   UNL     1       3.900   5.746  -1.708  1.00  0.00     0.041 C 
ATOM     13  O   UNL     1       4.495   4.871  -1.025  1.00  0.00    -0.550 OA
ATOM     14  O   UNL     1       4.630   6.575  -2.550  1.00  0.00    -0.550 OA
ENDBRANCH  11  12
ENDBRANCH  10  11
ENDBRANCH   9  10
ENDBRANCH   8   9
ENDBRANCH   7   8
ENDBRANCH   6   7
ENDBRANCH   5   6
ENDBRANCH   4   5
ENDBRANCH   3   4
ENDBRANCH   2   3
ENDBRANCH   1   2
BRANCH   1  15
ATOM     15  C   UNL     1       2.182   6.060   8.099  1.00  0.00     0.000 C 
BRANCH  15  16
ATOM     16  C   UNL     1       1.639   6.740   6.821  1.00  0.00     0.000 C 
BRANCH  16  17
ATOM     17  C   UNL     1       0.813   8.012   7.094  1.00  0.00     0.000 C 
BRANCH  17  18
ATOM     18  C   UNL     1       0.175   8.643   5.845  1.00  0.00    -0.000 C 
BRANCH  18  19
ATOM     19  C   UNL     1       0.852   8.210   4.525  1.00  0.00    -0.000 C 
BRANCH  19  20
ATOM     20  C   UNL     1      -0.066   7.331   3.660  1.00  0.00    -0.000 C 
BRANCH  20  21
ATOM     21  C   UNL     1      -1.399   7.006   4.353  1.00  0.00    -0.000 C 
BRANCH  21  22
ATOM     22  C   UNL     1      -1.435   5.573   4.912  1.00  0.00    -0.000 C 
BRANCH  22  23
ATOM     23  C   UNL     1      -0.365   4.663   4.286  1.00  0.00    -0.000 C 
BRANCH  23  24
ATOM     24  C   UNL     1       0.156   3.603   5.271  1.00  0.00    -0.000 C 
BRANCH  24  25
ATOM     25  C   UNL     1       0.560   2.297   4.568  1.00  0.00    -0.003 C 
ATOM     26  C   UNL     1       1.197   1.286   5.521  1.00  0.00     0.004 C 
ENDBRANCH  24  25
ENDBRANCH  23  24
ENDBRANCH  22  23
ENDBRANCH  21  22
ENDBRANCH  20  21
ENDBRANCH  19  20
ENDBRANCH  18  19
ENDBRANCH  17  18
ENDBRANCH  16  17
ENDBRANCH  15  16
ENDBRANCH   1  15
TORSDOF 22
ENDMDL
MODEL 9
REMARK VINA RESULT:    -4.330      2.590      6.931
REMARK INTER + INTRA:         -12.735
REMARK INTER:                  -9.061
REMARK INTRA:                  -3.674
REMARK UNBOUND:                -2.836
REMARK SMILES CCCCCCCCCCCCCCCCCCCCCCCC(=O)[O-]
REMARK SMILES IDX 13 1 14 2 15 3 16 4 17 5 18 6 19 7 20 8 21 9 22 10 23 11
REMARK SMILES IDX 24 12 25 13 26 14 12 15 11 16 10 17 9 18 8 19 7 20 6 21 5 22
REMARK SMILES IDX 4 23 3 24 2 25 1 26
REMARK H PARENT
REMARK Flexibility Score: inf
ROOT
ATOM      1  C   UNL     1       2.635  -6.205   5.424  1.00  0.00     0.000 C 
ENDROOT
BRANCH   1   2
ATOM      2  C   UNL     1       1.680  -5.000   5.443  1.00  0.00     0.000 C 
BRANCH   2   3
ATOM      3  C   UNL     1       0.450  -5.201   4.546  1.00  0.00     0.000 C 
BRANCH   3   4
ATOM      4  C   UNL     1       0.679  -6.351   3.554  1.00  0.00     0.000 C 
BRANCH   4   5
ATOM      5  C   UNL     1      -0.591  -6.738   2.773  1.00  0.00     0.000 C 
BRANCH   5   6
ATOM      6  C   UNL     1      -1.846  -6.982   3.632  1.00  0.00     0.000 C 
BRANCH   6   7
ATOM      7  C   UNL     1      -3.070  -6.184   3.153  1.00  0.00     0.000 C 
BRANCH   7   8
ATOM      8  C   UNL     1      -2.949  -4.678   3.442  1.00  0.00     0.000 C 
BRANCH   8   9
ATOM      9  C   UNL     1      -2.624  -3.832   2.193  1.00  0.00     0.000 C 
BRANCH   9  10
ATOM     10  C   UNL     1      -3.317  -4.373   0.931  1.00  0.00     0.006 C 
BRANCH  10  11
ATOM     11  C   UNL     1      -2.311  -4.730  -0.172  1.00  0.00     0.053 C 
BRANCH  11  12
ATOM     12  C   UNL     1      -2.975  -5.434  -1.316  1.00  0.00     0.041 C 
ATOM     13  O   UNL     1      -2.280  -5.981  -2.214  1.00  0.00    -0.550 OA
ATOM     14  O   UNL     1      -4.361  -5.511  -1.378  1.00  0.00    -0.550 OA
ENDBRANCH  11  12
ENDBRANCH  10  11
ENDBRANCH   9  10
ENDBRANCH   8   9
ENDBRANCH   7   8
ENDBRANCH   6   7
ENDBRANCH   5   6
ENDBRANCH   4   5
ENDBRANCH   3   4
ENDBRANCH   2   3
ENDBRANCH   1   2
BRANCH   1  15
ATOM     15  C   UNL     1       3.032  -6.672   6.834  1.00  0.00     0.000 C 
BRANCH  15  16
ATOM     16  C   UNL     1       2.472  -8.069   7.186  1.00  0.00     0.000 C 
BRANCH  16  17
ATOM     17  C   UNL     1       1.475  -8.621   6.148  1.00  0.00     0.000 C 
BRANCH  17  18
ATOM     18  C   UNL     1       0.011  -8.657   6.620  1.00  0.00    -0.000 C 
BRANCH  18  19
ATOM     19  C   UNL     1      -0.182  -8.136   8.062  1.00  0.00    -0.000 C 
BRANCH  19  20
ATOM     20  C   UNL     1      -0.824  -6.740   8.097  1.00  0.00    -0.000 C 
BRANCH  20  21
ATOM     21  C   UNL     1      -1.859  -6.536   6.978  1.00  0.00    -0.000 C 
BRANCH  21  22
ATOM     22  C   UNL     1      -2.615  -5.203   7.116  1.00  0.00    -0.000 C 
BRANCH  22  23
ATOM     23  C   UNL     1      -3.737  -5.261   8.166  1.00  0.00    -0.000 C 
BRANCH  23  24
ATOM     24  C   UNL     1      -5.008  -4.525   7.710  1.00  0.00    -0.000 C 
BRANCH  24  25
ATOM     25  C   UNL     1      -4.713  -3.440   6.662  1.00  0.00    -0.003 C 
ATOM     26  C   UNL     1      -5.769  -3.384   5.558  1.00  0.00     0.004 C 
ENDBRANCH  24  25
ENDBRANCH  23  24
ENDBRANCH  22  23
ENDBRANCH  21  22
ENDBRANCH  20  21
ENDBRANCH  19  20
ENDBRANCH  18  19
ENDBRANCH  17  18
ENDBRANCH  16  17
ENDBRANCH  15  16
ENDBRANCH   1  15
TORSDOF 22
ENDMDL
