MODEL 1
REMARK VINA RESULT:    -5.614      0.000      0.000
REMARK INTER + INTRA:          -6.342
REMARK INTER:                  -6.107
REMARK INTRA:                  -0.235
REMARK UNBOUND:                -0.235
REMARK SMILES O=C([O-])c1ccccc1O
REMARK SMILES IDX 4 1 9 2 5 3 8 4 6 5 7 6 2 7 1 8 3 9 10 10
REMARK H PARENT 10 11
REMARK Flexibility Score: inf
ROOT
ATOM      1  C   UNL     1       0.532   7.113  20.073  1.00  0.00     0.039 A 
ATOM      2  C   UNL     1       1.107   8.289  19.533  1.00  0.00     0.124 A 
ATOM      3  C   UNL     1      -0.006   6.154  19.191  1.00  0.00     0.014 A 
ATOM      4  C   UNL     1       1.132   8.480  18.143  1.00  0.00     0.047 A 
ATOM      5  C   UNL     1       0.026   6.358  17.810  1.00  0.00     0.001 A 
ATOM      6  C   UNL     1       0.595   7.519  17.286  1.00  0.00     0.004 A 
ENDROOT
BRANCH   1   7
ATOM      7  C   UNL     1       0.483   6.869  21.538  1.00  0.00     0.075 C 
ATOM      8  O   UNL     1      -0.621   6.691  22.117  1.00  0.00    -0.545 OA
ATOM      9  O   UNL     1       1.646   6.831  22.298  1.00  0.00    -0.545 OA
ENDBRANCH   1   7
BRANCH   2  10
ATOM     10  O   UNL     1       1.652   9.265  20.367  1.00  0.00    -0.507 OA
ATOM     11  H   UNL     1       1.258   9.467  21.278  1.00  0.00     0.293 HD
ENDBRANCH   2  10
TORSDOF 2
ENDMDL
MODEL 2
REMARK VINA RESULT:    -5.119      3.099      4.539
REMARK INTER + INTRA:          -5.803
REMARK INTER:                  -5.548
REMARK INTRA:                  -0.255
REMARK UNBOUND:                -0.235
REMARK SMILES O=C([O-])c1ccccc1O
REMARK SMILES IDX 4 1 9 2 5 3 8 4 6 5 7 6 2 7 1 8 3 9 10 10
REMARK H PARENT 10 11
REMARK Flexibility Score: inf
ROOT
ATOM      1  C   UNL     1       0.920   8.005  17.643  1.00  0.00     0.039 A 
ATOM      2  C   UNL     1       0.327   6.728  17.503  1.00  0.00     0.124 A 
ATOM      3  C   UNL     1       1.043   8.559  18.934  1.00  0.00     0.014 A 
ATOM      4  C   UNL     1      -0.127   6.039  18.638  1.00  0.00     0.047 A 
ATOM      5  C   UNL     1       0.587   7.862  20.055  1.00  0.00     0.001 A 
ATOM      6  C   UNL     1       0.003   6.604  19.908  1.00  0.00     0.004 A 
ENDROOT
BRANCH   1   7
ATOM      7  C   UNL     1       1.414   8.771  16.469  1.00  0.00     0.075 C 
ATOM      8  O   UNL     1       2.549   9.315  16.496  1.00  0.00    -0.545 OA
ATOM      9  O   UNL     1       0.641   8.902  15.322  1.00  0.00    -0.545 OA
ENDBRANCH   1   7
BRANCH   2  10
ATOM     10  O   UNL     1       0.185   6.141  16.246  1.00  0.00    -0.507 OA
ATOM     11  H   UNL     1       0.701   6.476  15.441  1.00  0.00     0.293 HD
ENDBRANCH   2  10
TORSDOF 2
ENDMDL
MODEL 3
REMARK VINA RESULT:    -5.029      2.997      3.802
REMARK INTER + INTRA:          -5.705
REMARK INTER:                  -5.454
REMARK INTRA:                  -0.251
REMARK UNBOUND:                -0.235
REMARK SMILES O=C([O-])c1ccccc1O
REMARK SMILES IDX 4 1 9 2 5 3 8 4 6 5 7 6 2 7 1 8 3 9 10 10
REMARK H PARENT 10 11
REMARK Flexibility Score: inf
ROOT
ATOM      1  C   UNL     1      -0.043   6.394  18.042  1.00  0.00     0.039 A 
ATOM      2  C   UNL     1       0.650   7.453  17.408  1.00  0.00     0.124 A 
ATOM      3  C   UNL     1      -0.129   6.385  19.449  1.00  0.00     0.014 A 
ATOM      4  C   UNL     1       1.235   8.467  18.181  1.00  0.00     0.047 A 
ATOM      5  C   UNL     1       0.459   7.401  20.205  1.00  0.00     0.001 A 
ATOM      6  C   UNL     1       1.139   8.441  19.573  1.00  0.00     0.004 A 
ENDROOT
BRANCH   1   7
ATOM      7  C   UNL     1      -0.677   5.299  17.263  1.00  0.00     0.075 C 
ATOM      8  O   UNL     1      -0.616   4.109  17.672  1.00  0.00    -0.545 OA
ATOM      9  O   UNL     1      -1.348   5.559  16.074  1.00  0.00    -0.545 OA
ENDBRANCH   1   7
BRANCH   2  10
ATOM     10  O   UNL     1       0.760   7.503  16.019  1.00  0.00    -0.507 OA
ATOM     11  H   UNL     1       0.603   8.361  15.503  1.00  0.00     0.293 HD
ENDBRANCH   2  10
TORSDOF 2
ENDMDL
MODEL 4
REMARK VINA RESULT:    -4.884      1.315      2.266
REMARK INTER + INTRA:          -5.548
REMARK INTER:                  -5.309
REMARK INTRA:                  -0.239
REMARK UNBOUND:                -0.235
REMARK SMILES O=C([O-])c1ccccc1O
REMARK SMILES IDX 4 1 9 2 5 3 8 4 6 5 7 6 2 7 1 8 3 9 10 10
REMARK H PARENT 10 11
REMARK Flexibility Score: inf
ROOT
ATOM      1  C   UNL     1       0.642   7.250  19.418  1.00  0.00     0.039 A 
ATOM      2  C   UNL     1       0.210   6.281  18.482  1.00  0.00     0.124 A 
ATOM      3  C   UNL     1       1.156   8.473  18.941  1.00  0.00     0.014 A 
ATOM      4  C   UNL     1       0.298   6.549  17.107  1.00  0.00     0.047 A 
ATOM      5  C   UNL     1       1.238   8.725  17.570  1.00  0.00     0.001 A 
ATOM      6  C   UNL     1       0.810   7.766  16.654  1.00  0.00     0.004 A 
ENDROOT
BRANCH   1   7
ATOM      7  C   UNL     1       0.568   7.010  20.883  1.00  0.00     0.075 C 
ATOM      8  O   UNL     1      -0.541   6.780  21.434  1.00  0.00    -0.545 OA
ATOM      9  O   UNL     1       1.711   7.031  21.672  1.00  0.00    -0.545 OA
ENDBRANCH   1   7
BRANCH   2  10
ATOM     10  O   UNL     1      -0.306   5.057  18.908  1.00  0.00    -0.507 OA
ATOM     11  H   UNL     1      -1.218   4.732  18.611  1.00  0.00     0.293 HD
ENDBRANCH   2  10
TORSDOF 2
ENDMDL
MODEL 5
REMARK VINA RESULT:    -4.664      2.192      3.938
REMARK INTER + INTRA:          -5.308
REMARK INTER:                  -5.059
REMARK INTRA:                  -0.249
REMARK UNBOUND:                -0.235
REMARK SMILES O=C([O-])c1ccccc1O
REMARK SMILES IDX 4 1 9 2 5 3 8 4 6 5 7 6 2 7 1 8 3 9 10 10
REMARK H PARENT 10 11
REMARK Flexibility Score: inf
ROOT
ATOM      1  C   UNL     1       1.034   7.890  17.699  1.00  0.00     0.039 A 
ATOM      2  C   UNL     1       1.290   8.304  19.028  1.00  0.00     0.124 A 
ATOM      3  C   UNL     1       0.209   6.767  17.485  1.00  0.00     0.014 A 
ATOM      4  C   UNL     1       0.727   7.598  20.101  1.00  0.00     0.047 A 
ATOM      5  C   UNL     1      -0.345   6.074  18.563  1.00  0.00     0.001 A 
ATOM      6  C   UNL     1      -0.087   6.488  19.870  1.00  0.00     0.004 A 
ENDROOT
BRANCH   1   7
ATOM      7  C   UNL     1       1.609   8.608  16.532  1.00  0.00     0.075 C 
ATOM      8  O   UNL     1       2.825   8.936  16.523  1.00  0.00    -0.545 OA
ATOM      9  O   UNL     1       0.826   8.930  15.430  1.00  0.00    -0.545 OA
ENDBRANCH   1   7
BRANCH   2  10
ATOM     10  O   UNL     1       2.100   9.410  19.287  1.00  0.00    -0.507 OA
ATOM     11  H   UNL     1       2.580   9.522  20.172  1.00  0.00     0.293 HD
ENDBRANCH   2  10
TORSDOF 2
ENDMDL
MODEL 6
REMARK VINA RESULT:    -4.611      2.618      3.709
REMARK INTER + INTRA:          -5.250
REMARK INTER:                  -5.004
REMARK INTRA:                  -0.246
REMARK UNBOUND:                -0.235
REMARK SMILES O=C([O-])c1ccccc1O
REMARK SMILES IDX 4 1 9 2 5 3 8 4 6 5 7 6 2 7 1 8 3 9 10 10
REMARK H PARENT 10 11
REMARK Flexibility Score: inf
ROOT
ATOM      1  C   UNL     1       0.157   6.607  17.850  1.00  0.00     0.039 A 
ATOM      2  C   UNL     1       0.209   6.897  19.235  1.00  0.00     0.124 A 
ATOM      3  C   UNL     1       0.823   7.464  16.951  1.00  0.00     0.014 A 
ATOM      4  C   UNL     1       0.914   8.022  19.687  1.00  0.00     0.047 A 
ATOM      5  C   UNL     1       1.520   8.581  17.416  1.00  0.00     0.001 A 
ATOM      6  C   UNL     1       1.567   8.860  18.782  1.00  0.00     0.004 A 
ENDROOT
BRANCH   1   7
ATOM      7  C   UNL     1      -0.578   5.426  17.326  1.00  0.00     0.075 C 
ATOM      8  O   UNL     1      -0.486   4.311  17.904  1.00  0.00    -0.545 OA
ATOM      9  O   UNL     1      -1.380   5.524  16.196  1.00  0.00    -0.545 OA
ENDBRANCH   1   7
BRANCH   2  10
ATOM     10  O   UNL     1      -0.435   6.076  20.161  1.00  0.00    -0.507 OA
ATOM     11  H   UNL     1      -0.698   5.124  19.936  1.00  0.00     0.293 HD
ENDBRANCH   2  10
TORSDOF 2
ENDMDL
MODEL 7
REMARK VINA RESULT:    -4.595      9.041     10.230
REMARK INTER + INTRA:          -5.233
REMARK INTER:                  -4.981
REMARK INTRA:                  -0.252
REMARK UNBOUND:                -0.235
REMARK SMILES O=C([O-])c1ccccc1O
REMARK SMILES IDX 4 1 9 2 5 3 8 4 6 5 7 6 2 7 1 8 3 9 10 10
REMARK H PARENT 10 11
REMARK Flexibility Score: inf
ROOT
ATOM      1  C   UNL     1      -6.871   4.830  14.863  1.00  0.00     0.039 A 
ATOM      2  C   UNL     1      -8.069   4.731  14.116  1.00  0.00     0.124 A 
ATOM      3  C   UNL     1      -6.768   5.829  15.852  1.00  0.00     0.014 A 
ATOM      4  C   UNL     1      -9.125   5.620  14.367  1.00  0.00     0.047 A 
ATOM      5  C   UNL     1      -7.827   6.707  16.090  1.00  0.00     0.001 A 
ATOM      6  C   UNL     1      -9.004   6.604  15.350  1.00  0.00     0.004 A 
ENDROOT
BRANCH   1   7
ATOM      7  C   UNL     1      -5.728   3.910  14.631  1.00  0.00     0.075 C 
ATOM      8  O   UNL     1      -5.206   3.287  15.594  1.00  0.00    -0.545 OA
ATOM      9  O   UNL     1      -5.211   3.715  13.356  1.00  0.00    -0.545 OA
ENDBRANCH   1   7
BRANCH   2  10
ATOM     10  O   UNL     1      -8.217   3.758  13.128  1.00  0.00    -0.507 OA
ATOM     11  H   UNL     1      -7.930   3.923  12.170  1.00  0.00     0.293 HD
ENDBRANCH   2  10
TORSDOF 2
ENDMDL
MODEL 8
REMARK VINA RESULT:    -4.543      5.793      6.799
REMARK INTER + INTRA:          -5.177
REMARK INTER:                  -4.959
REMARK INTRA:                  -0.217
REMARK UNBOUND:                -0.235
REMARK SMILES O=C([O-])c1ccccc1O
REMARK SMILES IDX 4 1 9 2 5 3 8 4 6 5 7 6 2 7 1 8 3 9 10 10
REMARK H PARENT 10 11
REMARK Flexibility Score: inf
ROOT
ATOM      1  C   UNL     1      -2.932   3.520  16.275  1.00  0.00     0.039 A 
ATOM      2  C   UNL     1      -3.192   4.578  15.371  1.00  0.00     0.124 A 
ATOM      3  C   UNL     1      -4.009   2.728  16.721  1.00  0.00     0.014 A 
ATOM      4  C   UNL     1      -4.504   4.820  14.938  1.00  0.00     0.047 A 
ATOM      5  C   UNL     1      -5.310   2.981  16.281  1.00  0.00     0.001 A 
ATOM      6  C   UNL     1      -5.558   4.025  15.391  1.00  0.00     0.004 A 
ENDROOT
BRANCH   1   7
ATOM      7  C   UNL     1      -1.558   3.228  16.761  1.00  0.00     0.075 C 
ATOM      8  O   UNL     1      -1.257   2.072  17.161  1.00  0.00    -0.545 OA
ATOM      9  O   UNL     1      -0.580   4.215  16.785  1.00  0.00    -0.545 OA
ENDBRANCH   1   7
BRANCH   2  10
ATOM     10  O   UNL     1      -2.158   5.387  14.903  1.00  0.00    -0.507 OA
ATOM     11  H   UNL     1      -1.796   6.159  15.451  1.00  0.00     0.293 HD
ENDBRANCH   2  10
TORSDOF 2
ENDMDL
MODEL 9
REMARK VINA RESULT:    -4.317      7.732      8.906
REMARK INTER + INTRA:          -4.930
REMARK INTER:                  -4.690
REMARK INTRA:                  -0.240
REMARK UNBOUND:                -0.235
REMARK SMILES O=C([O-])c1ccccc1O
REMARK SMILES IDX 4 1 9 2 5 3 8 4 6 5 7 6 2 7 1 8 3 9 10 10
REMARK H PARENT 10 11
REMARK Flexibility Score: inf
ROOT
ATOM      1  C   UNL     1      -5.925   4.353  15.229  1.00  0.00     0.039 A 
ATOM      2  C   UNL     1      -5.171   3.901  14.120  1.00  0.00     0.124 A 
ATOM      3  C   UNL     1      -7.219   4.865  15.006  1.00  0.00     0.014 A 
ATOM      4  C   UNL     1      -5.716   3.969  12.829  1.00  0.00     0.047 A 
ATOM      5  C   UNL     1      -7.749   4.927  13.716  1.00  0.00     0.001 A 
ATOM      6  C   UNL     1      -7.000   4.479  12.628  1.00  0.00     0.004 A 
ENDROOT
BRANCH   1   7
ATOM      7  C   UNL     1      -5.387   4.301  16.613  1.00  0.00     0.075 C 
ATOM      8  O   UNL     1      -5.046   3.201  17.122  1.00  0.00    -0.545 OA
ATOM      9  O   UNL     1      -5.248   5.456  17.373  1.00  0.00    -0.545 OA
ENDBRANCH   1   7
BRANCH   2  10
ATOM     10  O   UNL     1      -3.886   3.386  14.292  1.00  0.00    -0.507 OA
ATOM     11  H   UNL     1      -3.079   3.811  13.852  1.00  0.00     0.293 HD
ENDBRANCH   2  10
TORSDOF 2
ENDMDL
