MODEL 1
REMARK VINA RESULT:    -8.177      0.000      0.000
REMARK INTER + INTRA:         -11.110
REMARK INTER:                 -11.045
REMARK INTRA:                  -0.064
REMARK UNBOUND:                -0.064
REMARK SMILES O=c1c(-c2ccc(O)cc2)coc2c([C@@H]3O[C@@H](CO)[C@@H](O)[C@H](O)[C@@H]3O)c(O)ccc12
REMARK SMILES IDX 3 1 11 2 12 3 13 4 30 5 2 6 1 7 29 8 28 9 26 10 14 11 4 12
REMARK SMILES IDX 5 13 6 14 7 15 10 16 9 17 8 18 15 20 24 21 16 22 22 23 17 24
REMARK SMILES IDX 20 25 25 26 23 28 18 30 19 31 21 33 27 35
REMARK H PARENT 8 19 25 27 23 29 19 32 21 34 27 36
REMARK Flexibility Score: inf
ROOT
ATOM      1  C   UNL     1      -5.232  -5.419   6.579  1.00  0.00     0.065 A 
ATOM      2  C   UNL     1      -5.645  -4.292   5.856  1.00  0.00     0.208 A 
ATOM      3  O   UNL     1      -6.232  -3.270   6.464  1.00  0.00    -0.463 OA
ATOM      4  C   UNL     1      -6.467  -3.235   7.775  1.00  0.00     0.147 A 
ATOM      5  C   UNL     1      -6.068  -4.326   8.582  1.00  0.00     0.066 A 
ATOM      6  C   UNL     1      -5.442  -5.428   7.968  1.00  0.00     0.200 A 
ATOM      7  O   UNL     1      -5.052  -6.407   8.664  1.00  0.00    -0.288 OA
ATOM      8  C   UNL     1      -6.288  -4.282   9.965  1.00  0.00     0.020 A 
ATOM      9  C   UNL     1      -6.869  -3.159  10.546  1.00  0.00     0.047 A 
ATOM     10  C   UNL     1      -7.254  -2.064   9.769  1.00  0.00     0.125 A 
ATOM     11  C   UNL     1      -7.108  -2.108   8.355  1.00  0.00     0.069 A 
ENDROOT
BRANCH   1  12
ATOM     12  C   UNL     1      -4.584  -6.555   5.874  1.00  0.00    -0.011 A 
ATOM     13  C   UNL     1      -5.341  -7.396   5.039  1.00  0.00     0.013 A 
ATOM     14  C   UNL     1      -4.735  -8.470   4.382  1.00  0.00     0.047 A 
ATOM     15  C   UNL     1      -3.371  -8.722   4.552  1.00  0.00     0.115 A 
ATOM     16  C   UNL     1      -3.214  -6.817   6.047  1.00  0.00     0.013 A 
ATOM     17  C   UNL     1      -2.611  -7.893   5.387  1.00  0.00     0.047 A 
BRANCH  15  18
ATOM     18  O   UNL     1      -2.781  -9.795   3.889  1.00  0.00    -0.508 OA
ATOM     19  H   UNL     1      -3.314 -10.391   3.266  1.00  0.00     0.293 HD
ENDBRANCH  15  18
ENDBRANCH   1  12
BRANCH  11  20
ATOM     20  C   UNL     1      -7.578  -0.943   7.485  1.00  0.00     0.188 C 
ATOM     21  C   UNL     1      -7.918  -1.446   6.064  1.00  0.00     0.179 C 
ATOM     22  O   UNL     1      -8.693  -0.293   8.085  1.00  0.00    -0.362 OA
ATOM     23  C   UNL     1      -8.344  -0.252   5.193  1.00  0.00     0.177 C 
ATOM     24  C   UNL     1      -9.112   0.862   7.368  1.00  0.00     0.176 C 
ATOM     25  C   UNL     1      -9.474   0.524   5.896  1.00  0.00     0.177 C 
BRANCH  21  26
ATOM     26  O   UNL     1      -8.952  -2.398   6.128  1.00  0.00    -0.387 OA
ATOM     27  H   UNL     1      -9.039  -2.668   7.079  1.00  0.00     0.211 HD
ENDBRANCH  21  26
BRANCH  23  28
ATOM     28  O   UNL     1      -8.790  -0.694   3.937  1.00  0.00    -0.387 OA
ATOM     29  H   UNL     1      -8.306  -0.156   3.256  1.00  0.00     0.211 HD
ENDBRANCH  23  28
BRANCH  24  30
ATOM     30  C   UNL     1      -8.122   2.035   7.543  1.00  0.00     0.191 C 
BRANCH  30  31
ATOM     31  O   UNL     1      -8.690   3.223   7.063  1.00  0.00    -0.394 OA
ATOM     32  H   UNL     1      -8.597   3.889   7.792  1.00  0.00     0.210 HD
ENDBRANCH  30  31
ENDBRANCH  24  30
BRANCH  25  33
ATOM     33  O   UNL     1      -9.849   1.672   5.174  1.00  0.00    -0.388 OA
ATOM     34  H   UNL     1      -9.786   2.454   5.781  1.00  0.00     0.211 HD
ENDBRANCH  25  33
ENDBRANCH  11  20
BRANCH  10  35
ATOM     35  O   UNL     1      -7.762  -0.952  10.447  1.00  0.00    -0.507 OA
ATOM     36  H   UNL     1      -7.193  -0.233  10.870  1.00  0.00     0.293 HD
ENDBRANCH  10  35
TORSDOF 9
ENDMDL
MODEL 2
REMARK VINA RESULT:    -7.631      2.204      8.599
REMARK INTER + INTRA:         -10.372
REMARK INTER:                 -10.379
REMARK INTRA:                   0.007
REMARK UNBOUND:                -0.064
REMARK SMILES O=c1c(-c2ccc(O)cc2)coc2c([C@@H]3O[C@@H](CO)[C@@H](O)[C@H](O)[C@@H]3O)c(O)ccc12
REMARK SMILES IDX 3 1 11 2 12 3 13 4 30 5 2 6 1 7 29 8 28 9 26 10 14 11 4 12
REMARK SMILES IDX 5 13 6 14 7 15 10 16 9 17 8 18 15 20 24 21 16 22 22 23 17 24
REMARK SMILES IDX 20 25 25 26 23 28 18 30 19 31 21 33 27 35
REMARK H PARENT 8 19 25 27 23 29 19 32 21 34 27 36
REMARK Flexibility Score: inf
ROOT
ATOM      1  C   UNL     1      -8.179  -1.047   6.037  1.00  0.00     0.065 A 
ATOM      2  C   UNL     1      -6.999  -1.674   6.457  1.00  0.00     0.208 A 
ATOM      3  O   UNL     1      -6.736  -2.929   6.116  1.00  0.00    -0.463 OA
ATOM      4  C   UNL     1      -7.551  -3.670   5.366  1.00  0.00     0.147 A 
ATOM      5  C   UNL     1      -8.757  -3.108   4.888  1.00  0.00     0.066 A 
ATOM      6  C   UNL     1      -9.067  -1.779   5.231  1.00  0.00     0.200 A 
ATOM      7  O   UNL     1     -10.125  -1.240   4.800  1.00  0.00    -0.288 OA
ATOM      8  C   UNL     1      -9.605  -3.875   4.077  1.00  0.00     0.020 A 
ATOM      9  C   UNL     1      -9.248  -5.171   3.719  1.00  0.00     0.047 A 
ATOM     10  C   UNL     1      -8.053  -5.738   4.167  1.00  0.00     0.125 A 
ATOM     11  C   UNL     1      -7.205  -5.011   5.048  1.00  0.00     0.069 A 
ENDROOT
BRANCH   1  12
ATOM     12  C   UNL     1      -8.455   0.356   6.438  1.00  0.00    -0.011 A 
ATOM     13  C   UNL     1      -8.838   0.654   7.758  1.00  0.00     0.013 A 
ATOM     14  C   UNL     1      -9.106   1.973   8.136  1.00  0.00     0.047 A 
ATOM     15  C   UNL     1      -9.001   3.009   7.203  1.00  0.00     0.115 A 
ATOM     16  C   UNL     1      -8.358   1.402   5.503  1.00  0.00     0.013 A 
ATOM     17  C   UNL     1      -8.627   2.720   5.884  1.00  0.00     0.047 A 
BRANCH  15  18
ATOM     18  O   UNL     1      -9.270   4.318   7.595  1.00  0.00    -0.508 OA
ATOM     19  H   UNL     1      -8.596   4.862   8.120  1.00  0.00     0.293 HD
ENDBRANCH  15  18
ENDBRANCH   1  12
BRANCH  11  20
ATOM     20  C   UNL     1      -5.924  -5.637   5.595  1.00  0.00     0.188 C 
ATOM     21  C   UNL     1      -5.847  -5.439   7.124  1.00  0.00     0.179 C 
ATOM     22  O   UNL     1      -5.858  -7.016   5.247  1.00  0.00    -0.362 OA
ATOM     23  C   UNL     1      -4.528  -6.035   7.647  1.00  0.00     0.177 C 
ATOM     24  C   UNL     1      -4.637  -7.629   5.645  1.00  0.00     0.176 C 
ATOM     25  C   UNL     1      -4.398  -7.496   7.173  1.00  0.00     0.177 C 
BRANCH  21  26
ATOM     26  O   UNL     1      -6.945  -6.062   7.744  1.00  0.00    -0.387 OA
ATOM     27  H   UNL     1      -6.583  -6.624   8.478  1.00  0.00     0.211 HD
ENDBRANCH  21  26
BRANCH  23  28
ATOM     28  O   UNL     1      -4.490  -5.993   9.050  1.00  0.00    -0.387 OA
ATOM     29  H   UNL     1      -5.011  -6.773   9.374  1.00  0.00     0.211 HD
ENDBRANCH  23  28
BRANCH  24  30
ATOM     30  C   UNL     1      -3.455  -7.178   4.758  1.00  0.00     0.191 C 
BRANCH  30  31
ATOM     31  O   UNL     1      -2.580  -6.367   5.494  1.00  0.00    -0.394 OA
ATOM     32  H   UNL     1      -1.679  -6.507   5.104  1.00  0.00     0.210 HD
ENDBRANCH  30  31
ENDBRANCH  24  30
BRANCH  25  33
ATOM     33  O   UNL     1      -3.172  -8.065   7.561  1.00  0.00    -0.388 OA
ATOM     34  H   UNL     1      -3.089  -7.980   8.547  1.00  0.00     0.211 HD
ENDBRANCH  25  33
ENDBRANCH  11  20
BRANCH  10  35
ATOM     35  O   UNL     1      -7.742  -7.018   3.699  1.00  0.00    -0.507 OA
ATOM     36  H   UNL     1      -6.810  -7.330   3.466  1.00  0.00     0.293 HD
ENDBRANCH  10  35
TORSDOF 9
ENDMDL
MODEL 3
REMARK VINA RESULT:    -7.468      0.784      1.996
REMARK INTER + INTRA:         -10.152
REMARK INTER:                 -11.051
REMARK INTRA:                   0.899
REMARK UNBOUND:                -0.064
REMARK SMILES O=c1c(-c2ccc(O)cc2)coc2c([C@@H]3O[C@@H](CO)[C@@H](O)[C@H](O)[C@@H]3O)c(O)ccc12
REMARK SMILES IDX 3 1 11 2 12 3 13 4 30 5 2 6 1 7 29 8 28 9 26 10 14 11 4 12
REMARK SMILES IDX 5 13 6 14 7 15 10 16 9 17 8 18 15 20 24 21 16 22 22 23 17 24
REMARK SMILES IDX 20 25 25 26 23 28 18 30 19 31 21 33 27 35
REMARK H PARENT 8 19 25 27 23 29 19 32 21 34 27 36
REMARK Flexibility Score: inf
ROOT
ATOM      1  C   UNL     1      -5.318  -5.625   6.482  1.00  0.00     0.065 A 
ATOM      2  C   UNL     1      -6.019  -4.645   5.767  1.00  0.00     0.208 A 
ATOM      3  O   UNL     1      -6.663  -3.672   6.399  1.00  0.00    -0.463 OA
ATOM      4  C   UNL     1      -6.692  -3.553   7.725  1.00  0.00     0.147 A 
ATOM      5  C   UNL     1      -5.996  -4.492   8.522  1.00  0.00     0.066 A 
ATOM      6  C   UNL     1      -5.303  -5.538   7.884  1.00  0.00     0.200 A 
ATOM      7  O   UNL     1      -4.652  -6.379   8.566  1.00  0.00    -0.288 OA
ATOM      8  C   UNL     1      -6.001  -4.357   9.916  1.00  0.00     0.020 A 
ATOM      9  C   UNL     1      -6.660  -3.287  10.514  1.00  0.00     0.047 A 
ATOM     10  C   UNL     1      -7.337  -2.338   9.744  1.00  0.00     0.125 A 
ATOM     11  C   UNL     1      -7.410  -2.488   8.331  1.00  0.00     0.069 A 
ENDROOT
BRANCH   1  12
ATOM     12  C   UNL     1      -4.611  -6.709   5.753  1.00  0.00    -0.011 A 
ATOM     13  C   UNL     1      -5.323  -7.571   4.900  1.00  0.00     0.013 A 
ATOM     14  C   UNL     1      -4.661  -8.597   4.219  1.00  0.00     0.047 A 
ATOM     15  C   UNL     1      -3.285  -8.779   4.384  1.00  0.00     0.115 A 
ATOM     16  C   UNL     1      -3.228  -6.902   5.920  1.00  0.00     0.013 A 
ATOM     17  C   UNL     1      -2.570  -7.929   5.238  1.00  0.00     0.047 A 
BRANCH  15  18
ATOM     18  O   UNL     1      -2.639  -9.805   3.698  1.00  0.00    -0.508 OA
ATOM     19  H   UNL     1      -3.039 -10.734   3.636  1.00  0.00     0.293 HD
ENDBRANCH  15  18
ENDBRANCH   1  12
BRANCH  11  20
ATOM     20  C   UNL     1      -8.196  -1.493   7.479  1.00  0.00     0.188 C 
ATOM     21  C   UNL     1      -8.313  -0.140   8.216  1.00  0.00     0.179 C 
ATOM     22  O   UNL     1      -7.582  -1.338   6.204  1.00  0.00    -0.362 OA
ATOM     23  C   UNL     1      -9.147   0.831   7.362  1.00  0.00     0.177 C 
ATOM     24  C   UNL     1      -8.327  -0.497   5.330  1.00  0.00     0.176 C 
ATOM     25  C   UNL     1      -8.552   0.913   5.942  1.00  0.00     0.177 C 
BRANCH  21  26
ATOM     26  O   UNL     1      -7.031   0.390   8.449  1.00  0.00    -0.387 OA
ATOM     27  H   UNL     1      -6.763   0.108   9.362  1.00  0.00     0.211 HD
ENDBRANCH  21  26
BRANCH  23  28
ATOM     28  O   UNL     1      -9.157   2.110   7.939  1.00  0.00    -0.387 OA
ATOM     29  H   UNL     1      -8.767   2.730   7.269  1.00  0.00     0.211 HD
ENDBRANCH  23  28
BRANCH  24  30
ATOM     30  C   UNL     1      -9.604  -1.196   4.815  1.00  0.00     0.191 C 
BRANCH  30  31
ATOM     31  O   UNL     1      -9.959  -0.688   3.557  1.00  0.00    -0.394 OA
ATOM     32  H   UNL     1      -9.111  -0.574   3.056  1.00  0.00     0.210 HD
ENDBRANCH  30  31
ENDBRANCH  24  30
BRANCH  25  33
ATOM     33  O   UNL     1      -9.323   1.731   5.097  1.00  0.00    -0.388 OA
ATOM     34  H   UNL     1      -9.498   2.586   5.570  1.00  0.00     0.211 HD
ENDBRANCH  25  33
ENDBRANCH  11  20
BRANCH  10  35
ATOM     35  O   UNL     1      -7.908  -1.259  10.424  1.00  0.00    -0.507 OA
ATOM     36  H   UNL     1      -8.329  -0.459   9.972  1.00  0.00     0.293 HD
ENDBRANCH  10  35
TORSDOF 9
ENDMDL
MODEL 4
REMARK VINA RESULT:    -7.314     11.521     14.135
REMARK INTER + INTRA:          -9.944
REMARK INTER:                  -9.516
REMARK INTRA:                  -0.428
REMARK UNBOUND:                -0.064
REMARK SMILES O=c1c(-c2ccc(O)cc2)coc2c([C@@H]3O[C@@H](CO)[C@@H](O)[C@H](O)[C@@H]3O)c(O)ccc12
REMARK SMILES IDX 3 1 11 2 12 3 13 4 30 5 2 6 1 7 29 8 28 9 26 10 14 11 4 12
REMARK SMILES IDX 5 13 6 14 7 15 10 16 9 17 8 18 15 20 24 21 16 22 22 23 17 24
REMARK SMILES IDX 20 25 25 26 23 28 18 30 19 31 21 33 27 35
REMARK H PARENT 8 19 25 27 23 29 19 32 21 34 27 36
REMARK Flexibility Score: inf
ROOT
ATOM      1  C   UNL     1      -0.331  -5.765  -6.437  1.00  0.00     0.065 A 
ATOM      2  C   UNL     1      -1.045  -4.604  -6.111  1.00  0.00     0.208 A 
ATOM      3  O   UNL     1      -2.364  -4.633  -5.967  1.00  0.00    -0.463 OA
ATOM      4  C   UNL     1      -3.092  -5.739  -6.116  1.00  0.00     0.147 A 
ATOM      5  C   UNL     1      -2.448  -6.958  -6.431  1.00  0.00     0.066 A 
ATOM      6  C   UNL     1      -1.049  -6.963  -6.591  1.00  0.00     0.200 A 
ATOM      7  O   UNL     1      -0.442  -8.039  -6.848  1.00  0.00    -0.288 OA
ATOM      8  C   UNL     1      -3.207  -8.129  -6.562  1.00  0.00     0.020 A 
ATOM      9  C   UNL     1      -4.582  -8.099  -6.354  1.00  0.00     0.047 A 
ATOM     10  C   UNL     1      -5.235  -6.909  -6.025  1.00  0.00     0.125 A 
ATOM     11  C   UNL     1      -4.503  -5.691  -5.954  1.00  0.00     0.069 A 
ENDROOT
BRANCH   1  12
ATOM     12  C   UNL     1       1.144  -5.705  -6.601  1.00  0.00    -0.011 A 
ATOM     13  C   UNL     1       1.736  -6.063  -7.825  1.00  0.00     0.013 A 
ATOM     14  C   UNL     1       3.125  -6.015  -7.979  1.00  0.00     0.047 A 
ATOM     15  C   UNL     1       3.939  -5.618  -6.914  1.00  0.00     0.115 A 
ATOM     16  C   UNL     1       1.968  -5.313  -5.532  1.00  0.00     0.013 A 
ATOM     17  C   UNL     1       3.357  -5.267  -5.689  1.00  0.00     0.047 A 
BRANCH  15  18
ATOM     18  O   UNL     1       5.320  -5.574  -7.083  1.00  0.00    -0.508 OA
ATOM     19  H   UNL     1       5.739  -5.490  -8.002  1.00  0.00     0.293 HD
ENDBRANCH  15  18
ENDBRANCH   1  12
BRANCH  11  20
ATOM     20  C   UNL     1      -5.209  -4.370  -5.653  1.00  0.00     0.188 C 
ATOM     21  C   UNL     1      -5.943  -3.862  -6.914  1.00  0.00     0.179 C 
ATOM     22  O   UNL     1      -6.106  -4.525  -4.558  1.00  0.00    -0.362 OA
ATOM     23  C   UNL     1      -6.608  -2.511  -6.603  1.00  0.00     0.177 C 
ATOM     24  C   UNL     1      -6.720  -3.302  -4.169  1.00  0.00     0.176 C 
ATOM     25  C   UNL     1      -7.491  -2.645  -5.347  1.00  0.00     0.177 C 
BRANCH  21  26
ATOM     26  O   UNL     1      -6.910  -4.802  -7.317  1.00  0.00    -0.387 OA
ATOM     27  H   UNL     1      -7.625  -4.299  -7.786  1.00  0.00     0.211 HD
ENDBRANCH  21  26
BRANCH  23  28
ATOM     28  O   UNL     1      -7.396  -2.089  -7.686  1.00  0.00    -0.387 OA
ATOM     29  H   UNL     1      -7.476  -1.102  -7.614  1.00  0.00     0.211 HD
ENDBRANCH  23  28
BRANCH  24  30
ATOM     30  C   UNL     1      -5.728  -2.371  -3.439  1.00  0.00     0.191 C 
BRANCH  30  31
ATOM     31  O   UNL     1      -5.600  -1.160  -4.134  1.00  0.00    -0.394 OA
ATOM     32  H   UNL     1      -5.953  -1.326  -5.046  1.00  0.00     0.210 HD
ENDBRANCH  30  31
ENDBRANCH  24  30
BRANCH  25  33
ATOM     33  O   UNL     1      -8.064  -1.416  -4.974  1.00  0.00    -0.388 OA
ATOM     34  H   UNL     1      -8.686  -1.134  -5.694  1.00  0.00     0.211 HD
ENDBRANCH  25  33
ENDBRANCH  11  20
BRANCH  10  35
ATOM     35  O   UNL     1      -6.605  -6.987  -5.764  1.00  0.00    -0.507 OA
ATOM     36  H   UNL     1      -7.243  -7.606  -6.244  1.00  0.00     0.293 HD
ENDBRANCH  10  35
TORSDOF 9
ENDMDL
MODEL 5
REMARK VINA RESULT:    -7.267      2.211      8.391
REMARK INTER + INTRA:          -9.881
REMARK INTER:                 -10.771
REMARK INTRA:                   0.891
REMARK UNBOUND:                -0.064
REMARK SMILES O=c1c(-c2ccc(O)cc2)coc2c([C@@H]3O[C@@H](CO)[C@@H](O)[C@H](O)[C@@H]3O)c(O)ccc12
REMARK SMILES IDX 3 1 11 2 12 3 13 4 30 5 2 6 1 7 29 8 28 9 26 10 14 11 4 12
REMARK SMILES IDX 5 13 6 14 7 15 10 16 9 17 8 18 15 20 24 21 16 22 22 23 17 24
REMARK SMILES IDX 20 25 25 26 23 28 18 30 19 31 21 33 27 35
REMARK H PARENT 8 19 25 27 23 29 19 32 21 34 27 36
REMARK Flexibility Score: inf
ROOT
ATOM      1  C   UNL     1      -8.008  -1.388   6.300  1.00  0.00     0.065 A 
ATOM      2  C   UNL     1      -6.888  -2.123   6.712  1.00  0.00     0.208 A 
ATOM      3  O   UNL     1      -6.708  -3.374   6.310  1.00  0.00    -0.463 OA
ATOM      4  C   UNL     1      -7.554  -4.013   5.504  1.00  0.00     0.147 A 
ATOM      5  C   UNL     1      -8.703  -3.339   5.028  1.00  0.00     0.066 A 
ATOM      6  C   UNL     1      -8.925  -2.010   5.436  1.00  0.00     0.200 A 
ATOM      7  O   UNL     1      -9.929  -1.373   5.010  1.00  0.00    -0.288 OA
ATOM      8  C   UNL     1      -9.583  -3.998   4.159  1.00  0.00     0.020 A 
ATOM      9  C   UNL     1      -9.311  -5.297   3.740  1.00  0.00     0.047 A 
ATOM     10  C   UNL     1      -8.173  -5.973   4.184  1.00  0.00     0.125 A 
ATOM     11  C   UNL     1      -7.299  -5.357   5.122  1.00  0.00     0.069 A 
ENDROOT
BRANCH   1  12
ATOM     12  C   UNL     1      -8.192   0.008   6.769  1.00  0.00    -0.011 A 
ATOM     13  C   UNL     1      -8.242   0.293   8.145  1.00  0.00     0.013 A 
ATOM     14  C   UNL     1      -8.423   1.606   8.590  1.00  0.00     0.047 A 
ATOM     15  C   UNL     1      -8.562   2.649   7.669  1.00  0.00     0.115 A 
ATOM     16  C   UNL     1      -8.338   1.061   5.848  1.00  0.00     0.013 A 
ATOM     17  C   UNL     1      -8.519   2.373   6.296  1.00  0.00     0.047 A 
BRANCH  15  18
ATOM     18  O   UNL     1      -8.740   3.952   8.127  1.00  0.00    -0.508 OA
ATOM     19  H   UNL     1      -8.287   4.738   7.676  1.00  0.00     0.293 HD
ENDBRANCH  15  18
ENDBRANCH   1  12
BRANCH  11  20
ATOM     20  C   UNL     1      -6.081  -6.104   5.663  1.00  0.00     0.188 C 
ATOM     21  C   UNL     1      -5.503  -7.036   4.575  1.00  0.00     0.179 C 
ATOM     22  O   UNL     1      -5.101  -5.183   6.130  1.00  0.00    -0.362 OA
ATOM     23  C   UNL     1      -4.308  -7.812   5.155  1.00  0.00     0.177 C 
ATOM     24  C   UNL     1      -3.984  -5.823   6.737  1.00  0.00     0.176 C 
ATOM     25  C   UNL     1      -3.297  -6.822   5.767  1.00  0.00     0.177 C 
BRANCH  21  26
ATOM     26  O   UNL     1      -5.100  -6.278   3.460  1.00  0.00    -0.387 OA
ATOM     27  H   UNL     1      -5.601  -5.422   3.496  1.00  0.00     0.211 HD
ENDBRANCH  21  26
BRANCH  23  28
ATOM     28  O   UNL     1      -3.677  -8.565   4.152  1.00  0.00    -0.387 OA
ATOM     29  H   UNL     1      -4.361  -8.744   3.456  1.00  0.00     0.211 HD
ENDBRANCH  23  28
BRANCH  24  30
ATOM     30  C   UNL     1      -4.341  -6.402   8.124  1.00  0.00     0.191 C 
BRANCH  30  31
ATOM     31  O   UNL     1      -4.386  -5.376   9.079  1.00  0.00    -0.394 OA
ATOM     32  H   UNL     1      -3.546  -5.448   9.601  1.00  0.00     0.210 HD
ENDBRANCH  30  31
ENDBRANCH  24  30
BRANCH  25  33
ATOM     33  O   UNL     1      -2.219  -7.486   6.379  1.00  0.00    -0.388 OA
ATOM     34  H   UNL     1      -1.383  -7.204   5.925  1.00  0.00     0.211 HD
ENDBRANCH  25  33
ENDBRANCH  11  20
BRANCH  10  35
ATOM     35  O   UNL     1      -7.944  -7.247   3.655  1.00  0.00    -0.507 OA
ATOM     36  H   UNL     1      -8.666  -7.850   3.288  1.00  0.00     0.293 HD
ENDBRANCH  10  35
TORSDOF 9
ENDMDL
MODEL 6
REMARK VINA RESULT:    -6.993      2.286      8.261
REMARK INTER + INTRA:          -9.510
REMARK INTER:                  -9.251
REMARK INTRA:                  -0.259
REMARK UNBOUND:                -0.064
REMARK SMILES O=c1c(-c2ccc(O)cc2)coc2c([C@@H]3O[C@@H](CO)[C@@H](O)[C@H](O)[C@@H]3O)c(O)ccc12
REMARK SMILES IDX 3 1 11 2 12 3 13 4 30 5 2 6 1 7 29 8 28 9 26 10 14 11 4 12
REMARK SMILES IDX 5 13 6 14 7 15 10 16 9 17 8 18 15 20 24 21 16 22 22 23 17 24
REMARK SMILES IDX 20 25 25 26 23 28 18 30 19 31 21 33 27 35
REMARK H PARENT 8 19 25 27 23 29 19 32 21 34 27 36
REMARK Flexibility Score: inf
ROOT
ATOM      1  C   UNL     1      -8.379   0.645   7.342  1.00  0.00     0.065 A 
ATOM      2  C   UNL     1      -8.238  -0.253   6.276  1.00  0.00     0.208 A 
ATOM      3  O   UNL     1      -7.895  -1.516   6.490  1.00  0.00    -0.463 OA
ATOM      4  C   UNL     1      -7.667  -2.017   7.703  1.00  0.00     0.147 A 
ATOM      5  C   UNL     1      -7.803  -1.182   8.836  1.00  0.00     0.066 A 
ATOM      6  C   UNL     1      -8.164   0.165   8.645  1.00  0.00     0.200 A 
ATOM      7  O   UNL     1      -8.317   0.930   9.637  1.00  0.00    -0.288 OA
ATOM      8  C   UNL     1      -7.589  -1.711  10.116  1.00  0.00     0.020 A 
ATOM      9  C   UNL     1      -7.276  -3.058  10.274  1.00  0.00     0.047 A 
ATOM     10  C   UNL     1      -7.155  -3.903   9.169  1.00  0.00     0.125 A 
ATOM     11  C   UNL     1      -7.296  -3.380   7.854  1.00  0.00     0.069 A 
ENDROOT
BRANCH   1  12
ATOM     12  C   UNL     1      -8.756   2.057   7.076  1.00  0.00    -0.011 A 
ATOM     13  C   UNL     1      -8.978   2.944   8.144  1.00  0.00     0.013 A 
ATOM     14  C   UNL     1      -9.341   4.271   7.897  1.00  0.00     0.047 A 
ATOM     15  C   UNL     1      -9.491   4.728   6.585  1.00  0.00     0.115 A 
ATOM     16  C   UNL     1      -8.915   2.521   5.759  1.00  0.00     0.013 A 
ATOM     17  C   UNL     1      -9.278   3.849   5.515  1.00  0.00     0.047 A 
BRANCH  15  18
ATOM     18  O   UNL     1      -9.851   6.054   6.354  1.00  0.00    -0.508 OA
ATOM     19  H   UNL     1      -9.348   6.631   5.691  1.00  0.00     0.293 HD
ENDBRANCH  15  18
ENDBRANCH   1  12
BRANCH  11  20
ATOM     20  C   UNL     1      -7.109  -4.278   6.632  1.00  0.00     0.188 C 
ATOM     21  C   UNL     1      -5.604  -4.492   6.356  1.00  0.00     0.179 C 
ATOM     22  O   UNL     1      -7.783  -5.518   6.818  1.00  0.00    -0.362 OA
ATOM     23  C   UNL     1      -5.438  -5.359   5.096  1.00  0.00     0.177 C 
ATOM     24  C   UNL     1      -7.727  -6.357   5.671  1.00  0.00     0.176 C 
ATOM     25  C   UNL     1      -6.262  -6.653   5.247  1.00  0.00     0.177 C 
BRANCH  21  26
ATOM     26  O   UNL     1      -4.999  -5.116   7.463  1.00  0.00    -0.387 OA
ATOM     27  H   UNL     1      -5.025  -6.093   7.294  1.00  0.00     0.211 HD
ENDBRANCH  21  26
BRANCH  23  28
ATOM     28  O   UNL     1      -4.087  -5.685   4.897  1.00  0.00    -0.387 OA
ATOM     29  H   UNL     1      -4.058  -6.647   4.651  1.00  0.00     0.211 HD
ENDBRANCH  23  28
BRANCH  24  30
ATOM     30  C   UNL     1      -8.642  -5.839   4.539  1.00  0.00     0.191 C 
BRANCH  30  31
ATOM     31  O   UNL     1      -8.947  -6.880   3.650  1.00  0.00    -0.394 OA
ATOM     32  H   UNL     1      -8.207  -6.906   2.990  1.00  0.00     0.210 HD
ENDBRANCH  30  31
ENDBRANCH  24  30
BRANCH  25  33
ATOM     33  O   UNL     1      -6.205  -7.448   4.088  1.00  0.00    -0.388 OA
ATOM     34  H   UNL     1      -6.765  -8.253   4.237  1.00  0.00     0.211 HD
ENDBRANCH  25  33
ENDBRANCH  11  20
BRANCH  10  35
ATOM     35  O   UNL     1      -6.909  -5.254   9.427  1.00  0.00    -0.507 OA
ATOM     36  H   UNL     1      -6.752  -5.952   8.713  1.00  0.00     0.293 HD
ENDBRANCH  10  35
TORSDOF 9
ENDMDL
MODEL 7
REMARK VINA RESULT:    -6.856     13.308     16.984
REMARK INTER + INTRA:          -9.325
REMARK INTER:                  -8.274
REMARK INTRA:                  -1.051
REMARK UNBOUND:                -0.064
REMARK SMILES O=c1c(-c2ccc(O)cc2)coc2c([C@@H]3O[C@@H](CO)[C@@H](O)[C@H](O)[C@@H]3O)c(O)ccc12
REMARK SMILES IDX 3 1 11 2 12 3 13 4 30 5 2 6 1 7 29 8 28 9 26 10 14 11 4 12
REMARK SMILES IDX 5 13 6 14 7 15 10 16 9 17 8 18 15 20 24 21 16 22 22 23 17 24
REMARK SMILES IDX 20 25 25 26 23 28 18 30 19 31 21 33 27 35
REMARK H PARENT 8 19 25 27 23 29 19 32 21 34 27 36
REMARK Flexibility Score: inf
ROOT
ATOM      1  C   UNL     1       4.985  -5.853  -5.928  1.00  0.00     0.065 A 
ATOM      2  C   UNL     1       3.848  -5.289  -5.336  1.00  0.00     0.208 A 
ATOM      3  O   UNL     1       2.639  -5.509  -5.836  1.00  0.00    -0.463 OA
ATOM      4  C   UNL     1       2.417  -6.264  -6.911  1.00  0.00     0.147 A 
ATOM      5  C   UNL     1       3.509  -6.884  -7.561  1.00  0.00     0.066 A 
ATOM      6  C   UNL     1       4.807  -6.671  -7.057  1.00  0.00     0.200 A 
ATOM      7  O   UNL     1       5.800  -7.230  -7.600  1.00  0.00    -0.288 OA
ATOM      8  C   UNL     1       3.279  -7.701  -8.676  1.00  0.00     0.020 A 
ATOM      9  C   UNL     1       1.981  -7.926  -9.123  1.00  0.00     0.047 A 
ATOM     10  C   UNL     1       0.887  -7.338  -8.484  1.00  0.00     0.125 A 
ATOM     11  C   UNL     1       1.094  -6.448  -7.393  1.00  0.00     0.069 A 
ENDROOT
BRANCH   1  12
ATOM     12  C   UNL     1       6.329  -5.586  -5.355  1.00  0.00    -0.011 A 
ATOM     13  C   UNL     1       6.994  -6.580  -4.616  1.00  0.00     0.013 A 
ATOM     14  C   UNL     1       8.255  -6.329  -4.068  1.00  0.00     0.047 A 
ATOM     15  C   UNL     1       8.866  -5.083  -4.246  1.00  0.00     0.115 A 
ATOM     16  C   UNL     1       6.945  -4.333  -5.525  1.00  0.00     0.013 A 
ATOM     17  C   UNL     1       8.206  -4.085  -4.976  1.00  0.00     0.047 A 
BRANCH  15  18
ATOM     18  O   UNL     1      10.123  -4.848  -3.696  1.00  0.00    -0.508 OA
ATOM     19  H   UNL     1      10.231  -4.500  -2.750  1.00  0.00     0.293 HD
ENDBRANCH  15  18
ENDBRANCH   1  12
BRANCH  11  20
ATOM     20  C   UNL     1      -0.086  -5.749  -6.720  1.00  0.00     0.188 C 
ATOM     21  C   UNL     1      -0.441  -4.453  -7.482  1.00  0.00     0.179 C 
ATOM     22  O   UNL     1      -1.204  -6.627  -6.642  1.00  0.00    -0.362 OA
ATOM     23  C   UNL     1      -1.600  -3.743  -6.762  1.00  0.00     0.177 C 
ATOM     24  C   UNL     1      -2.302  -6.063  -5.935  1.00  0.00     0.176 C 
ATOM     25  C   UNL     1      -2.771  -4.727  -6.571  1.00  0.00     0.177 C 
BRANCH  21  26
ATOM     26  O   UNL     1      -0.803  -4.761  -8.807  1.00  0.00    -0.387 OA
ATOM     27  H   UNL     1      -1.518  -4.123  -9.066  1.00  0.00     0.211 HD
ENDBRANCH  21  26
BRANCH  23  28
ATOM     28  O   UNL     1      -2.036  -2.634  -7.505  1.00  0.00    -0.387 OA
ATOM     29  H   UNL     1      -2.851  -2.920  -7.994  1.00  0.00     0.211 HD
ENDBRANCH  23  28
BRANCH  24  30
ATOM     30  C   UNL     1      -2.033  -6.003  -4.415  1.00  0.00     0.191 C 
BRANCH  30  31
ATOM     31  O   UNL     1      -3.200  -5.632  -3.732  1.00  0.00    -0.394 OA
ATOM     32  H   UNL     1      -2.905  -5.080  -2.962  1.00  0.00     0.210 HD
ENDBRANCH  30  31
ENDBRANCH  24  30
BRANCH  25  33
ATOM     33  O   UNL     1      -3.829  -4.147  -5.849  1.00  0.00    -0.388 OA
ATOM     34  H   UNL     1      -4.506  -3.823  -6.498  1.00  0.00     0.211 HD
ENDBRANCH  25  33
ENDBRANCH  11  20
BRANCH  10  35
ATOM     35  O   UNL     1      -0.383  -7.678  -8.956  1.00  0.00    -0.507 OA
ATOM     36  H   UNL     1      -1.249  -7.381  -8.528  1.00  0.00     0.293 HD
ENDBRANCH  10  35
TORSDOF 9
ENDMDL
MODEL 8
REMARK VINA RESULT:    -6.783      2.355      8.226
REMARK INTER + INTRA:          -9.227
REMARK INTER:                  -9.037
REMARK INTRA:                  -0.190
REMARK UNBOUND:                -0.064
REMARK SMILES O=c1c(-c2ccc(O)cc2)coc2c([C@@H]3O[C@@H](CO)[C@@H](O)[C@H](O)[C@@H]3O)c(O)ccc12
REMARK SMILES IDX 3 1 11 2 12 3 13 4 30 5 2 6 1 7 29 8 28 9 26 10 14 11 4 12
REMARK SMILES IDX 5 13 6 14 7 15 10 16 9 17 8 18 15 20 24 21 16 22 22 23 17 24
REMARK SMILES IDX 20 25 25 26 23 28 18 30 19 31 21 33 27 35
REMARK H PARENT 8 19 25 27 23 29 19 32 21 34 27 36
REMARK Flexibility Score: inf
ROOT
ATOM      1  C   UNL     1      -7.895  -2.741   6.529  1.00  0.00     0.065 A 
ATOM      2  C   UNL     1      -6.676  -3.354   6.212  1.00  0.00     0.208 A 
ATOM      3  O   UNL     1      -6.559  -4.676   6.210  1.00  0.00    -0.463 OA
ATOM      4  C   UNL     1      -7.564  -5.501   6.499  1.00  0.00     0.147 A 
ATOM      5  C   UNL     1      -8.833  -4.964   6.815  1.00  0.00     0.066 A 
ATOM      6  C   UNL     1      -8.993  -3.565   6.828  1.00  0.00     0.200 A 
ATOM      7  O   UNL     1     -10.120  -3.056   7.082  1.00  0.00    -0.288 OA
ATOM      8  C   UNL     1      -9.901  -5.828   7.095  1.00  0.00     0.020 A 
ATOM      9  C   UNL     1      -9.721  -7.206   7.031  1.00  0.00     0.047 A 
ATOM     10  C   UNL     1      -8.480  -7.756   6.703  1.00  0.00     0.125 A 
ATOM     11  C   UNL     1      -7.360  -6.906   6.484  1.00  0.00     0.069 A 
ENDROOT
BRANCH   1  12
ATOM     12  C   UNL     1      -8.000  -1.259   6.532  1.00  0.00    -0.011 A 
ATOM     13  C   UNL     1      -8.228  -0.562   5.332  1.00  0.00     0.013 A 
ATOM     14  C   UNL     1      -8.319   0.833   5.332  1.00  0.00     0.047 A 
ATOM     15  C   UNL     1      -8.179   1.549   6.524  1.00  0.00     0.115 A 
ATOM     16  C   UNL     1      -7.853  -0.533   7.727  1.00  0.00     0.013 A 
ATOM     17  C   UNL     1      -7.945   0.862   7.723  1.00  0.00     0.047 A 
BRANCH  15  18
ATOM     18  O   UNL     1      -8.274   2.938   6.508  1.00  0.00    -0.508 OA
ATOM     19  H   UNL     1      -8.637   3.435   5.703  1.00  0.00     0.293 HD
ENDBRANCH  15  18
ENDBRANCH   1  12
BRANCH  11  20
ATOM     20  C   UNL     1      -5.982  -7.492   6.182  1.00  0.00     0.188 C 
ATOM     21  C   UNL     1      -5.866  -7.831   4.680  1.00  0.00     0.179 C 
ATOM     22  O   UNL     1      -4.959  -6.589   6.590  1.00  0.00    -0.362 OA
ATOM     23  C   UNL     1      -4.490  -8.461   4.407  1.00  0.00     0.177 C 
ATOM     24  C   UNL     1      -3.651  -7.124   6.425  1.00  0.00     0.176 C 
ATOM     25  C   UNL     1      -3.381  -7.540   4.953  1.00  0.00     0.177 C 
BRANCH  21  26
ATOM     26  O   UNL     1      -6.031  -6.664   3.912  1.00  0.00    -0.387 OA
ATOM     27  H   UNL     1      -6.636  -6.065   4.421  1.00  0.00     0.211 HD
ENDBRANCH  21  26
BRANCH  23  28
ATOM     28  O   UNL     1      -4.301  -8.656   3.030  1.00  0.00    -0.387 OA
ATOM     29  H   UNL     1      -4.680  -9.547   2.812  1.00  0.00     0.211 HD
ENDBRANCH  23  28
BRANCH  24  30
ATOM     30  C   UNL     1      -3.340  -8.212   7.477  1.00  0.00     0.191 C 
BRANCH  30  31
ATOM     31  O   UNL     1      -3.202  -9.461   6.855  1.00  0.00    -0.394 OA
ATOM     32  H   UNL     1      -3.090  -9.276   5.886  1.00  0.00     0.210 HD
ENDBRANCH  30  31
ENDBRANCH  24  30
BRANCH  25  33
ATOM     33  O   UNL     1      -2.104  -8.107   4.796  1.00  0.00    -0.388 OA
ATOM     34  H   UNL     1      -2.082  -8.585   3.927  1.00  0.00     0.211 HD
ENDBRANCH  25  33
ENDBRANCH  11  20
BRANCH  10  35
ATOM     35  O   UNL     1      -8.410  -9.147   6.593  1.00  0.00    -0.507 OA
ATOM     36  H   UNL     1      -9.144  -9.780   6.880  1.00  0.00     0.293 HD
ENDBRANCH  10  35
TORSDOF 9
ENDMDL
MODEL 9
REMARK VINA RESULT:    -6.655     13.719     18.543
REMARK INTER + INTRA:          -9.053
REMARK INTER:                  -8.085
REMARK INTRA:                  -0.968
REMARK UNBOUND:                -0.064
REMARK SMILES O=c1c(-c2ccc(O)cc2)coc2c([C@@H]3O[C@@H](CO)[C@@H](O)[C@H](O)[C@@H]3O)c(O)ccc12
REMARK SMILES IDX 3 1 11 2 12 3 13 4 30 5 2 6 1 7 29 8 28 9 26 10 14 11 4 12
REMARK SMILES IDX 5 13 6 14 7 15 10 16 9 17 8 18 15 20 24 21 16 22 22 23 17 24
REMARK SMILES IDX 20 25 25 26 23 28 18 30 19 31 21 33 27 35
REMARK H PARENT 8 19 25 27 23 29 19 32 21 34 27 36
REMARK Flexibility Score: inf
ROOT
ATOM      1  C   UNL     1       1.123  -5.575  -6.580  1.00  0.00     0.065 A 
ATOM      2  C   UNL     1       2.051  -5.308  -5.565  1.00  0.00     0.208 A 
ATOM      3  O   UNL     1       3.328  -5.640  -5.704  1.00  0.00    -0.463 OA
ATOM      4  C   UNL     1       3.815  -6.237  -6.791  1.00  0.00     0.147 A 
ATOM      5  C   UNL     1       2.949  -6.529  -7.870  1.00  0.00     0.066 A 
ATOM      6  C   UNL     1       1.587  -6.190  -7.756  1.00  0.00     0.200 A 
ATOM      7  O   UNL     1       0.793  -6.416  -8.711  1.00  0.00    -0.288 OA
ATOM      8  C   UNL     1       3.461  -7.133  -9.026  1.00  0.00     0.020 A 
ATOM      9  C   UNL     1       4.820  -7.415  -9.125  1.00  0.00     0.047 A 
ATOM     10  C   UNL     1       5.695  -7.118  -8.078  1.00  0.00     0.125 A 
ATOM     11  C   UNL     1       5.194  -6.570  -6.864  1.00  0.00     0.069 A 
ENDROOT
BRANCH   1  12
ATOM     12  C   UNL     1      -0.302  -5.201  -6.399  1.00  0.00    -0.011 A 
ATOM     13  C   UNL     1      -1.132  -5.958  -5.552  1.00  0.00     0.013 A 
ATOM     14  C   UNL     1      -2.476  -5.612  -5.386  1.00  0.00     0.047 A 
ATOM     15  C   UNL     1      -3.010  -4.512  -6.064  1.00  0.00     0.115 A 
ATOM     16  C   UNL     1      -0.847  -4.100  -7.084  1.00  0.00     0.013 A 
ATOM     17  C   UNL     1      -2.192  -3.757  -6.915  1.00  0.00     0.047 A 
BRANCH  15  18
ATOM     18  O   UNL     1      -4.350  -4.180  -5.887  1.00  0.00    -0.508 OA
ATOM     19  H   UNL     1      -5.070  -4.533  -6.507  1.00  0.00     0.293 HD
ENDBRANCH  15  18
ENDBRANCH   1  12
BRANCH  11  20
ATOM     20  C   UNL     1       6.127  -6.294  -5.687  1.00  0.00     0.188 C 
ATOM     21  C   UNL     1       6.457  -7.611  -4.950  1.00  0.00     0.179 C 
ATOM     22  O   UNL     1       7.311  -5.640  -6.134  1.00  0.00    -0.362 OA
ATOM     23  C   UNL     1       7.359  -7.304  -3.743  1.00  0.00     0.177 C 
ATOM     24  C   UNL     1       8.175  -5.268  -5.067  1.00  0.00     0.176 C 
ATOM     25  C   UNL     1       8.586  -6.494  -4.206  1.00  0.00     0.177 C 
BRANCH  21  26
ATOM     26  O   UNL     1       7.101  -8.502  -5.828  1.00  0.00    -0.387 OA
ATOM     27  H   UNL     1       6.715  -8.350  -6.730  1.00  0.00     0.211 HD
ENDBRANCH  21  26
BRANCH  23  28
ATOM     28  O   UNL     1       7.787  -8.494  -3.133  1.00  0.00    -0.387 OA
ATOM     29  H   UNL     1       8.004  -8.270  -2.190  1.00  0.00     0.211 HD
ENDBRANCH  23  28
BRANCH  24  30
ATOM     30  C   UNL     1       7.615  -4.069  -4.270  1.00  0.00     0.191 C 
BRANCH  30  31
ATOM     31  O   UNL     1       8.622  -3.506  -3.473  1.00  0.00    -0.394 OA
ATOM     32  H   UNL     1       8.517  -2.523  -3.549  1.00  0.00     0.210 HD
ENDBRANCH  30  31
ENDBRANCH  24  30
BRANCH  25  33
ATOM     33  O   UNL     1       9.406  -6.121  -3.126  1.00  0.00    -0.388 OA
ATOM     34  H   UNL     1      10.073  -6.842  -2.982  1.00  0.00     0.211 HD
ENDBRANCH  25  33
ENDBRANCH  11  20
BRANCH  10  35
ATOM     35  O   UNL     1       7.053  -7.370  -8.293  1.00  0.00    -0.507 OA
ATOM     36  H   UNL     1       7.688  -6.727  -8.745  1.00  0.00     0.293 HD
ENDBRANCH  10  35
TORSDOF 9
ENDMDL
