MODEL 1
REMARK VINA RESULT:    -6.958      0.000      0.000
REMARK INTER + INTRA:         -10.096
REMARK INTER:                  -8.789
REMARK INTRA:                  -1.307
REMARK UNBOUND:                -1.307
REMARK SMILES O=C(C=Cc1ccc(O)cc1)c1ccc(O)cc1O
REMARK SMILES IDX 4 1 3 2 5 3 6 4 7 5 8 6 11 7 10 8 9 9 2 11 1 12 12 13 18 14
REMARK SMILES IDX 13 15 17 16 14 17 15 18 19 19 16 21
REMARK H PARENT 9 10 19 20 16 22
REMARK Flexibility Score: inf
ROOT
ATOM      1  C   UNL     1      18.909 -60.946   7.697  1.00  0.00     0.012 C 
ATOM      2  C   UNL     1      19.619 -60.553   6.626  1.00  0.00     0.053 C 
ENDROOT
BRANCH   1   3
ATOM      3  C   UNL     1      17.433 -60.949   7.780  1.00  0.00    -0.025 A 
ATOM      4  C   UNL     1      16.721 -62.076   7.345  1.00  0.00     0.012 A 
ATOM      5  C   UNL     1      15.324 -62.094   7.405  1.00  0.00     0.047 A 
ATOM      6  C   UNL     1      14.628 -60.993   7.920  1.00  0.00     0.115 A 
ATOM      7  C   UNL     1      16.732 -59.860   8.329  1.00  0.00     0.012 A 
ATOM      8  C   UNL     1      15.335 -59.880   8.386  1.00  0.00     0.047 A 
BRANCH   6   9
ATOM      9  O   UNL     1      13.236 -60.995   7.977  1.00  0.00    -0.508 OA
ATOM     10  H   UNL     1      12.737 -61.500   8.700  1.00  0.00     0.293 HD
ENDBRANCH   6   9
ENDBRANCH   1   3
BRANCH   2  11
ATOM     11  C   UNL     1      19.053 -60.183   5.310  1.00  0.00     0.189 C 
ATOM     12  O   UNL     1      19.339 -60.905   4.317  1.00  0.00    -0.289 OA
BRANCH  11  13
ATOM     13  C   UNL     1      18.143 -59.027   5.114  1.00  0.00     0.064 A 
ATOM     14  C   UNL     1      16.795 -59.199   4.733  1.00  0.00     0.130 A 
ATOM     15  C   UNL     1      18.636 -57.726   5.320  1.00  0.00     0.020 A 
ATOM     16  C   UNL     1      15.955 -58.082   4.613  1.00  0.00     0.093 A 
ATOM     17  C   UNL     1      17.792 -56.620   5.196  1.00  0.00     0.047 A 
ATOM     18  C   UNL     1      16.449 -56.796   4.848  1.00  0.00     0.119 A 
BRANCH  14  19
ATOM     19  O   UNL     1      16.294 -60.472   4.461  1.00  0.00    -0.507 OA
ATOM     20  H   UNL     1      16.905 -61.274   4.358  1.00  0.00     0.293 HD
ENDBRANCH  14  19
BRANCH  18  21
ATOM     21  O   UNL     1      15.596 -55.700   4.729  1.00  0.00    -0.508 OA
ATOM     22  H   UNL     1      14.679 -55.694   5.160  1.00  0.00     0.293 HD
ENDBRANCH  18  21
ENDBRANCH  11  13
ENDBRANCH   2  11
TORSDOF 6
ENDMDL
MODEL 2
REMARK VINA RESULT:    -6.834      2.438      3.322
REMARK INTER + INTRA:          -9.939
REMARK INTER:                  -9.036
REMARK INTRA:                  -0.903
REMARK UNBOUND:                -1.307
REMARK SMILES O=C(C=Cc1ccc(O)cc1)c1ccc(O)cc1O
REMARK SMILES IDX 4 1 3 2 5 3 6 4 7 5 8 6 11 7 10 8 9 9 2 11 1 12 12 13 18 14
REMARK SMILES IDX 13 15 17 16 14 17 15 18 19 19 16 21
REMARK H PARENT 9 10 19 20 16 22
REMARK Flexibility Score: inf
ROOT
ATOM      1  C   UNL     1      19.275 -60.366   7.562  1.00  0.00     0.012 C 
ATOM      2  C   UNL     1      20.255 -60.316   6.645  1.00  0.00     0.053 C 
ENDROOT
BRANCH   1   3
ATOM      3  C   UNL     1      17.830 -60.325   7.260  1.00  0.00    -0.025 A 
ATOM      4  C   UNL     1      17.263 -59.142   6.764  1.00  0.00     0.012 A 
ATOM      5  C   UNL     1      15.894 -59.079   6.483  1.00  0.00     0.047 A 
ATOM      6  C   UNL     1      15.085 -60.206   6.675  1.00  0.00     0.115 A 
ATOM      7  C   UNL     1      17.019 -61.464   7.419  1.00  0.00     0.012 A 
ATOM      8  C   UNL     1      15.651 -61.398   7.138  1.00  0.00     0.047 A 
BRANCH   6   9
ATOM      9  O   UNL     1      13.718 -60.153   6.407  1.00  0.00    -0.508 OA
ATOM     10  H   UNL     1      13.130 -60.973   6.496  1.00  0.00     0.293 HD
ENDBRANCH   6   9
ENDBRANCH   1   3
BRANCH   2  11
ATOM     11  C   UNL     1      20.061 -60.346   5.178  1.00  0.00     0.189 C 
ATOM     12  O   UNL     1      19.540 -61.375   4.670  1.00  0.00    -0.289 OA
BRANCH  11  13
ATOM     13  C   UNL     1      20.417 -59.212   4.290  1.00  0.00     0.064 A 
ATOM     14  C   UNL     1      21.230 -59.390   3.148  1.00  0.00     0.130 A 
ATOM     15  C   UNL     1      19.929 -57.929   4.589  1.00  0.00     0.020 A 
ATOM     16  C   UNL     1      21.497 -58.302   2.306  1.00  0.00     0.093 A 
ATOM     17  C   UNL     1      20.203 -56.851   3.744  1.00  0.00     0.047 A 
ATOM     18  C   UNL     1      20.982 -57.036   2.597  1.00  0.00     0.119 A 
BRANCH  14  19
ATOM     19  O   UNL     1      21.780 -60.639   2.859  1.00  0.00    -0.507 OA
ATOM     20  H   UNL     1      22.167 -61.231   3.585  1.00  0.00     0.293 HD
ENDBRANCH  14  19
BRANCH  18  21
ATOM     21  O   UNL     1      21.255 -55.969   1.744  1.00  0.00    -0.508 OA
ATOM     22  H   UNL     1      20.694 -55.126   1.754  1.00  0.00     0.293 HD
ENDBRANCH  18  21
ENDBRANCH  11  13
ENDBRANCH   2  11
TORSDOF 6
ENDMDL
MODEL 3
REMARK VINA RESULT:    -6.593      1.943      5.363
REMARK INTER + INTRA:          -9.635
REMARK INTER:                  -8.955
REMARK INTRA:                  -0.680
REMARK UNBOUND:                -1.307
REMARK SMILES O=C(C=Cc1ccc(O)cc1)c1ccc(O)cc1O
REMARK SMILES IDX 4 1 3 2 5 3 6 4 7 5 8 6 11 7 10 8 9 9 2 11 1 12 12 13 18 14
REMARK SMILES IDX 13 15 17 16 14 17 15 18 19 19 16 21
REMARK H PARENT 9 10 19 20 16 22
REMARK Flexibility Score: inf
ROOT
ATOM      1  C   UNL     1      17.531 -58.156   4.661  1.00  0.00     0.012 C 
ATOM      2  C   UNL     1      16.323 -58.402   5.194  1.00  0.00     0.053 C 
ENDROOT
BRANCH   1   3
ATOM      3  C   UNL     1      18.678 -59.087   4.698  1.00  0.00    -0.025 A 
ATOM      4  C   UNL     1      19.249 -59.524   3.493  1.00  0.00     0.012 A 
ATOM      5  C   UNL     1      20.328 -60.414   3.506  1.00  0.00     0.047 A 
ATOM      6  C   UNL     1      20.858 -60.858   4.724  1.00  0.00     0.115 A 
ATOM      7  C   UNL     1      19.237 -59.509   5.918  1.00  0.00     0.012 A 
ATOM      8  C   UNL     1      20.314 -60.400   5.927  1.00  0.00     0.047 A 
BRANCH   6   9
ATOM      9  O   UNL     1      21.927 -61.752   4.749  1.00  0.00    -0.508 OA
ATOM     10  H   UNL     1      21.826 -62.707   4.425  1.00  0.00     0.293 HD
ENDBRANCH   6   9
ENDBRANCH   1   3
BRANCH   2  11
ATOM     11  C   UNL     1      15.892 -59.687   5.789  1.00  0.00     0.189 C 
ATOM     12  O   UNL     1      16.008 -60.731   5.093  1.00  0.00    -0.289 OA
BRANCH  11  13
ATOM     13  C   UNL     1      15.365 -59.804   7.171  1.00  0.00     0.064 A 
ATOM     14  C   UNL     1      14.040 -60.221   7.428  1.00  0.00     0.130 A 
ATOM     15  C   UNL     1      16.207 -59.497   8.253  1.00  0.00     0.020 A 
ATOM     16  C   UNL     1      13.600 -60.371   8.750  1.00  0.00     0.093 A 
ATOM     17  C   UNL     1      15.758 -59.647   9.567  1.00  0.00     0.047 A 
ATOM     18  C   UNL     1      14.456 -60.091   9.818  1.00  0.00     0.119 A 
BRANCH  14  19
ATOM     19  O   UNL     1      13.161 -60.473   6.374  1.00  0.00    -0.507 OA
ATOM     20  H   UNL     1      12.602 -59.736   5.960  1.00  0.00     0.293 HD
ENDBRANCH  14  19
BRANCH  18  21
ATOM     21  O   UNL     1      14.000 -60.251  11.125  1.00  0.00    -0.508 OA
ATOM     22  H   UNL     1      14.585 -60.662  11.843  1.00  0.00     0.293 HD
ENDBRANCH  18  21
ENDBRANCH  11  13
ENDBRANCH   2  11
TORSDOF 6
ENDMDL
MODEL 4
REMARK VINA RESULT:    -6.319      1.876      2.688
REMARK INTER + INTRA:          -9.288
REMARK INTER:                  -8.738
REMARK INTRA:                  -0.551
REMARK UNBOUND:                -1.307
REMARK SMILES O=C(C=Cc1ccc(O)cc1)c1ccc(O)cc1O
REMARK SMILES IDX 4 1 3 2 5 3 6 4 7 5 8 6 11 7 10 8 9 9 2 11 1 12 12 13 18 14
REMARK SMILES IDX 13 15 17 16 14 17 15 18 19 19 16 21
REMARK H PARENT 9 10 19 20 16 22
REMARK Flexibility Score: inf
ROOT
ATOM      1  C   UNL     1      17.627 -61.761   6.999  1.00  0.00     0.012 C 
ATOM      2  C   UNL     1      18.146 -61.271   5.861  1.00  0.00     0.053 C 
ENDROOT
BRANCH   1   3
ATOM      3  C   UNL     1      16.449 -61.209   7.699  1.00  0.00    -0.025 A 
ATOM      4  C   UNL     1      16.597 -60.071   8.505  1.00  0.00     0.012 A 
ATOM      5  C   UNL     1      15.497 -59.539   9.185  1.00  0.00     0.047 A 
ATOM      6  C   UNL     1      14.234 -60.129   9.048  1.00  0.00     0.115 A 
ATOM      7  C   UNL     1      15.172 -61.777   7.537  1.00  0.00     0.012 A 
ATOM      8  C   UNL     1      14.074 -61.245   8.220  1.00  0.00     0.047 A 
BRANCH   6   9
ATOM      9  O   UNL     1      13.132 -59.614   9.727  1.00  0.00    -0.508 OA
ATOM     10  H   UNL     1      12.844 -59.985  10.626  1.00  0.00     0.293 HD
ENDBRANCH   6   9
ENDBRANCH   1   3
BRANCH   2  11
ATOM     11  C   UNL     1      17.557 -60.185   5.046  1.00  0.00     0.189 C 
ATOM     12  O   UNL     1      16.321 -60.232   4.801  1.00  0.00    -0.289 OA
BRANCH  11  13
ATOM     13  C   UNL     1      18.344 -59.035   4.537  1.00  0.00     0.064 A 
ATOM     14  C   UNL     1      18.002 -57.703   4.855  1.00  0.00     0.130 A 
ATOM     15  C   UNL     1      19.462 -59.279   3.721  1.00  0.00     0.020 A 
ATOM     16  C   UNL     1      18.806 -56.648   4.399  1.00  0.00     0.093 A 
ATOM     17  C   UNL     1      20.254 -58.221   3.268  1.00  0.00     0.047 A 
ATOM     18  C   UNL     1      19.931 -56.904   3.612  1.00  0.00     0.119 A 
BRANCH  14  19
ATOM     19  O   UNL     1      16.863 -57.426   5.612  1.00  0.00    -0.507 OA
ATOM     20  H   UNL     1      16.786 -56.583   6.169  1.00  0.00     0.293 HD
ENDBRANCH  14  19
BRANCH  18  21
ATOM     21  O   UNL     1      20.719 -55.842   3.173  1.00  0.00    -0.508 OA
ATOM     22  H   UNL     1      21.101 -55.163   3.820  1.00  0.00     0.293 HD
ENDBRANCH  18  21
ENDBRANCH  11  13
ENDBRANCH   2  11
TORSDOF 6
ENDMDL
MODEL 5
REMARK VINA RESULT:    -6.311      2.139      5.236
REMARK INTER + INTRA:          -9.278
REMARK INTER:                  -8.611
REMARK INTRA:                  -0.667
REMARK UNBOUND:                -1.307
REMARK SMILES O=C(C=Cc1ccc(O)cc1)c1ccc(O)cc1O
REMARK SMILES IDX 4 1 3 2 5 3 6 4 7 5 8 6 11 7 10 8 9 9 2 11 1 12 12 13 18 14
REMARK SMILES IDX 13 15 17 16 14 17 15 18 19 19 16 21
REMARK H PARENT 9 10 19 20 16 22
REMARK Flexibility Score: inf
ROOT
ATOM      1  C   UNL     1      19.016 -61.376   6.153  1.00  0.00     0.012 C 
ATOM      2  C   UNL     1      17.775 -61.739   6.518  1.00  0.00     0.053 C 
ENDROOT
BRANCH   1   3
ATOM      3  C   UNL     1      19.348 -60.178   5.354  1.00  0.00    -0.025 A 
ATOM      4  C   UNL     1      19.633 -60.319   3.989  1.00  0.00     0.012 A 
ATOM      5  C   UNL     1      19.961 -59.199   3.217  1.00  0.00     0.047 A 
ATOM      6  C   UNL     1      19.985 -57.926   3.800  1.00  0.00     0.115 A 
ATOM      7  C   UNL     1      19.339 -58.894   5.927  1.00  0.00     0.012 A 
ATOM      8  C   UNL     1      19.669 -57.776   5.154  1.00  0.00     0.047 A 
BRANCH   6   9
ATOM      9  O   UNL     1      20.318 -56.805   3.044  1.00  0.00    -0.508 OA
ATOM     10  H   UNL     1      21.141 -56.250   3.254  1.00  0.00     0.293 HD
ENDBRANCH   6   9
ENDBRANCH   1   3
BRANCH   2  11
ATOM     11  C   UNL     1      16.548 -60.941   6.298  1.00  0.00     0.189 C 
ATOM     12  O   UNL     1      16.288 -60.564   5.124  1.00  0.00    -0.289 OA
BRANCH  11  13
ATOM     13  C   UNL     1      15.599 -60.598   7.386  1.00  0.00     0.064 A 
ATOM     14  C   UNL     1      14.243 -60.988   7.339  1.00  0.00     0.130 A 
ATOM     15  C   UNL     1      16.064 -59.869   8.494  1.00  0.00     0.020 A 
ATOM     16  C   UNL     1      13.394 -60.691   8.414  1.00  0.00     0.093 A 
ATOM     17  C   UNL     1      15.209 -59.575   9.559  1.00  0.00     0.047 A 
ATOM     18  C   UNL     1      13.873 -59.991   9.524  1.00  0.00     0.119 A 
BRANCH  14  19
ATOM     19  O   UNL     1      13.738 -61.658   6.225  1.00  0.00    -0.507 OA
ATOM     20  H   UNL     1      13.671 -62.669   6.196  1.00  0.00     0.293 HD
ENDBRANCH  14  19
BRANCH  18  21
ATOM     21  O   UNL     1      13.014 -59.710  10.584  1.00  0.00    -0.508 OA
ATOM     22  H   UNL     1      13.354 -59.635  11.536  1.00  0.00     0.293 HD
ENDBRANCH  18  21
ENDBRANCH  11  13
ENDBRANCH   2  11
TORSDOF 6
ENDMDL
MODEL 6
REMARK VINA RESULT:    -6.233      2.152      5.249
REMARK INTER + INTRA:          -9.179
REMARK INTER:                  -8.635
REMARK INTRA:                  -0.544
REMARK UNBOUND:                -1.307
REMARK SMILES O=C(C=Cc1ccc(O)cc1)c1ccc(O)cc1O
REMARK SMILES IDX 4 1 3 2 5 3 6 4 7 5 8 6 11 7 10 8 9 9 2 11 1 12 12 13 18 14
REMARK SMILES IDX 13 15 17 16 14 17 15 18 19 19 16 21
REMARK H PARENT 9 10 19 20 16 22
REMARK Flexibility Score: inf
ROOT
ATOM      1  C   UNL     1      20.493 -59.622   6.818  1.00  0.00     0.012 C 
ATOM      2  C   UNL     1      19.473 -60.267   7.407  1.00  0.00     0.053 C 
ENDROOT
BRANCH   1   3
ATOM      3  C   UNL     1      20.661 -59.454   5.360  1.00  0.00    -0.025 A 
ATOM      4  C   UNL     1      21.491 -60.339   4.656  1.00  0.00     0.012 A 
ATOM      5  C   UNL     1      21.673 -60.190   3.277  1.00  0.00     0.047 A 
ATOM      6  C   UNL     1      21.009 -59.169   2.587  1.00  0.00     0.115 A 
ATOM      7  C   UNL     1      19.970 -58.451   4.657  1.00  0.00     0.012 A 
ATOM      8  C   UNL     1      20.154 -58.304   3.279  1.00  0.00     0.047 A 
BRANCH   6   9
ATOM      9  O   UNL     1      21.189 -59.005   1.215  1.00  0.00    -0.508 OA
ATOM     10  H   UNL     1      20.599 -58.382   0.675  1.00  0.00     0.293 HD
ENDBRANCH   6   9
ENDBRANCH   1   3
BRANCH   2  11
ATOM     11  C   UNL     1      18.281 -60.803   6.712  1.00  0.00     0.189 C 
ATOM     12  O   UNL     1      18.463 -61.586   5.741  1.00  0.00    -0.289 OA
BRANCH  11  13
ATOM     13  C   UNL     1      16.891 -60.488   7.125  1.00  0.00     0.064 A 
ATOM     14  C   UNL     1      15.823 -60.488   6.201  1.00  0.00     0.130 A 
ATOM     15  C   UNL     1      16.630 -60.188   8.473  1.00  0.00     0.020 A 
ATOM     16  C   UNL     1      14.517 -60.239   6.645  1.00  0.00     0.093 A 
ATOM     17  C   UNL     1      15.325 -59.938   8.904  1.00  0.00     0.047 A 
ATOM     18  C   UNL     1      14.265 -59.970   7.992  1.00  0.00     0.119 A 
BRANCH  14  19
ATOM     19  O   UNL     1      16.060 -60.721   4.846  1.00  0.00    -0.507 OA
ATOM     20  H   UNL     1      15.670 -61.525   4.368  1.00  0.00     0.293 HD
ENDBRANCH  14  19
BRANCH  18  21
ATOM     21  O   UNL     1      12.958 -59.730   8.413  1.00  0.00    -0.508 OA
ATOM     22  H   UNL     1      12.754 -59.421   9.356  1.00  0.00     0.293 HD
ENDBRANCH  18  21
ENDBRANCH  11  13
ENDBRANCH   2  11
TORSDOF 6
ENDMDL
MODEL 7
REMARK VINA RESULT:    -6.175      2.695      5.771
REMARK INTER + INTRA:          -9.106
REMARK INTER:                  -8.691
REMARK INTRA:                  -0.415
REMARK UNBOUND:                -1.307
REMARK SMILES O=C(C=Cc1ccc(O)cc1)c1ccc(O)cc1O
REMARK SMILES IDX 4 1 3 2 5 3 6 4 7 5 8 6 11 7 10 8 9 9 2 11 1 12 12 13 18 14
REMARK SMILES IDX 13 15 17 16 14 17 15 18 19 19 16 21
REMARK H PARENT 9 10 19 20 16 22
REMARK Flexibility Score: inf
ROOT
ATOM      1  C   UNL     1      20.368 -60.721   3.364  1.00  0.00     0.012 C 
ATOM      2  C   UNL     1      20.013 -61.376   4.482  1.00  0.00     0.053 C 
ENDROOT
BRANCH   1   3
ATOM      3  C   UNL     1      20.444 -59.251   3.232  1.00  0.00    -0.025 A 
ATOM      4  C   UNL     1      21.460 -58.682   2.451  1.00  0.00     0.012 A 
ATOM      5  C   UNL     1      21.557 -57.293   2.322  1.00  0.00     0.047 A 
ATOM      6  C   UNL     1      20.626 -56.461   2.958  1.00  0.00     0.115 A 
ATOM      7  C   UNL     1      19.491 -58.414   3.840  1.00  0.00     0.012 A 
ATOM      8  C   UNL     1      19.592 -57.025   3.711  1.00  0.00     0.047 A 
BRANCH   6   9
ATOM      9  O   UNL     1      20.717 -55.076   2.845  1.00  0.00    -0.508 OA
ATOM     10  H   UNL     1      20.037 -54.463   3.281  1.00  0.00     0.293 HD
ENDBRANCH   6   9
ENDBRANCH   1   3
BRANCH   2  11
ATOM     11  C   UNL     1      19.767 -60.753   5.802  1.00  0.00     0.189 C 
ATOM     12  O   UNL     1      20.754 -60.280   6.427  1.00  0.00    -0.289 OA
BRANCH  11  13
ATOM     13  C   UNL     1      18.415 -60.630   6.401  1.00  0.00     0.064 A 
ATOM     14  C   UNL     1      18.225 -60.567   7.799  1.00  0.00     0.130 A 
ATOM     15  C   UNL     1      17.295 -60.568   5.554  1.00  0.00     0.020 A 
ATOM     16  C   UNL     1      16.935 -60.396   8.320  1.00  0.00     0.093 A 
ATOM     17  C   UNL     1      16.014 -60.400   6.084  1.00  0.00     0.047 A 
ATOM     18  C   UNL     1      15.832 -60.307   7.468  1.00  0.00     0.119 A 
BRANCH  14  19
ATOM     19  O   UNL     1      19.311 -60.688   8.666  1.00  0.00    -0.507 OA
ATOM     20  H   UNL     1      19.366 -61.436   9.348  1.00  0.00     0.293 HD
ENDBRANCH  14  19
BRANCH  18  21
ATOM     21  O   UNL     1      14.559 -60.131   8.007  1.00  0.00    -0.508 OA
ATOM     22  H   UNL     1      14.173 -60.785   8.677  1.00  0.00     0.293 HD
ENDBRANCH  18  21
ENDBRANCH  11  13
ENDBRANCH   2  11
TORSDOF 6
ENDMDL
MODEL 8
REMARK VINA RESULT:    -6.132      3.079      4.274
REMARK INTER + INTRA:          -9.052
REMARK INTER:                  -7.960
REMARK INTRA:                  -1.092
REMARK UNBOUND:                -1.307
REMARK SMILES O=C(C=Cc1ccc(O)cc1)c1ccc(O)cc1O
REMARK SMILES IDX 4 1 3 2 5 3 6 4 7 5 8 6 11 7 10 8 9 9 2 11 1 12 12 13 18 14
REMARK SMILES IDX 13 15 17 16 14 17 15 18 19 19 16 21
REMARK H PARENT 9 10 19 20 16 22
REMARK Flexibility Score: inf
ROOT
ATOM      1  C   UNL     1      21.912 -60.610   4.427  1.00  0.00     0.012 C 
ATOM      2  C   UNL     1      21.971 -59.945   3.261  1.00  0.00     0.053 C 
ENDROOT
BRANCH   1   3
ATOM      3  C   UNL     1      20.760 -60.596   5.353  1.00  0.00    -0.025 A 
ATOM      4  C   UNL     1      20.805 -59.782   6.494  1.00  0.00     0.012 A 
ATOM      5  C   UNL     1      19.730 -59.762   7.389  1.00  0.00     0.047 A 
ATOM      6  C   UNL     1      18.593 -60.540   7.139  1.00  0.00     0.115 A 
ATOM      7  C   UNL     1      19.602 -61.349   5.088  1.00  0.00     0.012 A 
ATOM      8  C   UNL     1      18.530 -61.329   5.986  1.00  0.00     0.047 A 
BRANCH   6   9
ATOM      9  O   UNL     1      17.520 -60.536   8.028  1.00  0.00    -0.508 OA
ATOM     10  H   UNL     1      16.570 -60.384   7.709  1.00  0.00     0.293 HD
ENDBRANCH   6   9
ENDBRANCH   1   3
BRANCH   2  11
ATOM     11  C   UNL     1      20.855 -59.194   2.644  1.00  0.00     0.189 C 
ATOM     12  O   UNL     1      19.999 -59.841   1.984  1.00  0.00    -0.289 OA
BRANCH  11  13
ATOM     13  C   UNL     1      20.683 -57.728   2.794  1.00  0.00     0.064 A 
ATOM     14  C   UNL     1      19.659 -57.178   3.596  1.00  0.00     0.130 A 
ATOM     15  C   UNL     1      21.566 -56.863   2.124  1.00  0.00     0.020 A 
ATOM     16  C   UNL     1      19.567 -55.788   3.754  1.00  0.00     0.093 A 
ATOM     17  C   UNL     1      21.464 -55.480   2.287  1.00  0.00     0.047 A 
ATOM     18  C   UNL     1      20.468 -54.940   3.107  1.00  0.00     0.119 A 
BRANCH  14  19
ATOM     19  O   UNL     1      18.729 -58.009   4.222  1.00  0.00    -0.507 OA
ATOM     20  H   UNL     1      18.714 -58.126   5.229  1.00  0.00     0.293 HD
ENDBRANCH  14  19
BRANCH  18  21
ATOM     21  O   UNL     1      20.362 -53.561   3.282  1.00  0.00    -0.508 OA
ATOM     22  H   UNL     1      21.022 -53.048   3.854  1.00  0.00     0.293 HD
ENDBRANCH  18  21
ENDBRANCH  11  13
ENDBRANCH   2  11
TORSDOF 6
ENDMDL
MODEL 9
REMARK VINA RESULT:    -5.985      2.214      5.218
REMARK INTER + INTRA:          -8.866
REMARK INTER:                  -7.933
REMARK INTRA:                  -0.933
REMARK UNBOUND:                -1.307
REMARK SMILES O=C(C=Cc1ccc(O)cc1)c1ccc(O)cc1O
REMARK SMILES IDX 4 1 3 2 5 3 6 4 7 5 8 6 11 7 10 8 9 9 2 11 1 12 12 13 18 14
REMARK SMILES IDX 13 15 17 16 14 17 15 18 19 19 16 21
REMARK H PARENT 9 10 19 20 16 22
REMARK Flexibility Score: inf
ROOT
ATOM      1  C   UNL     1      17.454 -61.449   5.435  1.00  0.00     0.012 C 
ATOM      2  C   UNL     1      16.178 -61.028   5.466  1.00  0.00     0.053 C 
ENDROOT
BRANCH   1   3
ATOM      3  C   UNL     1      18.603 -60.713   6.000  1.00  0.00    -0.025 A 
ATOM      4  C   UNL     1      18.943 -60.896   7.348  1.00  0.00     0.012 A 
ATOM      5  C   UNL     1      20.020 -60.200   7.906  1.00  0.00     0.047 A 
ATOM      6  C   UNL     1      20.780 -59.330   7.114  1.00  0.00     0.115 A 
ATOM      7  C   UNL     1      19.390 -59.864   5.201  1.00  0.00     0.012 A 
ATOM      8  C   UNL     1      20.465 -59.168   5.761  1.00  0.00     0.047 A 
BRANCH   6   9
ATOM      9  O   UNL     1      21.849 -58.623   7.660  1.00  0.00    -0.508 OA
ATOM     10  H   UNL     1      22.744 -59.068   7.831  1.00  0.00     0.293 HD
ENDBRANCH   6   9
ENDBRANCH   1   3
BRANCH   2  11
ATOM     11  C   UNL     1      15.688 -59.829   6.182  1.00  0.00     0.189 C 
ATOM     12  O   UNL     1      15.759 -58.717   5.593  1.00  0.00    -0.289 OA
BRANCH  11  13
ATOM     13  C   UNL     1      15.089 -59.883   7.538  1.00  0.00     0.064 A 
ATOM     14  C   UNL     1      13.767 -60.333   7.750  1.00  0.00     0.130 A 
ATOM     15  C   UNL     1      15.860 -59.481   8.643  1.00  0.00     0.020 A 
ATOM     16  C   UNL     1      13.260 -60.420   9.054  1.00  0.00     0.093 A 
ATOM     17  C   UNL     1      15.344 -59.570   9.938  1.00  0.00     0.047 A 
ATOM     18  C   UNL     1      14.045 -60.045  10.147  1.00  0.00     0.119 A 
BRANCH  14  19
ATOM     19  O   UNL     1      12.957 -60.679   6.668  1.00  0.00    -0.507 OA
ATOM     20  H   UNL     1      13.285 -60.608   5.712  1.00  0.00     0.293 HD
ENDBRANCH  14  19
BRANCH  18  21
ATOM     21  O   UNL     1      13.523 -60.145  11.435  1.00  0.00    -0.508 OA
ATOM     22  H   UNL     1      12.592 -60.506  11.602  1.00  0.00     0.293 HD
ENDBRANCH  18  21
ENDBRANCH  11  13
ENDBRANCH   2  11
TORSDOF 6
ENDMDL
