MODEL 1
REMARK VINA RESULT:    -4.025      0.000      0.000
REMARK INTER + INTRA:          -5.059
REMARK INTER:                  -4.731
REMARK INTRA:                  -0.327
REMARK UNBOUND:                -0.327
REMARK SMILES COc1ccc(C=CC(=O)[O-])cc1
REMARK SMILES IDX 6 1 5 2 12 3 4 4 13 5 3 6 7 7 8 8 9 9 10 10 11 11 2 12 1 13
REMARK H PARENT
REMARK Flexibility Score: inf
ROOT
ATOM      1  C   UNL     1      -4.204 -17.927  -7.669  1.00  0.00    -0.025 A 
ATOM      2  C   UNL     1      -4.198 -18.433  -6.357  1.00  0.00     0.012 A 
ATOM      3  C   UNL     1      -4.191 -16.540  -7.866  1.00  0.00     0.012 A 
ATOM      4  C   UNL     1      -4.235 -17.562  -5.264  1.00  0.00     0.047 A 
ATOM      5  C   UNL     1      -4.228 -15.669  -6.773  1.00  0.00     0.047 A 
ATOM      6  C   UNL     1      -4.254 -16.169  -5.466  1.00  0.00     0.118 A 
ENDROOT
BRANCH   1   7
ATOM      7  C   UNL     1      -4.112 -18.826  -8.836  1.00  0.00     0.010 C 
ATOM      8  C   UNL     1      -5.155 -19.368  -9.486  1.00  0.00     0.025 C 
BRANCH   8   9
ATOM      9  C   UNL     1      -6.575 -19.028  -9.271  1.00  0.00     0.064 C 
ATOM     10  O   UNL     1      -7.313 -19.720  -8.521  1.00  0.00    -0.545 OA
ATOM     11  O   UNL     1      -7.090 -17.878  -9.855  1.00  0.00    -0.545 OA
ENDBRANCH   8   9
ENDBRANCH   1   7
BRANCH   6  12
ATOM     12  O   UNL     1      -4.293 -15.255  -4.403  1.00  0.00    -0.497 OA
ATOM     13  C   UNL     1      -3.241 -15.073  -3.461  1.00  0.00     0.278 C 
ENDBRANCH   6  12
TORSDOF 3
ENDMDL
MODEL 2
REMARK VINA RESULT:    -4.005      1.655      5.327
REMARK INTER + INTRA:          -5.035
REMARK INTER:                  -4.726
REMARK INTRA:                  -0.309
REMARK UNBOUND:                -0.327
REMARK SMILES COc1ccc(C=CC(=O)[O-])cc1
REMARK SMILES IDX 6 1 5 2 12 3 4 4 13 5 3 6 7 7 8 8 9 9 10 10 11 11 2 12 1 13
REMARK H PARENT
REMARK Flexibility Score: inf
ROOT
ATOM      1  C   UNL     1      -4.692 -17.049  -7.756  1.00  0.00    -0.025 A 
ATOM      2  C   UNL     1      -3.775 -17.949  -8.326  1.00  0.00     0.012 A 
ATOM      3  C   UNL     1      -6.060 -17.220  -8.002  1.00  0.00     0.012 A 
ATOM      4  C   UNL     1      -4.219 -18.969  -9.172  1.00  0.00     0.047 A 
ATOM      5  C   UNL     1      -6.505 -18.240  -8.848  1.00  0.00     0.047 A 
ATOM      6  C   UNL     1      -5.592 -19.119  -9.443  1.00  0.00     0.118 A 
ENDROOT
BRANCH   1   7
ATOM      7  C   UNL     1      -4.249 -15.997  -6.819  1.00  0.00     0.010 C 
ATOM      8  C   UNL     1      -4.063 -16.158  -5.499  1.00  0.00     0.025 C 
BRANCH   8   9
ATOM      9  C   UNL     1      -4.089 -17.444  -4.775  1.00  0.00     0.064 C 
ATOM     10  O   UNL     1      -5.132 -17.858  -4.204  1.00  0.00    -0.545 OA
ATOM     11  O   UNL     1      -2.957 -18.248  -4.785  1.00  0.00    -0.545 OA
ENDBRANCH   8   9
ENDBRANCH   1   7
BRANCH   6  12
ATOM     12  O   UNL     1      -6.088 -20.125 -10.285  1.00  0.00    -0.497 OA
ATOM     13  C   UNL     1      -6.821 -19.881 -11.482  1.00  0.00     0.278 C 
ENDBRANCH   6  12
TORSDOF 3
ENDMDL
MODEL 3
REMARK VINA RESULT:    -3.937      0.359      1.386
REMARK INTER + INTRA:          -4.954
REMARK INTER:                  -4.628
REMARK INTRA:                  -0.327
REMARK UNBOUND:                -0.327
REMARK SMILES COc1ccc(C=CC(=O)[O-])cc1
REMARK SMILES IDX 6 1 5 2 12 3 4 4 13 5 3 6 7 7 8 8 9 9 10 10 11 11 2 12 1 13
REMARK H PARENT
REMARK Flexibility Score: inf
ROOT
ATOM      1  C   UNL     1      -4.211 -18.114  -7.768  1.00  0.00    -0.025 A 
ATOM      2  C   UNL     1      -4.244 -16.709  -7.817  1.00  0.00     0.012 A 
ATOM      3  C   UNL     1      -4.294 -18.756  -6.525  1.00  0.00     0.012 A 
ATOM      4  C   UNL     1      -4.305 -15.962  -6.637  1.00  0.00     0.047 A 
ATOM      5  C   UNL     1      -4.355 -18.009  -5.346  1.00  0.00     0.047 A 
ATOM      6  C   UNL     1      -4.357 -16.610  -5.389  1.00  0.00     0.118 A 
ENDROOT
BRANCH   1   7
ATOM      7  C   UNL     1      -4.200 -18.923  -9.003  1.00  0.00     0.010 C 
ATOM      8  C   UNL     1      -5.287 -19.364  -9.655  1.00  0.00     0.025 C 
BRANCH   8   9
ATOM      9  C   UNL     1      -6.682 -18.976  -9.366  1.00  0.00     0.064 C 
ATOM     10  O   UNL     1      -7.380 -19.603  -8.527  1.00  0.00    -0.545 OA
ATOM     11  O   UNL     1      -7.212 -17.850  -9.983  1.00  0.00    -0.545 OA
ENDBRANCH   8   9
ENDBRANCH   1   7
BRANCH   6  12
ATOM     12  O   UNL     1      -4.417 -15.906  -4.177  1.00  0.00    -0.497 OA
ATOM     13  C   UNL     1      -3.530 -14.852  -3.816  1.00  0.00     0.278 C 
ENDBRANCH   6  12
TORSDOF 3
ENDMDL
MODEL 4
REMARK VINA RESULT:    -3.929     14.696     15.855
REMARK INTER + INTRA:          -4.945
REMARK INTER:                  -4.643
REMARK INTRA:                  -0.302
REMARK UNBOUND:                -0.327
REMARK SMILES COc1ccc(C=CC(=O)[O-])cc1
REMARK SMILES IDX 6 1 5 2 12 3 4 4 13 5 3 6 7 7 8 8 9 9 10 10 11 11 2 12 1 13
REMARK H PARENT
REMARK Flexibility Score: inf
ROOT
ATOM      1  C   UNL     1      -6.907  -1.851  -7.536  1.00  0.00    -0.025 A 
ATOM      2  C   UNL     1      -6.213  -0.636  -7.398  1.00  0.00     0.012 A 
ATOM      3  C   UNL     1      -6.215  -3.057  -7.360  1.00  0.00     0.012 A 
ATOM      4  C   UNL     1      -4.838  -0.632  -7.143  1.00  0.00     0.047 A 
ATOM      5  C   UNL     1      -4.841  -3.053  -7.104  1.00  0.00     0.047 A 
ATOM      6  C   UNL     1      -4.140  -1.846  -6.997  1.00  0.00     0.118 A 
ENDROOT
BRANCH   1   7
ATOM      7  C   UNL     1      -8.367  -1.878  -7.754  1.00  0.00     0.010 C 
ATOM      8  C   UNL     1      -8.975  -1.964  -8.948  1.00  0.00     0.025 C 
BRANCH   8   9
ATOM      9  C   UNL     1      -8.308  -2.228 -10.238  1.00  0.00     0.064 C 
ATOM     10  O   UNL     1      -8.344  -3.364 -10.779  1.00  0.00    -0.545 OA
ATOM     11  O   UNL     1      -7.685  -1.180 -10.902  1.00  0.00    -0.545 OA
ENDBRANCH   8   9
ENDBRANCH   1   7
BRANCH   6  12
ATOM     12  O   UNL     1      -2.762  -1.896  -6.742  1.00  0.00    -0.497 OA
ATOM     13  C   UNL     1      -1.776  -2.212  -7.719  1.00  0.00     0.278 C 
ENDBRANCH   6  12
TORSDOF 3
ENDMDL
MODEL 5
REMARK VINA RESULT:    -3.721     14.247     15.519
REMARK INTER + INTRA:          -4.701
REMARK INTER:                  -4.723
REMARK INTRA:                   0.022
REMARK UNBOUND:                -0.327
REMARK SMILES COc1ccc(C=CC(=O)[O-])cc1
REMARK SMILES IDX 6 1 5 2 12 3 4 4 13 5 3 6 7 7 8 8 9 9 10 10 11 11 2 12 1 13
REMARK H PARENT
REMARK Flexibility Score: inf
ROOT
ATOM      1  C   UNL     1      -3.973 -19.197 -22.079  1.00  0.00    -0.025 A 
ATOM      2  C   UNL     1      -3.162 -19.673 -23.123  1.00  0.00     0.012 A 
ATOM      3  C   UNL     1      -3.375 -18.805 -20.874  1.00  0.00     0.012 A 
ATOM      4  C   UNL     1      -1.782 -19.806 -22.943  1.00  0.00     0.047 A 
ATOM      5  C   UNL     1      -1.995 -18.938 -20.693  1.00  0.00     0.047 A 
ATOM      6  C   UNL     1      -1.188 -19.442 -21.719  1.00  0.00     0.118 A 
ENDROOT
BRANCH   1   7
ATOM      7  C   UNL     1      -5.424 -18.999 -22.266  1.00  0.00     0.010 C 
ATOM      8  C   UNL     1      -6.047 -17.811 -22.323  1.00  0.00     0.025 C 
BRANCH   8   9
ATOM      9  C   UNL     1      -5.386 -16.493 -22.389  1.00  0.00     0.064 C 
ATOM     10  O   UNL     1      -4.381 -16.296 -23.122  1.00  0.00    -0.545 OA
ATOM     11  O   UNL     1      -5.928 -15.429 -21.681  1.00  0.00    -0.545 OA
ENDBRANCH   8   9
ENDBRANCH   1   7
BRANCH   6  12
ATOM     12  O   UNL     1       0.190 -19.558 -21.487  1.00  0.00    -0.497 OA
ATOM     13  C   UNL     1       1.148 -19.889 -22.487  1.00  0.00     0.278 C 
ENDBRANCH   6  12
TORSDOF 3
ENDMDL
MODEL 6
REMARK VINA RESULT:    -3.697     14.234     15.664
REMARK INTER + INTRA:          -4.673
REMARK INTER:                  -4.431
REMARK INTRA:                  -0.242
REMARK UNBOUND:                -0.327
REMARK SMILES COc1ccc(C=CC(=O)[O-])cc1
REMARK SMILES IDX 6 1 5 2 12 3 4 4 13 5 3 6 7 7 8 8 9 9 10 10 11 11 2 12 1 13
REMARK H PARENT
REMARK Flexibility Score: inf
ROOT
ATOM      1  C   UNL     1      -5.929  -3.598  -5.027  1.00  0.00    -0.025 A 
ATOM      2  C   UNL     1      -5.374  -3.620  -6.318  1.00  0.00     0.012 A 
ATOM      3  C   UNL     1      -7.089  -2.848  -4.794  1.00  0.00     0.012 A 
ATOM      4  C   UNL     1      -5.942  -2.859  -7.345  1.00  0.00     0.047 A 
ATOM      5  C   UNL     1      -7.657  -2.087  -5.820  1.00  0.00     0.047 A 
ATOM      6  C   UNL     1      -7.090  -2.082  -7.100  1.00  0.00     0.118 A 
ENDROOT
BRANCH   1   7
ATOM      7  C   UNL     1      -5.377  -4.435  -3.943  1.00  0.00     0.010 C 
ATOM      8  C   UNL     1      -4.286  -4.146  -3.215  1.00  0.00     0.025 C 
BRANCH   8   9
ATOM      9  C   UNL     1      -3.547  -2.869  -3.239  1.00  0.00     0.064 C 
ATOM     10  O   UNL     1      -4.084  -1.789  -2.875  1.00  0.00    -0.545 OA
ATOM     11  O   UNL     1      -2.207  -2.870  -3.606  1.00  0.00    -0.545 OA
ENDBRANCH   8   9
ENDBRANCH   1   7
BRANCH   6  12
ATOM     12  O   UNL     1      -7.696  -1.300  -8.094  1.00  0.00    -0.497 OA
ATOM     13  C   UNL     1      -7.857  -1.707  -9.449  1.00  0.00     0.278 C 
ENDBRANCH   6  12
TORSDOF 3
ENDMDL
MODEL 7
REMARK VINA RESULT:    -3.564     14.585     15.516
REMARK INTER + INTRA:          -4.516
REMARK INTER:                  -4.230
REMARK INTRA:                  -0.286
REMARK UNBOUND:                -0.327
REMARK SMILES COc1ccc(C=CC(=O)[O-])cc1
REMARK SMILES IDX 6 1 5 2 12 3 4 4 13 5 3 6 7 7 8 8 9 9 10 10 11 11 2 12 1 13
REMARK H PARENT
REMARK Flexibility Score: inf
ROOT
ATOM      1  C   UNL     1      -5.649  -3.359  -4.826  1.00  0.00    -0.025 A 
ATOM      2  C   UNL     1      -4.564  -2.647  -4.287  1.00  0.00     0.012 A 
ATOM      3  C   UNL     1      -5.751  -3.500  -6.217  1.00  0.00     0.012 A 
ATOM      4  C   UNL     1      -3.627  -2.041  -5.130  1.00  0.00     0.047 A 
ATOM      5  C   UNL     1      -4.814  -2.894  -7.059  1.00  0.00     0.047 A 
ATOM      6  C   UNL     1      -3.749  -2.159  -6.527  1.00  0.00     0.118 A 
ENDROOT
BRANCH   1   7
ATOM      7  C   UNL     1      -6.620  -4.050  -3.955  1.00  0.00     0.010 C 
ATOM      8  C   UNL     1      -7.812  -3.562  -3.576  1.00  0.00     0.025 C 
BRANCH   8   9
ATOM      9  C   UNL     1      -8.446  -2.335  -4.097  1.00  0.00     0.064 C 
ATOM     10  O   UNL     1      -9.113  -2.341  -5.166  1.00  0.00    -0.545 OA
ATOM     11  O   UNL     1      -8.364  -1.164  -3.356  1.00  0.00    -0.545 OA
ENDBRANCH   8   9
ENDBRANCH   1   7
BRANCH   6  12
ATOM     12  O   UNL     1      -2.837  -1.568  -7.415  1.00  0.00    -0.497 OA
ATOM     13  C   UNL     1      -1.603  -2.159  -7.809  1.00  0.00     0.278 C 
ENDBRANCH   6  12
TORSDOF 3
ENDMDL
MODEL 8
REMARK VINA RESULT:    -3.464      1.774      4.914
REMARK INTER + INTRA:          -4.399
REMARK INTER:                  -4.089
REMARK INTRA:                  -0.309
REMARK UNBOUND:                -0.327
REMARK SMILES COc1ccc(C=CC(=O)[O-])cc1
REMARK SMILES IDX 6 1 5 2 12 3 4 4 13 5 3 6 7 7 8 8 9 9 10 10 11 11 2 12 1 13
REMARK H PARENT
REMARK Flexibility Score: inf
ROOT
ATOM      1  C   UNL     1      -4.063 -16.614  -5.745  1.00  0.00    -0.025 A 
ATOM      2  C   UNL     1      -4.034 -17.994  -5.478  1.00  0.00     0.012 A 
ATOM      3  C   UNL     1      -4.275 -16.176  -7.058  1.00  0.00     0.012 A 
ATOM      4  C   UNL     1      -4.162 -18.918  -6.520  1.00  0.00     0.047 A 
ATOM      5  C   UNL     1      -4.403 -17.100  -8.100  1.00  0.00     0.047 A 
ATOM      6  C   UNL     1      -4.345 -18.474  -7.843  1.00  0.00     0.118 A 
ENDROOT
BRANCH   1   7
ATOM      7  C   UNL     1      -3.982 -15.622  -4.654  1.00  0.00     0.010 C 
ATOM      8  C   UNL     1      -5.017 -15.187  -3.918  1.00  0.00     0.025 C 
BRANCH   8   9
ATOM      9  C   UNL     1      -6.384 -15.745  -3.939  1.00  0.00     0.064 C 
ATOM     10  O   UNL     1      -6.748 -16.629  -3.119  1.00  0.00    -0.545 OA
ATOM     11  O   UNL     1      -7.309 -15.232  -4.839  1.00  0.00    -0.545 OA
ENDBRANCH   8   9
ENDBRANCH   1   7
BRANCH   6  12
ATOM     12  O   UNL     1      -4.476 -19.360  -8.922  1.00  0.00    -0.497 OA
ATOM     13  C   UNL     1      -5.607 -19.412  -9.785  1.00  0.00     0.278 C 
ENDBRANCH   6  12
TORSDOF 3
ENDMDL
MODEL 9
REMARK VINA RESULT:    -3.446     14.582     16.206
REMARK INTER + INTRA:          -4.377
REMARK INTER:                  -4.150
REMARK INTRA:                  -0.228
REMARK UNBOUND:                -0.327
REMARK SMILES COc1ccc(C=CC(=O)[O-])cc1
REMARK SMILES IDX 6 1 5 2 12 3 4 4 13 5 3 6 7 7 8 8 9 9 10 10 11 11 2 12 1 13
REMARK H PARENT
REMARK Flexibility Score: inf
ROOT
ATOM      1  C   UNL     1      -4.668  -1.914  -6.466  1.00  0.00    -0.025 A 
ATOM      2  C   UNL     1      -5.363  -3.025  -6.973  1.00  0.00     0.012 A 
ATOM      3  C   UNL     1      -5.119  -0.625  -6.779  1.00  0.00     0.012 A 
ATOM      4  C   UNL     1      -6.458  -2.847  -7.823  1.00  0.00     0.047 A 
ATOM      5  C   UNL     1      -6.214  -0.446  -7.630  1.00  0.00     0.047 A 
ATOM      6  C   UNL     1      -6.890  -1.550  -8.161  1.00  0.00     0.118 A 
ENDROOT
BRANCH   1   7
ATOM      7  C   UNL     1      -3.542  -2.079  -5.525  1.00  0.00     0.010 C 
ATOM      8  C   UNL     1      -3.651  -2.428  -4.233  1.00  0.00     0.025 C 
BRANCH   8   9
ATOM      9  C   UNL     1      -4.886  -2.882  -3.564  1.00  0.00     0.064 C 
ATOM     10  O   UNL     1      -5.703  -2.065  -3.063  1.00  0.00    -0.545 OA
ATOM     11  O   UNL     1      -5.187  -4.237  -3.549  1.00  0.00    -0.545 OA
ENDBRANCH   8   9
ENDBRANCH   1   7
BRANCH   6  12
ATOM     12  O   UNL     1      -7.981  -1.318  -9.011  1.00  0.00    -0.497 OA
ATOM     13  C   UNL     1      -7.890  -1.229 -10.429  1.00  0.00     0.278 C 
ENDBRANCH   6  12
TORSDOF 3
ENDMDL
