MODEL 1
REMARK VINA RESULT:    -6.117      0.000      0.000
REMARK INTER + INTRA:          -6.922
REMARK INTER:                  -7.369
REMARK INTRA:                   0.446
REMARK UNBOUND:                 0.446
REMARK SMILES O=c1c(O)c(-c2ccc(O)c(O)c2)oc2cc(O)cc(O)c12
REMARK SMILES IDX 5 1 3 2 2 3 1 4 22 5 20 6 19 7 17 8 16 9 15 10 14 11 6 12
REMARK SMILES IDX 7 13 8 14 9 15 13 16 11 17 10 18 12 20 4 22 21 24 18 26
REMARK H PARENT 10 19 12 21 4 23 21 25 18 27
REMARK Flexibility Score: inf
ROOT
ATOM      1  C   UNL     1      30.777  16.451  28.256  1.00  0.00     0.180 A 
ATOM      2  C   UNL     1      30.089  15.228  28.164  1.00  0.00     0.208 A 
ATOM      3  C   UNL     1      28.691  15.241  28.032  1.00  0.00     0.238 A 
ATOM      4  O   UNL     1      28.090  14.147  27.876  1.00  0.00    -0.285 OA
ATOM      5  C   UNL     1      27.993  16.474  28.048  1.00  0.00     0.111 A 
ATOM      6  C   UNL     1      26.572  16.603  27.965  1.00  0.00     0.134 A 
ATOM      7  C   UNL     1      26.000  17.878  27.883  1.00  0.00     0.093 A 
ATOM      8  C   UNL     1      26.787  19.027  27.945  1.00  0.00     0.123 A 
ATOM      9  C   UNL     1      28.171  18.913  28.081  1.00  0.00     0.094 A 
ATOM     10  C   UNL     1      28.776  17.654  28.127  1.00  0.00     0.146 A 
ATOM     11  O   UNL     1      30.097  17.591  28.235  1.00  0.00    -0.452 OA
ENDROOT
BRANCH   1  12
ATOM     12  C   UNL     1      32.251  16.519  28.383  1.00  0.00     0.025 A 
ATOM     13  C   UNL     1      32.956  15.392  28.834  1.00  0.00     0.016 A 
ATOM     14  C   UNL     1      34.344  15.439  28.982  1.00  0.00     0.051 A 
ATOM     15  C   UNL     1      35.046  16.613  28.696  1.00  0.00     0.157 A 
ATOM     16  C   UNL     1      32.955  17.706  28.117  1.00  0.00     0.062 A 
ATOM     17  C   UNL     1      34.350  17.755  28.266  1.00  0.00     0.158 A 
BRANCH  15  18
ATOM     18  O   UNL     1      36.432  16.630  28.850  1.00  0.00    -0.504 OA
ATOM     19  H   UNL     1      36.884  17.132  29.605  1.00  0.00     0.293 HD
ENDBRANCH  15  18
BRANCH  17  20
ATOM     20  O   UNL     1      35.042  18.934  27.993  1.00  0.00    -0.504 OA
ATOM     21  H   UNL     1      34.969  19.396  27.094  1.00  0.00     0.293 HD
ENDBRANCH  17  20
ENDBRANCH   1  12
BRANCH   2  22
ATOM     22  O   UNL     1      30.789  14.020  28.228  1.00  0.00    -0.502 OA
ATOM     23  H   UNL     1      31.161  13.653  29.095  1.00  0.00     0.293 HD
ENDBRANCH   2  22
BRANCH   6  24
ATOM     24  O   UNL     1      25.685  15.523  27.986  1.00  0.00    -0.507 OA
ATOM     25  H   UNL     1      24.683  15.600  28.064  1.00  0.00     0.293 HD
ENDBRANCH   6  24
BRANCH   8  26
ATOM     26  O   UNL     1      26.181  20.280  27.878  1.00  0.00    -0.508 OA
ATOM     27  H   UNL     1      25.237  20.431  28.215  1.00  0.00     0.293 HD
ENDBRANCH   8  26
TORSDOF 6
ENDMDL
MODEL 2
REMARK VINA RESULT:    -5.869      3.131      5.657
REMARK INTER + INTRA:          -6.623
REMARK INTER:                  -7.043
REMARK INTRA:                   0.419
REMARK UNBOUND:                 0.446
REMARK SMILES O=c1c(O)c(-c2ccc(O)c(O)c2)oc2cc(O)cc(O)c12
REMARK SMILES IDX 5 1 3 2 2 3 1 4 22 5 20 6 19 7 17 8 16 9 15 10 14 11 6 12
REMARK SMILES IDX 7 13 8 14 9 15 13 16 11 17 10 18 12 20 4 22 21 24 18 26
REMARK H PARENT 10 19 12 21 4 23 21 25 18 27
REMARK Flexibility Score: inf
ROOT
ATOM      1  C   UNL     1      29.682  19.776  28.050  1.00  0.00     0.180 A 
ATOM      2  C   UNL     1      28.306  19.491  27.992  1.00  0.00     0.208 A 
ATOM      3  C   UNL     1      27.885  18.152  28.031  1.00  0.00     0.238 A 
ATOM      4  O   UNL     1      26.651  17.908  28.054  1.00  0.00    -0.285 OA
ATOM      5  C   UNL     1      28.847  17.112  28.071  1.00  0.00     0.111 A 
ATOM      6  C   UNL     1      28.535  15.718  28.068  1.00  0.00     0.134 A 
ATOM      7  C   UNL     1      29.564  14.781  28.219  1.00  0.00     0.093 A 
ATOM      8  C   UNL     1      30.897  15.181  28.306  1.00  0.00     0.123 A 
ATOM      9  C   UNL     1      31.217  16.538  28.255  1.00  0.00     0.094 A 
ATOM     10  C   UNL     1      30.210  17.500  28.144  1.00  0.00     0.146 A 
ATOM     11  O   UNL     1      30.557  18.781  28.121  1.00  0.00    -0.452 OA
ENDROOT
BRANCH   1  12
ATOM     12  C   UNL     1      30.201  21.163  28.029  1.00  0.00     0.025 A 
ATOM     13  C   UNL     1      31.579  21.380  27.878  1.00  0.00     0.016 A 
ATOM     14  C   UNL     1      32.095  22.679  27.876  1.00  0.00     0.051 A 
ATOM     15  C   UNL     1      31.245  23.776  28.041  1.00  0.00     0.157 A 
ATOM     16  C   UNL     1      29.350  22.267  28.217  1.00  0.00     0.062 A 
ATOM     17  C   UNL     1      29.866  23.571  28.217  1.00  0.00     0.158 A 
BRANCH  15  18
ATOM     18  O   UNL     1      31.788  25.061  28.032  1.00  0.00    -0.504 OA
ATOM     19  H   UNL     1      32.453  25.370  28.731  1.00  0.00     0.293 HD
ENDBRANCH  15  18
BRANCH  17  20
ATOM     20  O   UNL     1      29.015  24.661  28.396  1.00  0.00    -0.504 OA
ATOM     21  H   UNL     1      29.236  25.574  28.017  1.00  0.00     0.293 HD
ENDBRANCH  17  20
ENDBRANCH   1  12
BRANCH   2  22
ATOM     22  O   UNL     1      27.377  20.529  27.875  1.00  0.00    -0.502 OA
ATOM     23  H   UNL     1      26.552  20.457  27.292  1.00  0.00     0.293 HD
ENDBRANCH   2  22
BRANCH   6  24
ATOM     24  O   UNL     1      27.246  15.204  27.898  1.00  0.00    -0.507 OA
ATOM     25  H   UNL     1      26.462  15.397  28.502  1.00  0.00     0.293 HD
ENDBRANCH   6  24
BRANCH   8  26
ATOM     26  O   UNL     1      31.896  14.220  28.437  1.00  0.00    -0.508 OA
ATOM     27  H   UNL     1      31.765  13.392  29.008  1.00  0.00     0.293 HD
ENDBRANCH   8  26
TORSDOF 6
ENDMDL
MODEL 3
REMARK VINA RESULT:    -5.774     17.881     18.931
REMARK INTER + INTRA:          -6.509
REMARK INTER:                  -6.241
REMARK INTRA:                  -0.268
REMARK UNBOUND:                 0.446
REMARK SMILES O=c1c(O)c(-c2ccc(O)c(O)c2)oc2cc(O)cc(O)c12
REMARK SMILES IDX 5 1 3 2 2 3 1 4 22 5 20 6 19 7 17 8 16 9 15 10 14 11 6 12
REMARK SMILES IDX 7 13 8 14 9 15 13 16 11 17 10 18 12 20 4 22 21 24 18 26
REMARK H PARENT 10 19 12 21 4 23 21 25 18 27
REMARK Flexibility Score: inf
ROOT
ATOM      1  C   UNL     1      33.521  22.479  45.189  1.00  0.00     0.180 A 
ATOM      2  C   UNL     1      34.798  23.061  45.270  1.00  0.00     0.208 A 
ATOM      3  C   UNL     1      34.930  24.445  45.077  1.00  0.00     0.238 A 
ATOM      4  O   UNL     1      36.065  24.969  45.224  1.00  0.00    -0.285 OA
ATOM      5  C   UNL     1      33.792  25.223  44.750  1.00  0.00     0.111 A 
ATOM      6  C   UNL     1      33.816  26.627  44.488  1.00  0.00     0.134 A 
ATOM      7  C   UNL     1      32.612  27.311  44.280  1.00  0.00     0.093 A 
ATOM      8  C   UNL     1      31.393  26.634  44.259  1.00  0.00     0.123 A 
ATOM      9  C   UNL     1      31.364  25.253  44.459  1.00  0.00     0.094 A 
ATOM     10  C   UNL     1      32.544  24.549  44.707  1.00  0.00     0.146 A 
ATOM     11  O   UNL     1      32.468  23.240  44.913  1.00  0.00    -0.452 OA
ENDROOT
BRANCH   1  12
ATOM     12  C   UNL     1      33.300  21.030  45.395  1.00  0.00     0.025 A 
ATOM     13  C   UNL     1      33.626  20.130  44.369  1.00  0.00     0.016 A 
ATOM     14  C   UNL     1      33.407  18.760  44.532  1.00  0.00     0.051 A 
ATOM     15  C   UNL     1      32.846  18.270  45.716  1.00  0.00     0.157 A 
ATOM     16  C   UNL     1      32.716  20.538  46.576  1.00  0.00     0.062 A 
ATOM     17  C   UNL     1      32.494  19.163  46.742  1.00  0.00     0.158 A 
BRANCH  15  18
ATOM     18  O   UNL     1      32.642  16.897  45.852  1.00  0.00    -0.504 OA
ATOM     19  H   UNL     1      31.720  16.502  45.996  1.00  0.00     0.293 HD
ENDBRANCH  15  18
BRANCH  17  20
ATOM     20  O   UNL     1      31.921  18.683  47.919  1.00  0.00    -0.504 OA
ATOM     21  H   UNL     1      32.060  19.152  48.806  1.00  0.00     0.293 HD
ENDBRANCH  17  20
ENDBRANCH   1  12
BRANCH   2  22
ATOM     22  O   UNL     1      35.920  22.264  45.517  1.00  0.00    -0.502 OA
ATOM     23  H   UNL     1      35.846  21.291  45.789  1.00  0.00     0.293 HD
ENDBRANCH   2  22
BRANCH   6  24
ATOM     24  O   UNL     1      34.986  27.387  44.398  1.00  0.00    -0.507 OA
ATOM     25  H   UNL     1      35.638  27.355  43.630  1.00  0.00     0.293 HD
ENDBRANCH   6  24
BRANCH   8  26
ATOM     26  O   UNL     1      30.217  27.344  44.031  1.00  0.00    -0.508 OA
ATOM     27  H   UNL     1      29.825  27.438  43.100  1.00  0.00     0.293 HD
ENDBRANCH   8  26
TORSDOF 6
ENDMDL
MODEL 4
REMARK VINA RESULT:    -5.558     17.772     18.762
REMARK INTER + INTRA:          -6.249
REMARK INTER:                  -5.940
REMARK INTRA:                  -0.309
REMARK UNBOUND:                 0.446
REMARK SMILES O=c1c(O)c(-c2ccc(O)c(O)c2)oc2cc(O)cc(O)c12
REMARK SMILES IDX 5 1 3 2 2 3 1 4 22 5 20 6 19 7 17 8 16 9 15 10 14 11 6 12
REMARK SMILES IDX 7 13 8 14 9 15 13 16 11 17 10 18 12 20 4 22 21 24 18 26
REMARK H PARENT 10 19 12 21 4 23 21 25 18 27
REMARK Flexibility Score: inf
ROOT
ATOM      1  C   UNL     1      33.092  22.188  45.508  1.00  0.00     0.180 A 
ATOM      2  C   UNL     1      32.364  21.898  46.676  1.00  0.00     0.208 A 
ATOM      3  C   UNL     1      32.139  20.557  47.023  1.00  0.00     0.238 A 
ATOM      4  O   UNL     1      31.552  20.305  48.107  1.00  0.00    -0.285 OA
ATOM      5  C   UNL     1      32.595  19.522  46.170  1.00  0.00     0.111 A 
ATOM      6  C   UNL     1      32.383  18.128  46.399  1.00  0.00     0.134 A 
ATOM      7  C   UNL     1      32.972  17.190  45.542  1.00  0.00     0.093 A 
ATOM      8  C   UNL     1      33.709  17.594  44.430  1.00  0.00     0.123 A 
ATOM      9  C   UNL     1      33.877  18.954  44.165  1.00  0.00     0.094 A 
ATOM     10  C   UNL     1      33.333  19.914  45.023  1.00  0.00     0.146 A 
ATOM     11  O   UNL     1      33.534  21.196  44.746  1.00  0.00    -0.452 OA
ENDROOT
BRANCH   1  12
ATOM     12  C   UNL     1      33.383  23.577  45.085  1.00  0.00     0.025 A 
ATOM     13  C   UNL     1      34.473  24.256  45.652  1.00  0.00     0.016 A 
ATOM     14  C   UNL     1      34.754  25.575  45.285  1.00  0.00     0.051 A 
ATOM     15  C   UNL     1      33.945  26.238  44.358  1.00  0.00     0.157 A 
ATOM     16  C   UNL     1      32.556  24.253  44.170  1.00  0.00     0.062 A 
ATOM     17  C   UNL     1      32.836  25.577  43.801  1.00  0.00     0.158 A 
BRANCH  15  18
ATOM     18  O   UNL     1      34.251  27.553  44.008  1.00  0.00    -0.504 OA
ATOM     19  H   UNL     1      33.899  28.346  44.531  1.00  0.00     0.293 HD
ENDBRANCH  15  18
BRANCH  17  20
ATOM     20  O   UNL     1      32.017  26.238  42.887  1.00  0.00    -0.504 OA
ATOM     21  H   UNL     1      31.012  26.282  43.011  1.00  0.00     0.293 HD
ENDBRANCH  17  20
ENDBRANCH   1  12
BRANCH   2  22
ATOM     22  O   UNL     1      31.856  22.935  47.464  1.00  0.00    -0.502 OA
ATOM     23  H   UNL     1      32.185  23.114  48.405  1.00  0.00     0.293 HD
ENDBRANCH   2  22
BRANCH   6  24
ATOM     24  O   UNL     1      31.589  17.616  47.429  1.00  0.00    -0.507 OA
ATOM     25  H   UNL     1      30.974  18.163  48.011  1.00  0.00     0.293 HD
ENDBRANCH   6  24
BRANCH   8  26
ATOM     26  O   UNL     1      34.266  16.633  43.589  1.00  0.00    -0.508 OA
ATOM     27  H   UNL     1      34.809  15.859  43.955  1.00  0.00     0.293 HD
ENDBRANCH   8  26
TORSDOF 6
ENDMDL
MODEL 5
REMARK VINA RESULT:    -5.540     17.995     18.780
REMARK INTER + INTRA:          -6.228
REMARK INTER:                  -5.930
REMARK INTRA:                  -0.298
REMARK UNBOUND:                 0.446
REMARK SMILES O=c1c(O)c(-c2ccc(O)c(O)c2)oc2cc(O)cc(O)c12
REMARK SMILES IDX 5 1 3 2 2 3 1 4 22 5 20 6 19 7 17 8 16 9 15 10 14 11 6 12
REMARK SMILES IDX 7 13 8 14 9 15 13 16 11 17 10 18 12 20 4 22 21 24 18 26
REMARK H PARENT 10 19 12 21 4 23 21 25 18 27
REMARK Flexibility Score: inf
ROOT
ATOM      1  C   UNL     1      33.058  22.217  45.438  1.00  0.00     0.180 A 
ATOM      2  C   UNL     1      33.654  22.654  44.242  1.00  0.00     0.208 A 
ATOM      3  C   UNL     1      33.291  23.905  43.717  1.00  0.00     0.238 A 
ATOM      4  O   UNL     1      33.883  24.321  42.688  1.00  0.00    -0.285 OA
ATOM      5  C   UNL     1      32.296  24.679  44.364  1.00  0.00     0.111 A 
ATOM      6  C   UNL     1      31.818  25.941  43.896  1.00  0.00     0.134 A 
ATOM      7  C   UNL     1      30.908  26.666  44.675  1.00  0.00     0.093 A 
ATOM      8  C   UNL     1      30.410  26.149  45.870  1.00  0.00     0.123 A 
ATOM      9  C   UNL     1      30.829  24.893  46.309  1.00  0.00     0.094 A 
ATOM     10  C   UNL     1      31.765  24.161  45.573  1.00  0.00     0.146 A 
ATOM     11  O   UNL     1      32.152  22.980  46.039  1.00  0.00    -0.452 OA
ENDROOT
BRANCH   1  12
ATOM     12  C   UNL     1      33.400  20.918  46.061  1.00  0.00     0.025 A 
ATOM     13  C   UNL     1      34.342  20.879  47.101  1.00  0.00     0.016 A 
ATOM     14  C   UNL     1      34.696  19.662  47.689  1.00  0.00     0.051 A 
ATOM     15  C   UNL     1      34.128  18.468  47.239  1.00  0.00     0.157 A 
ATOM     16  C   UNL     1      32.845  19.713  45.594  1.00  0.00     0.062 A 
ATOM     17  C   UNL     1      33.201  18.490  46.183  1.00  0.00     0.158 A 
BRANCH  15  18
ATOM     18  O   UNL     1      34.499  17.268  47.847  1.00  0.00    -0.504 OA
ATOM     19  H   UNL     1      34.290  16.368  47.433  1.00  0.00     0.293 HD
ENDBRANCH  15  18
BRANCH  17  20
ATOM     20  O   UNL     1      32.641  17.301  45.720  1.00  0.00    -0.504 OA
ATOM     21  H   UNL     1      32.724  16.437  46.242  1.00  0.00     0.293 HD
ENDBRANCH  17  20
ENDBRANCH   1  12
BRANCH   2  22
ATOM     22  O   UNL     1      34.577  21.841  43.578  1.00  0.00    -0.502 OA
ATOM     23  H   UNL     1      34.476  21.589  42.603  1.00  0.00     0.293 HD
ENDBRANCH   2  22
BRANCH   6  24
ATOM     24  O   UNL     1      32.182  26.511  42.672  1.00  0.00    -0.507 OA
ATOM     25  H   UNL     1      33.122  26.550  42.310  1.00  0.00     0.293 HD
ENDBRANCH   6  24
BRANCH   8  26
ATOM     26  O   UNL     1      29.493  26.891  46.610  1.00  0.00    -0.508 OA
ATOM     27  H   UNL     1      29.052  27.722  46.230  1.00  0.00     0.293 HD
ENDBRANCH   8  26
TORSDOF 6
ENDMDL
MODEL 6
REMARK VINA RESULT:    -5.451     16.791     18.264
REMARK INTER + INTRA:          -6.120
REMARK INTER:                  -6.087
REMARK INTRA:                  -0.032
REMARK UNBOUND:                 0.446
REMARK SMILES O=c1c(O)c(-c2ccc(O)c(O)c2)oc2cc(O)cc(O)c12
REMARK SMILES IDX 5 1 3 2 2 3 1 4 22 5 20 6 19 7 17 8 16 9 15 10 14 11 6 12
REMARK SMILES IDX 7 13 8 14 9 15 13 16 11 17 10 18 12 20 4 22 21 24 18 26
REMARK H PARENT 10 19 12 21 4 23 21 25 18 27
REMARK Flexibility Score: inf
ROOT
ATOM      1  C   UNL     1      33.876  22.048  44.405  1.00  0.00     0.180 A 
ATOM      2  C   UNL     1      35.229  22.115  44.030  1.00  0.00     0.208 A 
ATOM      3  C   UNL     1      35.948  20.922  43.857  1.00  0.00     0.238 A 
ATOM      4  O   UNL     1      37.137  20.988  43.449  1.00  0.00    -0.285 OA
ATOM      5  C   UNL     1      35.322  19.677  44.114  1.00  0.00     0.111 A 
ATOM      6  C   UNL     1      35.968  18.407  44.013  1.00  0.00     0.134 A 
ATOM      7  C   UNL     1      35.219  17.237  44.188  1.00  0.00     0.093 A 
ATOM      8  C   UNL     1      33.867  17.290  44.522  1.00  0.00     0.123 A 
ATOM      9  C   UNL     1      33.238  18.526  44.676  1.00  0.00     0.094 A 
ATOM     10  C   UNL     1      33.949  19.711  44.471  1.00  0.00     0.146 A 
ATOM     11  O   UNL     1      33.307  20.866  44.607  1.00  0.00    -0.452 OA
ENDROOT
BRANCH   1  12
ATOM     12  C   UNL     1      33.048  23.262  44.593  1.00  0.00     0.025 A 
ATOM     13  C   UNL     1      32.272  23.393  45.755  1.00  0.00     0.016 A 
ATOM     14  C   UNL     1      31.467  24.520  45.944  1.00  0.00     0.051 A 
ATOM     15  C   UNL     1      31.414  25.522  44.971  1.00  0.00     0.157 A 
ATOM     16  C   UNL     1      32.978  24.260  43.605  1.00  0.00     0.062 A 
ATOM     17  C   UNL     1      32.169  25.391  43.793  1.00  0.00     0.158 A 
BRANCH  15  18
ATOM     18  O   UNL     1      30.604  26.637  45.188  1.00  0.00    -0.504 OA
ATOM     19  H   UNL     1      30.636  27.166  46.051  1.00  0.00     0.293 HD
ENDBRANCH  15  18
BRANCH  17  20
ATOM     20  O   UNL     1      32.110  26.381  42.813  1.00  0.00    -0.504 OA
ATOM     21  H   UNL     1      31.259  26.566  42.296  1.00  0.00     0.293 HD
ENDBRANCH  17  20
ENDBRANCH   1  12
BRANCH   2  22
ATOM     22  O   UNL     1      35.850  23.356  43.856  1.00  0.00    -0.502 OA
ATOM     23  H   UNL     1      35.563  24.011  43.140  1.00  0.00     0.293 HD
ENDBRANCH   2  22
BRANCH   6  24
ATOM     24  O   UNL     1      37.334  18.241  43.772  1.00  0.00    -0.507 OA
ATOM     25  H   UNL     1      37.956  17.677  44.330  1.00  0.00     0.293 HD
ENDBRANCH   6  24
BRANCH   8  26
ATOM     26  O   UNL     1      33.157  16.105  44.705  1.00  0.00    -0.508 OA
ATOM     27  H   UNL     1      33.468  15.397  45.361  1.00  0.00     0.293 HD
ENDBRANCH   8  26
TORSDOF 6
ENDMDL
MODEL 7
REMARK VINA RESULT:    -5.400     17.456     18.281
REMARK INTER + INTRA:          -6.058
REMARK INTER:                  -6.128
REMARK INTRA:                   0.070
REMARK UNBOUND:                 0.446
REMARK SMILES O=c1c(O)c(-c2ccc(O)c(O)c2)oc2cc(O)cc(O)c12
REMARK SMILES IDX 5 1 3 2 2 3 1 4 22 5 20 6 19 7 17 8 16 9 15 10 14 11 6 12
REMARK SMILES IDX 7 13 8 14 9 15 13 16 11 17 10 18 12 20 4 22 21 24 18 26
REMARK H PARENT 10 19 12 21 4 23 21 25 18 27
REMARK Flexibility Score: inf
ROOT
ATOM      1  C   UNL     1      33.371  22.958  44.455  1.00  0.00     0.180 A 
ATOM      2  C   UNL     1      33.470  24.000  43.515  1.00  0.00     0.208 A 
ATOM      3  C   UNL     1      32.666  25.140  43.674  1.00  0.00     0.238 A 
ATOM      4  O   UNL     1      32.814  26.098  42.872  1.00  0.00    -0.285 OA
ATOM      5  C   UNL     1      31.733  25.202  44.738  1.00  0.00     0.111 A 
ATOM      6  C   UNL     1      30.836  26.289  44.969  1.00  0.00     0.134 A 
ATOM      7  C   UNL     1      30.032  26.288  46.116  1.00  0.00     0.093 A 
ATOM      8  C   UNL     1      30.044  25.213  47.004  1.00  0.00     0.123 A 
ATOM      9  C   UNL     1      30.877  24.121  46.759  1.00  0.00     0.094 A 
ATOM     10  C   UNL     1      31.719  24.109  45.644  1.00  0.00     0.146 A 
ATOM     11  O   UNL     1      32.511  23.060  45.460  1.00  0.00    -0.452 OA
ENDROOT
BRANCH   1  12
ATOM     12  C   UNL     1      34.196  21.732  44.362  1.00  0.00     0.025 A 
ATOM     13  C   UNL     1      35.575  21.845  44.121  1.00  0.00     0.016 A 
ATOM     14  C   UNL     1      36.370  20.702  44.009  1.00  0.00     0.051 A 
ATOM     15  C   UNL     1      35.799  19.431  44.121  1.00  0.00     0.157 A 
ATOM     16  C   UNL     1      33.620  20.453  44.453  1.00  0.00     0.062 A 
ATOM     17  C   UNL     1      34.417  19.303  44.339  1.00  0.00     0.158 A 
BRANCH  15  18
ATOM     18  O   UNL     1      36.618  18.307  44.007  1.00  0.00    -0.504 OA
ATOM     19  H   UNL     1      36.969  17.812  44.818  1.00  0.00     0.293 HD
ENDBRANCH  15  18
BRANCH  17  20
ATOM     20  O   UNL     1      33.839  18.038  44.437  1.00  0.00    -0.504 OA
ATOM     21  H   UNL     1      34.232  17.321  45.035  1.00  0.00     0.293 HD
ENDBRANCH  17  20
ENDBRANCH   1  12
BRANCH   2  22
ATOM     22  O   UNL     1      34.342  23.886  42.428  1.00  0.00    -0.502 OA
ATOM     23  H   UNL     1      34.326  23.092  41.800  1.00  0.00     0.293 HD
ENDBRANCH   2  22
BRANCH   6  24
ATOM     24  O   UNL     1      30.679  27.372  44.100  1.00  0.00    -0.507 OA
ATOM     25  H   UNL     1      29.963  27.447  43.394  1.00  0.00     0.293 HD
ENDBRANCH   6  24
BRANCH   8  26
ATOM     26  O   UNL     1      29.217  25.239  48.125  1.00  0.00    -0.508 OA
ATOM     27  H   UNL     1      28.878  26.112  48.514  1.00  0.00     0.293 HD
ENDBRANCH   8  26
TORSDOF 6
ENDMDL
MODEL 8
REMARK VINA RESULT:    -5.370     17.515     18.235
REMARK INTER + INTRA:          -6.022
REMARK INTER:                  -5.912
REMARK INTRA:                  -0.110
REMARK UNBOUND:                 0.446
REMARK SMILES O=c1c(O)c(-c2ccc(O)c(O)c2)oc2cc(O)cc(O)c12
REMARK SMILES IDX 5 1 3 2 2 3 1 4 22 5 20 6 19 7 17 8 16 9 15 10 14 11 6 12
REMARK SMILES IDX 7 13 8 14 9 15 13 16 11 17 10 18 12 20 4 22 21 24 18 26
REMARK H PARENT 10 19 12 21 4 23 21 25 18 27
REMARK Flexibility Score: inf
ROOT
ATOM      1  C   UNL     1      33.269  21.240  45.246  1.00  0.00     0.180 A 
ATOM      2  C   UNL     1      32.650  21.385  46.500  1.00  0.00     0.208 A 
ATOM      3  C   UNL     1      32.019  22.600  46.812  1.00  0.00     0.238 A 
ATOM      4  O   UNL     1      31.405  22.696  47.906  1.00  0.00    -0.285 OA
ATOM      5  C   UNL     1      32.063  23.674  45.890  1.00  0.00     0.111 A 
ATOM      6  C   UNL     1      31.496  24.965  46.120  1.00  0.00     0.134 A 
ATOM      7  C   UNL     1      31.506  25.916  45.092  1.00  0.00     0.093 A 
ATOM      8  C   UNL     1      32.118  25.648  43.868  1.00  0.00     0.123 A 
ATOM      9  C   UNL     1      32.723  24.409  43.652  1.00  0.00     0.094 A 
ATOM     10  C   UNL     1      32.696  23.426  44.644  1.00  0.00     0.146 A 
ATOM     11  O   UNL     1      33.264  22.254  44.389  1.00  0.00    -0.452 OA
ENDROOT
BRANCH   1  12
ATOM     12  C   UNL     1      33.941  19.985  44.839  1.00  0.00     0.025 A 
ATOM     13  C   UNL     1      35.280  20.025  44.418  1.00  0.00     0.016 A 
ATOM     14  C   UNL     1      35.928  18.857  44.010  1.00  0.00     0.051 A 
ATOM     15  C   UNL     1      35.247  17.637  44.000  1.00  0.00     0.157 A 
ATOM     16  C   UNL     1      33.250  18.760  44.807  1.00  0.00     0.062 A 
ATOM     17  C   UNL     1      33.899  17.587  44.396  1.00  0.00     0.158 A 
BRANCH  15  18
ATOM     18  O   UNL     1      35.920  16.486  43.589  1.00  0.00    -0.504 OA
ATOM     19  H   UNL     1      36.779  16.178  44.030  1.00  0.00     0.293 HD
ENDBRANCH  15  18
BRANCH  17  20
ATOM     20  O   UNL     1      33.210  16.376  44.375  1.00  0.00    -0.504 OA
ATOM     21  H   UNL     1      33.653  15.518  44.068  1.00  0.00     0.293 HD
ENDBRANCH  17  20
ENDBRANCH   1  12
BRANCH   2  22
ATOM     22  O   UNL     1      32.685  20.339  47.427  1.00  0.00    -0.502 OA
ATOM     23  H   UNL     1      33.074  20.449  48.355  1.00  0.00     0.293 HD
ENDBRANCH   2  22
BRANCH   6  24
ATOM     24  O   UNL     1      30.938  25.370  47.336  1.00  0.00    -0.507 OA
ATOM     25  H   UNL     1      30.317  24.812  47.901  1.00  0.00     0.293 HD
ENDBRANCH   6  24
BRANCH   8  26
ATOM     26  O   UNL     1      32.125  26.625  42.875  1.00  0.00    -0.508 OA
ATOM     27  H   UNL     1      32.599  27.511  43.006  1.00  0.00     0.293 HD
ENDBRANCH   8  26
TORSDOF 6
ENDMDL
MODEL 9
REMARK VINA RESULT:    -5.330     19.259     20.236
REMARK INTER + INTRA:          -5.974
REMARK INTER:                  -5.828
REMARK INTRA:                  -0.146
REMARK UNBOUND:                 0.446
REMARK SMILES O=c1c(O)c(-c2ccc(O)c(O)c2)oc2cc(O)cc(O)c12
REMARK SMILES IDX 5 1 3 2 2 3 1 4 22 5 20 6 19 7 17 8 16 9 15 10 14 11 6 12
REMARK SMILES IDX 7 13 8 14 9 15 13 16 11 17 10 18 12 20 4 22 21 24 18 26
REMARK H PARENT 10 19 12 21 4 23 21 25 18 27
REMARK Flexibility Score: inf
ROOT
ATOM      1  C   UNL     1      32.409  26.574  44.910  1.00  0.00     0.180 A 
ATOM      2  C   UNL     1      31.215  26.818  45.610  1.00  0.00     0.208 A 
ATOM      3  C   UNL     1      30.823  28.145  45.847  1.00  0.00     0.238 A 
ATOM      4  O   UNL     1      29.716  28.356  46.409  1.00  0.00    -0.285 OA
ATOM      5  C   UNL     1      31.656  29.212  45.430  1.00  0.00     0.111 A 
ATOM      6  C   UNL     1      31.380  30.595  45.657  1.00  0.00     0.134 A 
ATOM      7  C   UNL     1      32.224  31.566  45.105  1.00  0.00     0.093 A 
ATOM      8  C   UNL     1      33.367  31.208  44.391  1.00  0.00     0.123 A 
ATOM      9  C   UNL     1      33.676  29.859  44.210  1.00  0.00     0.094 A 
ATOM     10  C   UNL     1      32.833  28.866  44.716  1.00  0.00     0.146 A 
ATOM     11  O   UNL     1      33.153  27.595  44.503  1.00  0.00    -0.452 OA
ENDROOT
BRANCH   1  12
ATOM     12  C   UNL     1      32.881  25.203  44.609  1.00  0.00     0.025 A 
ATOM     13  C   UNL     1      32.946  24.774  43.274  1.00  0.00     0.016 A 
ATOM     14  C   UNL     1      33.367  23.477  42.968  1.00  0.00     0.051 A 
ATOM     15  C   UNL     1      33.716  22.588  43.988  1.00  0.00     0.157 A 
ATOM     16  C   UNL     1      33.211  24.300  45.635  1.00  0.00     0.062 A 
ATOM     17  C   UNL     1      33.633  22.997  45.329  1.00  0.00     0.158 A 
BRANCH  15  18
ATOM     18  O   UNL     1      34.136  21.301  43.651  1.00  0.00    -0.504 OA
ATOM     19  H   UNL     1      33.836  20.842  42.800  1.00  0.00     0.293 HD
ENDBRANCH  15  18
BRANCH  17  20
ATOM     20  O   UNL     1      33.965  22.111  46.352  1.00  0.00    -0.504 OA
ATOM     21  H   UNL     1      33.308  21.416  46.687  1.00  0.00     0.293 HD
ENDBRANCH  17  20
ENDBRANCH   1  12
BRANCH   2  22
ATOM     22  O   UNL     1      30.445  25.750  46.081  1.00  0.00    -0.502 OA
ATOM     23  H   UNL     1      29.540  25.883  46.515  1.00  0.00     0.293 HD
ENDBRANCH   2  22
BRANCH   6  24
ATOM     24  O   UNL     1      30.314  31.064  46.430  1.00  0.00    -0.507 OA
ATOM     25  H   UNL     1      29.365  31.161  46.107  1.00  0.00     0.293 HD
ENDBRANCH   6  24
BRANCH   8  26
ATOM     26  O   UNL     1      34.193  32.202  43.872  1.00  0.00    -0.508 OA
ATOM     27  H   UNL     1      34.454  32.215  42.892  1.00  0.00     0.293 HD
ENDBRANCH   8  26
TORSDOF 6
ENDMDL
