MODEL 1
REMARK VINA RESULT:    -3.023      0.000      0.000
REMARK INTER + INTRA:          -2.997
REMARK INTER:                  -3.730
REMARK INTRA:                   0.733
REMARK UNBOUND:                 0.733
REMARK SMILES CC1=CC=CC(C)(C)CC1=O
REMARK SMILES IDX 1 1 2 2 3 3 10 4 11 5 9 6 4 8 5 9 6 10 7 11 8 12
REMARK H PARENT
REMARK Flexibility Score: 80.00
ROOT
ATOM      1  C   UNL     1      26.143 -42.434 -10.126  1.00  0.00     0.048 C 
ATOM      2  C   UNL     1      25.931 -43.722  -9.366  1.00  0.00    -0.008 C 
ATOM      3  C   UNL     1      25.154 -43.678  -8.263  1.00  0.00     0.007 C 
ENDROOT
BRANCH   2   4
ATOM      4  C   UNL     1      26.659 -44.921  -9.853  1.00  0.00     0.159 C 
ATOM      5  O   UNL     1      27.562 -44.774 -10.723  1.00  0.00    -0.295 OA
BRANCH   4   6
ATOM      6  C   UNL     1      26.372 -46.312  -9.377  1.00  0.00     0.091 CG0
ATOM      7  G   UNL     1      26.575 -46.489  -7.856  1.00  0.00     0.000 G0
ENDBRANCH   4   6
ENDBRANCH   2   4
BRANCH   3   8
ATOM      8  C   UNL     1      24.790 -44.754  -7.312  1.00  0.00    -0.003 C 
ATOM      9  C   UNL     1      25.379 -45.941  -7.115  1.00  0.00    -0.020 C 
BRANCH   9  10
ATOM     10  C   UNL     1      26.573 -46.486  -7.861  1.00  0.00    -0.010 CG0
ATOM     11  C   UNL     1      26.665 -48.005  -7.587  1.00  0.00     0.016 C 
ATOM     12  C   UNL     1      27.870 -45.828  -7.335  1.00  0.00     0.016 C 
ATOM     13  G   UNL     1      26.375 -46.283  -9.380  1.00  0.00     0.000 G0
ENDBRANCH   9  10
ENDBRANCH   3   8
TORSDOF 0
ENDMDL
MODEL 2
REMARK VINA RESULT:    -2.792      1.328      3.438
REMARK INTER + INTRA:          -2.712
REMARK INTER:                  -3.463
REMARK INTRA:                   0.751
REMARK UNBOUND:                 0.733
REMARK SMILES CC1=CC=CC(C)(C)CC1=O
REMARK SMILES IDX 1 1 2 2 3 3 10 4 11 5 9 6 4 8 5 9 6 10 7 11 8 12
REMARK H PARENT
REMARK Flexibility Score: 80.00
ROOT
ATOM      1  C   UNL     1      26.707 -48.298  -7.666  1.00  0.00     0.048 C 
ATOM      2  C   UNL     1      26.531 -46.812  -7.874  1.00  0.00    -0.008 C 
ATOM      3  C   UNL     1      25.447 -46.226  -7.321  1.00  0.00     0.007 C 
ENDROOT
BRANCH   2   4
ATOM      4  C   UNL     1      27.527 -46.128  -8.736  1.00  0.00     0.159 C 
ATOM      5  O   UNL     1      28.325 -46.829  -9.417  1.00  0.00    -0.295 OA
BRANCH   4   6
ATOM      6  C   UNL     1      27.649 -44.638  -8.836  1.00  0.00     0.091 CG0
ATOM      7  G   UNL     1      26.366 -43.955  -9.359  1.00  0.00     0.000 G0
ENDBRANCH   4   6
ENDBRANCH   2   4
BRANCH   3   8
ATOM      8  C   UNL     1      24.997 -44.815  -7.373  1.00  0.00    -0.003 C 
ATOM      9  C   UNL     1      25.358 -43.846  -8.223  1.00  0.00    -0.020 C 
BRANCH   9  10
ATOM     10  C   UNL     1      26.360 -43.963  -9.347  1.00  0.00    -0.010 CG0
ATOM     11  C   UNL     1      26.735 -42.538  -9.814  1.00  0.00     0.016 C 
ATOM     12  C   UNL     1      25.727 -44.706 -10.545  1.00  0.00     0.016 C 
ATOM     13  G   UNL     1      27.643 -44.651  -8.829  1.00  0.00     0.000 G0
ENDBRANCH   9  10
ENDBRANCH   3   8
TORSDOF 0
ENDMDL
MODEL 3
REMARK VINA RESULT:    -2.787      2.547      4.060
REMARK INTER + INTRA:          -2.707
REMARK INTER:                  -3.462
REMARK INTRA:                   0.755
REMARK UNBOUND:                 0.733
REMARK SMILES CC1=CC=CC(C)(C)CC1=O
REMARK SMILES IDX 1 1 2 2 3 3 10 4 11 5 9 6 4 8 5 9 6 10 7 11 8 12
REMARK H PARENT
REMARK Flexibility Score: 80.00
ROOT
ATOM      1  C   UNL     1      24.964 -44.124  -7.695  1.00  0.00     0.048 C 
ATOM      2  C   UNL     1      25.417 -44.287  -9.127  1.00  0.00    -0.008 C 
ATOM      3  C   UNL     1      25.414 -45.534  -9.646  1.00  0.00     0.007 C 
ENDROOT
BRANCH   2   4
ATOM      4  C   UNL     1      25.902 -43.070  -9.825  1.00  0.00     0.159 C 
ATOM      5  O   UNL     1      26.122 -42.027  -9.148  1.00  0.00    -0.295 OA
BRANCH   4   6
ATOM      6  C   UNL     1      26.136 -43.003 -11.303  1.00  0.00     0.091 CG0
ATOM      7  G   UNL     1      27.196 -44.012 -11.798  1.00  0.00     0.000 G0
ENDBRANCH   4   6
ENDBRANCH   2   4
BRANCH   3   8
ATOM      8  C   UNL     1      25.823 -46.005 -10.990  1.00  0.00    -0.003 C 
ATOM      9  C   UNL     1      26.582 -45.390 -11.906  1.00  0.00    -0.020 C 
BRANCH   9  10
ATOM     10  C   UNL     1      27.195 -44.015 -11.787  1.00  0.00    -0.010 CG0
ATOM     11  C   UNL     1      27.658 -43.566 -13.192  1.00  0.00     0.016 C 
ATOM     12  C   UNL     1      28.438 -44.068 -10.870  1.00  0.00     0.016 C 
ATOM     13  G   UNL     1      26.130 -43.012 -11.290  1.00  0.00     0.000 G0
ENDBRANCH   9  10
ENDBRANCH   3   8
TORSDOF 0
ENDMDL
MODEL 4
REMARK VINA RESULT:    -2.738     12.993     14.053
REMARK INTER + INTRA:          -2.645
REMARK INTER:                  -3.404
REMARK INTRA:                   0.759
REMARK UNBOUND:                 0.733
REMARK SMILES CC1=CC=CC(C)(C)CC1=O
REMARK SMILES IDX 1 1 2 2 3 3 10 4 11 5 9 6 4 8 5 9 6 10 7 11 8 12
REMARK H PARENT
REMARK Flexibility Score: 80.00
ROOT
ATOM      1  C   UNL     1       9.992 -45.998  -6.115  1.00  0.00     0.048 C 
ATOM      2  C   UNL     1      11.151 -46.961  -6.019  1.00  0.00    -0.008 C 
ATOM      3  C   UNL     1      10.929 -48.152  -5.421  1.00  0.00     0.007 C 
ENDROOT
BRANCH   2   4
ATOM      4  C   UNL     1      12.466 -46.490  -6.523  1.00  0.00     0.159 C 
ATOM      5  O   UNL     1      12.601 -45.271  -6.821  1.00  0.00    -0.295 OA
BRANCH   4   6
ATOM      6  C   UNL     1      13.649 -47.388  -6.713  1.00  0.00     0.091 CG0
ATOM      7  G   UNL     1      14.107 -48.076  -5.407  1.00  0.00     0.000 G0
ENDBRANCH   4   6
ENDBRANCH   2   4
BRANCH   3   8
ATOM      8  C   UNL     1      11.860 -49.273  -5.158  1.00  0.00    -0.003 C 
ATOM      9  C   UNL     1      13.199 -49.271  -5.138  1.00  0.00    -0.020 C 
BRANCH   9  10
ATOM     10  C   UNL     1      14.099 -48.091  -5.414  1.00  0.00    -0.010 CG0
ATOM     11  C   UNL     1      15.537 -48.618  -5.632  1.00  0.00     0.016 C 
ATOM     12  C   UNL     1      14.119 -47.144  -4.193  1.00  0.00     0.016 C 
ATOM     13  G   UNL     1      13.646 -47.383  -6.710  1.00  0.00     0.000 G0
ENDBRANCH   9  10
ENDBRANCH   3   8
TORSDOF 0
ENDMDL
MODEL 5
REMARK VINA RESULT:    -2.734      1.819      3.421
REMARK INTER + INTRA:          -2.641
REMARK INTER:                  -3.387
REMARK INTRA:                   0.746
REMARK UNBOUND:                 0.733
REMARK SMILES CC1=CC=CC(C)(C)CC1=O
REMARK SMILES IDX 1 1 2 2 3 3 10 4 11 5 9 6 4 8 5 9 6 10 7 11 8 12
REMARK H PARENT
REMARK Flexibility Score: 80.00
ROOT
ATOM      1  C   UNL     1      24.663 -44.896  -6.988  1.00  0.00     0.048 C 
ATOM      2  C   UNL     1      25.667 -44.446  -8.024  1.00  0.00    -0.008 C 
ATOM      3  C   UNL     1      25.366 -43.351  -8.754  1.00  0.00     0.007 C 
ENDROOT
BRANCH   2   4
ATOM      4  C   UNL     1      26.874 -45.291  -8.207  1.00  0.00     0.159 C 
ATOM      5  O   UNL     1      26.909 -46.428  -7.659  1.00  0.00    -0.295 OA
BRANCH   4   6
ATOM      6  C   UNL     1      28.070 -44.864  -9.000  1.00  0.00     0.091 CG0
ATOM      7  G   UNL     1      27.741 -44.550 -10.476  1.00  0.00     0.000 G0
ENDBRANCH   4   6
ENDBRANCH   2   4
BRANCH   3   8
ATOM      8  C   UNL     1      26.127 -42.695  -9.843  1.00  0.00    -0.003 C 
ATOM      9  C   UNL     1      27.123 -43.186 -10.592  1.00  0.00    -0.020 C 
BRANCH   9  10
ATOM     10  C   UNL     1      27.739 -44.560 -10.476  1.00  0.00    -0.010 CG0
ATOM     11  C   UNL     1      29.071 -44.562 -11.262  1.00  0.00     0.016 C 
ATOM     12  C   UNL     1      26.807 -45.613 -11.116  1.00  0.00     0.016 C 
ATOM     13  G   UNL     1      28.055 -44.865  -8.995  1.00  0.00     0.000 G0
ENDBRANCH   9  10
ENDBRANCH   3   8
TORSDOF 0
ENDMDL
MODEL 6
REMARK VINA RESULT:    -2.718     12.215     13.390
REMARK INTER + INTRA:          -2.621
REMARK INTER:                  -3.388
REMARK INTRA:                   0.766
REMARK UNBOUND:                 0.733
REMARK SMILES CC1=CC=CC(C)(C)CC1=O
REMARK SMILES IDX 1 1 2 2 3 3 10 4 11 5 9 6 4 8 5 9 6 10 7 11 8 12
REMARK H PARENT
REMARK Flexibility Score: 80.00
ROOT
ATOM      1  C   UNL     1      27.684 -36.030 -15.726  1.00  0.00     0.048 C 
ATOM      2  C   UNL     1      26.684 -35.126 -15.043  1.00  0.00    -0.008 C 
ATOM      3  C   UNL     1      25.417 -35.126 -15.511  1.00  0.00     0.007 C 
ENDROOT
BRANCH   2   4
ATOM      4  C   UNL     1      27.194 -34.252 -13.956  1.00  0.00     0.159 C 
ATOM      5  O   UNL     1      28.441 -34.166 -13.781  1.00  0.00    -0.295 OA
BRANCH   4   6
ATOM      6  C   UNL     1      26.306 -33.470 -13.039  1.00  0.00     0.091 CG0
ATOM      7  G   UNL     1      25.384 -32.479 -13.783  1.00  0.00     0.000 G0
ENDBRANCH   4   6
ENDBRANCH   2   4
BRANCH   3   8
ATOM      8  C   UNL     1      24.240 -34.341 -15.072  1.00  0.00    -0.003 C 
ATOM      9  C   UNL     1      24.200 -33.214 -14.350  1.00  0.00    -0.020 C 
BRANCH   9  10
ATOM     10  C   UNL     1      25.383 -32.473 -13.774  1.00  0.00    -0.010 CG0
ATOM     11  C   UNL     1      24.858 -31.447 -12.743  1.00  0.00     0.016 C 
ATOM     12  C   UNL     1      26.114 -31.695 -14.891  1.00  0.00     0.016 C 
ATOM     13  G   UNL     1      26.308 -33.466 -13.035  1.00  0.00     0.000 G0
ENDBRANCH   9  10
ENDBRANCH   3   8
TORSDOF 0
ENDMDL
MODEL 7
REMARK VINA RESULT:    -2.701      1.617      2.501
REMARK INTER + INTRA:          -2.600
REMARK INTER:                  -3.339
REMARK INTRA:                   0.739
REMARK UNBOUND:                 0.733
REMARK SMILES CC1=CC=CC(C)(C)CC1=O
REMARK SMILES IDX 1 1 2 2 3 3 10 4 11 5 9 6 4 8 5 9 6 10 7 11 8 12
REMARK H PARENT
REMARK Flexibility Score: 80.00
ROOT
ATOM      1  C   UNL     1      25.729 -43.196 -12.369  1.00  0.00     0.048 C 
ATOM      2  C   UNL     1      26.072 -44.123 -11.227  1.00  0.00    -0.008 C 
ATOM      3  C   UNL     1      25.752 -45.428 -11.361  1.00  0.00     0.007 C 
ENDROOT
BRANCH   2   4
ATOM      4  C   UNL     1      26.666 -43.509 -10.013  1.00  0.00     0.159 C 
ATOM      5  O   UNL     1      26.694 -42.250  -9.919  1.00  0.00    -0.295 OA
BRANCH   4   6
ATOM      6  C   UNL     1      27.253 -44.303  -8.887  1.00  0.00     0.091 CG0
ATOM      7  G   UNL     1      26.246 -45.283  -8.244  1.00  0.00     0.000 G0
ENDBRANCH   4   6
ENDBRANCH   2   4
BRANCH   3   8
ATOM      8  C   UNL     1      25.935 -46.555 -10.417  1.00  0.00    -0.003 C 
ATOM      9  C   UNL     1      26.139 -46.523  -9.094  1.00  0.00    -0.020 C 
BRANCH   9  10
ATOM     10  C   UNL     1      26.260 -45.287  -8.234  1.00  0.00    -0.010 CG0
ATOM     11  C   UNL     1      26.857 -45.702  -6.870  1.00  0.00     0.016 C 
ATOM     12  C   UNL     1      24.861 -44.682  -7.978  1.00  0.00     0.016 C 
ATOM     13  G   UNL     1      27.231 -44.285  -8.898  1.00  0.00     0.000 G0
ENDBRANCH   9  10
ENDBRANCH   3   8
TORSDOF 0
ENDMDL
MODEL 8
REMARK VINA RESULT:    -2.683     12.952     14.051
REMARK INTER + INTRA:          -2.578
REMARK INTER:                  -3.339
REMARK INTRA:                   0.761
REMARK UNBOUND:                 0.733
REMARK SMILES CC1=CC=CC(C)(C)CC1=O
REMARK SMILES IDX 1 1 2 2 3 3 10 4 11 5 9 6 4 8 5 9 6 10 7 11 8 12
REMARK H PARENT
REMARK Flexibility Score: 80.00
ROOT
ATOM      1  C   UNL     1      24.274 -35.030 -15.486  1.00  0.00     0.048 C 
ATOM      2  C   UNL     1      24.732 -34.034 -14.446  1.00  0.00    -0.008 C 
ATOM      3  C   UNL     1      23.829 -33.622 -13.532  1.00  0.00     0.007 C 
ENDROOT
BRANCH   2   4
ATOM      4  C   UNL     1      26.124 -33.530 -14.561  1.00  0.00     0.159 C 
ATOM      5  O   UNL     1      26.781 -33.788 -15.608  1.00  0.00    -0.295 OA
BRANCH   4   6
ATOM      6  C   UNL     1      26.806 -32.735 -13.490  1.00  0.00     0.091 CG0
ATOM      7  G   UNL     1      26.074 -31.419 -13.148  1.00  0.00     0.000 G0
ENDBRANCH   4   6
ENDBRANCH   2   4
BRANCH   3   8
ATOM      8  C   UNL     1      23.971 -32.649 -12.424  1.00  0.00    -0.003 C 
ATOM      9  C   UNL     1      24.902 -31.702 -12.247  1.00  0.00    -0.020 C 
BRANCH   9  10
ATOM     10  C   UNL     1      26.075 -31.416 -13.154  1.00  0.00    -0.010 CG0
ATOM     11  C   UNL     1      27.065 -30.504 -12.393  1.00  0.00     0.016 C 
ATOM     12  C   UNL     1      25.599 -30.656 -14.412  1.00  0.00     0.016 C 
ATOM     13  G   UNL     1      26.803 -32.736 -13.494  1.00  0.00     0.000 G0
ENDBRANCH   9  10
ENDBRANCH   3   8
TORSDOF 0
ENDMDL
MODEL 9
REMARK VINA RESULT:    -2.588      1.800      2.704
REMARK INTER + INTRA:          -2.461
REMARK INTER:                  -3.220
REMARK INTRA:                   0.759
REMARK UNBOUND:                 0.733
REMARK SMILES CC1=CC=CC(C)(C)CC1=O
REMARK SMILES IDX 1 1 2 2 3 3 10 4 11 5 9 6 4 8 5 9 6 10 7 11 8 12
REMARK H PARENT
REMARK Flexibility Score: 80.00
ROOT
ATOM      1  C   UNL     1      25.414 -43.000  -9.148  1.00  0.00     0.048 C 
ATOM      2  C   UNL     1      26.449 -44.029  -8.755  1.00  0.00    -0.008 C 
ATOM      3  C   UNL     1      27.579 -44.094  -9.491  1.00  0.00     0.007 C 
ENDROOT
BRANCH   2   4
ATOM      4  C   UNL     1      26.104 -44.939  -7.634  1.00  0.00     0.159 C 
ATOM      5  O   UNL     1      24.918 -44.951  -7.203  1.00  0.00    -0.295 OA
BRANCH   4   6
ATOM      6  C   UNL     1      27.095 -45.844  -6.969  1.00  0.00     0.091 CG0
ATOM      7  G   UNL     1      27.733 -46.865  -7.938  1.00  0.00     0.000 G0
ENDBRANCH   4   6
ENDBRANCH   2   4
BRANCH   3   8
ATOM      8  C   UNL     1      28.744 -45.001  -9.368  1.00  0.00    -0.003 C 
ATOM      9  C   UNL     1      28.834 -46.177  -8.733  1.00  0.00    -0.020 C 
BRANCH   9  10
ATOM     10  C   UNL     1      27.740 -46.859  -7.947  1.00  0.00    -0.010 CG0
ATOM     11  C   UNL     1      28.380 -47.988  -7.105  1.00  0.00     0.016 C 
ATOM     12  C   UNL     1      26.720 -47.504  -8.911  1.00  0.00     0.016 C 
ATOM     13  G   UNL     1      27.088 -45.848  -6.978  1.00  0.00     0.000 G0
ENDBRANCH   9  10
ENDBRANCH   3   8
TORSDOF 0
ENDMDL
