MODEL 1
REMARK VINA RESULT:    -4.224      0.000      0.000
REMARK INTER + INTRA:          -6.886
REMARK INTER:                  -6.447
REMARK INTRA:                  -0.439
REMARK UNBOUND:                -0.439
REMARK SMILES O=C([O-])CCCCCCCCC(=O)[O-]
REMARK SMILES IDX 7 1 6 2 5 3 4 4 2 5 1 6 3 7 8 8 9 9 10 10 11 11 12 12 13 13
REMARK SMILES IDX 14 14
REMARK H PARENT
REMARK Flexibility Score: inf
ROOT
ATOM      1  C   UNL     1      25.257  -5.459  52.429  1.00  0.00     0.000 C 
ENDROOT
BRANCH   1   2
ATOM      2  C   UNL     1      25.885  -6.073  53.689  1.00  0.00     0.000 C 
BRANCH   2   3
ATOM      3  C   UNL     1      27.416  -6.168  53.602  1.00  0.00     0.006 C 
BRANCH   3   4
ATOM      4  C   UNL     1      27.928  -6.136  52.156  1.00  0.00     0.053 C 
BRANCH   4   5
ATOM      5  C   UNL     1      29.149  -6.990  52.016  1.00  0.00     0.041 C 
ATOM      6  O   UNL     1      29.319  -7.688  50.982  1.00  0.00    -0.550 OA
ATOM      7  O   UNL     1      30.122  -6.980  53.008  1.00  0.00    -0.550 OA
ENDBRANCH   4   5
ENDBRANCH   3   4
ENDBRANCH   2   3
ENDBRANCH   1   2
BRANCH   1   8
ATOM      8  C   UNL     1      23.741  -5.302  52.592  1.00  0.00     0.000 C 
BRANCH   8   9
ATOM      9  C   UNL     1      23.395  -4.710  53.967  1.00  0.00     0.000 C 
BRANCH   9  10
ATOM     10  C   UNL     1      23.202  -3.185  53.923  1.00  0.00     0.006 C 
BRANCH  10  11
ATOM     11  C   UNL     1      23.772  -2.482  55.163  1.00  0.00     0.053 C 
BRANCH  11  12
ATOM     12  C   UNL     1      22.667  -1.896  55.984  1.00  0.00     0.041 C 
ATOM     13  O   UNL     1      22.209  -0.757  55.708  1.00  0.00    -0.550 OA
ATOM     14  O   UNL     1      22.175  -2.590  57.083  1.00  0.00    -0.550 OA
ENDBRANCH  11  12
ENDBRANCH  10  11
ENDBRANCH   9  10
ENDBRANCH   8   9
ENDBRANCH   1   8
TORSDOF 9
ENDMDL
MODEL 2
REMARK VINA RESULT:    -4.008     15.476     16.327
REMARK INTER + INTRA:          -6.556
REMARK INTER:                  -6.131
REMARK INTRA:                  -0.425
REMARK UNBOUND:                -0.439
REMARK SMILES O=C([O-])CCCCCCCCC(=O)[O-]
REMARK SMILES IDX 7 1 6 2 5 3 4 4 2 5 1 6 3 7 8 8 9 9 10 10 11 11 12 12 13 13
REMARK SMILES IDX 14 14
REMARK H PARENT
REMARK Flexibility Score: inf
ROOT
ATOM      1  C   UNL     1      26.963   4.481  41.227  1.00  0.00     0.000 C 
ENDROOT
BRANCH   1   2
ATOM      2  C   UNL     1      28.087   4.109  42.206  1.00  0.00     0.000 C 
BRANCH   2   3
ATOM      3  C   UNL     1      29.441   4.723  41.814  1.00  0.00     0.006 C 
BRANCH   3   4
ATOM      4  C   UNL     1      29.389   5.456  40.467  1.00  0.00     0.053 C 
BRANCH   4   5
ATOM      5  C   UNL     1      30.076   4.652  39.409  1.00  0.00     0.041 C 
ATOM      6  O   UNL     1      31.328   4.700  39.289  1.00  0.00    -0.550 OA
ATOM      7  O   UNL     1      29.337   3.811  38.586  1.00  0.00    -0.550 OA
ENDBRANCH   4   5
ENDBRANCH   3   4
ENDBRANCH   2   3
ENDBRANCH   1   2
BRANCH   1   8
ATOM      8  C   UNL     1      25.594   4.080  41.787  1.00  0.00     0.000 C 
BRANCH   8   9
ATOM      9  C   UNL     1      24.525   4.089  40.683  1.00  0.00     0.000 C 
BRANCH   9  10
ATOM     10  C   UNL     1      24.859   3.131  39.528  1.00  0.00     0.006 C 
BRANCH  10  11
ATOM     11  C   UNL     1      23.640   2.324  39.059  1.00  0.00     0.053 C 
BRANCH  11  12
ATOM     12  C   UNL     1      23.588   1.004  39.762  1.00  0.00     0.041 C 
ATOM     13  O   UNL     1      23.846  -0.057  39.136  1.00  0.00    -0.550 OA
ATOM     14  O   UNL     1      23.208   0.943  41.097  1.00  0.00    -0.550 OA
ENDBRANCH  11  12
ENDBRANCH  10  11
ENDBRANCH   9  10
ENDBRANCH   8   9
ENDBRANCH   1   8
TORSDOF 9
ENDMDL
MODEL 3
REMARK VINA RESULT:    -3.977     15.676     17.017
REMARK INTER + INTRA:          -6.508
REMARK INTER:                  -6.120
REMARK INTRA:                  -0.388
REMARK UNBOUND:                -0.439
REMARK SMILES O=C([O-])CCCCCCCCC(=O)[O-]
REMARK SMILES IDX 7 1 6 2 5 3 4 4 2 5 1 6 3 7 8 8 9 9 10 10 11 11 12 12 13 13
REMARK SMILES IDX 14 14
REMARK H PARENT
REMARK Flexibility Score: inf
ROOT
ATOM      1  C   UNL     1      25.293   5.014  40.956  1.00  0.00     0.000 C 
ENDROOT
BRANCH   1   2
ATOM      2  C   UNL     1      25.082   3.501  40.793  1.00  0.00     0.000 C 
BRANCH   2   3
ATOM      3  C   UNL     1      24.822   3.093  39.334  1.00  0.00     0.006 C 
BRANCH   3   4
ATOM      4  C   UNL     1      23.488   2.355  39.156  1.00  0.00     0.053 C 
BRANCH   4   5
ATOM      5  C   UNL     1      23.542   1.015  39.820  1.00  0.00     0.041 C 
ATOM      6  O   UNL     1      24.025   0.026  39.209  1.00  0.00    -0.550 OA
ATOM      7  O   UNL     1      23.103   0.869  41.129  1.00  0.00    -0.550 OA
ENDBRANCH   4   5
ENDBRANCH   3   4
ENDBRANCH   2   3
ENDBRANCH   1   2
BRANCH   1   8
ATOM      8  C   UNL     1      26.378   5.307  41.999  1.00  0.00     0.000 C 
BRANCH   8   9
ATOM      9  C   UNL     1      27.710   5.663  41.321  1.00  0.00     0.000 C 
BRANCH   9  10
ATOM     10  C   UNL     1      28.732   4.516  41.385  1.00  0.00     0.006 C 
BRANCH  10  11
ATOM     11  C   UNL     1      30.028   4.838  40.629  1.00  0.00     0.053 C 
BRANCH  11  12
ATOM     12  C   UNL     1      29.845   4.611  39.162  1.00  0.00     0.041 C 
ATOM     13  O   UNL     1      30.399   5.376  38.329  1.00  0.00    -0.550 OA
ATOM     14  O   UNL     1      29.024   3.584  38.714  1.00  0.00    -0.550 OA
ENDBRANCH  11  12
ENDBRANCH  10  11
ENDBRANCH   9  10
ENDBRANCH   8   9
ENDBRANCH   1   8
TORSDOF 9
ENDMDL
MODEL 4
REMARK VINA RESULT:    -3.903     16.110     17.462
REMARK INTER + INTRA:          -6.395
REMARK INTER:                  -5.758
REMARK INTRA:                  -0.637
REMARK UNBOUND:                -0.439
REMARK SMILES O=C([O-])CCCCCCCCC(=O)[O-]
REMARK SMILES IDX 7 1 6 2 5 3 4 4 2 5 1 6 3 7 8 8 9 9 10 10 11 11 12 12 13 13
REMARK SMILES IDX 14 14
REMARK H PARENT
REMARK Flexibility Score: inf
ROOT
ATOM      1  C   UNL     1      26.358   5.455  41.475  1.00  0.00     0.000 C 
ENDROOT
BRANCH   1   2
ATOM      2  C   UNL     1      24.989   5.035  40.918  1.00  0.00     0.000 C 
BRANCH   2   3
ATOM      3  C   UNL     1      24.829   3.508  40.829  1.00  0.00     0.006 C 
BRANCH   3   4
ATOM      4  C   UNL     1      24.675   3.014  39.385  1.00  0.00     0.053 C 
BRANCH   4   5
ATOM      5  C   UNL     1      23.565   2.014  39.292  1.00  0.00     0.041 C 
ATOM      6  O   UNL     1      23.446   1.118  40.168  1.00  0.00    -0.550 OA
ATOM      7  O   UNL     1      22.635   2.102  38.264  1.00  0.00    -0.550 OA
ENDBRANCH   4   5
ENDBRANCH   3   4
ENDBRANCH   2   3
ENDBRANCH   1   2
BRANCH   1   8
ATOM      8  C   UNL     1      27.153   4.235  41.953  1.00  0.00     0.000 C 
BRANCH   8   9
ATOM      9  C   UNL     1      28.527   4.172  41.269  1.00  0.00     0.000 C 
BRANCH   9  10
ATOM     10  C   UNL     1      28.430   4.254  39.737  1.00  0.00     0.006 C 
BRANCH  10  11
ATOM     11  C   UNL     1      29.798   4.126  39.052  1.00  0.00     0.053 C 
BRANCH  11  12
ATOM     12  C   UNL     1      30.588   5.384  39.228  1.00  0.00     0.041 C 
ATOM     13  O   UNL     1      31.816   5.327  39.501  1.00  0.00    -0.550 OA
ATOM     14  O   UNL     1      29.959   6.619  39.138  1.00  0.00    -0.550 OA
ENDBRANCH  11  12
ENDBRANCH  10  11
ENDBRANCH   9  10
ENDBRANCH   8   9
ENDBRANCH   1   8
TORSDOF 9
ENDMDL
MODEL 5
REMARK VINA RESULT:    -3.887      9.931     10.666
REMARK INTER + INTRA:          -6.370
REMARK INTER:                  -5.840
REMARK INTRA:                  -0.530
REMARK UNBOUND:                -0.439
REMARK SMILES O=C([O-])CCCCCCCCC(=O)[O-]
REMARK SMILES IDX 7 1 6 2 5 3 4 4 2 5 1 6 3 7 8 8 9 9 10 10 11 11 12 12 13 13
REMARK SMILES IDX 14 14
REMARK H PARENT
REMARK Flexibility Score: inf
ROOT
ATOM      1  C   UNL     1      27.057   4.390  47.137  1.00  0.00     0.000 C 
ENDROOT
BRANCH   1   2
ATOM      2  C   UNL     1      27.460   5.675  47.876  1.00  0.00     0.000 C 
BRANCH   2   3
ATOM      3  C   UNL     1      28.971   5.750  48.152  1.00  0.00     0.006 C 
BRANCH   3   4
ATOM      4  C   UNL     1      29.396   4.888  49.347  1.00  0.00     0.053 C 
BRANCH   4   5
ATOM      5  C   UNL     1      30.886   4.751  49.387  1.00  0.00     0.041 C 
ATOM      6  O   UNL     1      31.616   5.618  48.839  1.00  0.00    -0.550 OA
ATOM      7  O   UNL     1      31.469   3.692  50.071  1.00  0.00    -0.550 OA
ENDBRANCH   4   5
ENDBRANCH   3   4
ENDBRANCH   2   3
ENDBRANCH   1   2
BRANCH   1   8
ATOM      8  C   UNL     1      25.724   3.848  47.666  1.00  0.00     0.000 C 
BRANCH   8   9
ATOM      9  C   UNL     1      25.728   3.785  49.201  1.00  0.00     0.000 C 
BRANCH   9  10
ATOM     10  C   UNL     1      25.190   2.450  49.740  1.00  0.00     0.006 C 
BRANCH  10  11
ATOM     11  C   UNL     1      24.344   1.694  48.707  1.00  0.00     0.053 C 
BRANCH  11  12
ATOM     12  C   UNL     1      24.616   0.225  48.785  1.00  0.00     0.041 C 
ATOM     13  O   UNL     1      25.021  -0.288  49.861  1.00  0.00    -0.550 OA
ATOM     14  O   UNL     1      24.467  -0.571  47.656  1.00  0.00    -0.550 OA
ENDBRANCH  11  12
ENDBRANCH  10  11
ENDBRANCH   9  10
ENDBRANCH   8   9
ENDBRANCH   1   8
TORSDOF 9
ENDMDL
MODEL 6
REMARK VINA RESULT:    -3.851      3.939      5.241
REMARK INTER + INTRA:          -6.316
REMARK INTER:                  -5.373
REMARK INTRA:                  -0.943
REMARK UNBOUND:                -0.439
REMARK SMILES O=C([O-])CCCCCCCCC(=O)[O-]
REMARK SMILES IDX 7 1 6 2 5 3 4 4 2 5 1 6 3 7 8 8 9 9 10 10 11 11 12 12 13 13
REMARK SMILES IDX 14 14
REMARK H PARENT
REMARK Flexibility Score: inf
ROOT
ATOM      1  C   UNL     1      24.261  -3.033  56.207  1.00  0.00     0.000 C 
ENDROOT
BRANCH   1   2
ATOM      2  C   UNL     1      23.538  -2.171  55.162  1.00  0.00     0.000 C 
BRANCH   2   3
ATOM      3  C   UNL     1      22.788  -3.013  54.116  1.00  0.00     0.006 C 
BRANCH   3   4
ATOM      4  C   UNL     1      23.548  -4.291  53.733  1.00  0.00     0.053 C 
BRANCH   4   5
ATOM      5  C   UNL     1      22.610  -5.455  53.672  1.00  0.00     0.041 C 
ATOM      6  O   UNL     1      22.839  -6.412  52.886  1.00  0.00    -0.550 OA
ATOM      7  O   UNL     1      21.508  -5.506  54.516  1.00  0.00    -0.550 OA
ENDBRANCH   4   5
ENDBRANCH   3   4
ENDBRANCH   2   3
ENDBRANCH   1   2
BRANCH   1   8
ATOM      8  C   UNL     1      23.537  -2.979  57.558  1.00  0.00     0.000 C 
BRANCH   8   9
ATOM      9  C   UNL     1      22.447  -4.058  57.641  1.00  0.00     0.000 C 
BRANCH   9  10
ATOM     10  C   UNL     1      21.033  -3.488  57.444  1.00  0.00     0.006 C 
BRANCH  10  11
ATOM     11  C   UNL     1      20.928  -2.015  57.861  1.00  0.00     0.053 C 
BRANCH  11  12
ATOM     12  C   UNL     1      19.919  -1.304  57.014  1.00  0.00     0.041 C 
ATOM     13  O   UNL     1      18.760  -1.092  57.454  1.00  0.00    -0.550 OA
ATOM     14  O   UNL     1      20.247  -0.920  55.720  1.00  0.00    -0.550 OA
ENDBRANCH  11  12
ENDBRANCH  10  11
ENDBRANCH   9  10
ENDBRANCH   8   9
ENDBRANCH   1   8
TORSDOF 9
ENDMDL
MODEL 7
REMARK VINA RESULT:    -3.841     13.703     14.303
REMARK INTER + INTRA:          -6.300
REMARK INTER:                  -5.716
REMARK INTRA:                  -0.584
REMARK UNBOUND:                -0.439
REMARK SMILES O=C([O-])CCCCCCCCC(=O)[O-]
REMARK SMILES IDX 7 1 6 2 5 3 4 4 2 5 1 6 3 7 8 8 9 9 10 10 11 11 12 12 13 13
REMARK SMILES IDX 14 14
REMARK H PARENT
REMARK Flexibility Score: inf
ROOT
ATOM      1  C   UNL     1      30.840   6.084  47.273  1.00  0.00     0.000 C 
ENDROOT
BRANCH   1   2
ATOM      2  C   UNL     1      31.365   5.445  45.978  1.00  0.00     0.000 C 
BRANCH   2   3
ATOM      3  C   UNL     1      32.100   6.452  45.077  1.00  0.00     0.006 C 
BRANCH   3   4
ATOM      4  C   UNL     1      31.972   7.896  45.580  1.00  0.00     0.053 C 
BRANCH   4   5
ATOM      5  C   UNL     1      33.325   8.468  45.868  1.00  0.00     0.041 C 
ATOM      6  O   UNL     1      33.439   9.484  46.603  1.00  0.00    -0.550 OA
ATOM      7  O   UNL     1      34.462   7.850  45.365  1.00  0.00    -0.550 OA
ENDBRANCH   4   5
ENDBRANCH   3   4
ENDBRANCH   2   3
ENDBRANCH   1   2
BRANCH   1   8
ATOM      8  C   UNL     1      31.341   5.319  48.503  1.00  0.00     0.000 C 
BRANCH   8   9
ATOM      9  C   UNL     1      30.165   4.798  49.343  1.00  0.00     0.000 C 
BRANCH   9  10
ATOM     10  C   UNL     1      28.825   5.437  48.945  1.00  0.00     0.006 C 
BRANCH  10  11
ATOM     11  C   UNL     1      27.701   4.402  48.791  1.00  0.00     0.053 C 
BRANCH  11  12
ATOM     12  C   UNL     1      27.062   4.525  47.443  1.00  0.00     0.041 C 
ATOM     13  O   UNL     1      27.774   4.557  46.405  1.00  0.00    -0.550 OA
ATOM     14  O   UNL     1      25.683   4.652  47.337  1.00  0.00    -0.550 OA
ENDBRANCH  11  12
ENDBRANCH  10  11
ENDBRANCH   9  10
ENDBRANCH   8   9
ENDBRANCH   1   8
TORSDOF 9
ENDMDL
MODEL 8
REMARK VINA RESULT:    -3.831      3.216      4.682
REMARK INTER + INTRA:          -6.286
REMARK INTER:                  -5.324
REMARK INTRA:                  -0.962
REMARK UNBOUND:                -0.439
REMARK SMILES O=C([O-])CCCCCCCCC(=O)[O-]
REMARK SMILES IDX 7 1 6 2 5 3 4 4 2 5 1 6 3 7 8 8 9 9 10 10 11 11 12 12 13 13
REMARK SMILES IDX 14 14
REMARK H PARENT
REMARK Flexibility Score: inf
ROOT
ATOM      1  C   UNL     1      23.365  -2.046  55.526  1.00  0.00     0.000 C 
ENDROOT
BRANCH   1   2
ATOM      2  C   UNL     1      23.325  -2.668  54.122  1.00  0.00     0.000 C 
BRANCH   2   3
ATOM      3  C   UNL     1      23.559  -4.188  54.141  1.00  0.00     0.006 C 
BRANCH   3   4
ATOM      4  C   UNL     1      22.954  -4.893  52.919  1.00  0.00     0.053 C 
BRANCH   4   5
ATOM      5  C   UNL     1      24.033  -5.298  51.965  1.00  0.00     0.041 C 
ATOM      6  O   UNL     1      25.191  -5.550  52.388  1.00  0.00    -0.550 OA
ATOM      7  O   UNL     1      23.746  -5.444  50.613  1.00  0.00    -0.550 OA
ENDBRANCH   4   5
ENDBRANCH   3   4
ENDBRANCH   2   3
ENDBRANCH   1   2
BRANCH   1   8
ATOM      8  C   UNL     1      24.089  -2.969  56.514  1.00  0.00     0.000 C 
BRANCH   8   9
ATOM      9  C   UNL     1      23.198  -3.285  57.725  1.00  0.00     0.000 C 
BRANCH   9  10
ATOM     10  C   UNL     1      21.784  -2.695  57.590  1.00  0.00     0.006 C 
BRANCH  10  11
ATOM     11  C   UNL     1      20.690  -3.770  57.634  1.00  0.00     0.053 C 
BRANCH  11  12
ATOM     12  C   UNL     1      20.626  -4.502  56.330  1.00  0.00     0.041 C 
ATOM     13  O   UNL     1      21.055  -5.682  56.245  1.00  0.00    -0.550 OA
ATOM     14  O   UNL     1      20.135  -3.863  55.198  1.00  0.00    -0.550 OA
ENDBRANCH  11  12
ENDBRANCH  10  11
ENDBRANCH   9  10
ENDBRANCH   8   9
ENDBRANCH   1   8
TORSDOF 9
ENDMDL
MODEL 9
REMARK VINA RESULT:    -3.771     13.817     15.096
REMARK INTER + INTRA:          -6.194
REMARK INTER:                  -5.606
REMARK INTRA:                  -0.588
REMARK UNBOUND:                -0.439
REMARK SMILES O=C([O-])CCCCCCCCC(=O)[O-]
REMARK SMILES IDX 7 1 6 2 5 3 4 4 2 5 1 6 3 7 8 8 9 9 10 10 11 11 12 12 13 13
REMARK SMILES IDX 14 14
REMARK H PARENT
REMARK Flexibility Score: inf
ROOT
ATOM      1  C   UNL     1      31.492   5.120  48.623  1.00  0.00     0.000 C 
ENDROOT
BRANCH   1   2
ATOM      2  C   UNL     1      30.226   4.895  49.464  1.00  0.00     0.000 C 
BRANCH   2   3
ATOM      3  C   UNL     1      28.983   5.561  48.853  1.00  0.00     0.006 C 
BRANCH   3   4
ATOM      4  C   UNL     1      27.790   4.602  48.750  1.00  0.00     0.053 C 
BRANCH   4   5
ATOM      5  C   UNL     1      27.220   4.625  47.367  1.00  0.00     0.041 C 
ATOM      6  O   UNL     1      25.973   4.585  47.194  1.00  0.00    -0.550 OA
ATOM      7  O   UNL     1      28.064   4.741  46.269  1.00  0.00    -0.550 OA
ENDBRANCH   4   5
ENDBRANCH   3   4
ENDBRANCH   2   3
ENDBRANCH   1   2
BRANCH   1   8
ATOM      8  C   UNL     1      31.230   6.125  47.496  1.00  0.00     0.000 C 
BRANCH   8   9
ATOM      9  C   UNL     1      31.499   5.493  46.122  1.00  0.00     0.000 C 
BRANCH   9  10
ATOM     10  C   UNL     1      31.635   6.540  45.004  1.00  0.00     0.006 C 
BRANCH  10  11
ATOM     11  C   UNL     1      33.075   6.673  44.492  1.00  0.00     0.053 C 
BRANCH  11  12
ATOM     12  C   UNL     1      33.648   7.999  44.884  1.00  0.00     0.041 C 
ATOM     13  O   UNL     1      34.123   8.768  44.009  1.00  0.00    -0.550 OA
ATOM     14  O   UNL     1      33.699   8.364  46.224  1.00  0.00    -0.550 OA
ENDBRANCH  11  12
ENDBRANCH  10  11
ENDBRANCH   9  10
ENDBRANCH   8   9
ENDBRANCH   1   8
TORSDOF 9
ENDMDL
