MODEL 1
REMARK VINA RESULT:    -5.159      0.000      0.000
REMARK INTER + INTRA:          -5.983
REMARK INTER:                  -5.762
REMARK INTRA:                  -0.221
REMARK UNBOUND:                -0.221
REMARK SMILES CC(C)c1ccc(C(=O)[O-])cc1
REMARK SMILES IDX 7 1 6 2 11 3 5 4 12 5 4 6 8 7 9 8 10 9 2 10 1 11 3 12
REMARK H PARENT
REMARK Flexibility Score: inf
ROOT
ATOM      1  C   UNL     1      36.365  19.155   7.967  1.00  0.00    -0.003 A 
ATOM      2  C   UNL     1      37.719  18.877   8.216  1.00  0.00     0.010 A 
ATOM      3  C   UNL     1      35.436  19.007   9.012  1.00  0.00     0.010 A 
ATOM      4  C   UNL     1      38.137  18.461   9.483  1.00  0.00     0.004 A 
ATOM      5  C   UNL     1      35.854  18.592  10.279  1.00  0.00     0.004 A 
ATOM      6  C   UNL     1      37.209  18.314  10.529  1.00  0.00    -0.045 A 
ENDROOT
BRANCH   1   7
ATOM      7  C   UNL     1      35.926  19.594   6.624  1.00  0.00     0.071 C 
ATOM      8  O   UNL     1      36.737  19.609   5.659  1.00  0.00    -0.545 OA
ATOM      9  O   UNL     1      34.614  19.995   6.407  1.00  0.00    -0.545 OA
ENDBRANCH   1   7
BRANCH   6  10
ATOM     10  C   UNL     1      37.650  17.864  11.910  1.00  0.00     0.013 C 
ATOM     11  C   UNL     1      39.145  18.128  12.127  1.00  0.00     0.012 C 
ATOM     12  C   UNL     1      36.807  18.530  13.005  1.00  0.00     0.012 C 
ENDBRANCH   6  10
TORSDOF 2
ENDMDL
MODEL 2
REMARK VINA RESULT:    -5.145      3.959      5.141
REMARK INTER + INTRA:          -5.968
REMARK INTER:                  -5.763
REMARK INTRA:                  -0.205
REMARK UNBOUND:                -0.221
REMARK SMILES CC(C)c1ccc(C(=O)[O-])cc1
REMARK SMILES IDX 7 1 6 2 11 3 5 4 12 5 4 6 8 7 9 8 10 9 2 10 1 11 3 12
REMARK H PARENT
REMARK Flexibility Score: inf
ROOT
ATOM      1  C   UNL     1      40.888  18.472  10.878  1.00  0.00    -0.003 A 
ATOM      2  C   UNL     1      40.076  18.446   9.731  1.00  0.00     0.010 A 
ATOM      3  C   UNL     1      40.290  18.309  12.139  1.00  0.00     0.010 A 
ATOM      4  C   UNL     1      38.696  18.258   9.843  1.00  0.00     0.004 A 
ATOM      5  C   UNL     1      38.909  18.121  12.251  1.00  0.00     0.004 A 
ATOM      6  C   UNL     1      38.097  18.094  11.105  1.00  0.00    -0.045 A 
ENDROOT
BRANCH   1   7
ATOM      7  C   UNL     1      42.348  18.671  10.755  1.00  0.00     0.071 C 
ATOM      8  O   UNL     1      43.150  17.757  11.088  1.00  0.00    -0.545 OA
ATOM      9  O   UNL     1      42.858  19.870  10.270  1.00  0.00    -0.545 OA
ENDBRANCH   1   7
BRANCH   6  10
ATOM     10  C   UNL     1      36.598  17.890  11.240  1.00  0.00     0.013 C 
ATOM     11  C   UNL     1      36.232  16.404  11.140  1.00  0.00     0.012 C 
ATOM     12  C   UNL     1      36.072  18.503  12.543  1.00  0.00     0.012 C 
ENDBRANCH   6  10
TORSDOF 2
ENDMDL
MODEL 3
REMARK VINA RESULT:    -5.051      2.837      4.110
REMARK INTER + INTRA:          -5.863
REMARK INTER:                  -5.656
REMARK INTRA:                  -0.207
REMARK UNBOUND:                -0.221
REMARK SMILES CC(C)c1ccc(C(=O)[O-])cc1
REMARK SMILES IDX 7 1 6 2 11 3 5 4 12 5 4 6 8 7 9 8 10 9 2 10 1 11 3 12
REMARK H PARENT
REMARK Flexibility Score: inf
ROOT
ATOM      1  C   UNL     1      38.757  18.192  10.366  1.00  0.00    -0.003 A 
ATOM      2  C   UNL     1      38.672  18.147  11.767  1.00  0.00     0.010 A 
ATOM      3  C   UNL     1      37.576  18.332   9.617  1.00  0.00     0.010 A 
ATOM      4  C   UNL     1      37.433  18.241  12.407  1.00  0.00     0.004 A 
ATOM      5  C   UNL     1      36.337  18.427  10.257  1.00  0.00     0.004 A 
ATOM      6  C   UNL     1      36.251  18.382  11.658  1.00  0.00    -0.045 A 
ENDROOT
BRANCH   1   7
ATOM      7  C   UNL     1      40.070  18.091   9.693  1.00  0.00     0.071 C 
ATOM      8  O   UNL     1      40.224  17.333   8.698  1.00  0.00    -0.545 OA
ATOM      9  O   UNL     1      41.155  18.831  10.149  1.00  0.00    -0.545 OA
ENDBRANCH   1   7
BRANCH   6  10
ATOM     10  C   UNL     1      34.899  18.486  12.341  1.00  0.00     0.013 C 
ATOM     11  C   UNL     1      33.983  19.472  11.606  1.00  0.00     0.012 C 
ATOM     12  C   UNL     1      34.238  17.108  12.471  1.00  0.00     0.012 C 
ENDBRANCH   6  10
TORSDOF 2
ENDMDL
MODEL 4
REMARK VINA RESULT:    -5.029      3.087      4.455
REMARK INTER + INTRA:          -5.838
REMARK INTER:                  -5.629
REMARK INTRA:                  -0.209
REMARK UNBOUND:                -0.221
REMARK SMILES CC(C)c1ccc(C(=O)[O-])cc1
REMARK SMILES IDX 7 1 6 2 11 3 5 4 12 5 4 6 8 7 9 8 10 9 2 10 1 11 3 12
REMARK H PARENT
REMARK Flexibility Score: inf
ROOT
ATOM      1  C   UNL     1      38.977  18.209  10.837  1.00  0.00    -0.003 A 
ATOM      2  C   UNL     1      38.543  18.163  12.172  1.00  0.00     0.010 A 
ATOM      3  C   UNL     1      38.019  18.238   9.809  1.00  0.00     0.010 A 
ATOM      4  C   UNL     1      37.178  18.149  12.474  1.00  0.00     0.004 A 
ATOM      5  C   UNL     1      36.654  18.224  10.111  1.00  0.00     0.004 A 
ATOM      6  C   UNL     1      36.218  18.180  11.446  1.00  0.00    -0.045 A 
ENDROOT
BRANCH   1   7
ATOM      7  C   UNL     1      40.423  18.223  10.521  1.00  0.00     0.071 C 
ATOM      8  O   UNL     1      41.266  18.560  11.395  1.00  0.00    -0.545 OA
ATOM      9  O   UNL     1      40.872  17.864   9.256  1.00  0.00    -0.545 OA
ENDBRANCH   1   7
BRANCH   6  10
ATOM     10  C   UNL     1      34.733  18.165  11.761  1.00  0.00     0.013 C 
ATOM     11  C   UNL     1      34.435  17.284  12.981  1.00  0.00     0.012 C 
ATOM     12  C   UNL     1      34.197  19.587  11.961  1.00  0.00     0.012 C 
ENDBRANCH   6  10
TORSDOF 2
ENDMDL
MODEL 5
REMARK VINA RESULT:    -4.979      3.217      4.687
REMARK INTER + INTRA:          -5.782
REMARK INTER:                  -5.573
REMARK INTRA:                  -0.209
REMARK UNBOUND:                -0.221
REMARK SMILES CC(C)c1ccc(C(=O)[O-])cc1
REMARK SMILES IDX 7 1 6 2 11 3 5 4 12 5 4 6 8 7 9 8 10 9 2 10 1 11 3 12
REMARK H PARENT
REMARK Flexibility Score: inf
ROOT
ATOM      1  C   UNL     1      38.045  18.172  11.073  1.00  0.00    -0.003 A 
ATOM      2  C   UNL     1      38.834  18.156  12.235  1.00  0.00     0.010 A 
ATOM      3  C   UNL     1      38.678  18.228   9.820  1.00  0.00     0.010 A 
ATOM      4  C   UNL     1      40.229  18.193  12.145  1.00  0.00     0.004 A 
ATOM      5  C   UNL     1      40.073  18.264   9.730  1.00  0.00     0.004 A 
ATOM      6  C   UNL     1      40.864  18.248  10.891  1.00  0.00    -0.045 A 
ENDROOT
BRANCH   1   7
ATOM      7  C   UNL     1      36.569  18.133  11.172  1.00  0.00     0.071 C 
ATOM      8  O   UNL     1      35.852  18.545  10.221  1.00  0.00    -0.545 OA
ATOM      9  O   UNL     1      35.952  17.642  12.316  1.00  0.00    -0.545 OA
ENDBRANCH   1   7
BRANCH   6  10
ATOM     10  C   UNL     1      42.377  18.288  10.781  1.00  0.00     0.013 C 
ATOM     11  C   UNL     1      42.892  17.190   9.842  1.00  0.00     0.012 C 
ATOM     12  C   UNL     1      42.862  19.672  10.332  1.00  0.00     0.012 C 
ENDBRANCH   6  10
TORSDOF 2
ENDMDL
MODEL 6
REMARK VINA RESULT:    -4.977      3.064      4.430
REMARK INTER + INTRA:          -5.780
REMARK INTER:                  -5.567
REMARK INTRA:                  -0.213
REMARK UNBOUND:                -0.221
REMARK SMILES CC(C)c1ccc(C(=O)[O-])cc1
REMARK SMILES IDX 7 1 6 2 11 3 5 4 12 5 4 6 8 7 9 8 10 9 2 10 1 11 3 12
REMARK H PARENT
REMARK Flexibility Score: inf
ROOT
ATOM      1  C   UNL     1      36.035  18.106  11.595  1.00  0.00    -0.003 A 
ATOM      2  C   UNL     1      36.127  18.334  10.212  1.00  0.00     0.010 A 
ATOM      3  C   UNL     1      37.217  17.985  12.345  1.00  0.00     0.010 A 
ATOM      4  C   UNL     1      37.374  18.441   9.591  1.00  0.00     0.004 A 
ATOM      5  C   UNL     1      38.465  18.092  11.724  1.00  0.00     0.004 A 
ATOM      6  C   UNL     1      38.558  18.321  10.341  1.00  0.00    -0.045 A 
ENDROOT
BRANCH   1   7
ATOM      7  C   UNL     1      34.712  17.993  12.247  1.00  0.00     0.071 C 
ATOM      8  O   UNL     1      33.778  18.782  11.943  1.00  0.00    -0.545 OA
ATOM      9  O   UNL     1      34.480  17.014  13.206  1.00  0.00    -0.545 OA
ENDBRANCH   1   7
BRANCH   6  10
ATOM     10  C   UNL     1      39.920  18.435   9.679  1.00  0.00     0.013 C 
ATOM     11  C   UNL     1      41.045  18.409  10.721  1.00  0.00     0.012 C 
ATOM     12  C   UNL     1      40.116  17.339   8.625  1.00  0.00     0.012 C 
ENDBRANCH   6  10
TORSDOF 2
ENDMDL
MODEL 7
REMARK VINA RESULT:    -4.970      9.511     11.048
REMARK INTER + INTRA:          -5.772
REMARK INTER:                  -5.566
REMARK INTRA:                  -0.206
REMARK UNBOUND:                -0.221
REMARK SMILES CC(C)c1ccc(C(=O)[O-])cc1
REMARK SMILES IDX 7 1 6 2 11 3 5 4 12 5 4 6 8 7 9 8 10 9 2 10 1 11 3 12
REMARK H PARENT
REMARK Flexibility Score: inf
ROOT
ATOM      1  C   UNL     1      32.116  13.683  15.447  1.00  0.00    -0.003 A 
ATOM      2  C   UNL     1      30.908  14.352  15.709  1.00  0.00     0.010 A 
ATOM      3  C   UNL     1      32.072  12.390  14.898  1.00  0.00     0.010 A 
ATOM      4  C   UNL     1      29.683  13.741  15.427  1.00  0.00     0.004 A 
ATOM      5  C   UNL     1      30.847  11.779  14.616  1.00  0.00     0.004 A 
ATOM      6  C   UNL     1      29.639  12.447  14.877  1.00  0.00    -0.045 A 
ENDROOT
BRANCH   1   7
ATOM      7  C   UNL     1      33.410  14.333  15.747  1.00  0.00     0.071 C 
ATOM      8  O   UNL     1      34.443  14.040  15.086  1.00  0.00    -0.545 OA
ATOM      9  O   UNL     1      33.506  15.277  16.763  1.00  0.00    -0.545 OA
ENDBRANCH   1   7
BRANCH   6  10
ATOM     10  C   UNL     1      28.315  11.773  14.566  1.00  0.00     0.013 C 
ATOM     11  C   UNL     1      27.394  11.770  15.793  1.00  0.00     0.012 C 
ATOM     12  C   UNL     1      27.630  12.430  13.362  1.00  0.00     0.012 C 
ENDBRANCH   6  10
TORSDOF 2
ENDMDL
MODEL 8
REMARK VINA RESULT:    -4.939      1.159      2.191
REMARK INTER + INTRA:          -5.738
REMARK INTER:                  -5.528
REMARK INTRA:                  -0.209
REMARK UNBOUND:                -0.221
REMARK SMILES CC(C)c1ccc(C(=O)[O-])cc1
REMARK SMILES IDX 7 1 6 2 11 3 5 4 12 5 4 6 8 7 9 8 10 9 2 10 1 11 3 12
REMARK H PARENT
REMARK Flexibility Score: inf
ROOT
ATOM      1  C   UNL     1      35.484  19.332   8.174  1.00  0.00    -0.003 A 
ATOM      2  C   UNL     1      34.503  19.859   9.030  1.00  0.00     0.010 A 
ATOM      3  C   UNL     1      36.490  18.513   8.713  1.00  0.00     0.010 A 
ATOM      4  C   UNL     1      34.526  19.571  10.398  1.00  0.00     0.004 A 
ATOM      5  C   UNL     1      36.513  18.225  10.081  1.00  0.00     0.004 A 
ATOM      6  C   UNL     1      35.532  18.750  10.938  1.00  0.00    -0.045 A 
ENDROOT
BRANCH   1   7
ATOM      7  C   UNL     1      35.456  19.640   6.727  1.00  0.00     0.071 C 
ATOM      8  O   UNL     1      36.520  19.635   6.050  1.00  0.00    -0.545 OA
ATOM      9  O   UNL     1      34.256  19.940   6.093  1.00  0.00    -0.545 OA
ENDBRANCH   1   7
BRANCH   6  10
ATOM     10  C   UNL     1      35.568  18.429  12.422  1.00  0.00     0.013 C 
ATOM     11  C   UNL     1      34.978  17.042  12.702  1.00  0.00     0.012 C 
ATOM     12  C   UNL     1      36.992  18.548  12.978  1.00  0.00     0.012 C 
ENDBRANCH   6  10
TORSDOF 2
ENDMDL
MODEL 9
REMARK VINA RESULT:    -4.921      3.530      5.143
REMARK INTER + INTRA:          -5.717
REMARK INTER:                  -5.505
REMARK INTRA:                  -0.212
REMARK UNBOUND:                -0.221
REMARK SMILES CC(C)c1ccc(C(=O)[O-])cc1
REMARK SMILES IDX 7 1 6 2 11 3 5 4 12 5 4 6 8 7 9 8 10 9 2 10 1 11 3 12
REMARK H PARENT
REMARK Flexibility Score: inf
ROOT
ATOM      1  C   UNL     1      36.036  18.074  11.149  1.00  0.00    -0.003 A 
ATOM      2  C   UNL     1      36.153  18.370   9.781  1.00  0.00     0.010 A 
ATOM      3  C   UNL     1      35.076  18.759  11.914  1.00  0.00     0.010 A 
ATOM      4  C   UNL     1      35.327  19.330   9.190  1.00  0.00     0.004 A 
ATOM      5  C   UNL     1      34.251  19.719  11.323  1.00  0.00     0.004 A 
ATOM      6  C   UNL     1      34.366  20.016   9.955  1.00  0.00    -0.045 A 
ENDROOT
BRANCH   1   7
ATOM      7  C   UNL     1      36.912  17.057  11.771  1.00  0.00     0.071 C 
ATOM      8  O   UNL     1      38.035  17.381  12.242  1.00  0.00    -0.545 OA
ATOM      9  O   UNL     1      36.508  15.729  11.845  1.00  0.00    -0.545 OA
ENDBRANCH   1   7
BRANCH   6  10
ATOM     10  C   UNL     1      33.464  21.061   9.325  1.00  0.00     0.013 C 
ATOM     11  C   UNL     1      33.285  20.805   7.823  1.00  0.00     0.012 C 
ATOM     12  C   UNL     1      32.109  21.125  10.040  1.00  0.00     0.012 C 
ENDBRANCH   6  10
TORSDOF 2
ENDMDL
