MODEL 1
REMARK VINA RESULT:    -1.501      0.000      0.000
REMARK INTER + INTRA:          -3.738
REMARK INTER:                  -2.641
REMARK INTRA:                  -1.096
REMARK UNBOUND:                -1.096
REMARK SMILES CCCCCCC=CCCCCCCCC(=O)[O-]
REMARK SMILES IDX 10 1 11 2 12 3 13 4 14 5 15 6 16 7 17 8 18 9 9 10 8 11 7 12
REMARK SMILES IDX 6 13 5 14 4 15 3 16 2 17 1 18
REMARK H PARENT
REMARK Flexibility Score: inf
ROOT
ATOM      1  C   UNL     1      -4.397  28.606  27.495  1.00  0.00     0.004 C 
ENDROOT
BRANCH   1   2
ATOM      2  C   UNL     1      -4.220  27.132  27.891  1.00  0.00     0.000 C 
BRANCH   2   3
ATOM      3  C   UNL     1      -3.166  26.450  27.009  1.00  0.00     0.000 C 
BRANCH   3   4
ATOM      4  C   UNL     1      -2.679  27.396  25.901  1.00  0.00     0.000 C 
BRANCH   4   5
ATOM      5  C   UNL     1      -1.268  27.951  26.169  1.00  0.00     0.006 C 
BRANCH   5   6
ATOM      6  C   UNL     1      -0.274  26.914  26.715  1.00  0.00     0.053 C 
BRANCH   6   7
ATOM      7  C   UNL     1       1.062  27.010  26.044  1.00  0.00     0.041 C 
ATOM      8  O   UNL     1       1.495  28.124  25.648  1.00  0.00    -0.550 OA
ATOM      9  O   UNL     1       1.815  25.863  25.828  1.00  0.00    -0.550 OA
ENDBRANCH   6   7
ENDBRANCH   5   6
ENDBRANCH   4   5
ENDBRANCH   3   4
ENDBRANCH   2   3
ENDBRANCH   1   2
BRANCH   1  10
ATOM     10  C   UNL     1      -3.593  29.556  28.397  1.00  0.00     0.027 C 
BRANCH  10  11
ATOM     11  C   UNL     1      -4.287  29.866  29.703  1.00  0.00    -0.031 C 
ATOM     12  C   UNL     1      -4.052  29.247  30.876  1.00  0.00    -0.031 C 
BRANCH  12  13
ATOM     13  C   UNL     1      -3.087  28.107  31.083  1.00  0.00     0.027 C 
BRANCH  13  14
ATOM     14  C   UNL     1      -3.806  26.767  30.896  1.00  0.00     0.004 C 
BRANCH  14  15
ATOM     15  C   UNL     1      -2.845  25.588  31.114  1.00  0.00     0.000 C 
BRANCH  15  16
ATOM     16  C   UNL     1      -1.527  25.755  30.329  1.00  0.00    -0.000 C 
BRANCH  16  17
ATOM     17  C   UNL     1      -0.280  25.338  31.124  1.00  0.00    -0.003 C 
ATOM     18  C   UNL     1       0.825  26.393  31.103  1.00  0.00     0.004 C 
ENDBRANCH  16  17
ENDBRANCH  15  16
ENDBRANCH  14  15
ENDBRANCH  13  14
ENDBRANCH  12  13
ENDBRANCH  10  11
ENDBRANCH   1  10
TORSDOF 13
ENDMDL
MODEL 2
REMARK VINA RESULT:    -0.557      0.877      1.312
REMARK INTER + INTRA:          -2.077
REMARK INTER:                  -1.243
REMARK INTRA:                  -0.834
REMARK UNBOUND:                -1.096
REMARK SMILES CCCCCCC=CCCCCCCCC(=O)[O-]
REMARK SMILES IDX 10 1 11 2 12 3 13 4 14 5 15 6 16 7 17 8 18 9 9 10 8 11 7 12
REMARK SMILES IDX 6 13 5 14 4 15 3 16 2 17 1 18
REMARK H PARENT
REMARK Flexibility Score: inf
ROOT
ATOM      1  C   UNL     1      -5.008  27.938  27.706  1.00  0.00     0.004 C 
ENDROOT
BRANCH   1   2
ATOM      2  C   UNL     1      -4.149  26.725  28.096  1.00  0.00     0.000 C 
BRANCH   2   3
ATOM      3  C   UNL     1      -3.484  26.104  26.861  1.00  0.00     0.000 C 
BRANCH   3   4
ATOM      4  C   UNL     1      -3.202  27.170  25.792  1.00  0.00     0.000 C 
BRANCH   4   5
ATOM      5  C   UNL     1      -1.732  27.178  25.332  1.00  0.00     0.006 C 
BRANCH   5   6
ATOM      6  C   UNL     1      -0.764  27.848  26.319  1.00  0.00     0.053 C 
BRANCH   6   7
ATOM      7  C   UNL     1       0.665  27.510  26.021  1.00  0.00     0.041 C 
ATOM      8  O   UNL     1       1.064  26.318  26.099  1.00  0.00    -0.550 OA
ATOM      9  O   UNL     1       1.563  28.517  25.691  1.00  0.00    -0.550 OA
ENDBRANCH   6   7
ENDBRANCH   5   6
ENDBRANCH   4   5
ENDBRANCH   3   4
ENDBRANCH   2   3
ENDBRANCH   1   2
BRANCH   1  10
ATOM     10  C   UNL     1      -4.271  29.270  27.916  1.00  0.00     0.027 C 
BRANCH  10  11
ATOM     11  C   UNL     1      -4.491  29.862  29.289  1.00  0.00    -0.031 C 
ATOM     12  C   UNL     1      -3.567  29.924  30.267  1.00  0.00    -0.031 C 
BRANCH  12  13
ATOM     13  C   UNL     1      -2.165  29.376  30.178  1.00  0.00     0.027 C 
BRANCH  13  14
ATOM     14  C   UNL     1      -2.004  28.182  31.125  1.00  0.00     0.004 C 
BRANCH  14  15
ATOM     15  C   UNL     1      -2.805  26.970  30.627  1.00  0.00     0.000 C 
BRANCH  15  16
ATOM     16  C   UNL     1      -2.039  25.644  30.819  1.00  0.00    -0.000 C 
BRANCH  16  17
ATOM     17  C   UNL     1      -0.663  25.624  30.135  1.00  0.00    -0.003 C 
ATOM     18  C   UNL     1       0.497  25.535  31.125  1.00  0.00     0.004 C 
ENDBRANCH  16  17
ENDBRANCH  15  16
ENDBRANCH  14  15
ENDBRANCH  13  14
ENDBRANCH  12  13
ENDBRANCH  10  11
ENDBRANCH   1  10
TORSDOF 13
ENDMDL
MODEL 3
REMARK VINA RESULT:    -0.307      1.823      4.638
REMARK INTER + INTRA:          -1.636
REMARK INTER:                  -1.042
REMARK INTRA:                  -0.594
REMARK UNBOUND:                -1.096
REMARK SMILES CCCCCCC=CCCCCCCCC(=O)[O-]
REMARK SMILES IDX 10 1 11 2 12 3 13 4 14 5 15 6 16 7 17 8 18 9 9 10 8 11 7 12
REMARK SMILES IDX 6 13 5 14 4 15 3 16 2 17 1 18
REMARK H PARENT
REMARK Flexibility Score: inf
ROOT
ATOM      1  C   UNL     1      -3.464  29.161  28.987  1.00  0.00     0.004 C 
ENDROOT
BRANCH   1   2
ATOM      2  C   UNL     1      -4.269  29.696  30.181  1.00  0.00     0.000 C 
BRANCH   2   3
ATOM      3  C   UNL     1      -4.680  28.556  31.121  1.00  0.00     0.000 C 
BRANCH   3   4
ATOM      4  C   UNL     1      -4.043  27.227  30.686  1.00  0.00     0.000 C 
BRANCH   4   5
ATOM      5  C   UNL     1      -2.573  27.098  31.125  1.00  0.00     0.006 C 
BRANCH   5   6
ATOM      6  C   UNL     1      -2.019  25.666  31.069  1.00  0.00     0.053 C 
BRANCH   6   7
ATOM      7  C   UNL     1      -0.607  25.630  30.569  1.00  0.00     0.041 C 
ATOM      8  O   UNL     1      -0.273  24.812  29.671  1.00  0.00    -0.550 OA
ATOM      9  O   UNL     1       0.347  26.476  31.119  1.00  0.00    -0.550 OA
ENDBRANCH   6   7
ENDBRANCH   5   6
ENDBRANCH   4   5
ENDBRANCH   3   4
ENDBRANCH   2   3
ENDBRANCH   1   2
BRANCH   1  10
ATOM     10  C   UNL     1      -4.309  29.062  27.707  1.00  0.00     0.027 C 
BRANCH  10  11
ATOM     11  C   UNL     1      -5.021  27.737  27.565  1.00  0.00    -0.031 C 
ATOM     12  C   UNL     1      -4.427  26.558  27.296  1.00  0.00    -0.031 C 
BRANCH  12  13
ATOM     13  C   UNL     1      -2.953  26.362  27.047  1.00  0.00     0.027 C 
BRANCH  13  14
ATOM     14  C   UNL     1      -2.484  27.270  25.906  1.00  0.00     0.004 C 
BRANCH  14  15
ATOM     15  C   UNL     1      -1.163  27.968  26.261  1.00  0.00     0.000 C 
BRANCH  15  16
ATOM     16  C   UNL     1      -0.190  27.032  27.009  1.00  0.00    -0.000 C 
BRANCH  16  17
ATOM     17  C   UNL     1       1.121  26.772  26.249  1.00  0.00    -0.003 C 
ATOM     18  C   UNL     1       1.574  27.964  25.409  1.00  0.00     0.004 C 
ENDBRANCH  16  17
ENDBRANCH  15  16
ENDBRANCH  14  15
ENDBRANCH  13  14
ENDBRANCH  12  13
ENDBRANCH  10  11
ENDBRANCH   1  10
TORSDOF 13
ENDMDL
MODEL 4
REMARK VINA RESULT:    -0.108     20.874     22.427
REMARK INTER + INTRA:          -1.287
REMARK INTER:                   0.058
REMARK INTRA:                  -1.345
REMARK UNBOUND:                -1.096
REMARK SMILES CCCCCCC=CCCCCCCCC(=O)[O-]
REMARK SMILES IDX 10 1 11 2 12 3 13 4 14 5 15 6 16 7 17 8 18 9 9 10 8 11 7 12
REMARK SMILES IDX 6 13 5 14 4 15 3 16 2 17 1 18
REMARK H PARENT
REMARK Flexibility Score: inf
ROOT
ATOM      1  C   UNL     1      11.313  10.467  27.268  1.00  0.00     0.004 C 
ENDROOT
BRANCH   1   2
ATOM      2  C   UNL     1       9.946  10.897  26.715  1.00  0.00     0.000 C 
BRANCH   2   3
ATOM      3  C   UNL     1       9.877  10.688  25.197  1.00  0.00     0.000 C 
BRANCH   3   4
ATOM      4  C   UNL     1      11.090   9.890  24.696  1.00  0.00     0.000 C 
BRANCH   4   5
ATOM      5  C   UNL     1      11.879  10.630  23.599  1.00  0.00     0.006 C 
BRANCH   5   6
ATOM      6  C   UNL     1      13.118   9.876  23.093  1.00  0.00     0.053 C 
BRANCH   6   7
ATOM      7  C   UNL     1      14.380  10.647  23.329  1.00  0.00     0.041 C 
ATOM      8  O   UNL     1      14.824  11.425  22.443  1.00  0.00    -0.550 OA
ATOM      9  O   UNL     1      15.084  10.481  24.515  1.00  0.00    -0.550 OA
ENDBRANCH   6   7
ENDBRANCH   5   6
ENDBRANCH   4   5
ENDBRANCH   3   4
ENDBRANCH   2   3
ENDBRANCH   1   2
BRANCH   1  10
ATOM     10  C   UNL     1      11.229   9.966  28.718  1.00  0.00     0.027 C 
BRANCH  10  11
ATOM     11  C   UNL     1      11.576  11.028  29.735  1.00  0.00    -0.031 C 
ATOM     12  C   UNL     1      12.638  10.996  30.563  1.00  0.00    -0.031 C 
BRANCH  12  13
ATOM     13  C   UNL     1      13.642   9.875  30.651  1.00  0.00     0.027 C 
BRANCH  13  14
ATOM     14  C   UNL     1      14.638   9.966  29.489  1.00  0.00     0.004 C 
BRANCH  14  15
ATOM     15  C   UNL     1      15.048  11.423  29.225  1.00  0.00     0.000 C 
BRANCH  15  16
ATOM     16  C   UNL     1      14.887  11.815  27.742  1.00  0.00    -0.000 C 
BRANCH  16  17
ATOM     17  C   UNL     1      14.228  13.189  27.535  1.00  0.00    -0.003 C 
ATOM     18  C   UNL     1      15.108  14.165  26.758  1.00  0.00     0.004 C 
ENDBRANCH  16  17
ENDBRANCH  15  16
ENDBRANCH  14  15
ENDBRANCH  13  14
ENDBRANCH  12  13
ENDBRANCH  10  11
ENDBRANCH   1  10
TORSDOF 13
ENDMDL
MODEL 5
REMARK VINA RESULT:     0.310     21.001     22.780
REMARK INTER + INTRA:          -0.552
REMARK INTER:                  -0.699
REMARK INTRA:                   0.147
REMARK UNBOUND:                -1.096
REMARK SMILES CCCCCCC=CCCCCCCCC(=O)[O-]
REMARK SMILES IDX 10 1 11 2 12 3 13 4 14 5 15 6 16 7 17 8 18 9 9 10 8 11 7 12
REMARK SMILES IDX 6 13 5 14 4 15 3 16 2 17 1 18
REMARK H PARENT
REMARK Flexibility Score: inf
ROOT
ATOM      1  C   UNL     1      11.087  10.824  26.691  1.00  0.00     0.004 C 
ENDROOT
BRANCH   1   2
ATOM      2  C   UNL     1      12.362  10.487  27.478  1.00  0.00     0.000 C 
BRANCH   2   3
ATOM      3  C   UNL     1      12.851  11.702  28.277  1.00  0.00     0.000 C 
BRANCH   3   4
ATOM      4  C   UNL     1      13.480  11.267  29.610  1.00  0.00     0.000 C 
BRANCH   4   5
ATOM      5  C   UNL     1      12.993   9.882  30.074  1.00  0.00     0.006 C 
BRANCH   5   6
ATOM      6  C   UNL     1      11.871   9.925  31.123  1.00  0.00     0.053 C 
BRANCH   6   7
ATOM      7  C   UNL     1      10.592  10.460  30.554  1.00  0.00     0.041 C 
ATOM      8  O   UNL     1      10.067   9.915  29.548  1.00  0.00    -0.550 OA
ATOM      9  O   UNL     1       9.999  11.583  31.116  1.00  0.00    -0.550 OA
ENDBRANCH   6   7
ENDBRANCH   5   6
ENDBRANCH   4   5
ENDBRANCH   3   4
ENDBRANCH   2   3
ENDBRANCH   1   2
BRANCH   1  10
ATOM     10  C   UNL     1      10.862   9.875  25.503  1.00  0.00     0.027 C 
BRANCH  10  11
ATOM     11  C   UNL     1       9.686  10.270  24.640  1.00  0.00    -0.031 C 
ATOM     12  C   UNL     1       9.670  10.259  23.293  1.00  0.00    -0.031 C 
BRANCH  12  13
ATOM     13  C   UNL     1      10.836   9.894  22.410  1.00  0.00     0.027 C 
BRANCH  13  14
ATOM     14  C   UNL     1      12.133   9.881  23.226  1.00  0.00     0.004 C 
BRANCH  14  15
ATOM     15  C   UNL     1      13.267  10.595  22.475  1.00  0.00     0.000 C 
BRANCH  15  16
ATOM     16  C   UNL     1      14.654  10.014  22.820  1.00  0.00    -0.000 C 
BRANCH  16  17
ATOM     17  C   UNL     1      14.937   9.954  24.330  1.00  0.00    -0.003 C 
ATOM     18  C   UNL     1      14.911  11.327  25.000  1.00  0.00     0.004 C 
ENDBRANCH  16  17
ENDBRANCH  15  16
ENDBRANCH  14  15
ENDBRANCH  13  14
ENDBRANCH  12  13
ENDBRANCH  10  11
ENDBRANCH   1  10
TORSDOF 13
ENDMDL
MODEL 6
REMARK VINA RESULT:     0.969      1.261      3.984
REMARK INTER + INTRA:           0.609
REMARK INTER:                   0.141
REMARK INTRA:                   0.468
REMARK UNBOUND:                -1.096
REMARK SMILES CCCCCCC=CCCCCCCCC(=O)[O-]
REMARK SMILES IDX 10 1 11 2 12 3 13 4 14 5 15 6 16 7 17 8 18 9 9 10 8 11 7 12
REMARK SMILES IDX 6 13 5 14 4 15 3 16 2 17 1 18
REMARK H PARENT
REMARK Flexibility Score: inf
ROOT
ATOM      1  C   UNL     1      -3.205  26.348  30.354  1.00  0.00     0.004 C 
ENDROOT
BRANCH   1   2
ATOM      2  C   UNL     1      -2.467  25.244  31.125  1.00  0.00     0.000 C 
BRANCH   2   3
ATOM      3  C   UNL     1      -0.960  25.294  30.846  1.00  0.00     0.000 C 
BRANCH   3   4
ATOM      4  C   UNL     1      -0.612  26.458  29.905  1.00  0.00     0.000 C 
BRANCH   4   5
ATOM      5  C   UNL     1      -0.254  25.988  28.483  1.00  0.00     0.006 C 
BRANCH   5   6
ATOM      6  C   UNL     1      -1.120  26.609  27.376  1.00  0.00     0.053 C 
BRANCH   6   7
ATOM      7  C   UNL     1      -0.312  27.451  26.436  1.00  0.00     0.041 C 
ATOM      8  O   UNL     1      -0.835  28.442  25.863  1.00  0.00    -0.550 OA
ATOM      9  O   UNL     1       1.010  27.119  26.169  1.00  0.00    -0.550 OA
ENDBRANCH   6   7
ENDBRANCH   5   6
ENDBRANCH   4   5
ENDBRANCH   3   4
ENDBRANCH   2   3
ENDBRANCH   1   2
BRANCH   1  10
ATOM     10  C   UNL     1      -4.620  26.600  30.900  1.00  0.00     0.027 C 
BRANCH  10  11
ATOM     11  C   UNL     1      -4.919  28.064  31.124  1.00  0.00    -0.031 C 
ATOM     12  C   UNL     1      -4.055  29.077  30.917  1.00  0.00    -0.031 C 
BRANCH  12  13
ATOM     13  C   UNL     1      -2.624  28.923  30.466  1.00  0.00     0.027 C 
BRANCH  13  14
ATOM     14  C   UNL     1      -2.469  29.420  29.025  1.00  0.00     0.004 C 
BRANCH  14  15
ATOM     15  C   UNL     1      -3.814  29.398  28.284  1.00  0.00     0.000 C 
BRANCH  15  16
ATOM     16  C   UNL     1      -4.197  27.981  27.808  1.00  0.00    -0.000 C 
BRANCH  16  17
ATOM     17  C   UNL     1      -4.157  27.813  26.280  1.00  0.00    -0.003 C 
ATOM     18  C   UNL     1      -4.673  29.038  25.528  1.00  0.00     0.004 C 
ENDBRANCH  16  17
ENDBRANCH  15  16
ENDBRANCH  14  15
ENDBRANCH  13  14
ENDBRANCH  12  13
ENDBRANCH  10  11
ENDBRANCH   1  10
TORSDOF 13
ENDMDL
