MODEL 1
REMARK VINA RESULT:    -2.953      0.000      0.000
REMARK INTER + INTRA:          -6.370
REMARK INTER:                  -5.369
REMARK INTRA:                  -1.000
REMARK UNBOUND:                -1.000
REMARK SMILES CCCCCC=CCC=CCCCCCCCC(=O)[O-]
REMARK SMILES IDX 11 1 12 2 13 3 14 4 15 5 16 6 17 7 18 8 19 9 20 10 10 11
REMARK SMILES IDX 9 12 8 13 7 14 6 15 5 16 4 17 3 18 2 19 1 20
REMARK H PARENT
REMARK Flexibility Score: inf
ROOT
ATOM      1  C   UNL     1       2.019 -13.359 -18.863  1.00  0.00     0.027 C 
ENDROOT
BRANCH   1   2
ATOM      2  C   UNL     1       3.057 -12.368 -18.326  1.00  0.00     0.004 C 
BRANCH   2   3
ATOM      3  C   UNL     1       2.891 -10.992 -18.980  1.00  0.00     0.000 C 
BRANCH   3   4
ATOM      4  C   UNL     1       3.508  -9.889 -18.106  1.00  0.00     0.000 C 
BRANCH   4   5
ATOM      5  C   UNL     1       2.496  -9.257 -17.132  1.00  0.00     0.000 C 
BRANCH   5   6
ATOM      6  C   UNL     1       3.099  -8.266 -16.119  1.00  0.00     0.006 C 
BRANCH   6   7
ATOM      7  C   UNL     1       3.938  -8.956 -15.036  1.00  0.00     0.053 C 
BRANCH   7   8
ATOM      8  C   UNL     1       3.637  -8.376 -13.691  1.00  0.00     0.041 C 
ATOM      9  O   UNL     1       3.253  -9.121 -12.751  1.00  0.00    -0.550 OA
ATOM     10  O   UNL     1       3.731  -7.005 -13.486  1.00  0.00    -0.550 OA
ENDBRANCH   7   8
ENDBRANCH   6   7
ENDBRANCH   5   6
ENDBRANCH   4   5
ENDBRANCH   3   4
ENDBRANCH   2   3
ENDBRANCH   1   2
BRANCH   1  11
ATOM     11  C   UNL     1       1.884 -14.546 -17.944  1.00  0.00    -0.031 C 
ATOM     12  C   UNL     1       0.789 -15.323 -17.855  1.00  0.00    -0.027 C 
BRANCH  12  13
ATOM     13  C   UNL     1      -0.447 -15.161 -18.705  1.00  0.00     0.054 C 
BRANCH  13  14
ATOM     14  C   UNL     1      -1.274 -16.416 -18.717  1.00  0.00    -0.027 C 
ATOM     15  C   UNL     1      -0.933 -17.477 -19.464  1.00  0.00    -0.031 C 
BRANCH  15  16
ATOM     16  C   UNL     1      -1.766 -18.728 -19.480  1.00  0.00     0.027 C 
BRANCH  16  17
ATOM     17  C   UNL     1      -1.014 -19.900 -18.831  1.00  0.00     0.004 C 
BRANCH  17  18
ATOM     18  C   UNL     1      -1.046 -19.845 -17.296  1.00  0.00     0.000 C 
BRANCH  18  19
ATOM     19  C   UNL     1       0.328 -20.125 -16.668  1.00  0.00    -0.003 C 
ATOM     20  C   UNL     1       1.430 -19.358 -17.393  1.00  0.00     0.004 C 
ENDBRANCH  18  19
ENDBRANCH  17  18
ENDBRANCH  16  17
ENDBRANCH  15  16
ENDBRANCH  13  14
ENDBRANCH  12  13
ENDBRANCH   1  11
TORSDOF 14
ENDMDL
MODEL 2
REMARK VINA RESULT:    -2.662      3.942      9.621
REMARK INTER + INTRA:          -5.841
REMARK INTER:                  -4.925
REMARK INTRA:                  -0.916
REMARK UNBOUND:                -1.000
REMARK SMILES CCCCCC=CCC=CCCCCCCCC(=O)[O-]
REMARK SMILES IDX 11 1 12 2 13 3 14 4 15 5 16 6 17 7 18 8 19 9 20 10 10 11
REMARK SMILES IDX 9 12 8 13 7 14 6 15 5 16 4 17 3 18 2 19 1 20
REMARK H PARENT
REMARK Flexibility Score: inf
ROOT
ATOM      1  C   UNL     1       0.429 -15.759 -18.629  1.00  0.00     0.027 C 
ENDROOT
BRANCH   1   2
ATOM      2  C   UNL     1      -1.071 -15.640 -18.341  1.00  0.00     0.004 C 
BRANCH   2   3
ATOM      3  C   UNL     1      -1.898 -15.981 -19.586  1.00  0.00     0.000 C 
BRANCH   3   4
ATOM      4  C   UNL     1      -1.546 -17.381 -20.114  1.00  0.00     0.000 C 
BRANCH   4   5
ATOM      5  C   UNL     1      -1.912 -18.505 -19.127  1.00  0.00     0.000 C 
BRANCH   5   6
ATOM      6  C   UNL     1      -1.133 -19.819 -19.319  1.00  0.00     0.006 C 
BRANCH   6   7
ATOM      7  C   UNL     1       0.349 -19.695 -18.945  1.00  0.00     0.053 C 
BRANCH   7   8
ATOM      8  C   UNL     1       0.528 -19.819 -17.465  1.00  0.00     0.041 C 
ATOM      9  O   UNL     1      -0.450 -20.124 -16.732  1.00  0.00    -0.550 OA
ATOM     10  O   UNL     1       1.762 -19.549 -16.887  1.00  0.00    -0.550 OA
ENDBRANCH   7   8
ENDBRANCH   6   7
ENDBRANCH   5   6
ENDBRANCH   4   5
ENDBRANCH   3   4
ENDBRANCH   2   3
ENDBRANCH   1   2
BRANCH   1  11
ATOM     11  C   UNL     1       1.240 -15.139 -17.520  1.00  0.00    -0.031 C 
ATOM     12  C   UNL     1       2.113 -14.128 -17.686  1.00  0.00    -0.027 C 
BRANCH  12  13
ATOM     13  C   UNL     1       2.368 -13.423 -18.995  1.00  0.00     0.054 C 
BRANCH  13  14
ATOM     14  C   UNL     1       2.359 -11.929 -18.825  1.00  0.00    -0.027 C 
ATOM     15  C   UNL     1       3.472 -11.250 -18.509  1.00  0.00    -0.031 C 
BRANCH  15  16
ATOM     16  C   UNL     1       3.459  -9.758 -18.333  1.00  0.00     0.027 C 
BRANCH  16  17
ATOM     17  C   UNL     1       2.528  -9.346 -17.181  1.00  0.00     0.004 C 
BRANCH  17  18
ATOM     18  C   UNL     1       3.136  -8.252 -16.291  1.00  0.00     0.000 C 
BRANCH  18  19
ATOM     19  C   UNL     1       3.803  -8.821 -15.030  1.00  0.00    -0.003 C 
ATOM     20  C   UNL     1       3.702  -7.840 -13.866  1.00  0.00     0.004 C 
ENDBRANCH  18  19
ENDBRANCH  17  18
ENDBRANCH  16  17
ENDBRANCH  15  16
ENDBRANCH  13  14
ENDBRANCH  12  13
ENDBRANCH   1  11
TORSDOF 14
ENDMDL
MODEL 3
REMARK VINA RESULT:    -2.586      0.870      1.967
REMARK INTER + INTRA:          -5.703
REMARK INTER:                  -5.583
REMARK INTRA:                  -0.120
REMARK UNBOUND:                -1.000
REMARK SMILES CCCCCC=CCC=CCCCCCCCC(=O)[O-]
REMARK SMILES IDX 11 1 12 2 13 3 14 4 15 5 16 6 17 7 18 8 19 9 20 10 10 11
REMARK SMILES IDX 9 12 8 13 7 14 6 15 5 16 4 17 3 18 2 19 1 20
REMARK H PARENT
REMARK Flexibility Score: inf
ROOT
ATOM      1  C   UNL     1       3.925 -12.356 -18.697  1.00  0.00     0.027 C 
ENDROOT
BRANCH   1   2
ATOM      2  C   UNL     1       4.624 -11.152 -19.335  1.00  0.00     0.004 C 
BRANCH   2   3
ATOM      3  C   UNL     1       3.809  -9.871 -19.127  1.00  0.00     0.000 C 
BRANCH   3   4
ATOM      4  C   UNL     1       2.783 -10.048 -17.998  1.00  0.00     0.000 C 
BRANCH   4   5
ATOM      5  C   UNL     1       2.682  -8.818 -17.078  1.00  0.00     0.000 C 
BRANCH   5   6
ATOM      6  C   UNL     1       3.434  -8.941 -15.740  1.00  0.00     0.006 C 
BRANCH   6   7
ATOM      7  C   UNL     1       3.415  -7.644 -14.921  1.00  0.00     0.053 C 
BRANCH   7   8
ATOM      8  C   UNL     1       3.743  -7.924 -13.489  1.00  0.00     0.041 C 
ATOM      9  O   UNL     1       4.218  -7.014 -12.758  1.00  0.00    -0.550 OA
ATOM     10  O   UNL     1       3.571  -9.201 -12.971  1.00  0.00    -0.550 OA
ENDBRANCH   7   8
ENDBRANCH   6   7
ENDBRANCH   5   6
ENDBRANCH   4   5
ENDBRANCH   3   4
ENDBRANCH   2   3
ENDBRANCH   1   2
BRANCH   1  11
ATOM     11  C   UNL     1       2.471 -12.406 -19.094  1.00  0.00    -0.031 C 
ATOM     12  C   UNL     1       1.630 -13.412 -18.791  1.00  0.00    -0.027 C 
BRANCH  12  13
ATOM     13  C   UNL     1       1.999 -14.614 -17.956  1.00  0.00     0.054 C 
BRANCH  13  14
ATOM     14  C   UNL     1       0.911 -15.651 -17.976  1.00  0.00    -0.027 C 
ATOM     15  C   UNL     1      -0.313 -15.379 -18.455  1.00  0.00    -0.031 C 
BRANCH  15  16
ATOM     16  C   UNL     1      -1.400 -16.416 -18.467  1.00  0.00     0.027 C 
BRANCH  16  17
ATOM     17  C   UNL     1      -1.108 -17.511 -19.504  1.00  0.00     0.004 C 
BRANCH  17  18
ATOM     18  C   UNL     1      -0.945 -18.900 -18.868  1.00  0.00     0.000 C 
BRANCH  18  19
ATOM     19  C   UNL     1       0.522 -19.346 -18.794  1.00  0.00    -0.003 C 
ATOM     20  C   UNL     1       1.021 -19.360 -17.352  1.00  0.00     0.004 C 
ENDBRANCH  18  19
ENDBRANCH  17  18
ENDBRANCH  16  17
ENDBRANCH  15  16
ENDBRANCH  13  14
ENDBRANCH  12  13
ENDBRANCH   1  11
TORSDOF 14
ENDMDL
MODEL 4
REMARK VINA RESULT:    -2.377      4.139      9.932
REMARK INTER + INTRA:          -5.322
REMARK INTER:                  -5.090
REMARK INTRA:                  -0.232
REMARK UNBOUND:                -1.000
REMARK SMILES CCCCCC=CCC=CCCCCCCCC(=O)[O-]
REMARK SMILES IDX 11 1 12 2 13 3 14 4 15 5 16 6 17 7 18 8 19 9 20 10 10 11
REMARK SMILES IDX 9 12 8 13 7 14 6 15 5 16 4 17 3 18 2 19 1 20
REMARK H PARENT
REMARK Flexibility Score: inf
ROOT
ATOM      1  C   UNL     1       2.494 -12.806 -18.679  1.00  0.00     0.027 C 
ENDROOT
BRANCH   1   2
ATOM      2  C   UNL     1       2.188 -14.306 -18.722  1.00  0.00     0.004 C 
BRANCH   2   3
ATOM      3  C   UNL     1       0.923 -14.631 -17.920  1.00  0.00     0.000 C 
BRANCH   3   4
ATOM      4  C   UNL     1       0.491 -16.089 -18.141  1.00  0.00     0.000 C 
BRANCH   4   5
ATOM      5  C   UNL     1      -0.953 -16.215 -18.660  1.00  0.00     0.000 C 
BRANCH   5   6
ATOM      6  C   UNL     1      -1.288 -17.559 -19.333  1.00  0.00     0.006 C 
BRANCH   6   7
ATOM      7  C   UNL     1      -1.222 -18.746 -18.363  1.00  0.00     0.053 C 
BRANCH   7   8
ATOM      8  C   UNL     1       0.064 -19.489 -18.531  1.00  0.00     0.041 C 
ATOM      9  O   UNL     1       0.878 -19.572 -17.573  1.00  0.00    -0.550 OA
ATOM     10  O   UNL     1       0.389 -20.051 -19.759  1.00  0.00    -0.550 OA
ENDBRANCH   7   8
ENDBRANCH   6   7
ENDBRANCH   5   6
ENDBRANCH   4   5
ENDBRANCH   3   4
ENDBRANCH   2   3
ENDBRANCH   1   2
BRANCH   1  11
ATOM     11  C   UNL     1       3.981 -12.562 -18.631  1.00  0.00    -0.031 C 
ATOM     12  C   UNL     1       4.592 -11.470 -19.127  1.00  0.00    -0.027 C 
BRANCH  12  13
ATOM     13  C   UNL     1       3.877 -10.297 -19.751  1.00  0.00     0.054 C 
BRANCH  13  14
ATOM     14  C   UNL     1       3.085  -9.530 -18.729  1.00  0.00    -0.027 C 
ATOM     15  C   UNL     1       3.358  -9.614 -17.418  1.00  0.00    -0.031 C 
BRANCH  15  16
ATOM     16  C   UNL     1       2.559  -8.851 -16.399  1.00  0.00     0.027 C 
BRANCH  16  17
ATOM     17  C   UNL     1       3.464  -7.929 -15.567  1.00  0.00     0.004 C 
BRANCH  17  18
ATOM     18  C   UNL     1       3.706  -8.462 -14.147  1.00  0.00     0.000 C 
BRANCH  18  19
ATOM     19  C   UNL     1       4.009  -7.343 -13.141  1.00  0.00    -0.003 C 
ATOM     20  C   UNL     1       2.737  -6.596 -12.750  1.00  0.00     0.004 C 
ENDBRANCH  18  19
ENDBRANCH  17  18
ENDBRANCH  16  17
ENDBRANCH  15  16
ENDBRANCH  13  14
ENDBRANCH  12  13
ENDBRANCH   1  11
TORSDOF 14
ENDMDL
MODEL 5
REMARK VINA RESULT:    -2.306      4.192     10.216
REMARK INTER + INTRA:          -5.194
REMARK INTER:                  -4.400
REMARK INTRA:                  -0.793
REMARK UNBOUND:                -1.000
REMARK SMILES CCCCCC=CCC=CCCCCCCCC(=O)[O-]
REMARK SMILES IDX 11 1 12 2 13 3 14 4 15 5 16 6 17 7 18 8 19 9 20 10 10 11
REMARK SMILES IDX 9 12 8 13 7 14 6 15 5 16 4 17 3 18 2 19 1 20
REMARK H PARENT
REMARK Flexibility Score: inf
ROOT
ATOM      1  C   UNL     1       2.011 -13.249 -18.766  1.00  0.00     0.027 C 
ENDROOT
BRANCH   1   2
ATOM      2  C   UNL     1       1.970 -14.522 -17.916  1.00  0.00     0.004 C 
BRANCH   2   3
ATOM      3  C   UNL     1       0.584 -15.174 -17.971  1.00  0.00     0.000 C 
BRANCH   3   4
ATOM      4  C   UNL     1       0.657 -16.570 -18.608  1.00  0.00     0.000 C 
BRANCH   4   5
ATOM      5  C   UNL     1      -0.730 -17.169 -18.904  1.00  0.00     0.000 C 
BRANCH   5   6
ATOM      6  C   UNL     1      -0.715 -18.608 -19.451  1.00  0.00     0.006 C 
BRANCH   6   7
ATOM      7  C   UNL     1      -1.409 -19.610 -18.519  1.00  0.00     0.053 C 
BRANCH   7   8
ATOM      8  C   UNL     1      -0.539 -19.922 -17.344  1.00  0.00     0.041 C 
ATOM      9  O   UNL     1      -1.052 -20.125 -16.211  1.00  0.00    -0.550 OA
ATOM     10  O   UNL     1       0.843 -19.941 -17.485  1.00  0.00    -0.550 OA
ENDBRANCH   7   8
ENDBRANCH   6   7
ENDBRANCH   5   6
ENDBRANCH   4   5
ENDBRANCH   3   4
ENDBRANCH   2   3
ENDBRANCH   1   2
BRANCH   1  11
ATOM     11  C   UNL     1       3.327 -12.532 -18.596  1.00  0.00    -0.031 C 
ATOM     12  C   UNL     1       3.472 -11.194 -18.590  1.00  0.00    -0.027 C 
BRANCH  12  13
ATOM     13  C   UNL     1       2.334 -10.208 -18.690  1.00  0.00     0.054 C 
BRANCH  13  14
ATOM     14  C   UNL     1       2.265  -9.323 -17.478  1.00  0.00    -0.027 C 
ATOM     15  C   UNL     1       3.366  -8.983 -16.790  1.00  0.00    -0.031 C 
BRANCH  15  16
ATOM     16  C   UNL     1       3.292  -8.103 -15.574  1.00  0.00     0.027 C 
BRANCH  16  17
ATOM     17  C   UNL     1       3.816  -8.837 -14.329  1.00  0.00     0.004 C 
BRANCH  17  18
ATOM     18  C   UNL     1       4.116  -7.884 -13.163  1.00  0.00     0.000 C 
BRANCH  18  19
ATOM     19  C   UNL     1       3.500  -6.492 -13.366  1.00  0.00    -0.003 C 
ATOM     20  C   UNL     1       2.266  -6.304 -12.488  1.00  0.00     0.004 C 
ENDBRANCH  18  19
ENDBRANCH  17  18
ENDBRANCH  16  17
ENDBRANCH  15  16
ENDBRANCH  13  14
ENDBRANCH  12  13
ENDBRANCH   1  11
TORSDOF 14
ENDMDL
MODEL 6
REMARK VINA RESULT:    -2.081      4.169      9.787
REMARK INTER + INTRA:          -4.784
REMARK INTER:                  -4.148
REMARK INTRA:                  -0.637
REMARK UNBOUND:                -1.000
REMARK SMILES CCCCCC=CCC=CCCCCCCCC(=O)[O-]
REMARK SMILES IDX 11 1 12 2 13 3 14 4 15 5 16 6 17 7 18 8 19 9 20 10 10 11
REMARK SMILES IDX 9 12 8 13 7 14 6 15 5 16 4 17 3 18 2 19 1 20
REMARK H PARENT
REMARK Flexibility Score: inf
ROOT
ATOM      1  C   UNL     1       2.381 -12.849 -18.489  1.00  0.00     0.027 C 
ENDROOT
BRANCH   1   2
ATOM      2  C   UNL     1       1.882 -14.258 -18.826  1.00  0.00     0.004 C 
BRANCH   2   3
ATOM      3  C   UNL     1       0.980 -14.801 -17.713  1.00  0.00     0.000 C 
BRANCH   3   4
ATOM      4  C   UNL     1       0.009 -15.859 -18.257  1.00  0.00     0.000 C 
BRANCH   4   5
ATOM      5  C   UNL     1       0.672 -17.235 -18.460  1.00  0.00     0.000 C 
BRANCH   5   6
ATOM      6  C   UNL     1      -0.214 -18.289 -19.149  1.00  0.00     0.006 C 
BRANCH   6   7
ATOM      7  C   UNL     1       0.199 -19.728 -18.815  1.00  0.00     0.053 C 
BRANCH   7   8
ATOM      8  C   UNL     1       0.181 -19.948 -17.335  1.00  0.00     0.041 C 
ATOM      9  O   UNL     1       1.259 -20.110 -16.705  1.00  0.00    -0.550 OA
ATOM     10  O   UNL     1      -1.030 -20.024 -16.658  1.00  0.00    -0.550 OA
ENDBRANCH   7   8
ENDBRANCH   6   7
ENDBRANCH   5   6
ENDBRANCH   4   5
ENDBRANCH   3   4
ENDBRANCH   2   3
ENDBRANCH   1   2
BRANCH   1  11
ATOM     11  C   UNL     1       3.877 -12.756 -18.651  1.00  0.00    -0.031 C 
ATOM     12  C   UNL     1       4.525 -11.696 -19.169  1.00  0.00    -0.027 C 
BRANCH  12  13
ATOM     13  C   UNL     1       3.859 -10.417 -19.610  1.00  0.00     0.054 C 
BRANCH  13  14
ATOM     14  C   UNL     1       3.607  -9.500 -18.445  1.00  0.00    -0.027 C 
ATOM     15  C   UNL     1       2.483  -9.579 -17.717  1.00  0.00    -0.031 C 
BRANCH  15  16
ATOM     16  C   UNL     1       2.230  -8.656 -16.558  1.00  0.00     0.027 C 
BRANCH  16  17
ATOM     17  C   UNL     1       3.494  -8.490 -15.699  1.00  0.00     0.004 C 
BRANCH  17  18
ATOM     18  C   UNL     1       3.382  -7.327 -14.702  1.00  0.00     0.000 C 
BRANCH  18  19
ATOM     19  C   UNL     1       3.585  -7.776 -13.248  1.00  0.00    -0.003 C 
ATOM     20  C   UNL     1       4.547  -8.958 -13.166  1.00  0.00     0.004 C 
ENDBRANCH  18  19
ENDBRANCH  17  18
ENDBRANCH  16  17
ENDBRANCH  15  16
ENDBRANCH  13  14
ENDBRANCH  12  13
ENDBRANCH   1  11
TORSDOF 14
ENDMDL
MODEL 7
REMARK VINA RESULT:    -1.926      4.172      9.364
REMARK INTER + INTRA:          -4.503
REMARK INTER:                  -3.671
REMARK INTRA:                  -0.831
REMARK UNBOUND:                -1.000
REMARK SMILES CCCCCC=CCC=CCCCCCCCC(=O)[O-]
REMARK SMILES IDX 11 1 12 2 13 3 14 4 15 5 16 6 17 7 18 8 19 9 20 10 10 11
REMARK SMILES IDX 9 12 8 13 7 14 6 15 5 16 4 17 3 18 2 19 1 20
REMARK H PARENT
REMARK Flexibility Score: inf
ROOT
ATOM      1  C   UNL     1       0.088 -16.184 -18.764  1.00  0.00     0.027 C 
ENDROOT
BRANCH   1   2
ATOM      2  C   UNL     1      -1.373 -15.853 -19.083  1.00  0.00     0.004 C 
BRANCH   2   3
ATOM      3  C   UNL     1      -1.966 -16.873 -20.061  1.00  0.00     0.000 C 
BRANCH   3   4
ATOM      4  C   UNL     1      -2.089 -18.257 -19.405  1.00  0.00     0.000 C 
BRANCH   4   5
ATOM      5  C   UNL     1      -1.202 -19.322 -20.077  1.00  0.00     0.000 C 
BRANCH   5   6
ATOM      6  C   UNL     1       0.033 -19.748 -19.263  1.00  0.00     0.006 C 
BRANCH   6   7
ATOM      7  C   UNL     1      -0.297 -20.075 -17.801  1.00  0.00     0.053 C 
BRANCH   7   8
ATOM      8  C   UNL     1       0.874 -19.777 -16.920  1.00  0.00     0.041 C 
ATOM      9  O   UNL     1       0.861 -20.124 -15.709  1.00  0.00    -0.550 OA
ATOM     10  O   UNL     1       1.962 -19.073 -17.421  1.00  0.00    -0.550 OA
ENDBRANCH   7   8
ENDBRANCH   6   7
ENDBRANCH   5   6
ENDBRANCH   4   5
ENDBRANCH   3   4
ENDBRANCH   2   3
ENDBRANCH   1   2
BRANCH   1  11
ATOM     11  C   UNL     1       0.568 -15.400 -17.569  1.00  0.00    -0.031 C 
ATOM     12  C   UNL     1       1.579 -14.512 -17.593  1.00  0.00    -0.027 C 
BRANCH  12  13
ATOM     13  C   UNL     1       2.346 -14.122 -18.832  1.00  0.00     0.054 C 
BRANCH  13  14
ATOM     14  C   UNL     1       2.339 -12.633 -19.036  1.00  0.00    -0.027 C 
ATOM     15  C   UNL     1       2.706 -11.787 -18.062  1.00  0.00    -0.031 C 
BRANCH  15  16
ATOM     16  C   UNL     1       2.690 -10.298 -18.267  1.00  0.00     0.027 C 
BRANCH  16  17
ATOM     17  C   UNL     1       3.877  -9.847 -19.132  1.00  0.00     0.004 C 
BRANCH  17  18
ATOM     18  C   UNL     1       4.921 -10.956 -19.327  1.00  0.00     0.000 C 
BRANCH  18  19
ATOM     19  C   UNL     1       5.840 -10.696 -20.530  1.00  0.00    -0.003 C 
ATOM     20  C   UNL     1       7.306 -10.682 -20.108  1.00  0.00     0.004 C 
ENDBRANCH  18  19
ENDBRANCH  17  18
ENDBRANCH  16  17
ENDBRANCH  15  16
ENDBRANCH  13  14
ENDBRANCH  12  13
ENDBRANCH   1  11
TORSDOF 14
ENDMDL
MODEL 8
REMARK VINA RESULT:    -1.698      1.392      3.091
REMARK INTER + INTRA:          -4.087
REMARK INTER:                  -4.197
REMARK INTRA:                   0.110
REMARK UNBOUND:                -1.000
REMARK SMILES CCCCCC=CCC=CCCCCCCCC(=O)[O-]
REMARK SMILES IDX 11 1 12 2 13 3 14 4 15 5 16 6 17 7 18 8 19 9 20 10 10 11
REMARK SMILES IDX 9 12 8 13 7 14 6 15 5 16 4 17 3 18 2 19 1 20
REMARK H PARENT
REMARK Flexibility Score: inf
ROOT
ATOM      1  C   UNL     1       4.568 -10.680 -19.895  1.00  0.00     0.027 C 
ENDROOT
BRANCH   1   2
ATOM      2  C   UNL     1       3.617  -9.649 -19.280  1.00  0.00     0.004 C 
BRANCH   2   3
ATOM      3  C   UNL     1       3.669  -9.700 -17.749  1.00  0.00     0.000 C 
BRANCH   3   4
ATOM      4  C   UNL     1       2.536  -8.866 -17.131  1.00  0.00     0.000 C 
BRANCH   4   5
ATOM      5  C   UNL     1       2.980  -8.078 -15.885  1.00  0.00     0.000 C 
BRANCH   5   6
ATOM      6  C   UNL     1       3.962  -8.822 -14.960  1.00  0.00     0.006 C 
BRANCH   6   7
ATOM      7  C   UNL     1       3.568  -8.739 -13.480  1.00  0.00     0.053 C 
BRANCH   7   8
ATOM      8  C   UNL     1       3.790  -7.356 -12.955  1.00  0.00     0.041 C 
ATOM      9  O   UNL     1       2.810  -6.595 -12.739  1.00  0.00    -0.550 OA
ATOM     10  O   UNL     1       5.082  -6.889 -12.749  1.00  0.00    -0.550 OA
ENDBRANCH   7   8
ENDBRANCH   6   7
ENDBRANCH   5   6
ENDBRANCH   4   5
ENDBRANCH   3   4
ENDBRANCH   2   3
ENDBRANCH   1   2
BRANCH   1  11
ATOM     11  C   UNL     1       4.894 -11.769 -18.905  1.00  0.00    -0.031 C 
ATOM     12  C   UNL     1       3.986 -12.596 -18.352  1.00  0.00    -0.027 C 
BRANCH  12  13
ATOM     13  C   UNL     1       2.515 -12.598 -18.687  1.00  0.00     0.054 C 
BRANCH  13  14
ATOM     14  C   UNL     1       1.989 -13.998 -18.840  1.00  0.00    -0.027 C 
ATOM     15  C   UNL     1       1.189 -14.554 -17.918  1.00  0.00    -0.031 C 
BRANCH  15  16
ATOM     16  C   UNL     1       0.670 -15.957 -18.071  1.00  0.00     0.027 C 
BRANCH  16  17
ATOM     17  C   UNL     1      -0.778 -15.958 -18.585  1.00  0.00     0.004 C 
BRANCH  17  18
ATOM     18  C   UNL     1      -1.340 -17.375 -18.765  1.00  0.00     0.000 C 
BRANCH  18  19
ATOM     19  C   UNL     1      -0.239 -18.422 -18.991  1.00  0.00    -0.003 C 
ATOM     20  C   UNL     1      -0.711 -19.519 -19.942  1.00  0.00     0.004 C 
ENDBRANCH  18  19
ENDBRANCH  17  18
ENDBRANCH  16  17
ENDBRANCH  15  16
ENDBRANCH  13  14
ENDBRANCH  12  13
ENDBRANCH   1  11
TORSDOF 14
ENDMDL
MODEL 9
REMARK VINA RESULT:    -1.553      1.207      2.852
REMARK INTER + INTRA:          -3.825
REMARK INTER:                  -3.017
REMARK INTRA:                  -0.808
REMARK UNBOUND:                -1.000
REMARK SMILES CCCCCC=CCC=CCCCCCCCC(=O)[O-]
REMARK SMILES IDX 11 1 12 2 13 3 14 4 15 5 16 6 17 7 18 8 19 9 20 10 10 11
REMARK SMILES IDX 9 12 8 13 7 14 6 15 5 16 4 17 3 18 2 19 1 20
REMARK H PARENT
REMARK Flexibility Score: inf
ROOT
ATOM      1  C   UNL     1       3.882 -10.362 -19.419  1.00  0.00     0.027 C 
ENDROOT
BRANCH   1   2
ATOM      2  C   UNL     1       3.689  -9.548 -18.136  1.00  0.00     0.004 C 
BRANCH   2   3
ATOM      3  C   UNL     1       2.237  -9.624 -17.651  1.00  0.00     0.000 C 
BRANCH   3   4
ATOM      4  C   UNL     1       2.062  -8.884 -16.316  1.00  0.00     0.000 C 
BRANCH   4   5
ATOM      5  C   UNL     1       3.379  -8.296 -15.778  1.00  0.00     0.000 C 
BRANCH   5   6
ATOM      6  C   UNL     1       3.214  -7.123 -14.794  1.00  0.00     0.006 C 
BRANCH   6   7
ATOM      7  C   UNL     1       3.952  -7.347 -13.468  1.00  0.00     0.053 C 
BRANCH   7   8
ATOM      8  C   UNL     1       4.011  -8.806 -13.141  1.00  0.00     0.041 C 
ATOM      9  O   UNL     1       5.100  -9.433 -13.236  1.00  0.00    -0.550 OA
ATOM     10  O   UNL     1       2.856  -9.485 -12.778  1.00  0.00    -0.550 OA
ENDBRANCH   7   8
ENDBRANCH   6   7
ENDBRANCH   5   6
ENDBRANCH   4   5
ENDBRANCH   3   4
ENDBRANCH   2   3
ENDBRANCH   1   2
BRANCH   1  11
ATOM     11  C   UNL     1       4.536 -11.687 -19.120  1.00  0.00    -0.031 C 
ATOM     12  C   UNL     1       3.870 -12.813 -18.801  1.00  0.00    -0.027 C 
BRANCH  12  13
ATOM     13  C   UNL     1       2.367 -12.934 -18.753  1.00  0.00     0.054 C 
BRANCH  13  14
ATOM     14  C   UNL     1       1.939 -14.315 -18.344  1.00  0.00    -0.027 C 
ATOM     15  C   UNL     1       0.645 -14.647 -18.227  1.00  0.00    -0.031 C 
BRANCH  15  16
ATOM     16  C   UNL     1       0.221 -16.027 -17.810  1.00  0.00     0.027 C 
BRANCH  16  17
ATOM     17  C   UNL     1      -0.327 -16.821 -19.006  1.00  0.00     0.004 C 
BRANCH  17  18
ATOM     18  C   UNL     1      -0.194 -18.340 -18.818  1.00  0.00     0.000 C 
BRANCH  18  19
ATOM     19  C   UNL     1       1.122 -18.736 -18.133  1.00  0.00    -0.003 C 
ATOM     20  C   UNL     1       0.887 -19.800 -17.065  1.00  0.00     0.004 C 
ENDBRANCH  18  19
ENDBRANCH  17  18
ENDBRANCH  16  17
ENDBRANCH  15  16
ENDBRANCH  13  14
ENDBRANCH  12  13
ENDBRANCH   1  11
TORSDOF 14
ENDMDL
