MODEL 1
REMARK VINA RESULT:    -3.765      0.000      0.000
REMARK INTER + INTRA:          -3.877
REMARK INTER:                  -4.645
REMARK INTRA:                   0.768
REMARK UNBOUND:                 0.768
REMARK SMILES CC1=CC=CC(C)(C)CC1=O
REMARK SMILES IDX 1 1 2 2 3 3 10 4 11 5 9 6 4 8 5 9 6 10 7 11 8 12
REMARK H PARENT
REMARK Flexibility Score: 80.00
ROOT
ATOM      1  C   UNL     1     -29.721  13.314 -30.917  1.00  0.00     0.048 C 
ATOM      2  C   UNL     1     -28.475  12.859 -30.197  1.00  0.00    -0.008 C 
ATOM      3  C   UNL     1     -27.291  13.350 -30.622  1.00  0.00     0.007 C 
ENDROOT
BRANCH   2   4
ATOM      4  C   UNL     1     -28.646  11.847 -29.125  1.00  0.00     0.159 C 
ATOM      5  O   UNL     1     -29.766  11.282 -28.995  1.00  0.00    -0.295 OA
BRANCH   4   6
ATOM      6  C   UNL     1     -27.558  11.464 -28.169  1.00  0.00     0.091 CG0
ATOM      7  G   UNL     1     -26.299  10.904 -28.871  1.00  0.00     0.000 G0
ENDBRANCH   4   6
ENDBRANCH   2   4
BRANCH   3   8
ATOM      8  C   UNL     1     -25.918  13.074 -30.140  1.00  0.00    -0.003 C 
ATOM      9  C   UNL     1     -25.470  12.045 -29.410  1.00  0.00    -0.020 C 
BRANCH   9  10
ATOM     10  C   UNL     1     -26.296  10.903 -28.868  1.00  0.00    -0.010 CG0
ATOM     11  C   UNL     1     -25.453  10.152 -27.813  1.00  0.00     0.016 C 
ATOM     12  C   UNL     1     -26.635   9.910 -30.004  1.00  0.00     0.016 C 
ATOM     13  G   UNL     1     -27.557  11.459 -28.168  1.00  0.00     0.000 G0
ENDBRANCH   9  10
ENDBRANCH   3   8
TORSDOF 0
ENDMDL
MODEL 2
REMARK VINA RESULT:    -3.711      1.364      1.753
REMARK INTER + INTRA:          -3.811
REMARK INTER:                  -4.837
REMARK INTRA:                   1.025
REMARK UNBOUND:                 0.768
REMARK SMILES CC1=CC=CC(C)(C)CC1=O
REMARK SMILES IDX 1 1 2 2 3 3 10 4 11 5 9 6 4 8 5 9 6 10 7 11 8 12
REMARK H PARENT
REMARK Flexibility Score: 80.00
ROOT
ATOM      1  C   UNL     1     -29.587  12.511 -30.075  1.00  0.00     0.048 C 
ATOM      2  C   UNL     1     -28.113  12.190 -30.147  1.00  0.00    -0.008 C 
ATOM      3  C   UNL     1     -27.245  13.224 -30.145  1.00  0.00     0.007 C 
ENDROOT
BRANCH   2   4
ATOM      4  C   UNL     1     -27.739  10.760 -30.289  1.00  0.00     0.159 C 
ATOM      5  O   UNL     1     -28.616   9.878 -30.075  1.00  0.00    -0.295 OA
BRANCH   4   6
ATOM      6  C   UNL     1     -26.364  10.299 -30.662  1.00  0.00     0.091 CG0
ATOM      7  G   UNL     1     -25.271  10.790 -29.686  1.00  0.00     0.000 G0
ENDBRANCH   4   6
ENDBRANCH   2   4
BRANCH   3   8
ATOM      8  C   UNL     1     -25.767  13.227 -30.231  1.00  0.00    -0.003 C 
ATOM      9  C   UNL     1     -24.909  12.213 -30.059  1.00  0.00    -0.020 C 
BRANCH   9  10
ATOM     10  C   UNL     1     -25.264  10.789 -29.699  1.00  0.00    -0.010 CG0
ATOM     11  C   UNL     1     -25.809  10.776 -28.253  1.00  0.00     0.016 C 
ATOM     12  C   UNL     1     -23.997   9.903 -29.739  1.00  0.00     0.016 C 
ATOM     13  G   UNL     1     -26.380  10.277 -30.638  1.00  0.00     0.000 G0
ENDBRANCH   9  10
ENDBRANCH   3   8
TORSDOF 0
ENDMDL
MODEL 3
REMARK VINA RESULT:    -3.700     10.800     12.341
REMARK INTER + INTRA:          -3.798
REMARK INTER:                  -4.559
REMARK INTRA:                   0.761
REMARK UNBOUND:                 0.768
REMARK SMILES CC1=CC=CC(C)(C)CC1=O
REMARK SMILES IDX 1 1 2 2 3 3 10 4 11 5 9 6 4 8 5 9 6 10 7 11 8 12
REMARK H PARENT
REMARK Flexibility Score: 80.00
ROOT
ATOM      1  C   UNL     1     -12.501  13.740 -31.567  1.00  0.00     0.048 C 
ATOM      2  C   UNL     1     -13.792  13.124 -31.082  1.00  0.00    -0.008 C 
ATOM      3  C   UNL     1     -13.899  11.779 -31.125  1.00  0.00     0.007 C 
ENDROOT
BRANCH   2   4
ATOM      4  C   UNL     1     -14.870  14.056 -30.668  1.00  0.00     0.159 C 
ATOM      5  O   UNL     1     -14.740  15.286 -30.915  1.00  0.00    -0.295 OA
BRANCH   4   6
ATOM      6  C   UNL     1     -16.111  13.617 -29.952  1.00  0.00     0.091 CG0
ATOM      7  G   UNL     1     -16.947  12.594 -30.753  1.00  0.00     0.000 G0
ENDBRANCH   4   6
ENDBRANCH   2   4
BRANCH   3   8
ATOM      8  C   UNL     1     -15.032  10.902 -30.749  1.00  0.00    -0.003 C 
ATOM      9  C   UNL     1     -16.325  11.213 -30.595  1.00  0.00    -0.020 C 
BRANCH   9  10
ATOM     10  C   UNL     1     -16.943  12.583 -30.748  1.00  0.00    -0.010 CG0
ATOM     11  C   UNL     1     -18.364  12.545 -30.141  1.00  0.00     0.016 C 
ATOM     12  C   UNL     1     -17.074  12.940 -32.246  1.00  0.00     0.016 C 
ATOM     13  G   UNL     1     -16.112  13.620 -29.958  1.00  0.00     0.000 G0
ENDBRANCH   9  10
ENDBRANCH   3   8
TORSDOF 0
ENDMDL
MODEL 4
REMARK VINA RESULT:    -3.620     11.670     13.145
REMARK INTER + INTRA:          -3.699
REMARK INTER:                  -4.454
REMARK INTRA:                   0.755
REMARK UNBOUND:                 0.768
REMARK SMILES CC1=CC=CC(C)(C)CC1=O
REMARK SMILES IDX 1 1 2 2 3 3 10 4 11 5 9 6 4 8 5 9 6 10 7 11 8 12
REMARK H PARENT
REMARK Flexibility Score: 80.00
ROOT
ATOM      1  C   UNL     1     -11.819  14.332 -31.575  1.00  0.00     0.048 C 
ATOM      2  C   UNL     1     -13.264  13.937 -31.381  1.00  0.00    -0.008 C 
ATOM      3  C   UNL     1     -14.134  14.902 -31.016  1.00  0.00     0.007 C 
ENDROOT
BRANCH   2   4
ATOM      4  C   UNL     1     -13.597  12.498 -31.534  1.00  0.00     0.159 C 
ATOM      5  O   UNL     1     -12.656  11.662 -31.625  1.00  0.00    -0.295 OA
BRANCH   4   6
ATOM      6  C   UNL     1     -15.000  11.978 -31.601  1.00  0.00     0.091 CG0
ATOM      7  G   UNL     1     -15.837  12.318 -30.347  1.00  0.00     0.000 G0
ENDBRANCH   4   6
ENDBRANCH   2   4
BRANCH   3   8
ATOM      8  C   UNL     1     -15.585  14.818 -30.730  1.00  0.00    -0.003 C 
ATOM      9  C   UNL     1     -16.326  13.742 -30.436  1.00  0.00    -0.020 C 
BRANCH   9  10
ATOM     10  C   UNL     1     -15.841  12.314 -30.352  1.00  0.00    -0.010 CG0
ATOM     11  C   UNL     1     -17.075  11.382 -30.347  1.00  0.00     0.016 C 
ATOM     12  C   UNL     1     -15.072  12.094 -29.029  1.00  0.00     0.016 C 
ATOM     13  G   UNL     1     -14.991  11.979 -31.599  1.00  0.00     0.000 G0
ENDBRANCH   9  10
ENDBRANCH   3   8
TORSDOF 0
ENDMDL
MODEL 5
REMARK VINA RESULT:    -3.571      9.876     11.375
REMARK INTER + INTRA:          -3.638
REMARK INTER:                  -4.386
REMARK INTRA:                   0.748
REMARK UNBOUND:                 0.768
REMARK SMILES CC1=CC=CC(C)(C)CC1=O
REMARK SMILES IDX 1 1 2 2 3 3 10 4 11 5 9 6 4 8 5 9 6 10 7 11 8 12
REMARK H PARENT
REMARK Flexibility Score: 80.00
ROOT
ATOM      1  C   UNL     1     -13.622  14.026 -30.584  1.00  0.00     0.048 C 
ATOM      2  C   UNL     1     -14.919  13.292 -30.829  1.00  0.00    -0.008 C 
ATOM      3  C   UNL     1     -15.699  13.721 -31.844  1.00  0.00     0.007 C 
ENDROOT
BRANCH   2   4
ATOM      4  C   UNL     1     -15.268  12.203 -29.882  1.00  0.00     0.159 C 
ATOM      5  O   UNL     1     -14.608  12.092 -28.813  1.00  0.00    -0.295 OA
BRANCH   4   6
ATOM      6  C   UNL     1     -16.360  11.209 -30.133  1.00  0.00     0.091 CG0
ATOM      7  G   UNL     1     -17.754  11.861 -30.283  1.00  0.00     0.000 G0
ENDBRANCH   4   6
ENDBRANCH   2   4
BRANCH   3   8
ATOM      8  C   UNL     1     -17.018  13.228 -32.304  1.00  0.00    -0.003 C 
ATOM      9  C   UNL     1     -17.903  12.457 -31.660  1.00  0.00    -0.020 C 
BRANCH   9  10
ATOM     10  C   UNL     1     -17.743  11.870 -30.278  1.00  0.00    -0.010 CG0
ATOM     11  C   UNL     1     -18.805  10.762 -30.095  1.00  0.00     0.016 C 
ATOM     12  C   UNL     1     -17.999  12.957 -29.208  1.00  0.00     0.016 C 
ATOM     13  G   UNL     1     -16.346  11.222 -30.146  1.00  0.00     0.000 G0
ENDBRANCH   9  10
ENDBRANCH   3   8
TORSDOF 0
ENDMDL
MODEL 6
REMARK VINA RESULT:    -3.554     11.165     12.596
REMARK INTER + INTRA:          -3.617
REMARK INTER:                  -4.364
REMARK INTRA:                   0.746
REMARK UNBOUND:                 0.768
REMARK SMILES CC1=CC=CC(C)(C)CC1=O
REMARK SMILES IDX 1 1 2 2 3 3 10 4 11 5 9 6 4 8 5 9 6 10 7 11 8 12
REMARK H PARENT
REMARK Flexibility Score: 80.00
ROOT
ATOM      1  C   UNL     1     -18.252  12.155 -30.246  1.00  0.00     0.048 C 
ATOM      2  C   UNL     1     -16.821  12.043 -30.714  1.00  0.00    -0.008 C 
ATOM      3  C   UNL     1     -15.955  11.371 -29.927  1.00  0.00     0.007 C 
ENDROOT
BRANCH   2   4
ATOM      4  C   UNL     1     -16.465  12.748 -31.971  1.00  0.00     0.159 C 
ATOM      5  O   UNL     1     -17.288  13.567 -32.464  1.00  0.00    -0.295 OA
BRANCH   4   6
ATOM      6  C   UNL     1     -15.176  12.530 -32.704  1.00  0.00     0.091 CG0
ATOM      7  G   UNL     1     -13.930  12.887 -31.863  1.00  0.00     0.000 G0
ENDBRANCH   4   6
ENDBRANCH   2   4
BRANCH   3   8
ATOM      8  C   UNL     1     -14.506  11.120 -30.103  1.00  0.00    -0.003 C 
ATOM      9  C   UNL     1     -13.631  11.748 -30.899  1.00  0.00    -0.020 C 
BRANCH   9  10
ATOM     10  C   UNL     1     -13.937  12.877 -31.855  1.00  0.00    -0.010 CG0
ATOM     11  C   UNL     1     -12.741  13.031 -32.822  1.00  0.00     0.016 C 
ATOM     12  C   UNL     1     -14.094  14.202 -31.074  1.00  0.00     0.016 C 
ATOM     13  G   UNL     1     -15.189  12.526 -32.691  1.00  0.00     0.000 G0
ENDBRANCH   9  10
ENDBRANCH   3   8
TORSDOF 0
ENDMDL
MODEL 7
REMARK VINA RESULT:    -3.519      1.959      3.366
REMARK INTER + INTRA:          -3.574
REMARK INTER:                  -4.320
REMARK INTRA:                   0.746
REMARK UNBOUND:                 0.768
REMARK SMILES CC1=CC=CC(C)(C)CC1=O
REMARK SMILES IDX 1 1 2 2 3 3 10 4 11 5 9 6 4 8 5 9 6 10 7 11 8 12
REMARK H PARENT
REMARK Flexibility Score: 80.00
ROOT
ATOM      1  C   UNL     1     -24.009  13.548 -30.364  1.00  0.00     0.048 C 
ATOM      2  C   UNL     1     -25.440  13.086 -30.498  1.00  0.00    -0.008 C 
ATOM      3  C   UNL     1     -26.382  14.023 -30.738  1.00  0.00     0.007 C 
ENDROOT
BRANCH   2   4
ATOM      4  C   UNL     1     -25.707  11.642 -30.280  1.00  0.00     0.159 C 
ATOM      5  O   UNL     1     -24.784  10.916 -29.819  1.00  0.00    -0.295 OA
BRANCH   4   6
ATOM      6  C   UNL     1     -27.017  10.987 -30.593  1.00  0.00     0.091 CG0
ATOM      7  G   UNL     1     -28.206  11.604 -29.822  1.00  0.00     0.000 G0
ENDBRANCH   4   6
ENDBRANCH   2   4
BRANCH   3   8
ATOM      8  C   UNL     1     -27.849  13.882 -30.890  1.00  0.00    -0.003 C 
ATOM      9  C   UNL     1     -28.644  12.875 -30.508  1.00  0.00    -0.020 C 
BRANCH   9  10
ATOM     10  C   UNL     1     -28.210  11.594 -29.834  1.00  0.00    -0.010 CG0
ATOM     11  C   UNL     1     -29.377  10.584 -29.914  1.00  0.00     0.016 C 
ATOM     12  C   UNL     1     -27.908  11.858 -28.341  1.00  0.00     0.016 C 
ATOM     13  G   UNL     1     -27.002  10.993 -30.589  1.00  0.00     0.000 G0
ENDBRANCH   9  10
ENDBRANCH   3   8
TORSDOF 0
ENDMDL
MODEL 8
REMARK VINA RESULT:    -3.422     11.714     13.055
REMARK INTER + INTRA:          -3.454
REMARK INTER:                  -4.196
REMARK INTRA:                   0.742
REMARK UNBOUND:                 0.768
REMARK SMILES CC1=CC=CC(C)(C)CC1=O
REMARK SMILES IDX 1 1 2 2 3 3 10 4 11 5 9 6 4 8 5 9 6 10 7 11 8 12
REMARK H PARENT
REMARK Flexibility Score: 80.00
ROOT
ATOM      1  C   UNL     1     -17.563  12.714 -29.745  1.00  0.00     0.048 C 
ATOM      2  C   UNL     1     -16.187  13.073 -30.253  1.00  0.00    -0.008 C 
ATOM      3  C   UNL     1     -15.891  14.384 -30.386  1.00  0.00     0.007 C 
ENDROOT
BRANCH   2   4
ATOM      4  C   UNL     1     -15.295  11.951 -30.639  1.00  0.00     0.159 C 
ATOM      5  O   UNL     1     -15.779  10.788 -30.716  1.00  0.00    -0.295 OA
BRANCH   4   6
ATOM      6  C   UNL     1     -13.836  12.119 -30.931  1.00  0.00     0.091 CG0
ATOM      7  G   UNL     1     -13.555  13.093 -32.097  1.00  0.00     0.000 G0
ENDBRANCH   4   6
ENDBRANCH   2   4
BRANCH   3   8
ATOM      8  C   UNL     1     -14.654  15.035 -30.877  1.00  0.00    -0.003 C 
ATOM      9  C   UNL     1     -13.659  14.515 -31.607  1.00  0.00    -0.020 C 
BRANCH   9  10
ATOM     10  C   UNL     1     -13.552  13.089 -32.091  1.00  0.00    -0.010 CG0
ATOM     11  C   UNL     1     -12.096  12.840 -32.548  1.00  0.00     0.016 C 
ATOM     12  C   UNL     1     -14.478  12.873 -33.311  1.00  0.00     0.016 C 
ATOM     13  G   UNL     1     -13.862  12.120 -30.928  1.00  0.00     0.000 G0
ENDBRANCH   9  10
ENDBRANCH   3   8
TORSDOF 0
ENDMDL
MODEL 9
REMARK VINA RESULT:    -3.150      9.993     10.849
REMARK INTER + INTRA:          -3.120
REMARK INTER:                  -3.877
REMARK INTRA:                   0.757
REMARK UNBOUND:                 0.768
REMARK SMILES CC1=CC=CC(C)(C)CC1=O
REMARK SMILES IDX 1 1 2 2 3 3 10 4 11 5 9 6 4 8 5 9 6 10 7 11 8 12
REMARK H PARENT
REMARK Flexibility Score: 80.00
ROOT
ATOM      1  C   UNL     1     -17.364  12.936 -32.368  1.00  0.00     0.048 C 
ATOM      2  C   UNL     1     -16.720  12.472 -31.083  1.00  0.00    -0.008 C 
ATOM      3  C   UNL     1     -15.491  11.919 -31.162  1.00  0.00     0.007 C 
ENDROOT
BRANCH   2   4
ATOM      4  C   UNL     1     -17.525  12.593 -29.842  1.00  0.00     0.159 C 
ATOM      5  O   UNL     1     -18.752  12.872 -29.938  1.00  0.00    -0.295 OA
BRANCH   4   6
ATOM      6  C   UNL     1     -16.957  12.415 -28.468  1.00  0.00     0.091 CG0
ATOM      7  G   UNL     1     -16.343  11.015 -28.239  1.00  0.00     0.000 G0
ENDBRANCH   4   6
ENDBRANCH   2   4
BRANCH   3   8
ATOM      8  C   UNL     1     -14.630  11.356 -30.096  1.00  0.00    -0.003 C 
ATOM      9  C   UNL     1     -14.966  10.955 -28.863  1.00  0.00    -0.020 C 
BRANCH   9  10
ATOM     10  C   UNL     1     -16.343  11.012 -28.245  1.00  0.00    -0.010 CG0
ATOM     11  C   UNL     1     -16.201  10.790 -26.722  1.00  0.00     0.016 C 
ATOM     12  C   UNL     1     -17.225   9.875 -28.813  1.00  0.00     0.016 C 
ATOM     13  G   UNL     1     -16.957  12.412 -28.471  1.00  0.00     0.000 G0
ENDBRANCH   9  10
ENDBRANCH   3   8
TORSDOF 0
ENDMDL
