MODEL 1
REMARK VINA RESULT:    -4.410      0.000      0.000
REMARK INTER + INTRA:          -5.900
REMARK INTER:                  -5.442
REMARK INTRA:                  -0.458
REMARK UNBOUND:                -0.458
REMARK SMILES CCCCC=CC(C)=O
REMARK SMILES IDX 4 1 3 2 2 3 1 4 5 5 6 6 7 7 9 8 8 9
REMARK H PARENT
REMARK Flexibility Score: inf
ROOT
ATOM      1  C   UNL     1      -6.340  -2.696  -1.473  1.00  0.00     0.027 C 
ENDROOT
BRANCH   1   2
ATOM      2  C   UNL     1      -5.297  -3.369  -2.378  1.00  0.00     0.004 C 
BRANCH   2   3
ATOM      3  C   UNL     1      -3.856  -3.045  -1.954  1.00  0.00    -0.003 C 
ATOM      4  C   UNL     1      -3.329  -1.759  -2.591  1.00  0.00     0.004 C 
ENDBRANCH   2   3
ENDBRANCH   1   2
BRANCH   1   5
ATOM      5  C   UNL     1      -5.968  -2.832  -0.021  1.00  0.00    -0.023 C 
ATOM      6  C   UNL     1      -5.855  -1.824   0.862  1.00  0.00     0.042 C 
BRANCH   6   7
ATOM      7  C   UNL     1      -6.117  -0.391   0.599  1.00  0.00     0.152 C 
ATOM      8  O   UNL     1      -7.167   0.177   1.004  1.00  0.00    -0.295 OA
ATOM      9  C   UNL     1      -5.080   0.424  -0.104  1.00  0.00     0.093 C 
ENDBRANCH   6   7
ENDBRANCH   1   5
TORSDOF 4
ENDMDL
MODEL 2
REMARK VINA RESULT:    -4.317      2.109      4.020
REMARK INTER + INTRA:          -5.785
REMARK INTER:                  -5.367
REMARK INTRA:                  -0.418
REMARK UNBOUND:                -0.458
REMARK SMILES CCCCC=CC(C)=O
REMARK SMILES IDX 4 1 3 2 2 3 1 4 5 5 6 6 7 7 9 8 8 9
REMARK H PARENT
REMARK Flexibility Score: inf
ROOT
ATOM      1  C   UNL     1      -6.344  -0.581  -0.146  1.00  0.00     0.027 C 
ENDROOT
BRANCH   1   2
ATOM      2  C   UNL     1      -5.282   0.510   0.060  1.00  0.00     0.004 C 
BRANCH   2   3
ATOM      3  C   UNL     1      -4.541   0.362   1.398  1.00  0.00    -0.003 C 
ATOM      4  C   UNL     1      -5.015   1.367   2.448  1.00  0.00     0.004 C 
ENDBRANCH   2   3
ENDBRANCH   1   2
BRANCH   1   5
ATOM      5  C   UNL     1      -5.909  -1.885   0.467  1.00  0.00    -0.023 C 
ATOM      6  C   UNL     1      -5.307  -2.898  -0.180  1.00  0.00     0.042 C 
BRANCH   6   7
ATOM      7  C   UNL     1      -4.909  -2.919  -1.607  1.00  0.00     0.152 C 
ATOM      8  O   UNL     1      -5.668  -3.381  -2.500  1.00  0.00    -0.295 OA
ATOM      9  C   UNL     1      -3.603  -2.314  -2.009  1.00  0.00     0.093 C 
ENDBRANCH   6   7
ENDBRANCH   1   5
TORSDOF 4
ENDMDL
MODEL 3
REMARK VINA RESULT:    -4.224      2.040      3.628
REMARK INTER + INTRA:          -5.671
REMARK INTER:                  -5.099
REMARK INTRA:                  -0.572
REMARK UNBOUND:                -0.458
REMARK SMILES CCCCC=CC(C)=O
REMARK SMILES IDX 4 1 3 2 2 3 1 4 5 5 6 6 7 7 9 8 8 9
REMARK H PARENT
REMARK Flexibility Score: inf
ROOT
ATOM      1  C   UNL     1      -6.309  -2.457  -1.326  1.00  0.00     0.027 C 
ENDROOT
BRANCH   1   2
ATOM      2  C   UNL     1      -6.135  -2.365   0.199  1.00  0.00     0.004 C 
BRANCH   2   3
ATOM      3  C   UNL     1      -6.149  -0.913   0.703  1.00  0.00    -0.003 C 
ATOM      4  C   UNL     1      -6.005   0.105  -0.428  1.00  0.00     0.004 C 
ENDBRANCH   2   3
ENDBRANCH   1   2
BRANCH   1   5
ATOM      5  C   UNL     1      -5.338  -3.440  -1.924  1.00  0.00    -0.023 C 
ATOM      6  C   UNL     1      -4.051  -3.193  -2.225  1.00  0.00     0.042 C 
BRANCH   6   7
ATOM      7  C   UNL     1      -3.319  -1.927  -1.989  1.00  0.00     0.152 C 
ATOM      8  O   UNL     1      -3.322  -0.992  -2.832  1.00  0.00    -0.295 OA
ATOM      9  C   UNL     1      -2.613  -1.726  -0.687  1.00  0.00     0.093 C 
ENDBRANCH   6   7
ENDBRANCH   1   5
TORSDOF 4
ENDMDL
MODEL 4
REMARK VINA RESULT:    -4.212      2.478      3.776
REMARK INTER + INTRA:          -5.656
REMARK INTER:                  -5.076
REMARK INTRA:                  -0.580
REMARK UNBOUND:                -0.458
REMARK SMILES CCCCC=CC(C)=O
REMARK SMILES IDX 4 1 3 2 2 3 1 4 5 5 6 6 7 7 9 8 8 9
REMARK H PARENT
REMARK Flexibility Score: inf
ROOT
ATOM      1  C   UNL     1      -6.340   0.125   1.310  1.00  0.00     0.027 C 
ENDROOT
BRANCH   1   2
ATOM      2  C   UNL     1      -6.215   0.024  -0.219  1.00  0.00     0.004 C 
BRANCH   2   3
ATOM      3  C   UNL     1      -6.257  -1.430  -0.715  1.00  0.00    -0.003 C 
ATOM      4  C   UNL     1      -5.996  -2.441   0.401  1.00  0.00     0.004 C 
ENDBRANCH   2   3
ENDBRANCH   1   2
BRANCH   1   5
ATOM      5  C   UNL     1      -5.367   1.128   1.869  1.00  0.00    -0.023 C 
ATOM      6  C   UNL     1      -4.077   0.893   2.166  1.00  0.00     0.042 C 
BRANCH   6   7
ATOM      7  C   UNL     1      -3.344  -0.377   1.961  1.00  0.00     0.152 C 
ATOM      8  O   UNL     1      -3.317  -1.277   2.842  1.00  0.00    -0.295 OA
ATOM      9  C   UNL     1      -2.672  -0.629   0.650  1.00  0.00     0.093 C 
ENDBRANCH   6   7
ENDBRANCH   1   5
TORSDOF 4
ENDMDL
MODEL 5
REMARK VINA RESULT:    -4.204      2.083      4.068
REMARK INTER + INTRA:          -5.645
REMARK INTER:                  -5.289
REMARK INTRA:                  -0.356
REMARK UNBOUND:                -0.458
REMARK SMILES CCCCC=CC(C)=O
REMARK SMILES IDX 4 1 3 2 2 3 1 4 5 5 6 6 7 7 9 8 8 9
REMARK H PARENT
REMARK Flexibility Score: inf
ROOT
ATOM      1  C   UNL     1      -6.421  -0.372  -0.417  1.00  0.00     0.027 C 
ENDROOT
BRANCH   1   2
ATOM      2  C   UNL     1      -6.386   0.117   1.040  1.00  0.00     0.004 C 
BRANCH   2   3
ATOM      3  C   UNL     1      -4.964   0.466   1.507  1.00  0.00    -0.003 C 
ATOM      4  C   UNL     1      -4.947   1.559   2.575  1.00  0.00     0.004 C 
ENDBRANCH   2   3
ENDBRANCH   1   2
BRANCH   1   5
ATOM      5  C   UNL     1      -6.462  -1.876  -0.483  1.00  0.00    -0.023 C 
ATOM      6  C   UNL     1      -5.423  -2.680  -0.767  1.00  0.00     0.042 C 
BRANCH   6   7
ATOM      7  C   UNL     1      -4.027  -2.259  -1.025  1.00  0.00     0.152 C 
ATOM      8  O   UNL     1      -3.188  -2.139  -0.093  1.00  0.00    -0.295 OA
ATOM      9  C   UNL     1      -3.582  -2.035  -2.434  1.00  0.00     0.093 C 
ENDBRANCH   6   7
ENDBRANCH   1   5
TORSDOF 4
ENDMDL
MODEL 6
REMARK VINA RESULT:    -4.186      2.170      4.327
REMARK INTER + INTRA:          -5.623
REMARK INTER:                  -5.296
REMARK INTRA:                  -0.327
REMARK UNBOUND:                -0.458
REMARK SMILES CCCCC=CC(C)=O
REMARK SMILES IDX 4 1 3 2 2 3 1 4 5 5 6 6 7 7 9 8 8 9
REMARK H PARENT
REMARK Flexibility Score: inf
ROOT
ATOM      1  C   UNL     1      -6.119   0.459   1.453  1.00  0.00     0.027 C 
ENDROOT
BRANCH   1   2
ATOM      2  C   UNL     1      -5.169   1.138   2.453  1.00  0.00     0.004 C 
BRANCH   2   3
ATOM      3  C   UNL     1      -3.692   0.830   2.161  1.00  0.00    -0.003 C 
ATOM      4  C   UNL     1      -3.274  -0.558   2.644  1.00  0.00     0.004 C 
ENDBRANCH   2   3
ENDBRANCH   1   2
BRANCH   1   5
ATOM      5  C   UNL     1      -5.568   0.522   0.054  1.00  0.00    -0.023 C 
ATOM      6  C   UNL     1      -5.405  -0.523  -0.776  1.00  0.00     0.042 C 
BRANCH   6   7
ATOM      7  C   UNL     1      -5.774  -1.931  -0.502  1.00  0.00     0.152 C 
ATOM      8  O   UNL     1      -5.156  -2.625   0.350  1.00  0.00    -0.295 OA
ATOM      9  C   UNL     1      -6.951  -2.526  -1.205  1.00  0.00     0.093 C 
ENDBRANCH   6   7
ENDBRANCH   1   5
TORSDOF 4
ENDMDL
MODEL 7
REMARK VINA RESULT:    -4.162      1.560      1.934
REMARK INTER + INTRA:          -5.593
REMARK INTER:                  -5.514
REMARK INTRA:                  -0.080
REMARK UNBOUND:                -0.458
REMARK SMILES CCCCC=CC(C)=O
REMARK SMILES IDX 4 1 3 2 2 3 1 4 5 5 6 6 7 7 9 8 8 9
REMARK H PARENT
REMARK Flexibility Score: inf
ROOT
ATOM      1  C   UNL     1      -5.866  -2.241  -0.164  1.00  0.00     0.027 C 
ENDROOT
BRANCH   1   2
ATOM      2  C   UNL     1      -6.157  -2.888  -1.528  1.00  0.00     0.004 C 
BRANCH   2   3
ATOM      3  C   UNL     1      -4.877  -3.339  -2.248  1.00  0.00    -0.003 C 
ATOM      4  C   UNL     1      -3.764  -2.293  -2.182  1.00  0.00     0.004 C 
ENDBRANCH   2   3
ENDBRANCH   1   2
BRANCH   1   5
ATOM      5  C   UNL     1      -6.720  -1.020   0.050  1.00  0.00    -0.023 C 
ATOM      6  C   UNL     1      -6.322   0.128   0.627  1.00  0.00     0.042 C 
BRANCH   6   7
ATOM      7  C   UNL     1      -4.962   0.440   1.122  1.00  0.00     0.152 C 
ATOM      8  O   UNL     1      -3.932   0.148   0.458  1.00  0.00    -0.295 OA
ATOM      9  C   UNL     1      -4.806   1.179   2.411  1.00  0.00     0.093 C 
ENDBRANCH   6   7
ENDBRANCH   1   5
TORSDOF 4
ENDMDL
MODEL 8
REMARK VINA RESULT:    -4.131      1.478      2.461
REMARK INTER + INTRA:          -5.555
REMARK INTER:                  -4.942
REMARK INTRA:                  -0.613
REMARK UNBOUND:                -0.458
REMARK SMILES CCCCC=CC(C)=O
REMARK SMILES IDX 4 1 3 2 2 3 1 4 5 5 6 6 7 7 9 8 8 9
REMARK H PARENT
REMARK Flexibility Score: inf
ROOT
ATOM      1  C   UNL     1      -3.809  -2.957  -2.029  1.00  0.00     0.027 C 
ENDROOT
BRANCH   1   2
ATOM      2  C   UNL     1      -3.354  -1.610  -2.613  1.00  0.00     0.004 C 
BRANCH   2   3
ATOM      3  C   UNL     1      -2.586  -0.757  -1.592  1.00  0.00    -0.003 C 
ATOM      4  C   UNL     1      -2.575  -1.379  -0.195  1.00  0.00     0.004 C 
ENDBRANCH   2   3
ENDBRANCH   1   2
BRANCH   1   5
ATOM      5  C   UNL     1      -5.266  -3.207  -2.310  1.00  0.00    -0.023 C 
ATOM      6  C   UNL     1      -6.296  -2.807  -1.544  1.00  0.00     0.042 C 
BRANCH   6   7
ATOM      7  C   UNL     1      -6.210  -2.006  -0.301  1.00  0.00     0.152 C 
ATOM      8  O   UNL     1      -6.025  -2.544   0.823  1.00  0.00    -0.295 OA
ATOM      9  C   UNL     1      -6.277  -0.516  -0.388  1.00  0.00     0.093 C 
ENDBRANCH   6   7
ENDBRANCH   1   5
TORSDOF 4
ENDMDL
MODEL 9
REMARK VINA RESULT:    -4.129      1.405      2.816
REMARK INTER + INTRA:          -5.553
REMARK INTER:                  -5.051
REMARK INTRA:                  -0.503
REMARK UNBOUND:                -0.458
REMARK SMILES CCCCC=CC(C)=O
REMARK SMILES IDX 4 1 3 2 2 3 1 4 5 5 6 6 7 7 9 8 8 9
REMARK H PARENT
REMARK Flexibility Score: inf
ROOT
ATOM      1  C   UNL     1      -3.760  -0.292  -0.345  1.00  0.00     0.027 C 
ENDROOT
BRANCH   1   2
ATOM      2  C   UNL     1      -3.495  -0.264  -1.859  1.00  0.00     0.004 C 
BRANCH   2   3
ATOM      3  C   UNL     1      -2.714  -1.497  -2.340  1.00  0.00    -0.003 C 
ATOM      4  C   UNL     1      -3.376  -2.811  -1.923  1.00  0.00     0.004 C 
ENDBRANCH   2   3
ENDBRANCH   1   2
BRANCH   1   5
ATOM      5  C   UNL     1      -5.122   0.263  -0.023  1.00  0.00    -0.023 C 
ATOM      6  C   UNL     1      -6.260  -0.445   0.068  1.00  0.00     0.042 C 
BRANCH   6   7
ATOM      7  C   UNL     1      -6.399  -1.912  -0.084  1.00  0.00     0.152 C 
ATOM      8  O   UNL     1      -6.045  -2.709   0.826  1.00  0.00    -0.295 OA
ATOM      9  C   UNL     1      -7.038  -2.461  -1.318  1.00  0.00     0.093 C 
ENDBRANCH   6   7
ENDBRANCH   1   5
TORSDOF 4
ENDMDL
