MODEL 1
REMARK VINA RESULT:    -2.017      0.000      0.000
REMARK INTER + INTRA:          -2.422
REMARK INTER:                  -2.430
REMARK INTRA:                   0.008
REMARK UNBOUND:                 0.008
REMARK SMILES O=c1c(O)c(-c2ccc(O)cc2O)oc2cc(O)cc(O)c12
REMARK SMILES IDX 5 1 3 2 2 3 1 4 22 5 20 6 19 7 17 8 16 9 15 10 14 11 6 12
REMARK SMILES IDX 8 13 7 14 9 15 11 16 12 17 10 18 13 20 4 22 21 24 18 26
REMARK H PARENT 10 19 13 21 4 23 21 25 18 27
REMARK Flexibility Score: inf
ROOT
ATOM      1  C   UNL     1       8.877  12.022 -16.360  1.00  0.00     0.184 A 
ATOM      2  C   UNL     1       7.694  12.733 -16.107  1.00  0.00     0.208 A 
ATOM      3  C   UNL     1       7.332  13.781 -16.968  1.00  0.00     0.238 A 
ATOM      4  O   UNL     1       6.244  14.380 -16.767  1.00  0.00    -0.285 OA
ATOM      5  C   UNL     1       8.168  14.111 -18.063  1.00  0.00     0.111 A 
ATOM      6  C   UNL     1       7.920  15.180 -18.977  1.00  0.00     0.134 A 
ATOM      7  C   UNL     1       8.744  15.335 -20.098  1.00  0.00     0.093 A 
ATOM      8  C   UNL     1       9.844  14.502 -20.303  1.00  0.00     0.123 A 
ATOM      9  C   UNL     1      10.131  13.492 -19.384  1.00  0.00     0.094 A 
ATOM     10  C   UNL     1       9.306  13.290 -18.275  1.00  0.00     0.146 A 
ATOM     11  O   UNL     1       9.606  12.311 -17.430  1.00  0.00    -0.451 OA
ENDROOT
BRANCH   1  12
ATOM     12  C   UNL     1       9.324  10.920 -15.482  1.00  0.00     0.063 A 
ATOM     13  C   UNL     1      11.043   9.976 -14.045  1.00  0.00     0.047 A 
ATOM     14  C   UNL     1      10.592  10.997 -14.884  1.00  0.00     0.020 A 
ATOM     15  C   UNL     1      10.226   8.869 -13.782  1.00  0.00     0.119 A 
ATOM     16  C   UNL     1       8.953   8.795 -14.354  1.00  0.00     0.093 A 
ATOM     17  C   UNL     1       8.490   9.820 -15.194  1.00  0.00     0.130 A 
BRANCH  15  18
ATOM     18  O   UNL     1      10.667   7.843 -12.949  1.00  0.00    -0.508 OA
ATOM     19  H   UNL     1      10.668   6.877 -13.253  1.00  0.00     0.293 HD
ENDBRANCH  15  18
BRANCH  17  20
ATOM     20  O   UNL     1       7.200   9.756 -15.720  1.00  0.00    -0.507 OA
ATOM     21  H   UNL     1       6.548  10.526 -15.625  1.00  0.00     0.293 HD
ENDBRANCH  17  20
ENDBRANCH   1  12
BRANCH   2  22
ATOM     22  O   UNL     1       6.879  12.374 -15.030  1.00  0.00    -0.502 OA
ATOM     23  H   UNL     1       6.308  11.537 -15.036  1.00  0.00     0.293 HD
ENDBRANCH   2  22
BRANCH   6  24
ATOM     24  O   UNL     1       6.903  16.125 -18.816  1.00  0.00    -0.507 OA
ATOM     25  H   UNL     1       6.683  16.852 -19.481  1.00  0.00     0.293 HD
ENDBRANCH   6  24
BRANCH   8  26
ATOM     26  O   UNL     1      10.653  14.695 -21.422  1.00  0.00    -0.508 OA
ATOM     27  H   UNL     1      10.356  14.407 -22.347  1.00  0.00     0.293 HD
ENDBRANCH   8  26
TORSDOF 6
ENDMDL
MODEL 2
REMARK VINA RESULT:     0.110      1.528      6.520
REMARK INTER + INTRA:           0.141
REMARK INTER:                   0.475
REMARK INTRA:                  -0.334
REMARK UNBOUND:                 0.008
REMARK SMILES O=c1c(O)c(-c2ccc(O)cc2O)oc2cc(O)cc(O)c12
REMARK SMILES IDX 5 1 3 2 2 3 1 4 22 5 20 6 19 7 17 8 16 9 15 10 14 11 6 12
REMARK SMILES IDX 8 13 7 14 9 15 11 16 12 17 10 18 13 20 4 22 21 24 18 26
REMARK H PARENT 10 19 13 21 4 23 21 25 18 27
REMARK Flexibility Score: inf
ROOT
ATOM      1  C   UNL     1       9.237  13.804 -18.714  1.00  0.00     0.184 A 
ATOM      2  C   UNL     1       8.127  14.540 -18.271  1.00  0.00     0.208 A 
ATOM      3  C   UNL     1       7.402  14.075 -17.163  1.00  0.00     0.238 A 
ATOM      4  O   UNL     1       6.439  14.765 -16.738  1.00  0.00    -0.285 OA
ATOM      5  C   UNL     1       7.789  12.873 -16.523  1.00  0.00     0.111 A 
ATOM      6  C   UNL     1       7.104  12.287 -15.416  1.00  0.00     0.134 A 
ATOM      7  C   UNL     1       7.650  11.166 -14.779  1.00  0.00     0.093 A 
ATOM      8  C   UNL     1       8.821  10.572 -15.249  1.00  0.00     0.123 A 
ATOM      9  C   UNL     1       9.467  11.100 -16.367  1.00  0.00     0.094 A 
ATOM     10  C   UNL     1       8.966  12.239 -17.001  1.00  0.00     0.146 A 
ATOM     11  O   UNL     1       9.617  12.718 -18.054  1.00  0.00    -0.451 OA
ENDROOT
BRANCH   1  12
ATOM     12  C   UNL     1      10.033  14.230 -19.885  1.00  0.00     0.063 A 
ATOM     13  C   UNL     1      10.641  13.895 -22.215  1.00  0.00     0.047 A 
ATOM     14  C   UNL     1       9.908  13.517 -21.088  1.00  0.00     0.020 A 
ATOM     15  C   UNL     1      11.499  15.000 -22.158  1.00  0.00     0.119 A 
ATOM     16  C   UNL     1      11.613  15.730 -20.971  1.00  0.00     0.093 A 
ATOM     17  C   UNL     1      10.875  15.359 -19.836  1.00  0.00     0.130 A 
BRANCH  15  18
ATOM     18  O   UNL     1      12.238  15.384 -23.275  1.00  0.00    -0.508 OA
ATOM     19  H   UNL     1      13.242  15.512 -23.228  1.00  0.00     0.293 HD
ENDBRANCH  15  18
BRANCH  17  20
ATOM     20  O   UNL     1      10.961  16.125 -18.673  1.00  0.00    -0.507 OA
ATOM     21  H   UNL     1      11.006  17.137 -18.704  1.00  0.00     0.293 HD
ENDBRANCH  17  20
ENDBRANCH   1  12
BRANCH   2  22
ATOM     22  O   UNL     1       7.777  15.732 -18.910  1.00  0.00    -0.502 OA
ATOM     23  H   UNL     1       7.019  16.320 -18.587  1.00  0.00     0.293 HD
ENDBRANCH   2  22
BRANCH   6  24
ATOM     24  O   UNL     1       5.879  12.747 -14.924  1.00  0.00    -0.507 OA
ATOM     25  H   UNL     1       5.212  13.287 -15.456  1.00  0.00     0.293 HD
ENDBRANCH   6  24
BRANCH   8  26
ATOM     26  O   UNL     1       9.328   9.447 -14.601  1.00  0.00    -0.508 OA
ATOM     27  H   UNL     1      10.177   9.489 -14.050  1.00  0.00     0.293 HD
ENDBRANCH   8  26
TORSDOF 6
ENDMDL
