MODEL 1
REMARK VINA RESULT:    -4.718      0.000      0.000
REMARK INTER + INTRA:          -7.120
REMARK INTER:                  -6.373
REMARK INTRA:                  -0.747
REMARK UNBOUND:                -0.747
REMARK SMILES CC(=O)CCC=C(C)CCC=C(C)C
REMARK SMILES IDX 7 1 6 2 8 3 9 4 10 5 11 6 13 7 12 8 14 9 5 10 4 11 2 12 3 13
REMARK SMILES IDX 1 14
REMARK H PARENT
REMARK Flexibility Score: inf
ROOT
ATOM      1  C   UNL     1       2.006   0.912  55.703  1.00  0.00    -0.077 C 
ATOM      2  C   UNL     1       0.976   1.639  56.194  1.00  0.00    -0.028 C 
ATOM      3  C   UNL     1       2.691  -0.156  56.523  1.00  0.00     0.039 C 
ENDROOT
BRANCH   1   4
ATOM      4  C   UNL     1       2.496   1.189  54.299  1.00  0.00     0.034 C 
BRANCH   4   5
ATOM      5  C   UNL     1       2.889  -0.114  53.594  1.00  0.00     0.032 C 
BRANCH   5   6
ATOM      6  C   UNL     1       1.664  -0.908  53.216  1.00  0.00    -0.028 C 
ATOM      7  C   UNL     1       2.518  -3.023  54.250  1.00  0.00     0.039 C 
ATOM      8  C   UNL     1       1.492  -2.223  53.482  1.00  0.00    -0.080 C 
ATOM      9  C   UNL     1       0.229  -2.892  53.008  1.00  0.00     0.039 C 
ENDBRANCH   5   6
ENDBRANCH   4   5
ENDBRANCH   1   4
BRANCH   2  10
ATOM     10  C   UNL     1       0.359   1.434  57.556  1.00  0.00     0.035 C 
BRANCH  10  11
ATOM     11  C   UNL     1       0.962   2.413  58.573  1.00  0.00     0.079 C 
BRANCH  11  12
ATOM     12  C   UNL     1       1.221   1.816  59.938  1.00  0.00     0.130 C 
ATOM     13  O   UNL     1       2.165   1.051  60.067  1.00  0.00    -0.300 OA
ATOM     14  C   UNL     1       0.373   2.125  61.142  1.00  0.00     0.087 C 
ENDBRANCH  11  12
ENDBRANCH  10  11
ENDBRANCH   2  10
TORSDOF 6
ENDMDL
MODEL 2
REMARK VINA RESULT:    -4.679      2.980      6.166
REMARK INTER + INTRA:          -7.067
REMARK INTER:                  -6.106
REMARK INTRA:                  -0.961
REMARK UNBOUND:                -0.747
REMARK SMILES CC(=O)CCC=C(C)CCC=C(C)C
REMARK SMILES IDX 7 1 6 2 8 3 9 4 10 5 11 6 13 7 12 8 14 9 5 10 4 11 2 12 3 13
REMARK SMILES IDX 1 14
REMARK H PARENT
REMARK Flexibility Score: inf
ROOT
ATOM      1  C   UNL     1       2.309  -1.547  53.596  1.00  0.00    -0.077 C 
ATOM      2  C   UNL     1       1.032  -1.772  53.211  1.00  0.00    -0.028 C 
ATOM      3  C   UNL     1       3.162  -2.635  54.206  1.00  0.00     0.039 C 
ENDROOT
BRANCH   1   4
ATOM      4  C   UNL     1       2.894  -0.163  53.426  1.00  0.00     0.034 C 
BRANCH   4   5
ATOM      5  C   UNL     1       3.174   0.480  54.789  1.00  0.00     0.032 C 
BRANCH   5   6
ATOM      6  C   UNL     1       1.929   1.129  55.340  1.00  0.00    -0.028 C 
ATOM      7  C   UNL     1       1.736  -0.486  57.245  1.00  0.00     0.039 C 
ATOM      8  C   UNL     1       1.257   0.691  56.428  1.00  0.00    -0.080 C 
ATOM      9  C   UNL     1       0.003   1.420  56.839  1.00  0.00     0.039 C 
ENDBRANCH   5   6
ENDBRANCH   4   5
ENDBRANCH   1   4
BRANCH   2  10
ATOM     10  C   UNL     1       0.344  -3.114  53.279  1.00  0.00     0.035 C 
BRANCH  10  11
ATOM     11  C   UNL     1      -0.607  -3.292  52.086  1.00  0.00     0.079 C 
BRANCH  11  12
ATOM     12  C   UNL     1      -1.875  -2.471  52.170  1.00  0.00     0.130 C 
ATOM     13  O   UNL     1      -2.539  -2.533  53.194  1.00  0.00    -0.300 OA
ATOM     14  C   UNL     1      -2.349  -1.579  51.055  1.00  0.00     0.087 C 
ENDBRANCH  11  12
ENDBRANCH  10  11
ENDBRANCH   2  10
TORSDOF 6
ENDMDL
MODEL 3
REMARK VINA RESULT:    -4.637      1.011      1.610
REMARK INTER + INTRA:          -7.010
REMARK INTER:                  -5.892
REMARK INTRA:                  -1.118
REMARK UNBOUND:                -0.747
REMARK SMILES CC(=O)CCC=C(C)CCC=C(C)C
REMARK SMILES IDX 7 1 6 2 8 3 9 4 10 5 11 6 13 7 12 8 14 9 5 10 4 11 2 12 3 13
REMARK SMILES IDX 1 14
REMARK H PARENT
REMARK Flexibility Score: inf
ROOT
ATOM      1  C   UNL     1       1.911   0.591  56.058  1.00  0.00    -0.077 C 
ATOM      2  C   UNL     1       2.588  -0.208  56.914  1.00  0.00    -0.028 C 
ATOM      3  C   UNL     1       0.479   1.000  56.312  1.00  0.00     0.039 C 
ENDROOT
BRANCH   1   4
ATOM      4  C   UNL     1       2.602   1.074  54.802  1.00  0.00     0.034 C 
BRANCH   4   5
ATOM      5  C   UNL     1       2.986  -0.107  53.905  1.00  0.00     0.032 C 
BRANCH   5   6
ATOM      6  C   UNL     1       1.754  -0.788  53.361  1.00  0.00    -0.028 C 
ATOM      7  C   UNL     1       2.356  -3.013  54.340  1.00  0.00     0.039 C 
ATOM      8  C   UNL     1       1.469  -2.099  53.528  1.00  0.00    -0.080 C 
ATOM      9  C   UNL     1       0.218  -2.648  52.893  1.00  0.00     0.039 C 
ENDBRANCH   5   6
ENDBRANCH   4   5
ENDBRANCH   1   4
BRANCH   2  10
ATOM     10  C   UNL     1       2.037  -0.719  58.222  1.00  0.00     0.035 C 
BRANCH  10  11
ATOM     11  C   UNL     1       2.511   0.163  59.387  1.00  0.00     0.079 C 
BRANCH  11  12
ATOM     12  C   UNL     1       1.418   0.986  60.032  1.00  0.00     0.130 C 
ATOM     13  O   UNL     1       0.676   0.438  60.833  1.00  0.00    -0.300 OA
ATOM     14  C   UNL     1       1.210   2.447  59.738  1.00  0.00     0.087 C 
ENDBRANCH  11  12
ENDBRANCH  10  11
ENDBRANCH   2  10
TORSDOF 6
ENDMDL
MODEL 4
REMARK VINA RESULT:    -4.609      2.326      6.473
REMARK INTER + INTRA:          -6.973
REMARK INTER:                  -6.086
REMARK INTRA:                  -0.886
REMARK UNBOUND:                -0.747
REMARK SMILES CC(=O)CCC=C(C)CCC=C(C)C
REMARK SMILES IDX 7 1 6 2 8 3 9 4 10 5 11 6 13 7 12 8 14 9 5 10 4 11 2 12 3 13
REMARK SMILES IDX 1 14
REMARK H PARENT
REMARK Flexibility Score: inf
ROOT
ATOM      1  C   UNL     1       1.233   0.498  56.740  1.00  0.00    -0.077 C 
ATOM      2  C   UNL     1       1.467   0.994  55.503  1.00  0.00    -0.028 C 
ATOM      3  C   UNL     1       2.297  -0.239  57.518  1.00  0.00     0.039 C 
ENDROOT
BRANCH   1   4
ATOM      4  C   UNL     1      -0.138   0.674  57.354  1.00  0.00     0.034 C 
BRANCH   4   5
ATOM      5  C   UNL     1      -0.119   0.307  58.842  1.00  0.00     0.032 C 
BRANCH   5   6
ATOM      6  C   UNL     1      -0.719   1.413  59.673  1.00  0.00    -0.028 C 
ATOM      7  C   UNL     1       1.510   2.282  60.414  1.00  0.00     0.039 C 
ATOM      8  C   UNL     1      -0.000   2.294  60.405  1.00  0.00    -0.080 C 
ATOM      9  C   UNL     1      -0.741   3.323  61.219  1.00  0.00     0.039 C 
ENDBRANCH   5   6
ENDBRANCH   4   5
ENDBRANCH   1   4
BRANCH   2  10
ATOM     10  C   UNL     1       2.799   0.931  54.796  1.00  0.00     0.035 C 
BRANCH  10  11
ATOM     11  C   UNL     1       2.657   0.221  53.442  1.00  0.00     0.079 C 
BRANCH  11  12
ATOM     12  C   UNL     1       2.261  -1.236  53.539  1.00  0.00     0.130 C 
ATOM     13  O   UNL     1       1.174  -1.571  53.093  1.00  0.00    -0.300 OA
ATOM     14  C   UNL     1       3.146  -2.287  54.151  1.00  0.00     0.087 C 
ENDBRANCH  11  12
ENDBRANCH  10  11
ENDBRANCH   2  10
TORSDOF 6
ENDMDL
MODEL 5
REMARK VINA RESULT:    -4.587     10.851     12.400
REMARK INTER + INTRA:          -6.942
REMARK INTER:                  -5.536
REMARK INTRA:                  -1.406
REMARK UNBOUND:                -0.747
REMARK SMILES CC(=O)CCC=C(C)CCC=C(C)C
REMARK SMILES IDX 7 1 6 2 8 3 9 4 10 5 11 6 13 7 12 8 14 9 5 10 4 11 2 12 3 13
REMARK SMILES IDX 1 14
REMARK H PARENT
REMARK Flexibility Score: inf
ROOT
ATOM      1  C   UNL     1      -7.007   3.898  51.934  1.00  0.00    -0.077 C 
ATOM      2  C   UNL     1      -8.116   3.123  51.966  1.00  0.00    -0.028 C 
ATOM      3  C   UNL     1      -6.822   4.983  50.900  1.00  0.00     0.039 C 
ENDROOT
BRANCH   1   4
ATOM      4  C   UNL     1      -5.915   3.659  52.953  1.00  0.00     0.034 C 
BRANCH   4   5
ATOM      5  C   UNL     1      -6.512   3.437  54.347  1.00  0.00     0.032 C 
BRANCH   5   6
ATOM      6  C   UNL     1      -6.706   4.752  55.060  1.00  0.00    -0.028 C 
ATOM      7  C   UNL     1      -9.125   4.317  55.543  1.00  0.00     0.039 C 
ATOM      8  C   UNL     1      -7.880   5.173  55.582  1.00  0.00    -0.080 C 
ATOM      9  C   UNL     1      -7.932   6.530  56.233  1.00  0.00     0.039 C 
ENDBRANCH   5   6
ENDBRANCH   4   5
ENDBRANCH   1   4
BRANCH   2  10
ATOM     10  C   UNL     1      -9.298   3.286  51.043  1.00  0.00     0.035 C 
BRANCH  10  11
ATOM     11  C   UNL     1     -10.414   4.084  51.733  1.00  0.00     0.079 C 
BRANCH  11  12
ATOM     12  C   UNL     1     -10.289   5.584  51.590  1.00  0.00     0.130 C 
ATOM     13  O   UNL     1     -10.551   6.087  50.508  1.00  0.00    -0.300 OA
ATOM     14  C   UNL     1      -9.865   6.483  52.720  1.00  0.00     0.087 C 
ENDBRANCH  11  12
ENDBRANCH  10  11
ENDBRANCH   2  10
TORSDOF 6
ENDMDL
MODEL 6
REMARK VINA RESULT:    -4.526     10.238     11.408
REMARK INTER + INTRA:          -6.861
REMARK INTER:                  -5.863
REMARK INTRA:                  -0.998
REMARK UNBOUND:                -0.747
REMARK SMILES CC(=O)CCC=C(C)CCC=C(C)C
REMARK SMILES IDX 7 1 6 2 8 3 9 4 10 5 11 6 13 7 12 8 14 9 5 10 4 11 2 12 3 13
REMARK SMILES IDX 1 14
REMARK H PARENT
REMARK Flexibility Score: inf
ROOT
ATOM      1  C   UNL     1      -7.224   3.188  52.344  1.00  0.00    -0.077 C 
ATOM      2  C   UNL     1      -6.171   3.544  53.117  1.00  0.00    -0.028 C 
ATOM      3  C   UNL     1      -8.247   2.178  52.806  1.00  0.00     0.039 C 
ENDROOT
BRANCH   1   4
ATOM      4  C   UNL     1      -7.369   3.807  50.971  1.00  0.00     0.034 C 
BRANCH   4   5
ATOM      5  C   UNL     1      -7.458   5.334  51.071  1.00  0.00     0.032 C 
BRANCH   5   6
ATOM      6  C   UNL     1      -8.352   5.743  52.215  1.00  0.00    -0.028 C 
ATOM      7  C   UNL     1     -10.373   5.997  50.757  1.00  0.00     0.039 C 
ATOM      8  C   UNL     1      -9.658   6.068  52.086  1.00  0.00    -0.080 C 
ATOM      9  C   UNL     1     -10.416   6.496  53.316  1.00  0.00     0.039 C 
ENDBRANCH   5   6
ENDBRANCH   4   5
ENDBRANCH   1   4
BRANCH   2  10
ATOM     10  C   UNL     1      -5.935   3.041  54.520  1.00  0.00     0.035 C 
BRANCH  10  11
ATOM     11  C   UNL     1      -5.953   4.207  55.519  1.00  0.00     0.079 C 
BRANCH  11  12
ATOM     12  C   UNL     1      -7.311   4.847  55.708  1.00  0.00     0.130 C 
ATOM     13  O   UNL     1      -8.289   4.118  55.790  1.00  0.00    -0.300 OA
ATOM     14  C   UNL     1      -7.510   6.335  55.804  1.00  0.00     0.087 C 
ENDBRANCH  11  12
ENDBRANCH  10  11
ENDBRANCH   2  10
TORSDOF 6
ENDMDL
MODEL 7
REMARK VINA RESULT:    -4.455      2.964      5.334
REMARK INTER + INTRA:          -6.765
REMARK INTER:                  -5.467
REMARK INTRA:                  -1.298
REMARK UNBOUND:                -0.747
REMARK SMILES CC(=O)CCC=C(C)CCC=C(C)C
REMARK SMILES IDX 7 1 6 2 8 3 9 4 10 5 11 6 13 7 12 8 14 9 5 10 4 11 2 12 3 13
REMARK SMILES IDX 1 14
REMARK H PARENT
REMARK Flexibility Score: inf
ROOT
ATOM      1  C   UNL     1       2.245  -1.242  53.629  1.00  0.00    -0.077 C 
ATOM      2  C   UNL     1       1.004  -1.597  53.223  1.00  0.00    -0.028 C 
ATOM      3  C   UNL     1       3.233  -2.257  54.153  1.00  0.00     0.039 C 
ENDROOT
BRANCH   1   4
ATOM      4  C   UNL     1       2.646   0.216  53.573  1.00  0.00     0.034 C 
BRANCH   4   5
ATOM      5  C   UNL     1       2.872   0.772  54.983  1.00  0.00     0.032 C 
BRANCH   5   6
ATOM      6  C   UNL     1       1.592   1.338  55.545  1.00  0.00    -0.028 C 
ATOM      7  C   UNL     1       1.219  -0.607  57.079  1.00  0.00     0.039 C 
ATOM      8  C   UNL     1       0.825   0.718  56.470  1.00  0.00    -0.080 C 
ATOM      9  C   UNL     1      -0.450   1.389  56.910  1.00  0.00     0.039 C 
ENDBRANCH   5   6
ENDBRANCH   4   5
ENDBRANCH   1   4
BRANCH   2  10
ATOM     10  C   UNL     1       0.493  -3.016  53.181  1.00  0.00     0.035 C 
BRANCH  10  11
ATOM     11  C   UNL     1      -0.450  -3.284  54.363  1.00  0.00     0.079 C 
BRANCH  11  12
ATOM     12  C   UNL     1      -1.696  -2.428  54.375  1.00  0.00     0.130 C 
ATOM     13  O   UNL     1      -2.377  -2.381  53.361  1.00  0.00    -0.300 OA
ATOM     14  C   UNL     1      -2.138  -1.638  55.577  1.00  0.00     0.087 C 
ENDBRANCH  11  12
ENDBRANCH  10  11
ENDBRANCH   2  10
TORSDOF 6
ENDMDL
MODEL 8
REMARK VINA RESULT:    -4.448      1.460      2.088
REMARK INTER + INTRA:          -6.754
REMARK INTER:                  -5.713
REMARK INTRA:                  -1.041
REMARK UNBOUND:                -0.747
REMARK SMILES CC(=O)CCC=C(C)CCC=C(C)C
REMARK SMILES IDX 7 1 6 2 8 3 9 4 10 5 11 6 13 7 12 8 14 9 5 10 4 11 2 12 3 13
REMARK SMILES IDX 1 14
REMARK H PARENT
REMARK Flexibility Score: inf
ROOT
ATOM      1  C   UNL     1       2.489   0.784  54.855  1.00  0.00    -0.077 C 
ATOM      2  C   UNL     1       1.890   0.803  56.068  1.00  0.00    -0.028 C 
ATOM      3  C   UNL     1       2.188   1.823  53.800  1.00  0.00     0.039 C 
ENDROOT
BRANCH   1   4
ATOM      4  C   UNL     1       3.474  -0.320  54.540  1.00  0.00     0.034 C 
BRANCH   4   5
ATOM      5  C   UNL     1       2.813  -1.695  54.684  1.00  0.00     0.032 C 
BRANCH   5   6
ATOM      6  C   UNL     1       1.863  -1.954  53.542  1.00  0.00    -0.028 C 
ATOM      7  C   UNL     1      -0.146  -2.085  55.033  1.00  0.00     0.039 C 
ATOM      8  C   UNL     1       0.534  -2.156  53.685  1.00  0.00    -0.080 C 
ATOM      9  C   UNL     1      -0.286  -2.441  52.454  1.00  0.00     0.039 C 
ENDBRANCH   5   6
ENDBRANCH   4   5
ENDBRANCH   1   4
BRANCH   2  10
ATOM     10  C   UNL     1       0.928   1.871  56.528  1.00  0.00     0.035 C 
BRANCH  10  11
ATOM     11  C   UNL     1      -0.275   1.239  57.243  1.00  0.00     0.079 C 
BRANCH  11  12
ATOM     12  C   UNL     1      -0.447   1.676  58.681  1.00  0.00     0.130 C 
ATOM     13  O   UNL     1      -1.566   1.634  59.170  1.00  0.00    -0.300 OA
ATOM     14  C   UNL     1       0.696   2.153  59.535  1.00  0.00     0.087 C 
ENDBRANCH  11  12
ENDBRANCH  10  11
ENDBRANCH   2  10
TORSDOF 6
ENDMDL
MODEL 9
REMARK VINA RESULT:    -4.381      2.692      5.605
REMARK INTER + INTRA:          -6.664
REMARK INTER:                  -5.677
REMARK INTRA:                  -0.987
REMARK UNBOUND:                -0.747
REMARK SMILES CC(=O)CCC=C(C)CCC=C(C)C
REMARK SMILES IDX 7 1 6 2 8 3 9 4 10 5 11 6 13 7 12 8 14 9 5 10 4 11 2 12 3 13
REMARK SMILES IDX 1 14
REMARK H PARENT
REMARK Flexibility Score: inf
ROOT
ATOM      1  C   UNL     1       2.239  -1.455  53.630  1.00  0.00    -0.077 C 
ATOM      2  C   UNL     1       3.172  -2.190  54.279  1.00  0.00    -0.028 C 
ATOM      3  C   UNL     1       0.876  -2.012  53.295  1.00  0.00     0.039 C 
ENDROOT
BRANCH   1   4
ATOM      4  C   UNL     1       2.579  -0.041  53.213  1.00  0.00     0.034 C 
BRANCH   4   5
ATOM      5  C   UNL     1       2.934   0.815  54.434  1.00  0.00     0.032 C 
BRANCH   5   6
ATOM      6  C   UNL     1       1.686   1.293  55.132  1.00  0.00    -0.028 C 
ATOM      7  C   UNL     1       2.114  -0.080  57.183  1.00  0.00     0.039 C 
ATOM      8  C   UNL     1       1.291   0.882  56.358  1.00  0.00    -0.080 C 
ATOM      9  C   UNL     1      -0.003   1.419  56.912  1.00  0.00     0.039 C 
ENDBRANCH   5   6
ENDBRANCH   4   5
ENDBRANCH   1   4
BRANCH   2  10
ATOM     10  C   UNL     1       2.949  -3.591  54.793  1.00  0.00     0.035 C 
BRANCH  10  11
ATOM     11  C   UNL     1       4.280  -4.350  54.882  1.00  0.00     0.079 C 
BRANCH  11  12
ATOM     12  C   UNL     1       4.870  -4.416  56.273  1.00  0.00     0.130 C 
ATOM     13  O   UNL     1       4.910  -5.500  56.836  1.00  0.00    -0.300 OA
ATOM     14  C   UNL     1       5.414  -3.211  56.991  1.00  0.00     0.087 C 
ENDBRANCH  11  12
ENDBRANCH  10  11
ENDBRANCH   2  10
TORSDOF 6
ENDMDL
