MODEL 1
REMARK VINA RESULT:    -6.253      0.000      0.000
REMARK INTER + INTRA:          -8.069
REMARK INTER:                  -7.715
REMARK INTRA:                  -0.354
REMARK UNBOUND:                -0.354
REMARK SMILES COc1cc(-c2oc3cc(O)cc(O)c3c(=O)c2O)ccc1O
REMARK SMILES IDX 6 1 18 2 16 3 17 4 15 5 13 6 12 7 10 8 9 9 8 10 7 11 5 12
REMARK SMILES IDX 3 13 22 14 4 15 21 16 20 17 2 18 1 19 23 20 19 22 14 24
REMARK SMILES IDX 11 26
REMARK H PARENT 23 21 19 23 14 25 11 27
REMARK Flexibility Score: inf
ROOT
ATOM      1  C   UNL     1      11.441  -6.262  -9.642  1.00  0.00     0.180 A 
ATOM      2  C   UNL     1      11.212  -7.614  -9.951  1.00  0.00     0.208 A 
ATOM      3  C   UNL     1      10.305  -8.346  -9.168  1.00  0.00     0.238 A 
ATOM      4  O   UNL     1      10.062  -9.540  -9.482  1.00  0.00    -0.285 OA
ATOM      5  C   UNL     1       9.651  -7.722  -8.078  1.00  0.00     0.111 A 
ATOM      6  C   UNL     1       8.742  -8.378  -7.194  1.00  0.00     0.134 A 
ATOM      7  C   UNL     1       8.056  -7.630  -6.230  1.00  0.00     0.093 A 
ATOM      8  C   UNL     1       8.292  -6.262  -6.076  1.00  0.00     0.123 A 
ATOM      9  C   UNL     1       9.220  -5.625  -6.894  1.00  0.00     0.094 A 
ATOM     10  C   UNL     1       9.895  -6.337  -7.889  1.00  0.00     0.146 A 
ATOM     11  O   UNL     1      10.764  -5.687  -8.655  1.00  0.00    -0.452 OA
ENDROOT
BRANCH   1  12
ATOM     12  C   UNL     1      12.402  -5.431 -10.406  1.00  0.00     0.025 A 
ATOM     13  C   UNL     1      14.706  -4.723 -10.810  1.00  0.00     0.161 A 
ATOM     14  C   UNL     1      14.265  -3.917 -11.870  1.00  0.00     0.157 A 
ATOM     15  C   UNL     1      13.768  -5.484 -10.085  1.00  0.00     0.062 A 
ATOM     16  C   UNL     1      12.907  -3.879 -12.205  1.00  0.00     0.051 A 
ATOM     17  C   UNL     1      11.981  -4.635 -11.484  1.00  0.00     0.016 A 
BRANCH  13  18
ATOM     18  O   UNL     1      16.077  -4.740 -10.511  1.00  0.00    -0.493 OA
ATOM     19  C   UNL     1      16.718  -3.837  -9.616  1.00  0.00     0.278 C 
ENDBRANCH  13  18
BRANCH  14  20
ATOM     20  O   UNL     1      15.188  -3.160 -12.591  1.00  0.00    -0.504 OA
ATOM     21  H   UNL     1      15.895  -3.598 -13.170  1.00  0.00     0.293 HD
ENDBRANCH  14  20
ENDBRANCH   1  12
BRANCH   2  22
ATOM     22  O   UNL     1      11.851  -8.204 -11.045  1.00  0.00    -0.502 OA
ATOM     23  H   UNL     1      11.505  -8.111 -11.992  1.00  0.00     0.293 HD
ENDBRANCH   2  22
BRANCH   6  24
ATOM     24  O   UNL     1       8.503  -9.756  -7.203  1.00  0.00    -0.507 OA
ATOM     25  H   UNL     1       9.096 -10.439  -7.649  1.00  0.00     0.293 HD
ENDBRANCH   6  24
BRANCH   8  26
ATOM     26  O   UNL     1       7.615  -5.530  -5.103  1.00  0.00    -0.508 OA
ATOM     27  H   UNL     1       6.697  -5.805  -4.776  1.00  0.00     0.293 HD
ENDBRANCH   8  26
TORSDOF 6
ENDMDL
MODEL 2
REMARK VINA RESULT:    -6.176      0.775      1.894
REMARK INTER + INTRA:          -7.974
REMARK INTER:                  -7.588
REMARK INTRA:                  -0.386
REMARK UNBOUND:                -0.354
REMARK SMILES COc1cc(-c2oc3cc(O)cc(O)c3c(=O)c2O)ccc1O
REMARK SMILES IDX 6 1 18 2 16 3 17 4 15 5 13 6 12 7 10 8 9 9 8 10 7 11 5 12
REMARK SMILES IDX 3 13 22 14 4 15 21 16 20 17 2 18 1 19 23 20 19 22 14 24
REMARK SMILES IDX 11 26
REMARK H PARENT 23 21 19 23 14 25 11 27
REMARK Flexibility Score: inf
ROOT
ATOM      1  C   UNL     1      11.546  -6.317  -9.678  1.00  0.00     0.180 A 
ATOM      2  C   UNL     1      11.296  -7.664  -9.991  1.00  0.00     0.208 A 
ATOM      3  C   UNL     1      10.362  -8.379  -9.224  1.00  0.00     0.238 A 
ATOM      4  O   UNL     1      10.103  -9.569  -9.542  1.00  0.00    -0.285 OA
ATOM      5  C   UNL     1       9.701  -7.744  -8.146  1.00  0.00     0.111 A 
ATOM      6  C   UNL     1       8.766  -8.382  -7.278  1.00  0.00     0.134 A 
ATOM      7  C   UNL     1       8.076  -7.622  -6.326  1.00  0.00     0.093 A 
ATOM      8  C   UNL     1       8.334  -6.258  -6.168  1.00  0.00     0.123 A 
ATOM      9  C   UNL     1       9.289  -5.639  -6.970  1.00  0.00     0.094 A 
ATOM     10  C   UNL     1       9.968  -6.362  -7.952  1.00  0.00     0.146 A 
ATOM     11  O   UNL     1      10.862  -5.729  -8.703  1.00  0.00    -0.452 OA
ENDROOT
BRANCH   1  12
ATOM     12  C   UNL     1      12.534  -5.504 -10.425  1.00  0.00     0.025 A 
ATOM     13  C   UNL     1      13.002  -3.770 -12.083  1.00  0.00     0.161 A 
ATOM     14  C   UNL     1      14.374  -3.900 -11.822  1.00  0.00     0.157 A 
ATOM     15  C   UNL     1      12.085  -4.572 -11.375  1.00  0.00     0.062 A 
ATOM     16  C   UNL     1      14.822  -4.814 -10.861  1.00  0.00     0.051 A 
ATOM     17  C   UNL     1      13.910  -5.606 -10.162  1.00  0.00     0.016 A 
BRANCH  13  18
ATOM     18  O   UNL     1      12.592  -2.837 -13.048  1.00  0.00    -0.493 OA
ATOM     19  C   UNL     1      12.086  -1.539 -12.751  1.00  0.00     0.278 C 
ENDBRANCH  13  18
BRANCH  14  20
ATOM     20  O   UNL     1      15.286  -3.110 -12.520  1.00  0.00    -0.504 OA
ATOM     21  H   UNL     1      16.151  -2.797 -12.094  1.00  0.00     0.293 HD
ENDBRANCH  14  20
ENDBRANCH   1  12
BRANCH   2  22
ATOM     22  O   UNL     1      11.944  -8.266 -11.073  1.00  0.00    -0.502 OA
ATOM     23  H   UNL     1      12.554  -9.067 -10.965  1.00  0.00     0.293 HD
ENDBRANCH   2  22
BRANCH   6  24
ATOM     24  O   UNL     1       8.501  -9.755  -7.291  1.00  0.00    -0.507 OA
ATOM     25  H   UNL     1       8.786 -10.402  -6.572  1.00  0.00     0.293 HD
ENDBRANCH   6  24
BRANCH   8  26
ATOM     26  O   UNL     1       7.655  -5.513  -5.207  1.00  0.00    -0.508 OA
ATOM     27  H   UNL     1       6.649  -5.576  -5.101  1.00  0.00     0.293 HD
ENDBRANCH   8  26
TORSDOF 6
ENDMDL
MODEL 3
REMARK VINA RESULT:    -5.920      1.543      1.817
REMARK INTER + INTRA:          -7.659
REMARK INTER:                  -7.957
REMARK INTRA:                   0.299
REMARK UNBOUND:                -0.354
REMARK SMILES COc1cc(-c2oc3cc(O)cc(O)c3c(=O)c2O)ccc1O
REMARK SMILES IDX 6 1 18 2 16 3 17 4 15 5 13 6 12 7 10 8 9 9 8 10 7 11 5 12
REMARK SMILES IDX 3 13 22 14 4 15 21 16 20 17 2 18 1 19 23 20 19 22 14 24
REMARK SMILES IDX 11 26
REMARK H PARENT 23 21 19 23 14 25 11 27
REMARK Flexibility Score: inf
ROOT
ATOM      1  C   UNL     1      10.976  -7.097  -9.667  1.00  0.00     0.180 A 
ATOM      2  C   UNL     1      10.002  -8.078  -9.922  1.00  0.00     0.208 A 
ATOM      3  C   UNL     1       8.930  -8.222  -9.027  1.00  0.00     0.238 A 
ATOM      4  O   UNL     1       8.032  -9.065  -9.290  1.00  0.00    -0.285 OA
ATOM      5  C   UNL     1       8.853  -7.396  -7.880  1.00  0.00     0.111 A 
ATOM      6  C   UNL     1       7.833  -7.482  -6.885  1.00  0.00     0.134 A 
ATOM      7  C   UNL     1       7.786  -6.528  -5.861  1.00  0.00     0.093 A 
ATOM      8  C   UNL     1       8.758  -5.529  -5.760  1.00  0.00     0.123 A 
ATOM      9  C   UNL     1       9.790  -5.474  -6.692  1.00  0.00     0.094 A 
ATOM     10  C   UNL     1       9.846  -6.390  -7.745  1.00  0.00     0.146 A 
ATOM     11  O   UNL     1      10.842  -6.294  -8.618  1.00  0.00    -0.452 OA
ENDROOT
BRANCH   1  12
ATOM     12  C   UNL     1      12.148  -6.902 -10.551  1.00  0.00     0.025 A 
ATOM     13  C   UNL     1      14.036  -5.519 -11.259  1.00  0.00     0.161 A 
ATOM     14  C   UNL     1      14.416  -6.516 -12.169  1.00  0.00     0.157 A 
ATOM     15  C   UNL     1      12.903  -5.721 -10.446  1.00  0.00     0.062 A 
ATOM     16  C   UNL     1      13.678  -7.702 -12.261  1.00  0.00     0.051 A 
ATOM     17  C   UNL     1      12.555  -7.897 -11.454  1.00  0.00     0.016 A 
BRANCH  13  18
ATOM     18  O   UNL     1      14.807  -4.349 -11.191  1.00  0.00    -0.493 OA
ATOM     19  C   UNL     1      15.790  -4.087 -10.194  1.00  0.00     0.278 C 
ENDBRANCH  13  18
BRANCH  14  20
ATOM     20  O   UNL     1      15.536  -6.322 -12.977  1.00  0.00    -0.504 OA
ATOM     21  H   UNL     1      15.591  -5.548 -13.629  1.00  0.00     0.293 HD
ENDBRANCH  14  20
ENDBRANCH   1  12
BRANCH   2  22
ATOM     22  O   UNL     1      10.085  -8.868 -11.072  1.00  0.00    -0.502 OA
ATOM     23  H   UNL     1      10.154  -8.470 -12.001  1.00  0.00     0.293 HD
ENDBRANCH   2  22
BRANCH   6  24
ATOM     24  O   UNL     1       6.869  -8.493  -6.842  1.00  0.00    -0.507 OA
ATOM     25  H   UNL     1       5.873  -8.339  -6.867  1.00  0.00     0.293 HD
ENDBRANCH   6  24
BRANCH   8  26
ATOM     26  O   UNL     1       8.710  -4.594  -4.729  1.00  0.00    -0.508 OA
ATOM     27  H   UNL     1       9.507  -4.009  -4.507  1.00  0.00     0.293 HD
ENDBRANCH   8  26
TORSDOF 6
ENDMDL
MODEL 4
REMARK VINA RESULT:    -5.895      2.355      3.801
REMARK INTER + INTRA:          -7.627
REMARK INTER:                  -7.281
REMARK INTRA:                  -0.345
REMARK UNBOUND:                -0.354
REMARK SMILES COc1cc(-c2oc3cc(O)cc(O)c3c(=O)c2O)ccc1O
REMARK SMILES IDX 6 1 18 2 16 3 17 4 15 5 13 6 12 7 10 8 9 9 8 10 7 11 5 12
REMARK SMILES IDX 3 13 22 14 4 15 21 16 20 17 2 18 1 19 23 20 19 22 14 24
REMARK SMILES IDX 11 26
REMARK H PARENT 23 21 19 23 14 25 11 27
REMARK Flexibility Score: inf
ROOT
ATOM      1  C   UNL     1      11.349  -6.220 -10.938  1.00  0.00     0.180 A 
ATOM      2  C   UNL     1      11.112  -6.435  -9.570  1.00  0.00     0.208 A 
ATOM      3  C   UNL     1       9.939  -7.100  -9.178  1.00  0.00     0.238 A 
ATOM      4  O   UNL     1       9.759  -7.338  -7.955  1.00  0.00    -0.285 OA
ATOM      5  C   UNL     1       9.011  -7.528 -10.157  1.00  0.00     0.111 A 
ATOM      6  C   UNL     1       7.772  -8.176  -9.872  1.00  0.00     0.134 A 
ATOM      7  C   UNL     1       6.993  -8.671 -10.925  1.00  0.00     0.093 A 
ATOM      8  C   UNL     1       7.377  -8.485 -12.256  1.00  0.00     0.123 A 
ATOM      9  C   UNL     1       8.555  -7.802 -12.545  1.00  0.00     0.094 A 
ATOM     10  C   UNL     1       9.371  -7.327 -11.516  1.00  0.00     0.146 A 
ATOM     11  O   UNL     1      10.492  -6.690 -11.837  1.00  0.00    -0.452 OA
ENDROOT
BRANCH   1  12
ATOM     12  C   UNL     1      12.551  -5.505 -11.427  1.00  0.00     0.025 A 
ATOM     13  C   UNL     1      13.581  -3.439 -12.233  1.00  0.00     0.161 A 
ATOM     14  C   UNL     1      14.820  -4.093 -12.303  1.00  0.00     0.157 A 
ATOM     15  C   UNL     1      12.450  -4.150 -11.787  1.00  0.00     0.062 A 
ATOM     16  C   UNL     1      14.927  -5.437 -11.926  1.00  0.00     0.051 A 
ATOM     17  C   UNL     1      13.803  -6.137 -11.485  1.00  0.00     0.016 A 
BRANCH  13  18
ATOM     18  O   UNL     1      13.516  -2.090 -12.612  1.00  0.00    -0.493 OA
ATOM     19  C   UNL     1      12.313  -1.401 -12.937  1.00  0.00     0.278 C 
ENDBRANCH  13  18
BRANCH  14  20
ATOM     20  O   UNL     1      15.943  -3.396 -12.745  1.00  0.00    -0.504 OA
ATOM     21  H   UNL     1      16.477  -3.705 -13.549  1.00  0.00     0.293 HD
ENDBRANCH  14  20
ENDBRANCH   1  12
BRANCH   2  22
ATOM     22  O   UNL     1      12.052  -6.024  -8.621  1.00  0.00    -0.502 OA
ATOM     23  H   UNL     1      12.191  -5.051  -8.379  1.00  0.00     0.293 HD
ENDBRANCH   2  22
BRANCH   6  24
ATOM     24  O   UNL     1       7.252  -8.332  -8.584  1.00  0.00    -0.507 OA
ATOM     25  H   UNL     1       6.482  -7.801  -8.207  1.00  0.00     0.293 HD
ENDBRANCH   6  24
BRANCH   8  26
ATOM     26  O   UNL     1       6.587  -8.967 -13.297  1.00  0.00    -0.508 OA
ATOM     27  H   UNL     1       5.702  -9.428 -13.122  1.00  0.00     0.293 HD
ENDBRANCH   8  26
TORSDOF 6
ENDMDL
MODEL 5
REMARK VINA RESULT:    -5.876      2.176      3.584
REMARK INTER + INTRA:          -7.604
REMARK INTER:                  -7.225
REMARK INTRA:                  -0.379
REMARK UNBOUND:                -0.354
REMARK SMILES COc1cc(-c2oc3cc(O)cc(O)c3c(=O)c2O)ccc1O
REMARK SMILES IDX 6 1 18 2 16 3 17 4 15 5 13 6 12 7 10 8 9 9 8 10 7 11 5 12
REMARK SMILES IDX 3 13 22 14 4 15 21 16 20 17 2 18 1 19 23 20 19 22 14 24
REMARK SMILES IDX 11 26
REMARK H PARENT 23 21 19 23 14 25 11 27
REMARK Flexibility Score: inf
ROOT
ATOM      1  C   UNL     1      12.877  -5.472 -10.694  1.00  0.00     0.180 A 
ATOM      2  C   UNL     1      11.891  -4.665 -11.287  1.00  0.00     0.208 A 
ATOM      3  C   UNL     1      10.545  -4.871 -10.943  1.00  0.00     0.238 A 
ATOM      4  O   UNL     1       9.672  -4.110 -11.436  1.00  0.00    -0.285 OA
ATOM      5  C   UNL     1      10.201  -5.892 -10.024  1.00  0.00     0.111 A 
ATOM      6  C   UNL     1       8.867  -6.216  -9.634  1.00  0.00     0.134 A 
ATOM      7  C   UNL     1       8.654  -7.158  -8.620  1.00  0.00     0.093 A 
ATOM      8  C   UNL     1       9.723  -7.833  -8.027  1.00  0.00     0.123 A 
ATOM      9  C   UNL     1      11.024  -7.567  -8.444  1.00  0.00     0.094 A 
ATOM     10  C   UNL     1      11.272  -6.608  -9.428  1.00  0.00     0.146 A 
ATOM     11  O   UNL     1      12.530  -6.377  -9.787  1.00  0.00    -0.452 OA
ENDROOT
BRANCH   1  12
ATOM     12  C   UNL     1      14.315  -5.330 -11.025  1.00  0.00     0.025 A 
ATOM     13  C   UNL     1      16.175  -5.791 -12.543  1.00  0.00     0.161 A 
ATOM     14  C   UNL     1      17.024  -5.036 -11.720  1.00  0.00     0.157 A 
ATOM     15  C   UNL     1      14.817  -5.929 -12.192  1.00  0.00     0.062 A 
ATOM     16  C   UNL     1      16.521  -4.422 -10.567  1.00  0.00     0.051 A 
ATOM     17  C   UNL     1      15.175  -4.561 -10.224  1.00  0.00     0.016 A 
BRANCH  13  18
ATOM     18  O   UNL     1      16.715  -6.384 -13.693  1.00  0.00    -0.493 OA
ATOM     19  C   UNL     1      16.263  -6.129 -15.020  1.00  0.00     0.278 C 
ENDBRANCH  13  18
BRANCH  14  20
ATOM     20  O   UNL     1      18.369  -4.896 -12.061  1.00  0.00    -0.504 OA
ATOM     21  H   UNL     1      19.082  -5.492 -11.657  1.00  0.00     0.293 HD
ENDBRANCH  14  20
ENDBRANCH   1  12
BRANCH   2  22
ATOM     22  O   UNL     1      12.254  -3.648 -12.174  1.00  0.00    -0.502 OA
ATOM     23  H   UNL     1      12.585  -3.838 -13.113  1.00  0.00     0.293 HD
ENDBRANCH   2  22
BRANCH   6  24
ATOM     24  O   UNL     1       7.726  -5.666 -10.226  1.00  0.00    -0.507 OA
ATOM     25  H   UNL     1       7.128  -6.149 -10.879  1.00  0.00     0.293 HD
ENDBRANCH   6  24
BRANCH   8  26
ATOM     26  O   UNL     1       9.499  -8.781  -7.030  1.00  0.00    -0.508 OA
ATOM     27  H   UNL     1       9.686  -8.578  -6.055  1.00  0.00     0.293 HD
ENDBRANCH   8  26
TORSDOF 6
ENDMDL
MODEL 6
REMARK VINA RESULT:    -5.866      7.879     11.659
REMARK INTER + INTRA:          -7.592
REMARK INTER:                  -7.257
REMARK INTRA:                  -0.334
REMARK UNBOUND:                -0.354
REMARK SMILES COc1cc(-c2oc3cc(O)cc(O)c3c(=O)c2O)ccc1O
REMARK SMILES IDX 6 1 18 2 16 3 17 4 15 5 13 6 12 7 10 8 9 9 8 10 7 11 5 12
REMARK SMILES IDX 3 13 22 14 4 15 21 16 20 17 2 18 1 19 23 20 19 22 14 24
REMARK SMILES IDX 11 26
REMARK H PARENT 23 21 19 23 14 25 11 27
REMARK Flexibility Score: inf
ROOT
ATOM      1  C   UNL     1      18.445  -1.480 -16.978  1.00  0.00     0.180 A 
ATOM      2  C   UNL     1      17.725  -0.763 -16.007  1.00  0.00     0.208 A 
ATOM      3  C   UNL     1      17.032  -1.471 -15.012  1.00  0.00     0.238 A 
ATOM      4  O   UNL     1      16.434  -0.823 -14.114  1.00  0.00    -0.285 OA
ATOM      5  C   UNL     1      17.054  -2.887 -15.010  1.00  0.00     0.111 A 
ATOM      6  C   UNL     1      16.356  -3.707 -14.074  1.00  0.00     0.134 A 
ATOM      7  C   UNL     1      16.554  -5.093 -14.088  1.00  0.00     0.093 A 
ATOM      8  C   UNL     1      17.376  -5.694 -15.045  1.00  0.00     0.123 A 
ATOM      9  C   UNL     1      18.014  -4.907 -15.999  1.00  0.00     0.094 A 
ATOM     10  C   UNL     1      17.864  -3.518 -15.990  1.00  0.00     0.146 A 
ATOM     11  O   UNL     1      18.500  -2.805 -16.912  1.00  0.00    -0.452 OA
ENDROOT
BRANCH   1  12
ATOM     12  C   UNL     1      19.180  -0.804 -18.073  1.00  0.00     0.025 A 
ATOM     13  C   UNL     1      21.159   0.413 -18.833  1.00  0.00     0.161 A 
ATOM     14  C   UNL     1      20.636   0.436 -20.134  1.00  0.00     0.157 A 
ATOM     15  C   UNL     1      20.427  -0.215 -17.806  1.00  0.00     0.062 A 
ATOM     16  C   UNL     1      19.403  -0.168 -20.407  1.00  0.00     0.051 A 
ATOM     17  C   UNL     1      18.682  -0.790 -19.386  1.00  0.00     0.016 A 
BRANCH  13  18
ATOM     18  O   UNL     1      22.401   1.023 -18.602  1.00  0.00    -0.493 OA
ATOM     19  C   UNL     1      23.048   1.080 -17.335  1.00  0.00     0.278 C 
ENDBRANCH  13  18
BRANCH  14  20
ATOM     20  O   UNL     1      21.355   1.057 -21.155  1.00  0.00    -0.504 OA
ATOM     21  H   UNL     1      21.872   0.521 -21.842  1.00  0.00     0.293 HD
ENDBRANCH  14  20
ENDBRANCH   1  12
BRANCH   2  22
ATOM     22  O   UNL     1      17.735   0.635 -16.014  1.00  0.00    -0.502 OA
ATOM     23  H   UNL     1      17.163   1.179 -16.649  1.00  0.00     0.293 HD
ENDBRANCH   2  22
BRANCH   6  24
ATOM     24  O   UNL     1      15.442  -3.216 -13.137  1.00  0.00    -0.507 OA
ATOM     25  H   UNL     1      15.620  -2.448 -12.508  1.00  0.00     0.293 HD
ENDBRANCH   6  24
BRANCH   8  26
ATOM     26  O   UNL     1      17.555  -7.076 -15.061  1.00  0.00    -0.508 OA
ATOM     27  H   UNL     1      18.149  -7.525 -15.747  1.00  0.00     0.293 HD
ENDBRANCH   8  26
TORSDOF 6
ENDMDL
MODEL 7
REMARK VINA RESULT:    -5.866      1.915      3.240
REMARK INTER + INTRA:          -7.591
REMARK INTER:                  -7.190
REMARK INTRA:                  -0.401
REMARK UNBOUND:                -0.354
REMARK SMILES COc1cc(-c2oc3cc(O)cc(O)c3c(=O)c2O)ccc1O
REMARK SMILES IDX 6 1 18 2 16 3 17 4 15 5 13 6 12 7 10 8 9 9 8 10 7 11 5 12
REMARK SMILES IDX 3 13 22 14 4 15 21 16 20 17 2 18 1 19 23 20 19 22 14 24
REMARK SMILES IDX 11 26
REMARK H PARENT 23 21 19 23 14 25 11 27
REMARK Flexibility Score: inf
ROOT
ATOM      1  C   UNL     1      12.795  -5.458 -10.758  1.00  0.00     0.180 A 
ATOM      2  C   UNL     1      11.795  -4.660 -11.340  1.00  0.00     0.208 A 
ATOM      3  C   UNL     1      10.458  -4.863 -10.964  1.00  0.00     0.238 A 
ATOM      4  O   UNL     1       9.573  -4.110 -11.448  1.00  0.00    -0.285 OA
ATOM      5  C   UNL     1      10.135  -5.870 -10.023  1.00  0.00     0.111 A 
ATOM      6  C   UNL     1       8.810  -6.189  -9.599  1.00  0.00     0.134 A 
ATOM      7  C   UNL     1       8.620  -7.116  -8.567  1.00  0.00     0.093 A 
ATOM      8  C   UNL     1       9.703  -7.782  -7.988  1.00  0.00     0.123 A 
ATOM      9  C   UNL     1      10.994  -7.521  -8.437  1.00  0.00     0.094 A 
ATOM     10  C   UNL     1      11.220  -6.576  -9.440  1.00  0.00     0.146 A 
ATOM     11  O   UNL     1      12.469  -6.350  -9.830  1.00  0.00    -0.452 OA
ENDROOT
BRANCH   1  12
ATOM     12  C   UNL     1      14.225  -5.320 -11.122  1.00  0.00     0.025 A 
ATOM     13  C   UNL     1      16.432  -4.386 -10.641  1.00  0.00     0.161 A 
ATOM     14  C   UNL     1      16.957  -5.079 -11.742  1.00  0.00     0.157 A 
ATOM     15  C   UNL     1      15.064  -4.517 -10.332  1.00  0.00     0.062 A 
ATOM     16  C   UNL     1      16.127  -5.897 -12.518  1.00  0.00     0.051 A 
ATOM     17  C   UNL     1      14.772  -6.023 -12.208  1.00  0.00     0.016 A 
BRANCH  13  18
ATOM     18  O   UNL     1      17.298  -3.583  -9.884  1.00  0.00    -0.493 OA
ATOM     19  C   UNL     1      16.911  -2.385  -9.218  1.00  0.00     0.278 C 
ENDBRANCH  13  18
BRANCH  14  20
ATOM     20  O   UNL     1      18.310  -4.954 -12.054  1.00  0.00    -0.504 OA
ATOM     21  H   UNL     1      18.790  -4.063 -11.985  1.00  0.00     0.293 HD
ENDBRANCH  14  20
ENDBRANCH   1  12
BRANCH   2  22
ATOM     22  O   UNL     1      12.138  -3.657 -12.251  1.00  0.00    -0.502 OA
ATOM     23  H   UNL     1      11.959  -2.676 -12.072  1.00  0.00     0.293 HD
ENDBRANCH   2  22
BRANCH   6  24
ATOM     24  O   UNL     1       7.656  -5.649 -10.174  1.00  0.00    -0.507 OA
ATOM     25  H   UNL     1       7.618  -4.773 -10.672  1.00  0.00     0.293 HD
ENDBRANCH   6  24
BRANCH   8  26
ATOM     26  O   UNL     1       9.502  -8.715  -6.972  1.00  0.00    -0.508 OA
ATOM     27  H   UNL     1       8.620  -9.202  -6.866  1.00  0.00     0.293 HD
ENDBRANCH   8  26
TORSDOF 6
ENDMDL
MODEL 8
REMARK VINA RESULT:    -5.864      2.214      6.741
REMARK INTER + INTRA:          -7.589
REMARK INTER:                  -7.182
REMARK INTRA:                  -0.407
REMARK UNBOUND:                -0.354
REMARK SMILES COc1cc(-c2oc3cc(O)cc(O)c3c(=O)c2O)ccc1O
REMARK SMILES IDX 6 1 18 2 16 3 17 4 15 5 13 6 12 7 10 8 9 9 8 10 7 11 5 12
REMARK SMILES IDX 3 13 22 14 4 15 21 16 20 17 2 18 1 19 23 20 19 22 14 24
REMARK SMILES IDX 11 26
REMARK H PARENT 23 21 19 23 14 25 11 27
REMARK Flexibility Score: inf
ROOT
ATOM      1  C   UNL     1      10.973  -6.075 -10.702  1.00  0.00     0.180 A 
ATOM      2  C   UNL     1      11.104  -7.273 -11.425  1.00  0.00     0.208 A 
ATOM      3  C   UNL     1      12.343  -7.584 -12.007  1.00  0.00     0.238 A 
ATOM      4  O   UNL     1      12.470  -8.683 -12.607  1.00  0.00    -0.285 OA
ATOM      5  C   UNL     1      13.431  -6.687 -11.872  1.00  0.00     0.111 A 
ATOM      6  C   UNL     1      14.719  -6.882 -12.453  1.00  0.00     0.134 A 
ATOM      7  C   UNL     1      15.757  -5.993 -12.146  1.00  0.00     0.093 A 
ATOM      8  C   UNL     1      15.536  -4.881 -11.330  1.00  0.00     0.123 A 
ATOM      9  C   UNL     1      14.266  -4.650 -10.807  1.00  0.00     0.094 A 
ATOM     10  C   UNL     1      13.220  -5.538 -11.066  1.00  0.00     0.146 A 
ATOM     11  O   UNL     1      12.028  -5.285 -10.538  1.00  0.00    -0.452 OA
ENDROOT
BRANCH   1  12
ATOM     12  C   UNL     1       9.691  -5.666 -10.081  1.00  0.00     0.025 A 
ATOM     13  C   UNL     1       8.259  -5.554  -8.103  1.00  0.00     0.161 A 
ATOM     14  C   UNL     1       7.298  -4.854  -8.847  1.00  0.00     0.157 A 
ATOM     15  C   UNL     1       9.458  -5.952  -8.725  1.00  0.00     0.062 A 
ATOM     16  C   UNL     1       7.536  -4.550 -10.192  1.00  0.00     0.051 A 
ATOM     17  C   UNL     1       8.727  -4.946 -10.805  1.00  0.00     0.016 A 
BRANCH  13  18
ATOM     18  O   UNL     1       7.986  -5.833  -6.755  1.00  0.00    -0.493 OA
ATOM     19  C   UNL     1       7.954  -7.141  -6.193  1.00  0.00     0.278 C 
ENDBRANCH  13  18
BRANCH  14  20
ATOM     20  O   UNL     1       6.108  -4.459  -8.237  1.00  0.00    -0.504 OA
ATOM     21  H   UNL     1       6.103  -3.837  -7.437  1.00  0.00     0.293 HD
ENDBRANCH  14  20
ENDBRANCH   1  12
BRANCH   2  22
ATOM     22  O   UNL     1      10.025  -8.155 -11.527  1.00  0.00    -0.502 OA
ATOM     23  H   UNL     1       9.084  -7.841 -11.731  1.00  0.00     0.293 HD
ENDBRANCH   2  22
BRANCH   6  24
ATOM     24  O   UNL     1      15.022  -7.908 -13.353  1.00  0.00    -0.507 OA
ATOM     25  H   UNL     1      15.745  -7.862 -14.055  1.00  0.00     0.293 HD
ENDBRANCH   6  24
BRANCH   8  26
ATOM     26  O   UNL     1      16.570  -3.993 -11.043  1.00  0.00    -0.508 OA
ATOM     27  H   UNL     1      17.529  -4.309 -10.950  1.00  0.00     0.293 HD
ENDBRANCH   8  26
TORSDOF 6
ENDMDL
MODEL 9
REMARK VINA RESULT:    -5.814      2.380      3.482
REMARK INTER + INTRA:          -7.527
REMARK INTER:                  -7.217
REMARK INTRA:                  -0.310
REMARK UNBOUND:                -0.354
REMARK SMILES COc1cc(-c2oc3cc(O)cc(O)c3c(=O)c2O)ccc1O
REMARK SMILES IDX 6 1 18 2 16 3 17 4 15 5 13 6 12 7 10 8 9 9 8 10 7 11 5 12
REMARK SMILES IDX 3 13 22 14 4 15 21 16 20 17 2 18 1 19 23 20 19 22 14 24
REMARK SMILES IDX 11 26
REMARK H PARENT 23 21 19 23 14 25 11 27
REMARK Flexibility Score: inf
ROOT
ATOM      1  C   UNL     1      11.170  -6.096 -10.900  1.00  0.00     0.180 A 
ATOM      2  C   UNL     1      10.987  -6.406  -9.542  1.00  0.00     0.208 A 
ATOM      3  C   UNL     1       9.873  -7.171  -9.162  1.00  0.00     0.238 A 
ATOM      4  O   UNL     1       9.744  -7.492  -7.952  1.00  0.00    -0.285 OA
ATOM      5  C   UNL     1       8.947  -7.603 -10.142  1.00  0.00     0.111 A 
ATOM      6  C   UNL     1       7.762  -8.349  -9.866  1.00  0.00     0.134 A 
ATOM      7  C   UNL     1       6.988  -8.834 -10.927  1.00  0.00     0.093 A 
ATOM      8  C   UNL     1       7.321  -8.545 -12.253  1.00  0.00     0.123 A 
ATOM      9  C   UNL     1       8.442  -7.767 -12.530  1.00  0.00     0.094 A 
ATOM     10  C   UNL     1       9.254  -7.299 -11.495  1.00  0.00     0.146 A 
ATOM     11  O   UNL     1      10.320  -6.570 -11.804  1.00  0.00    -0.452 OA
ENDROOT
BRANCH   1  12
ATOM     12  C   UNL     1      12.307  -5.273 -11.375  1.00  0.00     0.025 A 
ATOM     13  C   UNL     1      14.686  -5.087 -11.904  1.00  0.00     0.161 A 
ATOM     14  C   UNL     1      14.481  -3.765 -12.326  1.00  0.00     0.157 A 
ATOM     15  C   UNL     1      13.591  -5.839 -11.434  1.00  0.00     0.062 A 
ATOM     16  C   UNL     1      13.199  -3.206 -12.288  1.00  0.00     0.051 A 
ATOM     17  C   UNL     1      12.117  -3.956 -11.822  1.00  0.00     0.016 A 
BRANCH  13  18
ATOM     18  O   UNL     1      15.985  -5.614 -11.965  1.00  0.00    -0.493 OA
ATOM     19  C   UNL     1      16.490  -6.389 -13.048  1.00  0.00     0.278 C 
ENDBRANCH  13  18
BRANCH  14  20
ATOM     20  O   UNL     1      15.561  -3.015 -12.791  1.00  0.00    -0.504 OA
ATOM     21  H   UNL     1      15.692  -2.048 -12.517  1.00  0.00     0.293 HD
ENDBRANCH  14  20
ENDBRANCH   1  12
BRANCH   2  22
ATOM     22  O   UNL     1      11.925  -5.989  -8.593  1.00  0.00    -0.502 OA
ATOM     23  H   UNL     1      12.888  -6.303  -8.606  1.00  0.00     0.293 HD
ENDBRANCH   2  22
BRANCH   6  24
ATOM     24  O   UNL     1       7.291  -8.615  -8.577  1.00  0.00    -0.507 OA
ATOM     25  H   UNL     1       7.084  -9.535  -8.219  1.00  0.00     0.293 HD
ENDBRANCH   6  24
BRANCH   8  26
ATOM     26  O   UNL     1       6.535  -9.018 -13.302  1.00  0.00    -0.508 OA
ATOM     27  H   UNL     1       6.793  -9.846 -13.826  1.00  0.00     0.293 HD
ENDBRANCH   8  26
TORSDOF 6
ENDMDL
