MODEL 1
REMARK VINA RESULT:    -4.952      0.000      0.000
REMARK INTER + INTRA:          -9.721
REMARK INTER:                  -9.005
REMARK INTRA:                  -0.717
REMARK UNBOUND:                -0.717
REMARK SMILES CCCCCCCCCCCCCCCC(=O)[O-]
REMARK SMILES IDX 9 1 10 2 11 3 12 4 13 5 14 6 15 7 16 8 17 9 18 10 8 11 7 12
REMARK SMILES IDX 6 13 5 14 4 15 3 16 2 17 1 18
REMARK H PARENT
REMARK Flexibility Score: inf
ROOT
ATOM      1  C   UNL     1      -6.070  -6.527  28.241  1.00  0.00     0.000 C 
ENDROOT
BRANCH   1   2
ATOM      2  C   UNL     1      -5.553  -5.077  28.254  1.00  0.00     0.000 C 
BRANCH   2   3
ATOM      3  C   UNL     1      -5.519  -4.404  29.640  1.00  0.00     0.000 C 
BRANCH   3   4
ATOM      4  C   UNL     1      -4.950  -2.975  29.598  1.00  0.00     0.000 C 
BRANCH   4   5
ATOM      5  C   UNL     1      -5.236  -2.266  28.264  1.00  0.00     0.000 C 
BRANCH   5   6
ATOM      6  C   UNL     1      -4.651  -0.843  28.213  1.00  0.00     0.006 C 
BRANCH   6   7
ATOM      7  C   UNL     1      -3.332  -0.732  28.989  1.00  0.00     0.053 C 
BRANCH   7   8
ATOM      8  C   UNL     1      -2.151  -1.061  28.129  1.00  0.00     0.041 C 
ATOM      9  O   UNL     1      -1.296  -1.900  28.517  1.00  0.00    -0.550 OA
ATOM     10  O   UNL     1      -1.977  -0.417  26.909  1.00  0.00    -0.550 OA
ENDBRANCH   7   8
ENDBRANCH   6   7
ENDBRANCH   5   6
ENDBRANCH   4   5
ENDBRANCH   3   4
ENDBRANCH   2   3
ENDBRANCH   1   2
BRANCH   1  11
ATOM     11  C   UNL     1      -5.760  -7.288  29.541  1.00  0.00     0.000 C 
BRANCH  11  12
ATOM     12  C   UNL     1      -6.404  -8.683  29.577  1.00  0.00    -0.000 C 
BRANCH  12  13
ATOM     13  C   UNL     1      -5.363  -9.816  29.624  1.00  0.00    -0.000 C 
BRANCH  13  14
ATOM     14  C   UNL     1      -5.027 -10.370  28.229  1.00  0.00    -0.000 C 
BRANCH  14  15
ATOM     15  C   UNL     1      -3.940 -11.459  28.273  1.00  0.00    -0.000 C 
BRANCH  15  16
ATOM     16  C   UNL     1      -3.401 -11.809  26.877  1.00  0.00    -0.000 C 
BRANCH  16  17
ATOM     17  C   UNL     1      -4.469 -11.688  25.780  1.00  0.00    -0.003 C 
ATOM     18  C   UNL     1      -3.842 -11.762  24.391  1.00  0.00     0.004 C 
ENDBRANCH  16  17
ENDBRANCH  15  16
ENDBRANCH  14  15
ENDBRANCH  13  14
ENDBRANCH  12  13
ENDBRANCH  11  12
ENDBRANCH   1  11
TORSDOF 14
ENDMDL
MODEL 2
REMARK VINA RESULT:    -4.868      3.900      8.857
REMARK INTER + INTRA:          -9.569
REMARK INTER:                  -8.837
REMARK INTRA:                  -0.732
REMARK UNBOUND:                -0.717
REMARK SMILES CCCCCCCCCCCCCCCC(=O)[O-]
REMARK SMILES IDX 9 1 10 2 11 3 12 4 13 5 14 6 15 7 16 8 17 9 18 10 8 11 7 12
REMARK SMILES IDX 6 13 5 14 4 15 3 16 2 17 1 18
REMARK H PARENT
REMARK Flexibility Score: inf
ROOT
ATOM      1  C   UNL     1      -5.956  -6.671  28.241  1.00  0.00     0.000 C 
ENDROOT
BRANCH   1   2
ATOM      2  C   UNL     1      -5.716  -7.320  29.616  1.00  0.00     0.000 C 
BRANCH   2   3
ATOM      3  C   UNL     1      -6.264  -8.752  29.771  1.00  0.00     0.000 C 
BRANCH   3   4
ATOM      4  C   UNL     1      -5.242  -9.831  29.372  1.00  0.00     0.000 C 
BRANCH   4   5
ATOM      5  C   UNL     1      -5.315 -10.188  27.878  1.00  0.00     0.000 C 
BRANCH   5   6
ATOM      6  C   UNL     1      -4.319 -11.294  27.485  1.00  0.00     0.006 C 
BRANCH   6   7
ATOM      7  C   UNL     1      -4.617 -11.873  26.096  1.00  0.00     0.053 C 
BRANCH   7   8
ATOM      8  C   UNL     1      -3.360 -12.206  25.351  1.00  0.00     0.041 C 
ATOM      9  O   UNL     1      -3.327 -12.126  24.095  1.00  0.00    -0.550 OA
ATOM     10  O   UNL     1      -2.234 -12.635  26.043  1.00  0.00    -0.550 OA
ENDBRANCH   7   8
ENDBRANCH   6   7
ENDBRANCH   5   6
ENDBRANCH   4   5
ENDBRANCH   3   4
ENDBRANCH   2   3
ENDBRANCH   1   2
BRANCH   1  11
ATOM     11  C   UNL     1      -5.570  -5.182  28.205  1.00  0.00     0.000 C 
BRANCH  11  12
ATOM     12  C   UNL     1      -5.460  -4.567  29.610  1.00  0.00    -0.000 C 
BRANCH  12  13
ATOM     13  C   UNL     1      -5.219  -3.047  29.575  1.00  0.00    -0.000 C 
BRANCH  13  14
ATOM     14  C   UNL     1      -5.345  -2.459  28.160  1.00  0.00    -0.000 C 
BRANCH  14  15
ATOM     15  C   UNL     1      -4.617  -1.110  28.015  1.00  0.00    -0.000 C 
BRANCH  15  16
ATOM     16  C   UNL     1      -3.401  -0.994  28.948  1.00  0.00    -0.000 C 
BRANCH  16  17
ATOM     17  C   UNL     1      -2.086  -1.393  28.262  1.00  0.00    -0.003 C 
ATOM     18  C   UNL     1      -1.735  -0.421  27.140  1.00  0.00     0.004 C 
ENDBRANCH  16  17
ENDBRANCH  15  16
ENDBRANCH  14  15
ENDBRANCH  13  14
ENDBRANCH  12  13
ENDBRANCH  11  12
ENDBRANCH   1  11
TORSDOF 14
ENDMDL
MODEL 3
REMARK VINA RESULT:    -4.850      3.876      8.847
REMARK INTER + INTRA:          -9.536
REMARK INTER:                  -8.793
REMARK INTRA:                  -0.742
REMARK UNBOUND:                -0.717
REMARK SMILES CCCCCCCCCCCCCCCC(=O)[O-]
REMARK SMILES IDX 9 1 10 2 11 3 12 4 13 5 14 6 15 7 16 8 17 9 18 10 8 11 7 12
REMARK SMILES IDX 6 13 5 14 4 15 3 16 2 17 1 18
REMARK H PARENT
REMARK Flexibility Score: inf
ROOT
ATOM      1  C   UNL     1      -5.323  -5.128  28.323  1.00  0.00     0.000 C 
ENDROOT
BRANCH   1   2
ATOM      2  C   UNL     1      -5.930  -6.540  28.236  1.00  0.00     0.000 C 
BRANCH   2   3
ATOM      3  C   UNL     1      -5.745  -7.415  29.490  1.00  0.00     0.000 C 
BRANCH   3   4
ATOM      4  C   UNL     1      -6.204  -8.868  29.280  1.00  0.00     0.000 C 
BRANCH   4   5
ATOM      5  C   UNL     1      -5.398  -9.869  30.125  1.00  0.00     0.000 C 
BRANCH   5   6
ATOM      6  C   UNL     1      -4.626 -10.884  29.263  1.00  0.00     0.006 C 
BRANCH   6   7
ATOM      7  C   UNL     1      -4.809 -10.626  27.762  1.00  0.00     0.053 C 
BRANCH   7   8
ATOM      8  C   UNL     1      -4.417 -11.816  26.941  1.00  0.00     0.041 C 
ATOM      9  O   UNL     1      -3.821 -12.788  27.475  1.00  0.00    -0.550 OA
ATOM     10  O   UNL     1      -4.683 -11.838  25.577  1.00  0.00    -0.550 OA
ENDBRANCH   7   8
ENDBRANCH   6   7
ENDBRANCH   5   6
ENDBRANCH   4   5
ENDBRANCH   3   4
ENDBRANCH   2   3
ENDBRANCH   1   2
BRANCH   1  11
ATOM     11  C   UNL     1      -5.611  -4.433  29.665  1.00  0.00     0.000 C 
BRANCH  11  12
ATOM     12  C   UNL     1      -5.206  -2.950  29.660  1.00  0.00    -0.000 C 
BRANCH  12  13
ATOM     13  C   UNL     1      -5.361  -2.297  28.275  1.00  0.00    -0.000 C 
BRANCH  13  14
ATOM     14  C   UNL     1      -4.824  -0.857  28.236  1.00  0.00    -0.000 C 
BRANCH  14  15
ATOM     15  C   UNL     1      -3.495  -0.703  28.996  1.00  0.00    -0.000 C 
BRANCH  15  16
ATOM     16  C   UNL     1      -2.304  -1.300  28.228  1.00  0.00    -0.000 C 
BRANCH  16  17
ATOM     17  C   UNL     1      -1.634  -0.285  27.289  1.00  0.00    -0.003 C 
ATOM     18  C   UNL     1      -0.170  -0.640  27.053  1.00  0.00     0.004 C 
ENDBRANCH  16  17
ENDBRANCH  15  16
ENDBRANCH  14  15
ENDBRANCH  13  14
ENDBRANCH  12  13
ENDBRANCH  11  12
ENDBRANCH   1  11
TORSDOF 14
ENDMDL
MODEL 4
REMARK VINA RESULT:    -4.768      4.542      8.715
REMARK INTER + INTRA:          -9.387
REMARK INTER:                  -8.024
REMARK INTRA:                  -1.363
REMARK UNBOUND:                -0.717
REMARK SMILES CCCCCCCCCCCCCCCC(=O)[O-]
REMARK SMILES IDX 9 1 10 2 11 3 12 4 13 5 14 6 15 7 16 8 17 9 18 10 8 11 7 12
REMARK SMILES IDX 6 13 5 14 4 15 3 16 2 17 1 18
REMARK H PARENT
REMARK Flexibility Score: inf
ROOT
ATOM      1  C   UNL     1      -4.995  -1.108  28.471  1.00  0.00     0.000 C 
ENDROOT
BRANCH   1   2
ATOM      2  C   UNL     1      -5.274  -2.356  29.329  1.00  0.00     0.000 C 
BRANCH   2   3
ATOM      3  C   UNL     1      -5.475  -3.664  28.541  1.00  0.00     0.000 C 
BRANCH   3   4
ATOM      4  C   UNL     1      -4.166  -4.446  28.334  1.00  0.00     0.000 C 
BRANCH   4   5
ATOM      5  C   UNL     1      -3.100  -4.099  29.386  1.00  0.00     0.000 C 
BRANCH   5   6
ATOM      6  C   UNL     1      -1.698  -3.933  28.774  1.00  0.00     0.006 C 
BRANCH   6   7
ATOM      7  C   UNL     1      -1.356  -2.462  28.502  1.00  0.00     0.053 C 
BRANCH   7   8
ATOM      8  C   UNL     1       0.122  -2.245  28.387  1.00  0.00     0.041 C 
ATOM      9  O   UNL     1       0.616  -1.790  27.322  1.00  0.00    -0.550 OA
ATOM     10  O   UNL     1       0.958  -2.575  29.447  1.00  0.00    -0.550 OA
ENDBRANCH   7   8
ENDBRANCH   6   7
ENDBRANCH   5   6
ENDBRANCH   4   5
ENDBRANCH   3   4
ENDBRANCH   2   3
ENDBRANCH   1   2
BRANCH   1  11
ATOM     11  C   UNL     1      -5.624   0.171  29.049  1.00  0.00     0.000 C 
BRANCH  11  12
ATOM     12  C   UNL     1      -4.600   1.054  29.780  1.00  0.00    -0.000 C 
BRANCH  12  13
ATOM     13  C   UNL     1      -3.145   0.680  29.442  1.00  0.00    -0.000 C 
BRANCH  13  14
ATOM     14  C   UNL     1      -2.141   1.762  29.871  1.00  0.00    -0.000 C 
BRANCH  14  15
ATOM     15  C   UNL     1      -1.472   2.456  28.670  1.00  0.00    -0.000 C 
BRANCH  15  16
ATOM     16  C   UNL     1      -0.998   1.457  27.602  1.00  0.00    -0.000 C 
BRANCH  16  17
ATOM     17  C   UNL     1       0.329   1.871  26.950  1.00  0.00    -0.003 C 
ATOM     18  C   UNL     1       0.130   3.048  26.000  1.00  0.00     0.004 C 
ENDBRANCH  16  17
ENDBRANCH  15  16
ENDBRANCH  14  15
ENDBRANCH  13  14
ENDBRANCH  12  13
ENDBRANCH  11  12
ENDBRANCH   1  11
TORSDOF 14
ENDMDL
MODEL 5
REMARK VINA RESULT:    -4.765      4.500      8.606
REMARK INTER + INTRA:          -9.382
REMARK INTER:                  -7.835
REMARK INTRA:                  -1.547
REMARK UNBOUND:                -0.717
REMARK SMILES CCCCCCCCCCCCCCCC(=O)[O-]
REMARK SMILES IDX 9 1 10 2 11 3 12 4 13 5 14 6 15 7 16 8 17 9 18 10 8 11 7 12
REMARK SMILES IDX 6 13 5 14 4 15 3 16 2 17 1 18
REMARK H PARENT
REMARK Flexibility Score: inf
ROOT
ATOM      1  C   UNL     1      -3.165   1.275  29.843  1.00  0.00     0.000 C 
ENDROOT
BRANCH   1   2
ATOM      2  C   UNL     1      -4.696   1.374  29.721  1.00  0.00     0.000 C 
BRANCH   2   3
ATOM      3  C   UNL     1      -5.404   0.082  29.270  1.00  0.00     0.000 C 
BRANCH   3   4
ATOM      4  C   UNL     1      -4.598  -0.711  28.227  1.00  0.00     0.000 C 
BRANCH   4   5
ATOM      5  C   UNL     1      -4.105  -2.063  28.766  1.00  0.00     0.000 C 
BRANCH   5   6
ATOM      6  C   UNL     1      -5.206  -2.841  29.509  1.00  0.00     0.006 C 
BRANCH   6   7
ATOM      7  C   UNL     1      -6.022  -3.733  28.563  1.00  0.00     0.053 C 
BRANCH   7   8
ATOM      8  C   UNL     1      -5.603  -5.169  28.653  1.00  0.00     0.041 C 
ATOM      9  O   UNL     1      -5.345  -5.821  27.607  1.00  0.00    -0.550 OA
ATOM     10  O   UNL     1      -5.527  -5.795  29.891  1.00  0.00    -0.550 OA
ENDBRANCH   7   8
ENDBRANCH   6   7
ENDBRANCH   5   6
ENDBRANCH   4   5
ENDBRANCH   3   4
ENDBRANCH   2   3
ENDBRANCH   1   2
BRANCH   1  11
ATOM     11  C   UNL     1      -2.477   2.650  29.882  1.00  0.00     0.000 C 
BRANCH  11  12
ATOM     12  C   UNL     1      -1.599   2.906  28.646  1.00  0.00    -0.000 C 
BRANCH  12  13
ATOM     13  C   UNL     1      -0.469   1.871  28.496  1.00  0.00    -0.000 C 
BRANCH  13  14
ATOM     14  C   UNL     1      -0.496   1.159  27.133  1.00  0.00    -0.000 C 
BRANCH  14  15
ATOM     15  C   UNL     1      -1.097  -0.255  27.219  1.00  0.00    -0.000 C 
BRANCH  15  16
ATOM     16  C   UNL     1      -0.645  -1.012  28.479  1.00  0.00    -0.000 C 
BRANCH  16  17
ATOM     17  C   UNL     1      -0.034  -2.384  28.160  1.00  0.00    -0.003 C 
ATOM     18  C   UNL     1      -0.894  -3.512  28.722  1.00  0.00     0.004 C 
ENDBRANCH  16  17
ENDBRANCH  15  16
ENDBRANCH  14  15
ENDBRANCH  13  14
ENDBRANCH  12  13
ENDBRANCH  11  12
ENDBRANCH   1  11
TORSDOF 14
ENDMDL
MODEL 6
REMARK VINA RESULT:    -4.765      3.395      7.099
REMARK INTER + INTRA:          -9.382
REMARK INTER:                  -8.199
REMARK INTRA:                  -1.183
REMARK UNBOUND:                -0.717
REMARK SMILES CCCCCCCCCCCCCCCC(=O)[O-]
REMARK SMILES IDX 9 1 10 2 11 3 12 4 13 5 14 6 15 7 16 8 17 9 18 10 8 11 7 12
REMARK SMILES IDX 6 13 5 14 4 15 3 16 2 17 1 18
REMARK H PARENT
REMARK Flexibility Score: inf
ROOT
ATOM      1  C   UNL     1      -2.178   1.555  29.961  1.00  0.00     0.000 C 
ENDROOT
BRANCH   1   2
ATOM      2  C   UNL     1      -1.616   2.604  28.984  1.00  0.00     0.000 C 
BRANCH   2   3
ATOM      3  C   UNL     1      -0.095   2.537  28.750  1.00  0.00     0.000 C 
BRANCH   3   4
ATOM      4  C   UNL     1       0.328   1.323  27.905  1.00  0.00     0.000 C 
BRANCH   4   5
ATOM      5  C   UNL     1      -0.765   0.880  26.920  1.00  0.00     0.000 C 
BRANCH   5   6
ATOM      6  C   UNL     1      -1.130  -0.607  27.070  1.00  0.00     0.006 C 
BRANCH   6   7
ATOM      7  C   UNL     1       0.111  -1.493  27.242  1.00  0.00     0.053 C 
BRANCH   7   8
ATOM      8  C   UNL     1       0.024  -2.339  28.475  1.00  0.00     0.041 C 
ATOM      9  O   UNL     1      -0.912  -3.171  28.610  1.00  0.00    -0.550 OA
ATOM     10  O   UNL     1       0.960  -2.188  29.491  1.00  0.00    -0.550 OA
ENDBRANCH   7   8
ENDBRANCH   6   7
ENDBRANCH   5   6
ENDBRANCH   4   5
ENDBRANCH   3   4
ENDBRANCH   2   3
ENDBRANCH   1   2
BRANCH   1  11
ATOM     11  C   UNL     1      -3.638   1.175  29.659  1.00  0.00     0.000 C 
BRANCH  11  12
ATOM     12  C   UNL     1      -3.797  -0.310  29.293  1.00  0.00    -0.000 C 
BRANCH  12  13
ATOM     13  C   UNL     1      -5.252  -0.687  28.964  1.00  0.00    -0.000 C 
BRANCH  13  14
ATOM     14  C   UNL     1      -5.409  -2.169  28.584  1.00  0.00    -0.000 C 
BRANCH  14  15
ATOM     15  C   UNL     1      -4.307  -3.053  29.195  1.00  0.00    -0.000 C 
BRANCH  15  16
ATOM     16  C   UNL     1      -4.331  -4.489  28.645  1.00  0.00    -0.000 C 
BRANCH  16  17
ATOM     17  C   UNL     1      -5.728  -4.922  28.177  1.00  0.00    -0.003 C 
ATOM     18  C   UNL     1      -5.861  -6.441  28.178  1.00  0.00     0.004 C 
ENDBRANCH  16  17
ENDBRANCH  15  16
ENDBRANCH  14  15
ENDBRANCH  13  14
ENDBRANCH  12  13
ENDBRANCH  11  12
ENDBRANCH   1  11
TORSDOF 14
ENDMDL
MODEL 7
REMARK VINA RESULT:    -4.750      4.269      7.621
REMARK INTER + INTRA:          -9.355
REMARK INTER:                  -7.358
REMARK INTRA:                  -1.997
REMARK UNBOUND:                -0.717
REMARK SMILES CCCCCCCCCCCCCCCC(=O)[O-]
REMARK SMILES IDX 9 1 10 2 11 3 12 4 13 5 14 6 15 7 16 8 17 9 18 10 8 11 7 12
REMARK SMILES IDX 6 13 5 14 4 15 3 16 2 17 1 18
REMARK H PARENT
REMARK Flexibility Score: inf
ROOT
ATOM      1  C   UNL     1      -0.569  -1.504  27.143  1.00  0.00     0.000 C 
ENDROOT
BRANCH   1   2
ATOM      2  C   UNL     1      -0.476  -2.340  28.432  1.00  0.00     0.000 C 
BRANCH   2   3
ATOM      3  C   UNL     1       0.941  -2.492  29.016  1.00  0.00     0.000 C 
BRANCH   3   4
ATOM      4  C   UNL     1       1.786  -1.213  28.880  1.00  0.00     0.000 C 
BRANCH   4   5
ATOM      5  C   UNL     1       1.416  -0.148  29.924  1.00  0.00     0.000 C 
BRANCH   5   6
ATOM      6  C   UNL     1       1.396   1.275  29.336  1.00  0.00     0.006 C 
BRANCH   6   7
ATOM      7  C   UNL     1       1.615   1.276  27.817  1.00  0.00     0.053 C 
BRANCH   7   8
ATOM      8  C   UNL     1       1.014   2.485  27.169  1.00  0.00     0.041 C 
ATOM      9  O   UNL     1       0.052   2.363  26.366  1.00  0.00    -0.550 OA
ATOM     10  O   UNL     1       1.537   3.746  27.428  1.00  0.00    -0.550 OA
ENDBRANCH   7   8
ENDBRANCH   6   7
ENDBRANCH   5   6
ENDBRANCH   4   5
ENDBRANCH   3   4
ENDBRANCH   2   3
ENDBRANCH   1   2
BRANCH   1  11
ATOM     11  C   UNL     1      -1.741  -0.508  27.156  1.00  0.00     0.000 C 
BRANCH  11  12
ATOM     12  C   UNL     1      -2.028   0.048  28.560  1.00  0.00    -0.000 C 
BRANCH  12  13
ATOM     13  C   UNL     1      -3.477  -0.205  29.015  1.00  0.00    -0.000 C 
BRANCH  13  14
ATOM     14  C   UNL     1      -4.260  -1.090  28.031  1.00  0.00    -0.000 C 
BRANCH  14  15
ATOM     15  C   UNL     1      -5.363  -1.909  28.725  1.00  0.00    -0.000 C 
BRANCH  15  16
ATOM     16  C   UNL     1      -4.797  -2.957  29.696  1.00  0.00    -0.000 C 
BRANCH  16  17
ATOM     17  C   UNL     1      -4.038  -4.083  28.978  1.00  0.00    -0.003 C 
ATOM     18  C   UNL     1      -5.002  -5.036  28.279  1.00  0.00     0.004 C 
ENDBRANCH  16  17
ENDBRANCH  15  16
ENDBRANCH  14  15
ENDBRANCH  13  14
ENDBRANCH  12  13
ENDBRANCH  11  12
ENDBRANCH   1  11
TORSDOF 14
ENDMDL
MODEL 8
REMARK VINA RESULT:    -4.694      1.527      3.376
REMARK INTER + INTRA:          -9.253
REMARK INTER:                  -8.469
REMARK INTRA:                  -0.784
REMARK UNBOUND:                -0.717
REMARK SMILES CCCCCCCCCCCCCCCC(=O)[O-]
REMARK SMILES IDX 9 1 10 2 11 3 12 4 13 5 14 6 15 7 16 8 17 9 18 10 8 11 7 12
REMARK SMILES IDX 6 13 5 14 4 15 3 16 2 17 1 18
REMARK H PARENT
REMARK Flexibility Score: inf
ROOT
ATOM      1  C   UNL     1      -5.297  -3.220  29.623  1.00  0.00     0.000 C 
ENDROOT
BRANCH   1   2
ATOM      2  C   UNL     1      -5.361  -2.254  28.427  1.00  0.00     0.000 C 
BRANCH   2   3
ATOM      3  C   UNL     1      -5.264  -0.758  28.783  1.00  0.00     0.000 C 
BRANCH   3   4
ATOM      4  C   UNL     1      -3.816  -0.288  29.004  1.00  0.00     0.000 C 
BRANCH   4   5
ATOM      5  C   UNL     1      -2.860  -0.792  27.911  1.00  0.00     0.000 C 
BRANCH   5   6
ATOM      6  C   UNL     1      -1.380  -0.564  28.269  1.00  0.00     0.006 C 
BRANCH   6   7
ATOM      7  C   UNL     1      -0.575  -1.871  28.261  1.00  0.00     0.053 C 
BRANCH   7   8
ATOM      8  C   UNL     1       0.728  -1.718  27.539  1.00  0.00     0.041 C 
ATOM      9  O   UNL     1       0.833  -2.070  26.335  1.00  0.00    -0.550 OA
ATOM     10  O   UNL     1       1.838  -1.214  28.206  1.00  0.00    -0.550 OA
ENDBRANCH   7   8
ENDBRANCH   6   7
ENDBRANCH   5   6
ENDBRANCH   4   5
ENDBRANCH   3   4
ENDBRANCH   2   3
ENDBRANCH   1   2
BRANCH   1  11
ATOM     11  C   UNL     1      -4.860  -4.640  29.224  1.00  0.00     0.000 C 
BRANCH  11  12
ATOM     12  C   UNL     1      -5.664  -5.194  28.037  1.00  0.00    -0.000 C 
BRANCH  12  13
ATOM     13  C   UNL     1      -5.926  -6.707  28.150  1.00  0.00    -0.000 C 
BRANCH  13  14
ATOM     14  C   UNL     1      -5.788  -7.225  29.591  1.00  0.00    -0.000 C 
BRANCH  14  15
ATOM     15  C   UNL     1      -6.168  -8.711  29.722  1.00  0.00    -0.000 C 
BRANCH  15  16
ATOM     16  C   UNL     1      -5.696  -9.547  28.522  1.00  0.00    -0.000 C 
BRANCH  16  17
ATOM     17  C   UNL     1      -4.675 -10.626  28.915  1.00  0.00    -0.003 C 
ATOM     18  C   UNL     1      -4.108 -11.321  27.681  1.00  0.00     0.004 C 
ENDBRANCH  16  17
ENDBRANCH  15  16
ENDBRANCH  14  15
ENDBRANCH  13  14
ENDBRANCH  12  13
ENDBRANCH  11  12
ENDBRANCH   1  11
TORSDOF 14
ENDMDL
