MODEL 1
REMARK VINA RESULT:    -3.079      0.000      0.000
REMARK INTER + INTRA:          -7.241
REMARK INTER:                  -5.419
REMARK INTRA:                  -1.822
REMARK UNBOUND:                -1.822
REMARK SMILES CCCCCCCCCCCCCCC(=O)[O-]
REMARK SMILES IDX 9 1 10 2 11 3 12 4 13 5 14 6 15 7 16 8 17 9 8 10 7 11 6 12
REMARK SMILES IDX 5 13 4 14 3 15 2 16 1 17
REMARK H PARENT
REMARK Flexibility Score: inf
ROOT
ATOM      1  C   UNL     1    -115.076  34.988  -7.439  1.00  0.00     0.000 C 
ENDROOT
BRANCH   1   2
ATOM      2  C   UNL     1    -115.112  33.934  -8.551  1.00  0.00     0.000 C 
BRANCH   2   3
ATOM      3  C   UNL     1    -116.550  33.662  -9.006  1.00  0.00     0.000 C 
BRANCH   3   4
ATOM      4  C   UNL     1    -116.670  33.752 -10.535  1.00  0.00     0.000 C 
BRANCH   4   5
ATOM      5  C   UNL     1    -115.313  33.966 -11.224  1.00  0.00     0.006 C 
BRANCH   5   6
ATOM      6  C   UNL     1    -115.450  34.593 -12.618  1.00  0.00     0.053 C 
BRANCH   6   7
ATOM      7  C   UNL     1    -114.812  33.716 -13.649  1.00  0.00     0.041 C 
ATOM      8  O   UNL     1    -114.378  34.213 -14.721  1.00  0.00    -0.550 OA
ATOM      9  O   UNL     1    -114.743  32.344 -13.448  1.00  0.00    -0.550 OA
ENDBRANCH   6   7
ENDBRANCH   5   6
ENDBRANCH   4   5
ENDBRANCH   3   4
ENDBRANCH   2   3
ENDBRANCH   1   2
BRANCH   1  10
ATOM     10  C   UNL     1    -116.454  35.634  -7.245  1.00  0.00     0.000 C 
BRANCH  10  11
ATOM     11  C   UNL     1    -116.443  37.099  -7.706  1.00  0.00    -0.000 C 
BRANCH  11  12
ATOM     12  C   UNL     1    -116.948  37.271  -9.148  1.00  0.00    -0.000 C 
BRANCH  12  13
ATOM     13  C   UNL     1    -115.818  37.607 -10.134  1.00  0.00    -0.000 C 
BRANCH  13  14
ATOM     14  C   UNL     1    -114.642  38.340  -9.465  1.00  0.00    -0.000 C 
BRANCH  14  15
ATOM     15  C   UNL     1    -114.239  39.646 -10.180  1.00  0.00    -0.000 C 
BRANCH  15  16
ATOM     16  C   UNL     1    -114.242  40.852  -9.228  1.00  0.00    -0.003 C 
ATOM     17  C   UNL     1    -114.698  40.450  -7.829  1.00  0.00     0.004 C 
ENDBRANCH  15  16
ENDBRANCH  14  15
ENDBRANCH  13  14
ENDBRANCH  12  13
ENDBRANCH  11  12
ENDBRANCH  10  11
ENDBRANCH   1  10
TORSDOF 13
ENDMDL
MODEL 2
REMARK VINA RESULT:    -3.078      1.502      2.740
REMARK INTER + INTRA:          -7.239
REMARK INTER:                  -5.621
REMARK INTRA:                  -1.618
REMARK UNBOUND:                -1.822
REMARK SMILES CCCCCCCCCCCCCCC(=O)[O-]
REMARK SMILES IDX 9 1 10 2 11 3 12 4 13 5 14 6 15 7 16 8 17 9 8 10 7 11 6 12
REMARK SMILES IDX 5 13 4 14 3 15 2 16 1 17
REMARK H PARENT
REMARK Flexibility Score: inf
ROOT
ATOM      1  C   UNL     1    -116.625  33.682  -9.132  1.00  0.00     0.000 C 
ENDROOT
BRANCH   1   2
ATOM      2  C   UNL     1    -116.755  33.959 -10.634  1.00  0.00     0.000 C 
BRANCH   2   3
ATOM      3  C   UNL     1    -115.383  33.947 -11.317  1.00  0.00     0.000 C 
BRANCH   3   4
ATOM      4  C   UNL     1    -115.450  34.615 -12.698  1.00  0.00     0.000 C 
BRANCH   4   5
ATOM      5  C   UNL     1    -115.630  33.602 -13.839  1.00  0.00     0.006 C 
BRANCH   5   6
ATOM      6  C   UNL     1    -115.050  32.222 -13.502  1.00  0.00     0.053 C 
BRANCH   6   7
ATOM      7  C   UNL     1    -116.109  31.170 -13.608  1.00  0.00     0.041 C 
ATOM      8  O   UNL     1    -116.837  30.903 -12.616  1.00  0.00    -0.550 OA
ATOM      9  O   UNL     1    -116.258  30.451 -14.787  1.00  0.00    -0.550 OA
ENDBRANCH   6   7
ENDBRANCH   5   6
ENDBRANCH   4   5
ENDBRANCH   3   4
ENDBRANCH   2   3
ENDBRANCH   1   2
BRANCH   1  10
ATOM     10  C   UNL     1    -115.173  33.841  -8.664  1.00  0.00     0.000 C 
BRANCH  10  11
ATOM     11  C   UNL     1    -115.049  34.974  -7.634  1.00  0.00    -0.000 C 
BRANCH  11  12
ATOM     12  C   UNL     1    -116.384  35.693  -7.380  1.00  0.00    -0.000 C 
BRANCH  12  13
ATOM     13  C   UNL     1    -116.366  37.155  -7.853  1.00  0.00    -0.000 C 
BRANCH  13  14
ATOM     14  C   UNL     1    -115.228  37.446  -8.846  1.00  0.00    -0.000 C 
BRANCH  14  15
ATOM     15  C   UNL     1    -115.688  37.507 -10.317  1.00  0.00    -0.000 C 
BRANCH  15  16
ATOM     16  C   UNL     1    -114.912  38.559 -11.124  1.00  0.00    -0.003 C 
ATOM     17  C   UNL     1    -114.330  39.635 -10.213  1.00  0.00     0.004 C 
ENDBRANCH  15  16
ENDBRANCH  14  15
ENDBRANCH  13  14
ENDBRANCH  12  13
ENDBRANCH  11  12
ENDBRANCH  10  11
ENDBRANCH   1  10
TORSDOF 13
ENDMDL
MODEL 3
REMARK VINA RESULT:    -3.063      1.655      2.604
REMARK INTER + INTRA:          -7.212
REMARK INTER:                  -5.503
REMARK INTRA:                  -1.709
REMARK UNBOUND:                -1.822
REMARK SMILES CCCCCCCCCCCCCCC(=O)[O-]
REMARK SMILES IDX 9 1 10 2 11 3 12 4 13 5 14 6 15 7 16 8 17 9 8 10 7 11 6 12
REMARK SMILES IDX 5 13 4 14 3 15 2 16 1 17
REMARK H PARENT
REMARK Flexibility Score: inf
ROOT
ATOM      1  C   UNL     1    -115.132  33.811  -8.646  1.00  0.00     0.000 C 
ENDROOT
BRANCH   1   2
ATOM      2  C   UNL     1    -116.612  33.653  -9.015  1.00  0.00     0.000 C 
BRANCH   2   3
ATOM      3  C   UNL     1    -116.845  33.957 -10.500  1.00  0.00     0.000 C 
BRANCH   3   4
ATOM      4  C   UNL     1    -115.516  34.220 -11.223  1.00  0.00     0.000 C 
BRANCH   4   5
ATOM      5  C   UNL     1    -115.612  33.996 -12.740  1.00  0.00     0.006 C 
BRANCH   5   6
ATOM      6  C   UNL     1    -114.869  32.734 -13.199  1.00  0.00     0.053 C 
BRANCH   6   7
ATOM      7  C   UNL     1    -115.842  31.673 -13.605  1.00  0.00     0.041 C 
ATOM      8  O   UNL     1    -115.897  31.287 -14.802  1.00  0.00    -0.550 OA
ATOM      9  O   UNL     1    -116.723  31.145 -12.670  1.00  0.00    -0.550 OA
ENDBRANCH   6   7
ENDBRANCH   5   6
ENDBRANCH   4   5
ENDBRANCH   3   4
ENDBRANCH   2   3
ENDBRANCH   1   2
BRANCH   1  10
ATOM     10  C   UNL     1    -114.946  34.871  -7.553  1.00  0.00     0.000 C 
BRANCH  10  11
ATOM     11  C   UNL     1    -116.285  35.530  -7.192  1.00  0.00    -0.000 C 
BRANCH  11  12
ATOM     12  C   UNL     1    -116.372  36.993  -7.659  1.00  0.00    -0.000 C 
BRANCH  12  13
ATOM     13  C   UNL     1    -115.376  37.313  -8.784  1.00  0.00    -0.000 C 
BRANCH  13  14
ATOM     14  C   UNL     1    -116.069  37.710 -10.099  1.00  0.00    -0.000 C 
BRANCH  14  15
ATOM     15  C   UNL     1    -115.113  38.319 -11.145  1.00  0.00    -0.000 C 
BRANCH  15  16
ATOM     16  C   UNL     1    -115.293  37.686 -12.533  1.00  0.00    -0.003 C 
ATOM     17  C   UNL     1    -114.014  37.796 -13.359  1.00  0.00     0.004 C 
ENDBRANCH  15  16
ENDBRANCH  14  15
ENDBRANCH  13  14
ENDBRANCH  12  13
ENDBRANCH  11  12
ENDBRANCH  10  11
ENDBRANCH   1  10
TORSDOF 13
ENDMDL
MODEL 4
REMARK VINA RESULT:    -3.014      2.780      4.287
REMARK INTER + INTRA:          -7.126
REMARK INTER:                  -5.606
REMARK INTRA:                  -1.520
REMARK UNBOUND:                -1.822
REMARK SMILES CCCCCCCCCCCCCCC(=O)[O-]
REMARK SMILES IDX 9 1 10 2 11 3 12 4 13 5 14 6 15 7 16 8 17 9 8 10 7 11 6 12
REMARK SMILES IDX 5 13 4 14 3 15 2 16 1 17
REMARK H PARENT
REMARK Flexibility Score: inf
ROOT
ATOM      1  C   UNL     1    -115.643  34.164 -11.073  1.00  0.00     0.000 C 
ENDROOT
BRANCH   1   2
ATOM      2  C   UNL     1    -116.138  35.507 -11.619  1.00  0.00     0.000 C 
BRANCH   2   3
ATOM      3  C   UNL     1    -115.283  35.971 -12.804  1.00  0.00     0.000 C 
BRANCH   3   4
ATOM      4  C   UNL     1    -114.995  37.477 -12.719  1.00  0.00     0.000 C 
BRANCH   4   5
ATOM      5  C   UNL     1    -113.743  37.887 -13.509  1.00  0.00     0.006 C 
BRANCH   5   6
ATOM      6  C   UNL     1    -112.843  38.855 -12.731  1.00  0.00     0.053 C 
BRANCH   6   7
ATOM      7  C   UNL     1    -111.466  38.873 -13.316  1.00  0.00     0.041 C 
ATOM      8  O   UNL     1    -111.138  38.028 -14.190  1.00  0.00    -0.550 OA
ATOM      9  O   UNL     1    -110.530  39.792 -12.860  1.00  0.00    -0.550 OA
ENDBRANCH   6   7
ENDBRANCH   5   6
ENDBRANCH   4   5
ENDBRANCH   3   4
ENDBRANCH   2   3
ENDBRANCH   1   2
BRANCH   1  10
ATOM     10  C   UNL     1    -116.200  33.898  -9.669  1.00  0.00     0.000 C 
BRANCH  10  11
ATOM     11  C   UNL     1    -115.071  33.851  -8.629  1.00  0.00    -0.000 C 
BRANCH  11  12
ATOM     12  C   UNL     1    -115.077  35.069  -7.690  1.00  0.00    -0.000 C 
BRANCH  12  13
ATOM     13  C   UNL     1    -116.405  35.841  -7.735  1.00  0.00    -0.000 C 
BRANCH  13  14
ATOM     14  C   UNL     1    -116.231  37.300  -8.192  1.00  0.00    -0.000 C 
BRANCH  14  15
ATOM     15  C   UNL     1    -114.867  37.585  -8.853  1.00  0.00    -0.000 C 
BRANCH  15  16
ATOM     16  C   UNL     1    -114.777  39.016  -9.403  1.00  0.00    -0.003 C 
ATOM     17  C   UNL     1    -114.717  40.039  -8.272  1.00  0.00     0.004 C 
ENDBRANCH  15  16
ENDBRANCH  14  15
ENDBRANCH  13  14
ENDBRANCH  12  13
ENDBRANCH  11  12
ENDBRANCH  10  11
ENDBRANCH   1  10
TORSDOF 13
ENDMDL
MODEL 5
REMARK VINA RESULT:    -2.990      3.214      5.132
REMARK INTER + INTRA:          -7.084
REMARK INTER:                  -5.114
REMARK INTRA:                  -1.970
REMARK UNBOUND:                -1.822
REMARK SMILES CCCCCCCCCCCCCCC(=O)[O-]
REMARK SMILES IDX 9 1 10 2 11 3 12 4 13 5 14 6 15 7 16 8 17 9 8 10 7 11 6 12
REMARK SMILES IDX 5 13 4 14 3 15 2 16 1 17
REMARK H PARENT
REMARK Flexibility Score: inf
ROOT
ATOM      1  C   UNL     1    -115.008  34.914  -7.539  1.00  0.00     0.000 C 
ENDROOT
BRANCH   1   2
ATOM      2  C   UNL     1    -116.431  35.374  -7.202  1.00  0.00     0.000 C 
BRANCH   2   3
ATOM      3  C   UNL     1    -116.606  36.872  -7.474  1.00  0.00     0.000 C 
BRANCH   3   4
ATOM      4  C   UNL     1    -117.125  37.115  -8.899  1.00  0.00     0.000 C 
BRANCH   4   5
ATOM      5  C   UNL     1    -116.387  38.260  -9.611  1.00  0.00     0.006 C 
BRANCH   5   6
ATOM      6  C   UNL     1    -114.916  38.368  -9.189  1.00  0.00     0.053 C 
BRANCH   6   7
ATOM      7  C   UNL     1    -114.543  39.799  -8.959  1.00  0.00     0.041 C 
ATOM      8  O   UNL     1    -114.130  40.508  -9.914  1.00  0.00    -0.550 OA
ATOM      9  O   UNL     1    -114.603  40.334  -7.679  1.00  0.00    -0.550 OA
ENDBRANCH   6   7
ENDBRANCH   5   6
ENDBRANCH   4   5
ENDBRANCH   3   4
ENDBRANCH   2   3
ENDBRANCH   1   2
BRANCH   1  10
ATOM     10  C   UNL     1    -115.014  33.895  -8.685  1.00  0.00     0.000 C 
BRANCH  10  11
ATOM     11  C   UNL     1    -116.450  33.543  -9.100  1.00  0.00    -0.000 C 
BRANCH  11  12
ATOM     12  C   UNL     1    -116.617  33.433 -10.625  1.00  0.00    -0.000 C 
BRANCH  12  13
ATOM     13  C   UNL     1    -115.557  34.237 -11.394  1.00  0.00    -0.000 C 
BRANCH  13  14
ATOM     14  C   UNL     1    -116.130  35.506 -12.050  1.00  0.00    -0.000 C 
BRANCH  14  15
ATOM     15  C   UNL     1    -115.203  36.126 -13.115  1.00  0.00    -0.000 C 
BRANCH  15  16
ATOM     16  C   UNL     1    -115.359  37.651 -13.203  1.00  0.00    -0.003 C 
ATOM     17  C   UNL     1    -114.061  38.361 -12.829  1.00  0.00     0.004 C 
ENDBRANCH  15  16
ENDBRANCH  14  15
ENDBRANCH  13  14
ENDBRANCH  12  13
ENDBRANCH  11  12
ENDBRANCH  10  11
ENDBRANCH   1  10
TORSDOF 13
ENDMDL
MODEL 6
REMARK VINA RESULT:    -2.892      1.437      2.219
REMARK INTER + INTRA:          -6.913
REMARK INTER:                  -5.097
REMARK INTRA:                  -1.815
REMARK UNBOUND:                -1.822
REMARK SMILES CCCCCCCCCCCCCCC(=O)[O-]
REMARK SMILES IDX 9 1 10 2 11 3 12 4 13 5 14 6 15 7 16 8 17 9 8 10 7 11 6 12
REMARK SMILES IDX 5 13 4 14 3 15 2 16 1 17
REMARK H PARENT
REMARK Flexibility Score: inf
ROOT
ATOM      1  C   UNL     1    -115.011  33.894  -8.803  1.00  0.00     0.000 C 
ENDROOT
BRANCH   1   2
ATOM      2  C   UNL     1    -116.435  33.601  -9.288  1.00  0.00     0.000 C 
BRANCH   2   3
ATOM      3  C   UNL     1    -116.621  34.034 -10.747  1.00  0.00     0.000 C 
BRANCH   3   4
ATOM      4  C   UNL     1    -115.320  33.859 -11.543  1.00  0.00     0.000 C 
BRANCH   4   5
ATOM      5  C   UNL     1    -115.393  34.487 -12.944  1.00  0.00     0.006 C 
BRANCH   5   6
ATOM      6  C   UNL     1    -115.892  35.937 -12.917  1.00  0.00     0.053 C 
BRANCH   6   7
ATOM      7  C   UNL     1    -114.938  36.832 -13.643  1.00  0.00     0.041 C 
ATOM      8  O   UNL     1    -114.222  37.646 -13.003  1.00  0.00    -0.550 OA
ATOM      9  O   UNL     1    -114.875  36.802 -15.030  1.00  0.00    -0.550 OA
ENDBRANCH   6   7
ENDBRANCH   5   6
ENDBRANCH   4   5
ENDBRANCH   3   4
ENDBRANCH   2   3
ENDBRANCH   1   2
BRANCH   1  10
ATOM     10  C   UNL     1    -115.027  34.736  -7.521  1.00  0.00     0.000 C 
BRANCH  10  11
ATOM     11  C   UNL     1    -116.429  35.301  -7.252  1.00  0.00    -0.000 C 
BRANCH  11  12
ATOM     12  C   UNL     1    -116.487  36.832  -7.380  1.00  0.00    -0.000 C 
BRANCH  12  13
ATOM     13  C   UNL     1    -116.992  37.290  -8.757  1.00  0.00    -0.000 C 
BRANCH  13  14
ATOM     14  C   UNL     1    -115.849  37.572  -9.748  1.00  0.00    -0.000 C 
BRANCH  14  15
ATOM     15  C   UNL     1    -114.634  38.276  -9.109  1.00  0.00    -0.000 C 
BRANCH  15  16
ATOM     16  C   UNL     1    -114.776  39.805  -9.123  1.00  0.00    -0.003 C 
ATOM     17  C   UNL     1    -114.877  40.362  -7.706  1.00  0.00     0.004 C 
ENDBRANCH  15  16
ENDBRANCH  14  15
ENDBRANCH  13  14
ENDBRANCH  12  13
ENDBRANCH  11  12
ENDBRANCH  10  11
ENDBRANCH   1  10
TORSDOF 13
ENDMDL
MODEL 7
REMARK VINA RESULT:    -2.868      3.669      6.638
REMARK INTER + INTRA:          -6.869
REMARK INTER:                  -5.501
REMARK INTRA:                  -1.368
REMARK UNBOUND:                -1.822
REMARK SMILES CCCCCCCCCCCCCCC(=O)[O-]
REMARK SMILES IDX 9 1 10 2 11 3 12 4 13 5 14 6 15 7 16 8 17 9 8 10 7 11 6 12
REMARK SMILES IDX 5 13 4 14 3 15 2 16 1 17
REMARK H PARENT
REMARK Flexibility Score: inf
ROOT
ATOM      1  C   UNL     1    -115.028  34.676  -7.844  1.00  0.00     0.000 C 
ENDROOT
BRANCH   1   2
ATOM      2  C   UNL     1    -116.366  35.311  -7.450  1.00  0.00     0.000 C 
BRANCH   2   3
ATOM      3  C   UNL     1    -116.378  36.811  -7.766  1.00  0.00     0.000 C 
BRANCH   3   4
ATOM      4  C   UNL     1    -115.446  37.133  -8.943  1.00  0.00     0.000 C 
BRANCH   4   5
ATOM      5  C   UNL     1    -114.958  38.591  -8.931  1.00  0.00     0.006 C 
BRANCH   5   6
ATOM      6  C   UNL     1    -115.804  39.490  -8.020  1.00  0.00     0.053 C 
BRANCH   6   7
ATOM      7  C   UNL     1    -114.986  40.635  -7.512  1.00  0.00     0.041 C 
ATOM      8  O   UNL     1    -114.084  41.139  -8.232  1.00  0.00    -0.550 OA
ATOM      9  O   UNL     1    -115.187  41.114  -6.224  1.00  0.00    -0.550 OA
ENDBRANCH   6   7
ENDBRANCH   5   6
ENDBRANCH   4   5
ENDBRANCH   3   4
ENDBRANCH   2   3
ENDBRANCH   1   2
BRANCH   1  10
ATOM     10  C   UNL     1    -115.224  33.593  -8.913  1.00  0.00     0.000 C 
BRANCH  10  11
ATOM     11  C   UNL     1    -116.700  33.488  -9.324  1.00  0.00    -0.000 C 
BRANCH  11  12
ATOM     12  C   UNL     1    -116.885  33.375 -10.847  1.00  0.00    -0.000 C 
BRANCH  12  13
ATOM     13  C   UNL     1    -116.621  34.703 -11.574  1.00  0.00    -0.000 C 
BRANCH  13  14
ATOM     14  C   UNL     1    -115.427  34.626 -12.541  1.00  0.00    -0.000 C 
BRANCH  14  15
ATOM     15  C   UNL     1    -114.838  33.208 -12.688  1.00  0.00    -0.000 C 
BRANCH  15  16
ATOM     16  C   UNL     1    -115.224  32.555 -14.024  1.00  0.00    -0.003 C 
ATOM     17  C   UNL     1    -115.975  31.246 -13.801  1.00  0.00     0.004 C 
ENDBRANCH  15  16
ENDBRANCH  14  15
ENDBRANCH  13  14
ENDBRANCH  12  13
ENDBRANCH  11  12
ENDBRANCH  10  11
ENDBRANCH   1  10
TORSDOF 13
ENDMDL
MODEL 8
REMARK VINA RESULT:    -2.848      2.345      5.223
REMARK INTER + INTRA:          -6.834
REMARK INTER:                  -5.148
REMARK INTRA:                  -1.686
REMARK UNBOUND:                -1.822
REMARK SMILES CCCCCCCCCCCCCCC(=O)[O-]
REMARK SMILES IDX 9 1 10 2 11 3 12 4 13 5 14 6 15 7 16 8 17 9 8 10 7 11 6 12
REMARK SMILES IDX 5 13 4 14 3 15 2 16 1 17
REMARK H PARENT
REMARK Flexibility Score: inf
ROOT
ATOM      1  C   UNL     1    -116.245  35.414  -7.111  1.00  0.00     0.000 C 
ENDROOT
BRANCH   1   2
ATOM      2  C   UNL     1    -116.577  36.850  -7.532  1.00  0.00     0.000 C 
BRANCH   2   3
ATOM      3  C   UNL     1    -115.656  37.321  -8.663  1.00  0.00     0.000 C 
BRANCH   3   4
ATOM      4  C   UNL     1    -116.443  37.521  -9.966  1.00  0.00     0.000 C 
BRANCH   4   5
ATOM      5  C   UNL     1    -115.766  38.516 -10.921  1.00  0.00     0.006 C 
BRANCH   5   6
ATOM      6  C   UNL     1    -114.415  39.016 -10.394  1.00  0.00     0.053 C 
BRANCH   6   7
ATOM      7  C   UNL     1    -113.570  39.525 -11.519  1.00  0.00     0.041 C 
ATOM      8  O   UNL     1    -113.313  38.783 -12.503  1.00  0.00    -0.550 OA
ATOM      9  O   UNL     1    -113.025  40.801 -11.457  1.00  0.00    -0.550 OA
ENDBRANCH   6   7
ENDBRANCH   5   6
ENDBRANCH   4   5
ENDBRANCH   3   4
ENDBRANCH   2   3
ENDBRANCH   1   2
BRANCH   1  10
ATOM     10  C   UNL     1    -114.907  34.959  -7.709  1.00  0.00     0.000 C 
BRANCH  10  11
ATOM     11  C   UNL     1    -115.100  33.737  -8.619  1.00  0.00    -0.000 C 
BRANCH  11  12
ATOM     12  C   UNL     1    -116.560  33.554  -9.066  1.00  0.00    -0.000 C 
BRANCH  12  13
ATOM     13  C   UNL     1    -116.767  33.878 -10.554  1.00  0.00    -0.000 C 
BRANCH  13  14
ATOM     14  C   UNL     1    -115.449  34.189 -11.285  1.00  0.00    -0.000 C 
BRANCH  14  15
ATOM     15  C   UNL     1    -115.273  33.408 -12.604  1.00  0.00    -0.000 C 
BRANCH  15  16
ATOM     16  C   UNL     1    -114.952  34.334 -13.787  1.00  0.00    -0.003 C 
ATOM     17  C   UNL     1    -115.156  35.799 -13.412  1.00  0.00     0.004 C 
ENDBRANCH  15  16
ENDBRANCH  14  15
ENDBRANCH  13  14
ENDBRANCH  12  13
ENDBRANCH  11  12
ENDBRANCH  10  11
ENDBRANCH   1  10
TORSDOF 13
ENDMDL
MODEL 9
REMARK VINA RESULT:    -2.804      1.689      2.376
REMARK INTER + INTRA:          -6.758
REMARK INTER:                  -5.061
REMARK INTRA:                  -1.697
REMARK UNBOUND:                -1.822
REMARK SMILES CCCCCCCCCCCCCCC(=O)[O-]
REMARK SMILES IDX 9 1 10 2 11 3 12 4 13 5 14 6 15 7 16 8 17 9 8 10 7 11 6 12
REMARK SMILES IDX 5 13 4 14 3 15 2 16 1 17
REMARK H PARENT
REMARK Flexibility Score: inf
ROOT
ATOM      1  C   UNL     1    -116.089  36.080  -8.351  1.00  0.00     0.000 C 
ENDROOT
BRANCH   1   2
ATOM      2  C   UNL     1    -115.227  34.907  -7.873  1.00  0.00     0.000 C 
BRANCH   2   3
ATOM      3  C   UNL     1    -115.129  33.819  -8.948  1.00  0.00     0.000 C 
BRANCH   3   4
ATOM      4  C   UNL     1    -116.511  33.507  -9.541  1.00  0.00     0.000 C 
BRANCH   4   5
ATOM      5  C   UNL     1    -116.475  33.329 -11.067  1.00  0.00     0.006 C 
BRANCH   5   6
ATOM      6  C   UNL     1    -115.071  33.531 -11.653  1.00  0.00     0.053 C 
BRANCH   6   7
ATOM      7  C   UNL     1    -115.015  33.027 -13.061  1.00  0.00     0.041 C 
ATOM      8  O   UNL     1    -114.615  33.779 -13.988  1.00  0.00    -0.550 OA
ATOM      9  O   UNL     1    -115.451  31.742 -13.355  1.00  0.00    -0.550 OA
ENDBRANCH   6   7
ENDBRANCH   5   6
ENDBRANCH   4   5
ENDBRANCH   3   4
ENDBRANCH   2   3
ENDBRANCH   1   2
BRANCH   1  10
ATOM     10  C   UNL     1    -115.226  37.310  -8.661  1.00  0.00     0.000 C 
BRANCH  10  11
ATOM     11  C   UNL     1    -115.728  38.029  -9.922  1.00  0.00    -0.000 C 
BRANCH  11  12
ATOM     12  C   UNL     1    -116.413  37.077 -10.916  1.00  0.00    -0.000 C 
BRANCH  12  13
ATOM     13  C   UNL     1    -115.612  36.903 -12.215  1.00  0.00    -0.000 C 
BRANCH  13  14
ATOM     14  C   UNL     1    -115.095  38.238 -12.780  1.00  0.00    -0.000 C 
BRANCH  14  15
ATOM     15  C   UNL     1    -113.704  38.136 -13.438  1.00  0.00    -0.000 C 
BRANCH  15  16
ATOM     16  C   UNL     1    -112.647  38.965 -12.692  1.00  0.00    -0.003 C 
ATOM     17  C   UNL     1    -113.296  40.082 -11.879  1.00  0.00     0.004 C 
ENDBRANCH  15  16
ENDBRANCH  14  15
ENDBRANCH  13  14
ENDBRANCH  12  13
ENDBRANCH  11  12
ENDBRANCH  10  11
ENDBRANCH   1  10
TORSDOF 13
ENDMDL
