MODEL 1
REMARK VINA RESULT:    -3.624      0.000      0.000
REMARK INTER + INTRA:          -5.978
REMARK INTER:                  -5.319
REMARK INTRA:                  -0.659
REMARK UNBOUND:                -0.659
REMARK SMILES O=C([O-])CCCCCCCC(=O)[O-]
REMARK SMILES IDX 7 1 6 2 5 3 4 4 2 5 1 6 3 7 8 8 9 9 10 10 11 11 12 12 13 13
REMARK H PARENT
REMARK Flexibility Score: inf
ROOT
ATOM      1  C   UNL     1      21.881  36.462  35.810  1.00  0.00     0.000 C 
ENDROOT
BRANCH   1   2
ATOM      2  C   UNL     1      22.441  36.404  37.239  1.00  0.00     0.000 C 
BRANCH   2   3
ATOM      3  C   UNL     1      21.308  36.398  38.272  1.00  0.00     0.006 C 
BRANCH   3   4
ATOM      4  C   UNL     1      20.949  37.822  38.705  1.00  0.00     0.053 C 
BRANCH   4   5
ATOM      5  C   UNL     1      19.470  38.033  38.640  1.00  0.00     0.041 C 
ATOM      6  O   UNL     1      18.950  38.566  37.624  1.00  0.00    -0.550 OA
ATOM      7  O   UNL     1      18.659  37.597  39.679  1.00  0.00    -0.550 OA
ENDBRANCH   4   5
ENDBRANCH   3   4
ENDBRANCH   2   3
ENDBRANCH   1   2
BRANCH   1   8
ATOM      8  C   UNL     1      21.967  37.868  35.194  1.00  0.00     0.000 C 
BRANCH   8   9
ATOM      9  C   UNL     1      20.711  38.239  34.389  1.00  0.00     0.006 C 
BRANCH   9  10
ATOM     10  C   UNL     1      19.619  37.165  34.493  1.00  0.00     0.053 C 
BRANCH  10  11
ATOM     11  C   UNL     1      19.354  36.512  33.171  1.00  0.00     0.041 C 
ATOM     12  O   UNL     1      20.226  36.540  32.263  1.00  0.00    -0.550 OA
ATOM     13  O   UNL     1      18.132  35.896  32.932  1.00  0.00    -0.550 OA
ENDBRANCH  10  11
ENDBRANCH   9  10
ENDBRANCH   8   9
ENDBRANCH   1   8
TORSDOF 8
ENDMDL
MODEL 2
REMARK VINA RESULT:    -3.598      0.309      5.037
REMARK INTER + INTRA:          -5.940
REMARK INTER:                  -5.288
REMARK INTRA:                  -0.652
REMARK UNBOUND:                -0.659
REMARK SMILES O=C([O-])CCCCCCCC(=O)[O-]
REMARK SMILES IDX 7 1 6 2 5 3 4 4 2 5 1 6 3 7 8 8 9 9 10 10 11 11 12 12 13 13
REMARK H PARENT
REMARK Flexibility Score: inf
ROOT
ATOM      1  C   UNL     1      21.992  36.471  35.645  1.00  0.00     0.000 C 
ENDROOT
BRANCH   1   2
ATOM      2  C   UNL     1      21.928  37.943  35.211  1.00  0.00     0.000 C 
BRANCH   2   3
ATOM      3  C   UNL     1      20.748  38.184  34.262  1.00  0.00     0.006 C 
BRANCH   3   4
ATOM      4  C   UNL     1      19.696  37.081  34.400  1.00  0.00     0.053 C 
BRANCH   4   5
ATOM      5  C   UNL     1      19.312  36.549  33.056  1.00  0.00     0.041 C 
ATOM      6  O   UNL     1      20.122  36.614  32.094  1.00  0.00    -0.550 OA
ATOM      7  O   UNL     1      18.079  35.935  32.877  1.00  0.00    -0.550 OA
ENDBRANCH   4   5
ENDBRANCH   3   4
ENDBRANCH   2   3
ENDBRANCH   1   2
BRANCH   1   8
ATOM      8  C   UNL     1      22.597  36.291  37.047  1.00  0.00     0.000 C 
BRANCH   8   9
ATOM      9  C   UNL     1      21.526  36.098  38.133  1.00  0.00     0.006 C 
BRANCH   9  10
ATOM     10  C   UNL     1      21.195  37.411  38.858  1.00  0.00     0.053 C 
BRANCH  10  11
ATOM     11  C   UNL     1      19.742  37.757  38.744  1.00  0.00     0.041 C 
ATOM     12  O   UNL     1      19.254  38.097  37.633  1.00  0.00    -0.550 OA
ATOM     13  O   UNL     1      18.930  37.730  39.871  1.00  0.00    -0.550 OA
ENDBRANCH  10  11
ENDBRANCH   9  10
ENDBRANCH   8   9
ENDBRANCH   1   8
TORSDOF 8
ENDMDL
MODEL 3
REMARK VINA RESULT:    -3.585      1.671      2.087
REMARK INTER + INTRA:          -5.921
REMARK INTER:                  -5.224
REMARK INTRA:                  -0.697
REMARK UNBOUND:                -0.659
REMARK SMILES O=C([O-])CCCCCCCC(=O)[O-]
REMARK SMILES IDX 7 1 6 2 5 3 4 4 2 5 1 6 3 7 8 8 9 9 10 10 11 11 12 12 13 13
REMARK H PARENT
REMARK Flexibility Score: inf
ROOT
ATOM      1  C   UNL     1      21.959  36.419  35.851  1.00  0.00     0.000 C 
ENDROOT
BRANCH   1   2
ATOM      2  C   UNL     1      22.222  36.263  37.356  1.00  0.00     0.000 C 
BRANCH   2   3
ATOM      3  C   UNL     1      20.994  36.682  38.173  1.00  0.00     0.006 C 
BRANCH   3   4
ATOM      4  C   UNL     1      21.309  37.886  39.064  1.00  0.00     0.053 C 
BRANCH   4   5
ATOM      5  C   UNL     1      20.082  38.339  39.790  1.00  0.00     0.041 C 
ATOM      6  O   UNL     1      20.088  39.424  40.428  1.00  0.00    -0.550 OA
ATOM      7  O   UNL     1      18.917  37.587  39.721  1.00  0.00    -0.550 OA
ENDBRANCH   4   5
ENDBRANCH   3   4
ENDBRANCH   2   3
ENDBRANCH   1   2
BRANCH   1   8
ATOM      8  C   UNL     1      22.036  37.882  35.383  1.00  0.00     0.000 C 
BRANCH   8   9
ATOM      9  C   UNL     1      20.812  38.302  34.552  1.00  0.00     0.006 C 
BRANCH   9  10
ATOM     10  C   UNL     1      19.603  37.388  34.800  1.00  0.00     0.053 C 
BRANCH  10  11
ATOM     11  C   UNL     1      18.498  38.109  35.510  1.00  0.00     0.041 C 
ATOM     12  O   UNL     1      18.743  38.790  36.540  1.00  0.00    -0.550 OA
ATOM     13  O   UNL     1      17.192  38.006  35.048  1.00  0.00    -0.550 OA
ENDBRANCH  10  11
ENDBRANCH   9  10
ENDBRANCH   8   9
ENDBRANCH   1   8
TORSDOF 8
ENDMDL
MODEL 4
REMARK VINA RESULT:    -3.557      2.711      4.906
REMARK INTER + INTRA:          -5.879
REMARK INTER:                  -5.055
REMARK INTRA:                  -0.825
REMARK UNBOUND:                -0.659
REMARK SMILES O=C([O-])CCCCCCCC(=O)[O-]
REMARK SMILES IDX 7 1 6 2 5 3 4 4 2 5 1 6 3 7 8 8 9 9 10 10 11 11 12 12 13 13
REMARK H PARENT
REMARK Flexibility Score: inf
ROOT
ATOM      1  C   UNL     1      19.386  37.784  34.905  1.00  0.00     0.000 C 
ENDROOT
BRANCH   1   2
ATOM      2  C   UNL     1      20.721  37.925  34.159  1.00  0.00     0.000 C 
BRANCH   2   3
ATOM      3  C   UNL     1      21.906  37.777  35.122  1.00  0.00     0.006 C 
BRANCH   3   4
ATOM      4  C   UNL     1      21.914  36.393  35.776  1.00  0.00     0.053 C 
BRANCH   4   5
ATOM      5  C   UNL     1      22.216  36.504  37.236  1.00  0.00     0.041 C 
ATOM      6  O   UNL     1      22.921  37.454  37.667  1.00  0.00    -0.550 OA
ATOM      7  O   UNL     1      21.678  35.587  38.129  1.00  0.00    -0.550 OA
ENDBRANCH   4   5
ENDBRANCH   3   4
ENDBRANCH   2   3
ENDBRANCH   1   2
BRANCH   1   8
ATOM      8  C   UNL     1      19.159  38.904  35.934  1.00  0.00     0.000 C 
BRANCH   8   9
ATOM      9  C   UNL     1      18.886  38.363  37.347  1.00  0.00     0.006 C 
BRANCH   9  10
ATOM     10  C   UNL     1      19.630  39.163  38.426  1.00  0.00     0.053 C 
BRANCH  10  11
ATOM     11  C   UNL     1      19.855  38.350  39.664  1.00  0.00     0.041 C 
ATOM     12  O   UNL     1      18.926  37.644  40.138  1.00  0.00    -0.550 OA
ATOM     13  O   UNL     1      21.084  38.392  40.309  1.00  0.00    -0.550 OA
ENDBRANCH  10  11
ENDBRANCH   9  10
ENDBRANCH   8   9
ENDBRANCH   1   8
TORSDOF 8
ENDMDL
MODEL 5
REMARK VINA RESULT:    -3.521      1.768      2.297
REMARK INTER + INTRA:          -5.827
REMARK INTER:                  -5.318
REMARK INTRA:                  -0.509
REMARK UNBOUND:                -0.659
REMARK SMILES O=C([O-])CCCCCCCC(=O)[O-]
REMARK SMILES IDX 7 1 6 2 5 3 4 4 2 5 1 6 3 7 8 8 9 9 10 10 11 11 12 12 13 13
REMARK H PARENT
REMARK Flexibility Score: inf
ROOT
ATOM      1  C   UNL     1      21.391  37.629  34.978  1.00  0.00     0.000 C 
ENDROOT
BRANCH   1   2
ATOM      2  C   UNL     1      21.923  36.491  35.862  1.00  0.00     0.000 C 
BRANCH   2   3
ATOM      3  C   UNL     1      21.570  36.729  37.335  1.00  0.00     0.006 C 
BRANCH   3   4
ATOM      4  C   UNL     1      20.246  37.487  37.468  1.00  0.00     0.053 C 
BRANCH   4   5
ATOM      5  C   UNL     1      20.009  37.884  38.890  1.00  0.00     0.041 C 
ATOM      6  O   UNL     1      18.834  37.969  39.336  1.00  0.00    -0.550 OA
ATOM      7  O   UNL     1      21.085  38.110  39.738  1.00  0.00    -0.550 OA
ENDBRANCH   4   5
ENDBRANCH   3   4
ENDBRANCH   2   3
ENDBRANCH   1   2
BRANCH   1   8
ATOM      8  C   UNL     1      20.792  37.123  33.655  1.00  0.00     0.000 C 
BRANCH   8   9
ATOM      9  C   UNL     1      19.327  36.680  33.800  1.00  0.00     0.006 C 
BRANCH   9  10
ATOM     10  C   UNL     1      18.345  37.818  33.488  1.00  0.00     0.053 C 
BRANCH  10  11
ATOM     11  C   UNL     1      17.229  37.878  34.485  1.00  0.00     0.041 C 
ATOM     12  O   UNL     1      17.454  38.240  35.670  1.00  0.00    -0.550 OA
ATOM     13  O   UNL     1      15.943  37.507  34.112  1.00  0.00    -0.550 OA
ENDBRANCH  10  11
ENDBRANCH   9  10
ENDBRANCH   8   9
ENDBRANCH   1   8
TORSDOF 8
ENDMDL
MODEL 6
REMARK VINA RESULT:    -3.520      1.887      4.798
REMARK INTER + INTRA:          -5.825
REMARK INTER:                  -5.177
REMARK INTRA:                  -0.648
REMARK UNBOUND:                -0.659
REMARK SMILES O=C([O-])CCCCCCCC(=O)[O-]
REMARK SMILES IDX 7 1 6 2 5 3 4 4 2 5 1 6 3 7 8 8 9 9 10 10 11 11 12 12 13 13
REMARK H PARENT
REMARK Flexibility Score: inf
ROOT
ATOM      1  C   UNL     1      21.693  37.012  35.120  1.00  0.00     0.000 C 
ENDROOT
BRANCH   1   2
ATOM      2  C   UNL     1      20.203  36.968  34.752  1.00  0.00     0.000 C 
BRANCH   2   3
ATOM      3  C   UNL     1      19.589  38.372  34.781  1.00  0.00     0.006 C 
BRANCH   3   4
ATOM      4  C   UNL     1      18.320  38.401  35.638  1.00  0.00     0.053 C 
BRANCH   4   5
ATOM      5  C   UNL     1      17.107  38.550  34.776  1.00  0.00     0.041 C 
ATOM      6  O   UNL     1      16.423  37.540  34.465  1.00  0.00    -0.550 OA
ATOM      7  O   UNL     1      16.702  39.810  34.357  1.00  0.00    -0.550 OA
ENDBRANCH   4   5
ENDBRANCH   3   4
ENDBRANCH   2   3
ENDBRANCH   1   2
BRANCH   1   8
ATOM      8  C   UNL     1      21.999  36.299  36.447  1.00  0.00     0.000 C 
BRANCH   8   9
ATOM      9  C   UNL     1      21.776  37.204  37.671  1.00  0.00     0.006 C 
BRANCH   9  10
ATOM     10  C   UNL     1      20.567  36.759  38.506  1.00  0.00     0.053 C 
BRANCH  10  11
ATOM     11  C   UNL     1      19.756  37.928  38.975  1.00  0.00     0.041 C 
ATOM     12  O   UNL     1      18.714  37.745  39.658  1.00  0.00    -0.550 OA
ATOM     13  O   UNL     1      20.137  39.219  38.634  1.00  0.00    -0.550 OA
ENDBRANCH  10  11
ENDBRANCH   9  10
ENDBRANCH   8   9
ENDBRANCH   1   8
TORSDOF 8
ENDMDL
MODEL 7
REMARK VINA RESULT:    -3.511      0.685      1.207
REMARK INTER + INTRA:          -5.812
REMARK INTER:                  -5.085
REMARK INTRA:                  -0.726
REMARK UNBOUND:                -0.659
REMARK SMILES O=C([O-])CCCCCCCC(=O)[O-]
REMARK SMILES IDX 7 1 6 2 5 3 4 4 2 5 1 6 3 7 8 8 9 9 10 10 11 11 12 12 13 13
REMARK H PARENT
REMARK Flexibility Score: inf
ROOT
ATOM      1  C   UNL     1      21.997  36.249  36.618  1.00  0.00     0.000 C 
ENDROOT
BRANCH   1   2
ATOM      2  C   UNL     1      21.763  36.393  38.129  1.00  0.00     0.000 C 
BRANCH   2   3
ATOM      3  C   UNL     1      22.015  37.834  38.588  1.00  0.00     0.006 C 
BRANCH   3   4
ATOM      4  C   UNL     1      20.937  38.295  39.572  1.00  0.00     0.053 C 
BRANCH   4   5
ATOM      5  C   UNL     1      19.599  38.336  38.905  1.00  0.00     0.041 C 
ATOM      6  O   UNL     1      18.616  37.742  39.421  1.00  0.00    -0.550 OA
ATOM      7  O   UNL     1      19.425  39.071  37.740  1.00  0.00    -0.550 OA
ENDBRANCH   4   5
ENDBRANCH   3   4
ENDBRANCH   2   3
ENDBRANCH   1   2
BRANCH   1   8
ATOM      8  C   UNL     1      22.363  37.582  35.944  1.00  0.00     0.000 C 
BRANCH   8   9
ATOM      9  C   UNL     1      21.394  37.957  34.811  1.00  0.00     0.006 C 
BRANCH   9  10
ATOM     10  C   UNL     1      20.127  37.090  34.823  1.00  0.00     0.053 C 
BRANCH  10  11
ATOM     11  C   UNL     1      19.760  36.625  33.447  1.00  0.00     0.041 C 
ATOM     12  O   UNL     1      20.578  36.741  32.498  1.00  0.00    -0.550 OA
ATOM     13  O   UNL     1      18.501  36.087  33.208  1.00  0.00    -0.550 OA
ENDBRANCH  10  11
ENDBRANCH   9  10
ENDBRANCH   8   9
ENDBRANCH   1   8
TORSDOF 8
ENDMDL
MODEL 8
REMARK VINA RESULT:    -3.510      2.314      4.188
REMARK INTER + INTRA:          -5.810
REMARK INTER:                  -4.994
REMARK INTRA:                  -0.816
REMARK UNBOUND:                -0.659
REMARK SMILES O=C([O-])CCCCCCCC(=O)[O-]
REMARK SMILES IDX 7 1 6 2 5 3 4 4 2 5 1 6 3 7 8 8 9 9 10 10 11 11 12 12 13 13
REMARK H PARENT
REMARK Flexibility Score: inf
ROOT
ATOM      1  C   UNL     1      20.564  37.004  33.187  1.00  0.00     0.000 C 
ENDROOT
BRANCH   1   2
ATOM      2  C   UNL     1      19.185  36.793  33.829  1.00  0.00     0.000 C 
BRANCH   2   3
ATOM      3  C   UNL     1      18.505  38.135  34.121  1.00  0.00     0.006 C 
BRANCH   3   4
ATOM      4  C   UNL     1      17.864  38.137  35.512  1.00  0.00     0.053 C 
BRANCH   4   5
ATOM      5  C   UNL     1      18.786  38.755  36.514  1.00  0.00     0.041 C 
ATOM      6  O   UNL     1      19.611  39.637  36.157  1.00  0.00    -0.550 OA
ATOM      7  O   UNL     1      18.700  38.396  37.853  1.00  0.00    -0.550 OA
ENDBRANCH   4   5
ENDBRANCH   3   4
ENDBRANCH   2   3
ENDBRANCH   1   2
BRANCH   1   8
ATOM      8  C   UNL     1      21.615  37.509  34.189  1.00  0.00     0.000 C 
BRANCH   8   9
ATOM      9  C   UNL     1      21.661  36.666  35.474  1.00  0.00     0.006 C 
BRANCH   9  10
ATOM     10  C   UNL     1      22.330  37.417  36.635  1.00  0.00     0.053 C 
BRANCH  10  11
ATOM     11  C   UNL     1      21.914  36.867  37.964  1.00  0.00     0.041 C 
ATOM     12  O   UNL     1      21.794  37.630  38.958  1.00  0.00    -0.550 OA
ATOM     13  O   UNL     1      21.685  35.505  38.112  1.00  0.00    -0.550 OA
ENDBRANCH  10  11
ENDBRANCH   9  10
ENDBRANCH   8   9
ENDBRANCH   1   8
TORSDOF 8
ENDMDL
MODEL 9
REMARK VINA RESULT:    -3.477      2.697      3.899
REMARK INTER + INTRA:          -5.763
REMARK INTER:                  -5.000
REMARK INTRA:                  -0.763
REMARK UNBOUND:                -0.659
REMARK SMILES O=C([O-])CCCCCCCC(=O)[O-]
REMARK SMILES IDX 7 1 6 2 5 3 4 4 2 5 1 6 3 7 8 8 9 9 10 10 11 11 12 12 13 13
REMARK H PARENT
REMARK Flexibility Score: inf
ROOT
ATOM      1  C   UNL     1      19.452  37.324  34.551  1.00  0.00     0.000 C 
ENDROOT
BRANCH   1   2
ATOM      2  C   UNL     1      19.363  38.661  35.301  1.00  0.00     0.000 C 
BRANCH   2   3
ATOM      3  C   UNL     1      18.735  38.472  36.687  1.00  0.00     0.006 C 
BRANCH   3   4
ATOM      4  C   UNL     1      19.550  39.193  37.764  1.00  0.00     0.053 C 
BRANCH   4   5
ATOM      5  C   UNL     1      19.629  38.364  39.007  1.00  0.00     0.041 C 
ATOM      6  O   UNL     1      19.774  38.917  40.129  1.00  0.00    -0.550 OA
ATOM      7  O   UNL     1      19.491  36.985  38.932  1.00  0.00    -0.550 OA
ENDBRANCH   4   5
ENDBRANCH   3   4
ENDBRANCH   2   3
ENDBRANCH   1   2
BRANCH   1   8
ATOM      8  C   UNL     1      20.887  36.976  34.126  1.00  0.00     0.000 C 
BRANCH   8   9
ATOM      9  C   UNL     1      21.926  37.334  35.201  1.00  0.00     0.006 C 
BRANCH   9  10
ATOM     10  C   UNL     1      22.002  36.272  36.308  1.00  0.00     0.053 C 
BRANCH  10  11
ATOM     11  C   UNL     1      22.701  36.790  37.528  1.00  0.00     0.041 C 
ATOM     12  O   UNL     1      22.899  36.035  38.515  1.00  0.00    -0.550 OA
ATOM     13  O   UNL     1      23.110  38.117  37.583  1.00  0.00    -0.550 OA
ENDBRANCH  10  11
ENDBRANCH   9  10
ENDBRANCH   8   9
ENDBRANCH   1   8
TORSDOF 8
ENDMDL
