MODEL 1
REMARK VINA RESULT:     5.163      0.000      0.000
REMARK INTER + INTRA:           5.798
REMARK INTER:                   6.068
REMARK INTRA:                  -0.271
REMARK UNBOUND:                -0.271
REMARK SMILES O=c1c(O)c(-c2ccc(O)c(O)c2)oc2cc(O)ccc12
REMARK SMILES IDX 5 1 3 2 2 3 1 4 21 5 15 6 14 7 16 8 17 9 19 10 20 11 6 12
REMARK SMILES IDX 7 13 8 14 9 15 13 16 11 17 10 18 12 20 4 22 18 24
REMARK H PARENT 10 19 12 21 4 23 18 25
REMARK Flexibility Score: inf
ROOT
ATOM      1  C   UNL     1     -26.848 138.986  54.948  1.00  0.00     0.180 A 
ATOM      2  C   UNL     1     -27.776 139.941  55.411  1.00  0.00     0.208 A 
ATOM      3  C   UNL     1     -27.384 140.829  56.424  1.00  0.00     0.235 A 
ATOM      4  O   UNL     1     -28.201 141.686  56.863  1.00  0.00    -0.285 OA
ATOM      5  C   UNL     1     -26.078 140.761  56.936  1.00  0.00     0.069 A 
ATOM      6  C   UNL     1     -25.201 139.792  56.402  1.00  0.00     0.142 A 
ATOM      7  O   UNL     1     -25.614 138.964  55.449  1.00  0.00    -0.452 OA
ATOM      8  C   UNL     1     -23.889 139.698  56.878  1.00  0.00     0.094 A 
ATOM      9  C   UNL     1     -23.440 140.563  57.886  1.00  0.00     0.119 A 
ATOM     10  C   UNL     1     -24.308 141.521  58.418  1.00  0.00     0.047 A 
ATOM     11  C   UNL     1     -25.622 141.624  57.948  1.00  0.00     0.020 A 
ENDROOT
BRANCH   1  12
ATOM     12  C   UNL     1     -27.190 138.003  53.895  1.00  0.00     0.025 A 
ATOM     13  C   UNL     1     -26.643 138.147  52.611  1.00  0.00     0.016 A 
ATOM     14  C   UNL     1     -26.936 137.219  51.608  1.00  0.00     0.051 A 
ATOM     15  C   UNL     1     -27.769 136.126  51.879  1.00  0.00     0.157 A 
ATOM     16  C   UNL     1     -28.010 136.893  54.169  1.00  0.00     0.062 A 
ATOM     17  C   UNL     1     -28.304 135.960  53.167  1.00  0.00     0.158 A 
BRANCH  15  18
ATOM     18  O   UNL     1     -28.062 135.203  50.875  1.00  0.00    -0.504 OA
ATOM     19  H   UNL     1     -27.349 134.594  50.491  1.00  0.00     0.293 HD
ENDBRANCH  15  18
BRANCH  17  20
ATOM     20  O   UNL     1     -29.125 134.875  53.472  1.00  0.00    -0.504 OA
ATOM     21  H   UNL     1     -29.896 134.949  54.125  1.00  0.00     0.293 HD
ENDBRANCH  17  20
ENDBRANCH   1  12
BRANCH   2  22
ATOM     22  O   UNL     1     -29.053 140.019  54.849  1.00  0.00    -0.502 OA
ATOM     23  H   UNL     1     -29.807 139.404  55.130  1.00  0.00     0.293 HD
ENDBRANCH   2  22
BRANCH   9  24
ATOM     24  O   UNL     1     -22.136 140.475  58.367  1.00  0.00    -0.508 OA
ATOM     25  H   UNL     1     -21.942 140.350  59.353  1.00  0.00     0.293 HD
ENDBRANCH   9  24
TORSDOF 5
ENDMDL
