MODEL 1
REMARK VINA RESULT:    -2.842      0.000      0.000
REMARK INTER + INTRA:          -7.489
REMARK INTER:                  -5.251
REMARK INTRA:                  -2.238
REMARK UNBOUND:                -2.238
REMARK SMILES CCCCCCCCCCCCCCCCO
REMARK SMILES IDX 9 1 8 2 7 3 6 4 5 5 4 6 3 7 2 8 1 9 10 10 11 11 12 12 13 13
REMARK SMILES IDX 14 14 15 15 16 16 17 17
REMARK H PARENT 17 18
REMARK Flexibility Score: inf
ROOT
ATOM      1  C   UNL     1     143.272 141.552 139.422  1.00  0.00     0.000 C 
ENDROOT
BRANCH   1   2
ATOM      2  C   UNL     1     144.597 140.808 139.683  1.00  0.00    -0.000 C 
BRANCH   2   3
ATOM      3  C   UNL     1     145.838 141.715 139.797  1.00  0.00    -0.000 C 
BRANCH   3   4
ATOM      4  C   UNL     1     146.497 141.743 141.191  1.00  0.00    -0.000 C 
BRANCH   4   5
ATOM      5  C   UNL     1     145.596 142.261 142.329  1.00  0.00    -0.000 C 
BRANCH   5   6
ATOM      6  C   UNL     1     145.520 141.345 143.564  1.00  0.00    -0.000 C 
BRANCH   6   7
ATOM      7  C   UNL     1     144.079 141.127 144.056  1.00  0.00    -0.000 C 
BRANCH   7   8
ATOM      8  C   UNL     1     143.232 140.319 143.061  1.00  0.00    -0.003 C 
ATOM      9  C   UNL     1     143.810 138.930 142.789  1.00  0.00     0.004 C 
ENDBRANCH   7   8
ENDBRANCH   6   7
ENDBRANCH   5   6
ENDBRANCH   4   5
ENDBRANCH   3   4
ENDBRANCH   2   3
ENDBRANCH   1   2
BRANCH   1  10
ATOM     10  C   UNL     1     143.420 143.047 139.072  1.00  0.00     0.000 C 
BRANCH  10  11
ATOM     11  C   UNL     1     142.940 144.021 140.163  1.00  0.00     0.000 C 
BRANCH  11  12
ATOM     12  C   UNL     1     142.109 143.331 141.256  1.00  0.00     0.000 C 
BRANCH  12  13
ATOM     13  C   UNL     1     142.319 144.009 142.615  1.00  0.00     0.000 C 
BRANCH  13  14
ATOM     14  C   UNL     1     141.005 144.068 143.409  1.00  0.00     0.002 C 
BRANCH  14  15
ATOM     15  C   UNL     1     140.276 145.411 143.249  1.00  0.00     0.028 C 
BRANCH  15  16
ATOM     16  C   UNL     1     139.078 145.327 142.300  1.00  0.00     0.156 C 
BRANCH  16  17
ATOM     17  O   UNL     1     139.165 146.352 141.350  1.00  0.00    -0.396 OA
ATOM     18  H   UNL     1     140.007 146.194 140.850  1.00  0.00     0.210 HD
ENDBRANCH  16  17
ENDBRANCH  15  16
ENDBRANCH  14  15
ENDBRANCH  13  14
ENDBRANCH  12  13
ENDBRANCH  11  12
ENDBRANCH  10  11
ENDBRANCH   1  10
TORSDOF 15
ENDMDL
MODEL 2
REMARK VINA RESULT:    -2.679      4.786      7.057
REMARK INTER + INTRA:          -7.189
REMARK INTER:                  -4.959
REMARK INTRA:                  -2.230
REMARK UNBOUND:                -2.238
REMARK SMILES CCCCCCCCCCCCCCCCO
REMARK SMILES IDX 9 1 8 2 7 3 6 4 5 5 4 6 3 7 2 8 1 9 10 10 11 11 12 12 13 13
REMARK SMILES IDX 14 14 15 15 16 16 17 17
REMARK H PARENT 17 18
REMARK Flexibility Score: inf
ROOT
ATOM      1  C   UNL     1     137.641 142.970 139.882  1.00  0.00     0.000 C 
ENDROOT
BRANCH   1   2
ATOM      2  C   UNL     1     137.644 142.709 141.401  1.00  0.00    -0.000 C 
BRANCH   2   3
ATOM      3  C   UNL     1     138.921 142.033 141.940  1.00  0.00    -0.000 C 
BRANCH   3   4
ATOM      4  C   UNL     1     139.395 142.544 143.315  1.00  0.00    -0.000 C 
BRANCH   4   5
ATOM      5  C   UNL     1     139.002 143.998 143.644  1.00  0.00    -0.000 C 
BRANCH   5   6
ATOM      6  C   UNL     1     139.946 145.070 143.069  1.00  0.00    -0.000 C 
BRANCH   6   7
ATOM      7  C   UNL     1     139.275 145.934 141.987  1.00  0.00    -0.000 C 
BRANCH   7   8
ATOM      8  C   UNL     1     140.080 145.968 140.679  1.00  0.00    -0.003 C 
ATOM      9  C   UNL     1     140.962 144.733 140.498  1.00  0.00     0.004 C 
ENDBRANCH   7   8
ENDBRANCH   6   7
ENDBRANCH   5   6
ENDBRANCH   4   5
ENDBRANCH   3   4
ENDBRANCH   2   3
ENDBRANCH   1   2
BRANCH   1  10
ATOM     10  C   UNL     1     136.689 142.071 139.066  1.00  0.00     0.000 C 
BRANCH  10  11
ATOM     11  C   UNL     1     137.256 140.688 138.697  1.00  0.00     0.000 C 
BRANCH  11  12
ATOM     12  C   UNL     1     136.733 139.566 139.607  1.00  0.00     0.000 C 
BRANCH  12  13
ATOM     13  C   UNL     1     135.322 139.885 140.115  1.00  0.00     0.000 C 
BRANCH  13  14
ATOM     14  C   UNL     1     135.262 139.821 141.649  1.00  0.00     0.002 C 
BRANCH  14  15
ATOM     15  C   UNL     1     136.441 139.043 142.255  1.00  0.00     0.028 C 
BRANCH  15  16
ATOM     16  C   UNL     1     136.825 139.540 143.651  1.00  0.00     0.156 C 
BRANCH  16  17
ATOM     17  O   UNL     1     135.974 140.588 144.021  1.00  0.00    -0.396 OA
ATOM     18  H   UNL     1     135.051 140.225 143.970  1.00  0.00     0.210 HD
ENDBRANCH  16  17
ENDBRANCH  15  16
ENDBRANCH  14  15
ENDBRANCH  13  14
ENDBRANCH  12  13
ENDBRANCH  11  12
ENDBRANCH  10  11
ENDBRANCH   1  10
TORSDOF 15
ENDMDL
MODEL 3
REMARK VINA RESULT:    -2.660      3.728      5.651
REMARK INTER + INTRA:          -7.152
REMARK INTER:                  -5.486
REMARK INTRA:                  -1.666
REMARK UNBOUND:                -2.238
REMARK SMILES CCCCCCCCCCCCCCCCO
REMARK SMILES IDX 9 1 8 2 7 3 6 4 5 5 4 6 3 7 2 8 1 9 10 10 11 11 12 12 13 13
REMARK SMILES IDX 14 14 15 15 16 16 17 17
REMARK H PARENT 17 18
REMARK Flexibility Score: inf
ROOT
ATOM      1  C   UNL     1     142.586 137.459 141.252  1.00  0.00     0.000 C 
ENDROOT
BRANCH   1   2
ATOM      2  C   UNL     1     143.623 138.482 141.755  1.00  0.00    -0.000 C 
BRANCH   2   3
ATOM      3  C   UNL     1     143.994 138.350 143.245  1.00  0.00    -0.000 C 
BRANCH   3   4
ATOM      4  C   UNL     1     143.584 139.548 144.125  1.00  0.00    -0.000 C 
BRANCH   4   5
ATOM      5  C   UNL     1     142.291 140.267 143.690  1.00  0.00    -0.000 C 
BRANCH   5   6
ATOM      6  C   UNL     1     142.489 141.708 143.189  1.00  0.00    -0.000 C 
BRANCH   6   7
ATOM      7  C   UNL     1     143.840 142.307 143.616  1.00  0.00    -0.000 C 
BRANCH   7   8
ATOM      8  C   UNL     1     144.646 142.849 142.425  1.00  0.00    -0.003 C 
ATOM      9  C   UNL     1     145.508 141.776 141.759  1.00  0.00     0.004 C 
ENDBRANCH   7   8
ENDBRANCH   6   7
ENDBRANCH   5   6
ENDBRANCH   4   5
ENDBRANCH   3   4
ENDBRANCH   2   3
ENDBRANCH   1   2
BRANCH   1  10
ATOM     10  C   UNL     1     142.469 136.175 142.100  1.00  0.00     0.000 C 
BRANCH  10  11
ATOM     11  C   UNL     1     141.342 136.187 143.148  1.00  0.00     0.000 C 
BRANCH  11  12
ATOM     12  C   UNL     1     140.249 137.221 142.837  1.00  0.00     0.000 C 
BRANCH  12  13
ATOM     13  C   UNL     1     139.580 137.716 144.125  1.00  0.00     0.000 C 
BRANCH  13  14
ATOM     14  C   UNL     1     138.104 138.066 143.879  1.00  0.00     0.002 C 
BRANCH  14  15
ATOM     15  C   UNL     1     137.860 138.649 142.478  1.00  0.00     0.028 C 
BRANCH  15  16
ATOM     16  C   UNL     1     136.380 138.923 142.199  1.00  0.00     0.156 C 
BRANCH  16  17
ATOM     17  O   UNL     1     136.144 140.301 142.260  1.00  0.00    -0.396 OA
ATOM     18  H   UNL     1     135.356 140.421 142.851  1.00  0.00     0.210 HD
ENDBRANCH  16  17
ENDBRANCH  15  16
ENDBRANCH  14  15
ENDBRANCH  13  14
ENDBRANCH  12  13
ENDBRANCH  11  12
ENDBRANCH  10  11
ENDBRANCH   1  10
TORSDOF 15
ENDMDL
MODEL 4
REMARK VINA RESULT:    -2.656      2.421      5.754
REMARK INTER + INTRA:          -7.145
REMARK INTER:                  -4.805
REMARK INTRA:                  -2.340
REMARK UNBOUND:                -2.238
REMARK SMILES CCCCCCCCCCCCCCCCO
REMARK SMILES IDX 9 1 8 2 7 3 6 4 5 5 4 6 3 7 2 8 1 9 10 10 11 11 12 12 13 13
REMARK SMILES IDX 14 14 15 15 16 16 17 17
REMARK H PARENT 17 18
REMARK Flexibility Score: inf
ROOT
ATOM      1  C   UNL     1     142.656 143.743 141.137  1.00  0.00     0.000 C 
ENDROOT
BRANCH   1   2
ATOM      2  C   UNL     1     141.623 142.892 140.373  1.00  0.00    -0.000 C 
BRANCH   2   3
ATOM      3  C   UNL     1     141.516 141.427 140.842  1.00  0.00    -0.000 C 
BRANCH   3   4
ATOM      4  C   UNL     1     140.116 140.999 141.323  1.00  0.00    -0.000 C 
BRANCH   4   5
ATOM      5  C   UNL     1     139.772 141.394 142.773  1.00  0.00    -0.000 C 
BRANCH   5   6
ATOM      6  C   UNL     1     138.524 142.282 142.925  1.00  0.00    -0.000 C 
BRANCH   6   7
ATOM      7  C   UNL     1     138.872 143.761 143.170  1.00  0.00    -0.000 C 
BRANCH   7   8
ATOM      8  C   UNL     1     138.783 144.607 141.891  1.00  0.00    -0.003 C 
ATOM      9  C   UNL     1     139.619 145.884 141.970  1.00  0.00     0.004 C 
ENDBRANCH   7   8
ENDBRANCH   6   7
ENDBRANCH   5   6
ENDBRANCH   4   5
ENDBRANCH   3   4
ENDBRANCH   2   3
ENDBRANCH   1   2
BRANCH   1  10
ATOM     10  C   UNL     1     142.502 143.737 142.671  1.00  0.00     0.000 C 
BRANCH  10  11
ATOM     11  C   UNL     1     143.758 143.307 143.450  1.00  0.00     0.000 C 
BRANCH  11  12
ATOM     12  C   UNL     1     143.827 141.790 143.682  1.00  0.00     0.000 C 
BRANCH  12  13
ATOM     13  C   UNL     1     144.781 141.125 142.683  1.00  0.00     0.000 C 
BRANCH  13  14
ATOM     14  C   UNL     1     145.879 142.103 142.236  1.00  0.00     0.002 C 
BRANCH  14  15
ATOM     15  C   UNL     1     146.463 141.748 140.860  1.00  0.00     0.028 C 
BRANCH  15  16
ATOM     16  C   UNL     1     145.386 141.528 139.796  1.00  0.00     0.156 C 
BRANCH  16  17
ATOM     17  O   UNL     1     145.214 142.707 139.059  1.00  0.00    -0.396 OA
ATOM     18  H   UNL     1     145.550 142.512 138.145  1.00  0.00     0.210 HD
ENDBRANCH  16  17
ENDBRANCH  15  16
ENDBRANCH  14  15
ENDBRANCH  13  14
ENDBRANCH  12  13
ENDBRANCH  11  12
ENDBRANCH  10  11
ENDBRANCH   1  10
TORSDOF 15
ENDMDL
MODEL 5
REMARK VINA RESULT:    -2.642      2.884      5.813
REMARK INTER + INTRA:          -7.119
REMARK INTER:                  -4.926
REMARK INTRA:                  -2.193
REMARK UNBOUND:                -2.238
REMARK SMILES CCCCCCCCCCCCCCCCO
REMARK SMILES IDX 9 1 8 2 7 3 6 4 5 5 4 6 3 7 2 8 1 9 10 10 11 11 12 12 13 13
REMARK SMILES IDX 14 14 15 15 16 16 17 17
REMARK H PARENT 17 18
REMARK Flexibility Score: inf
ROOT
ATOM      1  C   UNL     1     141.359 143.718 140.554  1.00  0.00     0.000 C 
ENDROOT
BRANCH   1   2
ATOM      2  C   UNL     1     140.736 145.128 140.576  1.00  0.00    -0.000 C 
BRANCH   2   3
ATOM      3  C   UNL     1     139.528 145.288 141.521  1.00  0.00    -0.000 C 
BRANCH   3   4
ATOM      4  C   UNL     1     139.887 145.599 142.987  1.00  0.00    -0.000 C 
BRANCH   4   5
ATOM      5  C   UNL     1     139.377 144.572 144.018  1.00  0.00    -0.000 C 
BRANCH   5   6
ATOM      6  C   UNL     1     138.275 143.629 143.502  1.00  0.00    -0.000 C 
BRANCH   6   7
ATOM      7  C   UNL     1     138.558 142.151 143.823  1.00  0.00    -0.000 C 
BRANCH   7   8
ATOM      8  C   UNL     1     140.061 141.835 143.860  1.00  0.00    -0.003 C 
ATOM      9  C   UNL     1     140.494 140.899 142.731  1.00  0.00     0.004 C 
ENDBRANCH   7   8
ENDBRANCH   6   7
ENDBRANCH   5   6
ENDBRANCH   4   5
ENDBRANCH   3   4
ENDBRANCH   2   3
ENDBRANCH   1   2
BRANCH   1  10
ATOM     10  C   UNL     1     142.825 143.644 141.029  1.00  0.00     0.000 C 
BRANCH  10  11
ATOM     11  C   UNL     1     143.019 143.701 142.555  1.00  0.00     0.000 C 
BRANCH  11  12
ATOM     12  C   UNL     1     144.263 142.934 143.027  1.00  0.00     0.000 C 
BRANCH  12  13
ATOM     13  C   UNL     1     143.896 141.898 144.097  1.00  0.00     0.000 C 
BRANCH  13  14
ATOM     14  C   UNL     1     144.456 140.514 143.736  1.00  0.00     0.002 C 
BRANCH  14  15
ATOM     15  C   UNL     1     144.092 140.082 142.307  1.00  0.00     0.028 C 
BRANCH  15  16
ATOM     16  C   UNL     1     143.684 138.609 142.217  1.00  0.00     0.156 C 
BRANCH  16  17
ATOM     17  O   UNL     1     143.152 138.199 143.446  1.00  0.00    -0.396 OA
ATOM     18  H   UNL     1     142.350 137.654 143.231  1.00  0.00     0.210 HD
ENDBRANCH  16  17
ENDBRANCH  15  16
ENDBRANCH  14  15
ENDBRANCH  13  14
ENDBRANCH  12  13
ENDBRANCH  11  12
ENDBRANCH  10  11
ENDBRANCH   1  10
TORSDOF 15
ENDMDL
MODEL 6
REMARK VINA RESULT:    -2.625      3.125      6.255
REMARK INTER + INTRA:          -7.089
REMARK INTER:                  -5.291
REMARK INTRA:                  -1.797
REMARK UNBOUND:                -2.238
REMARK SMILES CCCCCCCCCCCCCCCCO
REMARK SMILES IDX 9 1 8 2 7 3 6 4 5 5 4 6 3 7 2 8 1 9 10 10 11 11 12 12 13 13
REMARK SMILES IDX 14 14 15 15 16 16 17 17
REMARK H PARENT 17 18
REMARK Flexibility Score: inf
ROOT
ATOM      1  C   UNL     1     140.669 144.628 142.219  1.00  0.00     0.000 C 
ENDROOT
BRANCH   1   2
ATOM      2  C   UNL     1     139.148 144.815 142.052  1.00  0.00    -0.000 C 
BRANCH   2   3
ATOM      3  C   UNL     1     138.332 143.507 142.028  1.00  0.00    -0.000 C 
BRANCH   3   4
ATOM      4  C   UNL     1     137.797 143.049 143.400  1.00  0.00    -0.000 C 
BRANCH   4   5
ATOM      5  C   UNL     1     137.309 141.588 143.457  1.00  0.00    -0.000 C 
BRANCH   5   6
ATOM      6  C   UNL     1     138.344 140.578 143.984  1.00  0.00    -0.000 C 
BRANCH   6   7
ATOM      7  C   UNL     1     139.750 141.187 144.125  1.00  0.00    -0.000 C 
BRANCH   7   8
ATOM      8  C   UNL     1     140.805 140.427 143.306  1.00  0.00    -0.003 C 
ATOM      9  C   UNL     1     140.909 140.932 141.866  1.00  0.00     0.004 C 
ENDBRANCH   7   8
ENDBRANCH   6   7
ENDBRANCH   5   6
ENDBRANCH   4   5
ENDBRANCH   3   4
ENDBRANCH   2   3
ENDBRANCH   1   2
BRANCH   1  10
ATOM     10  C   UNL     1     141.194 144.795 143.659  1.00  0.00     0.000 C 
BRANCH  10  11
ATOM     11  C   UNL     1     142.304 143.809 144.066  1.00  0.00     0.000 C 
BRANCH  11  12
ATOM     12  C   UNL     1     143.430 143.715 143.026  1.00  0.00     0.000 C 
BRANCH  12  13
ATOM     13  C   UNL     1     144.196 142.395 143.163  1.00  0.00     0.000 C 
BRANCH  13  14
ATOM     14  C   UNL     1     145.424 142.372 142.240  1.00  0.00     0.002 C 
BRANCH  14  15
ATOM     15  C   UNL     1     145.295 141.340 141.108  1.00  0.00     0.028 C 
BRANCH  15  16
ATOM     16  C   UNL     1     146.446 141.415 140.103  1.00  0.00     0.156 C 
BRANCH  16  17
ATOM     17  O   UNL     1     147.272 142.500 140.422  1.00  0.00    -0.396 OA
ATOM     18  H   UNL     1     147.830 142.206 141.189  1.00  0.00     0.210 HD
ENDBRANCH  16  17
ENDBRANCH  15  16
ENDBRANCH  14  15
ENDBRANCH  13  14
ENDBRANCH  12  13
ENDBRANCH  11  12
ENDBRANCH  10  11
ENDBRANCH   1  10
TORSDOF 15
ENDMDL
MODEL 7
REMARK VINA RESULT:    -2.601      2.927      5.492
REMARK INTER + INTRA:          -7.043
REMARK INTER:                  -5.060
REMARK INTRA:                  -1.983
REMARK UNBOUND:                -2.238
REMARK SMILES CCCCCCCCCCCCCCCCO
REMARK SMILES IDX 9 1 8 2 7 3 6 4 5 5 4 6 3 7 2 8 1 9 10 10 11 11 12 12 13 13
REMARK SMILES IDX 14 14 15 15 16 16 17 17
REMARK H PARENT 17 18
REMARK Flexibility Score: inf
ROOT
ATOM      1  C   UNL     1     145.468 142.327 142.317  1.00  0.00     0.000 C 
ENDROOT
BRANCH   1   2
ATOM      2  C   UNL     1     146.403 141.787 141.217  1.00  0.00    -0.000 C 
BRANCH   2   3
ATOM      3  C   UNL     1     145.783 141.739 139.806  1.00  0.00    -0.000 C 
BRANCH   3   4
ATOM      4  C   UNL     1     144.251 141.904 139.764  1.00  0.00    -0.000 C 
BRANCH   4   5
ATOM      5  C   UNL     1     143.753 143.256 139.214  1.00  0.00    -0.000 C 
BRANCH   5   6
ATOM      6  C   UNL     1     142.904 144.082 140.197  1.00  0.00    -0.000 C 
BRANCH   6   7
ATOM      7  C   UNL     1     142.127 143.206 141.195  1.00  0.00    -0.000 C 
BRANCH   7   8
ATOM      8  C   UNL     1     141.542 144.018 142.360  1.00  0.00    -0.003 C 
ATOM      9  C   UNL     1     142.479 144.076 143.567  1.00  0.00     0.004 C 
ENDBRANCH   7   8
ENDBRANCH   6   7
ENDBRANCH   5   6
ENDBRANCH   4   5
ENDBRANCH   3   4
ENDBRANCH   2   3
ENDBRANCH   1   2
BRANCH   1  10
ATOM     10  C   UNL     1     145.523 141.562 143.655  1.00  0.00     0.000 C 
BRANCH  10  11
ATOM     11  C   UNL     1     144.762 140.224 143.671  1.00  0.00     0.000 C 
BRANCH  11  12
ATOM     12  C   UNL     1     143.252 140.393 143.446  1.00  0.00     0.000 C 
BRANCH  12  13
ATOM     13  C   UNL     1     142.809 139.697 142.153  1.00  0.00     0.000 C 
BRANCH  13  14
ATOM     14  C   UNL     1     141.694 138.677 142.432  1.00  0.00     0.002 C 
BRANCH  14  15
ATOM     15  C   UNL     1     141.742 138.125 143.866  1.00  0.00     0.028 C 
BRANCH  15  16
ATOM     16  C   UNL     1     141.966 136.612 143.912  1.00  0.00     0.156 C 
BRANCH  16  17
ATOM     17  O   UNL     1     142.949 136.260 142.980  1.00  0.00    -0.396 OA
ATOM     18  H   UNL     1     142.577 136.484 142.087  1.00  0.00     0.210 HD
ENDBRANCH  16  17
ENDBRANCH  15  16
ENDBRANCH  14  15
ENDBRANCH  13  14
ENDBRANCH  12  13
ENDBRANCH  11  12
ENDBRANCH  10  11
ENDBRANCH   1  10
TORSDOF 15
ENDMDL
MODEL 8
REMARK VINA RESULT:    -2.598      3.671      5.124
REMARK INTER + INTRA:          -7.039
REMARK INTER:                  -4.554
REMARK INTRA:                  -2.485
REMARK UNBOUND:                -2.238
REMARK SMILES CCCCCCCCCCCCCCCCO
REMARK SMILES IDX 9 1 8 2 7 3 6 4 5 5 4 6 3 7 2 8 1 9 10 10 11 11 12 12 13 13
REMARK SMILES IDX 14 14 15 15 16 16 17 17
REMARK H PARENT 17 18
REMARK Flexibility Score: inf
ROOT
ATOM      1  C   UNL     1     138.534 141.014 140.338  1.00  0.00     0.000 C 
ENDROOT
BRANCH   1   2
ATOM      2  C   UNL     1     140.050 141.293 140.329  1.00  0.00    -0.000 C 
BRANCH   2   3
ATOM      3  C   UNL     1     140.887 140.357 141.224  1.00  0.00    -0.000 C 
BRANCH   3   4
ATOM      4  C   UNL     1     140.815 140.665 142.733  1.00  0.00    -0.000 C 
BRANCH   4   5
ATOM      5  C   UNL     1     140.070 139.614 143.580  1.00  0.00    -0.000 C 
BRANCH   5   6
ATOM      6  C   UNL     1     139.648 138.346 142.816  1.00  0.00    -0.000 C 
BRANCH   6   7
ATOM      7  C   UNL     1     138.192 137.936 143.099  1.00  0.00    -0.000 C 
BRANCH   7   8
ATOM      8  C   UNL     1     137.263 139.148 143.270  1.00  0.00    -0.003 C 
ATOM      9  C   UNL     1     136.078 139.122 142.305  1.00  0.00     0.004 C 
ENDBRANCH   7   8
ENDBRANCH   6   7
ENDBRANCH   5   6
ENDBRANCH   4   5
ENDBRANCH   3   4
ENDBRANCH   2   3
ENDBRANCH   1   2
BRANCH   1  10
ATOM     10  C   UNL     1     137.654 142.197 140.789  1.00  0.00     0.000 C 
BRANCH  10  11
ATOM     11  C   UNL     1     137.906 142.685 142.227  1.00  0.00     0.000 C 
BRANCH  11  12
ATOM     12  C   UNL     1     138.351 144.154 142.289  1.00  0.00     0.000 C 
BRANCH  12  13
ATOM     13  C   UNL     1     139.774 144.274 142.847  1.00  0.00     0.000 C 
BRANCH  13  14
ATOM     14  C   UNL     1     140.764 144.683 141.745  1.00  0.00     0.002 C 
BRANCH  14  15
ATOM     15  C   UNL     1     140.071 144.981 140.407  1.00  0.00     0.028 C 
BRANCH  15  16
ATOM     16  C   UNL     1     140.179 146.451 139.996  1.00  0.00     0.156 C 
BRANCH  16  17
ATOM     17  O   UNL     1     139.275 147.211 140.748  1.00  0.00    -0.396 OA
ATOM     18  H   UNL     1     139.254 148.111 140.328  1.00  0.00     0.210 HD
ENDBRANCH  16  17
ENDBRANCH  15  16
ENDBRANCH  14  15
ENDBRANCH  13  14
ENDBRANCH  12  13
ENDBRANCH  11  12
ENDBRANCH  10  11
ENDBRANCH   1  10
TORSDOF 15
ENDMDL
MODEL 9
REMARK VINA RESULT:    -2.590      2.993      5.737
REMARK INTER + INTRA:          -7.024
REMARK INTER:                  -4.675
REMARK INTRA:                  -2.349
REMARK UNBOUND:                -2.238
REMARK SMILES CCCCCCCCCCCCCCCCO
REMARK SMILES IDX 9 1 8 2 7 3 6 4 5 5 4 6 3 7 2 8 1 9 10 10 11 11 12 12 13 13
REMARK SMILES IDX 14 14 15 15 16 16 17 17
REMARK H PARENT 17 18
REMARK Flexibility Score: inf
ROOT
ATOM      1  C   UNL     1     141.504 138.228 141.614  1.00  0.00     0.000 C 
ENDROOT
BRANCH   1   2
ATOM      2  C   UNL     1     141.413 138.693 143.081  1.00  0.00    -0.000 C 
BRANCH   2   3
ATOM      3  C   UNL     1     142.028 140.078 143.362  1.00  0.00    -0.000 C 
BRANCH   3   4
ATOM      4  C   UNL     1     143.416 140.049 144.033  1.00  0.00    -0.000 C 
BRANCH   4   5
ATOM      5  C   UNL     1     144.600 140.375 143.102  1.00  0.00    -0.000 C 
BRANCH   5   6
ATOM      6  C   UNL     1     145.242 141.756 143.329  1.00  0.00    -0.000 C 
BRANCH   6   7
ATOM      7  C   UNL     1     144.834 142.785 142.260  1.00  0.00    -0.000 C 
BRANCH   7   8
ATOM      8  C   UNL     1     143.526 143.510 142.610  1.00  0.00    -0.003 C 
ATOM      9  C   UNL     1     142.472 143.389 141.509  1.00  0.00     0.004 C 
ENDBRANCH   7   8
ENDBRANCH   6   7
ENDBRANCH   5   6
ENDBRANCH   4   5
ENDBRANCH   3   4
ENDBRANCH   2   3
ENDBRANCH   1   2
BRANCH   1  10
ATOM     10  C   UNL     1     142.852 137.595 141.212  1.00  0.00     0.000 C 
BRANCH  10  11
ATOM     11  C   UNL     1     143.644 138.372 140.145  1.00  0.00     0.000 C 
BRANCH  11  12
ATOM     12  C   UNL     1     142.964 139.688 139.738  1.00  0.00     0.000 C 
BRANCH  12  13
ATOM     13  C   UNL     1     144.002 140.738 139.326  1.00  0.00     0.000 C 
BRANCH  13  14
ATOM     14  C   UNL     1     145.429 140.191 139.482  1.00  0.00     0.002 C 
BRANCH  14  15
ATOM     15  C   UNL     1     146.492 141.132 138.893  1.00  0.00     0.028 C 
BRANCH  15  16
ATOM     16  C   UNL     1     147.440 141.695 139.955  1.00  0.00     0.156 C 
BRANCH  16  17
ATOM     17  O   UNL     1     148.098 142.819 139.440  1.00  0.00    -0.396 OA
ATOM     18  H   UNL     1     148.534 142.523 138.599  1.00  0.00     0.210 HD
ENDBRANCH  16  17
ENDBRANCH  15  16
ENDBRANCH  14  15
ENDBRANCH  13  14
ENDBRANCH  12  13
ENDBRANCH  11  12
ENDBRANCH  10  11
ENDBRANCH   1  10
TORSDOF 15
ENDMDL
