MODEL 1
REMARK VINA RESULT:    -2.245      0.000      0.000
REMARK INTER + INTRA:          -2.654
REMARK INTER:                  -2.638
REMARK INTRA:                  -0.016
REMARK UNBOUND:                -0.016
REMARK SMILES CCCCC(=O)[O-]
REMARK SMILES IDX 4 1 5 2 6 3 7 4 3 5 2 6 1 7
REMARK H PARENT
REMARK Flexibility Score: inf
ROOT
ATOM      1  C   UNL     1       4.555  16.703   7.104  1.00  0.00     0.053 C 
ENDROOT
BRANCH   1   2
ATOM      2  C   UNL     1       4.110  15.478   7.841  1.00  0.00     0.041 C 
ATOM      3  O   UNL     1       4.241  15.409   9.091  1.00  0.00    -0.550 OA
ATOM      4  O   UNL     1       3.598  14.394   7.141  1.00  0.00    -0.550 OA
ENDBRANCH   1   2
BRANCH   1   5
ATOM      5  C   UNL     1       3.623  17.881   7.412  1.00  0.00     0.006 C 
BRANCH   5   6
ATOM      6  C   UNL     1       3.547  18.890   6.257  1.00  0.00    -0.003 C 
ATOM      7  C   UNL     1       2.287  19.753   6.308  1.00  0.00     0.004 C 
ENDBRANCH   5   6
ENDBRANCH   1   5
TORSDOF 3
ENDMDL
MODEL 2
REMARK VINA RESULT:    -2.134      7.811      8.118
REMARK INTER + INTRA:          -2.524
REMARK INTER:                  -2.494
REMARK INTRA:                  -0.030
REMARK UNBOUND:                -0.016
REMARK SMILES CCCCC(=O)[O-]
REMARK SMILES IDX 4 1 5 2 6 3 7 4 3 5 2 6 1 7
REMARK H PARENT
REMARK Flexibility Score: inf
ROOT
ATOM      1  C   UNL     1      -3.213  13.965  10.592  1.00  0.00     0.053 C 
ENDROOT
BRANCH   1   2
ATOM      2  C   UNL     1      -3.033  12.480  10.615  1.00  0.00     0.041 C 
ATOM      3  O   UNL     1      -3.019  11.861  11.712  1.00  0.00    -0.550 OA
ATOM      4  O   UNL     1      -2.830  11.786   9.430  1.00  0.00    -0.550 OA
ENDBRANCH   1   2
BRANCH   1   5
ATOM      5  C   UNL     1      -3.073  14.500   9.162  1.00  0.00     0.006 C 
BRANCH   5   6
ATOM      6  C   UNL     1      -4.131  15.559   8.822  1.00  0.00    -0.003 C 
ATOM      7  C   UNL     1      -3.897  16.212   7.460  1.00  0.00     0.004 C 
ENDBRANCH   5   6
ENDBRANCH   1   5
TORSDOF 3
ENDMDL
MODEL 3
REMARK VINA RESULT:    -2.109      2.016      3.109
REMARK INTER + INTRA:          -2.494
REMARK INTER:                  -2.455
REMARK INTRA:                  -0.040
REMARK UNBOUND:                -0.016
REMARK SMILES CCCCC(=O)[O-]
REMARK SMILES IDX 4 1 5 2 6 3 7 4 3 5 2 6 1 7
REMARK H PARENT
REMARK Flexibility Score: inf
ROOT
ATOM      1  C   UNL     1       3.285  19.021   6.415  1.00  0.00     0.053 C 
ENDROOT
BRANCH   1   2
ATOM      2  C   UNL     1       3.568  18.433   7.762  1.00  0.00     0.041 C 
ATOM      3  O   UNL     1       4.045  17.271   7.857  1.00  0.00    -0.550 OA
ATOM      4  O   UNL     1       3.257  19.146   8.912  1.00  0.00    -0.550 OA
ENDBRANCH   1   2
BRANCH   1   5
ATOM      5  C   UNL     1       1.959  19.790   6.434  1.00  0.00     0.006 C 
BRANCH   5   6
ATOM      6  C   UNL     1       1.857  20.819   5.298  1.00  0.00    -0.003 C 
ATOM      7  C   UNL     1       3.141  20.919   4.476  1.00  0.00     0.004 C 
ENDBRANCH   5   6
ENDBRANCH   1   5
TORSDOF 3
ENDMDL
MODEL 4
REMARK VINA RESULT:    -2.075      1.885      2.623
REMARK INTER + INTRA:          -2.455
REMARK INTER:                  -2.415
REMARK INTRA:                  -0.040
REMARK UNBOUND:                -0.016
REMARK SMILES CCCCC(=O)[O-]
REMARK SMILES IDX 4 1 5 2 6 3 7 4 3 5 2 6 1 7
REMARK H PARENT
REMARK Flexibility Score: inf
ROOT
ATOM      1  C   UNL     1       3.202  18.839   6.880  1.00  0.00     0.053 C 
ENDROOT
BRANCH   1   2
ATOM      2  C   UNL     1       4.174  17.706   6.784  1.00  0.00     0.041 C 
ATOM      3  O   UNL     1       5.134  17.762   5.971  1.00  0.00    -0.550 OA
ATOM      4  O   UNL     1       3.992  16.566   7.557  1.00  0.00    -0.550 OA
ENDBRANCH   1   2
BRANCH   1   5
ATOM      5  C   UNL     1       3.348  19.774   5.673  1.00  0.00     0.006 C 
BRANCH   5   6
ATOM      6  C   UNL     1       2.060  20.554   5.372  1.00  0.00    -0.003 C 
ATOM      7  C   UNL     1       0.967  20.314   6.414  1.00  0.00     0.004 C 
ENDBRANCH   5   6
ENDBRANCH   1   5
TORSDOF 3
ENDMDL
MODEL 5
REMARK VINA RESULT:    -2.072      1.339      1.936
REMARK INTER + INTRA:          -2.451
REMARK INTER:                  -2.436
REMARK INTRA:                  -0.015
REMARK UNBOUND:                -0.016
REMARK SMILES CCCCC(=O)[O-]
REMARK SMILES IDX 4 1 5 2 6 3 7 4 3 5 2 6 1 7
REMARK H PARENT
REMARK Flexibility Score: inf
ROOT
ATOM      1  C   UNL     1       4.064  15.527   7.741  1.00  0.00     0.053 C 
ENDROOT
BRANCH   1   2
ATOM      2  C   UNL     1       4.504  14.330   6.957  1.00  0.00     0.041 C 
ATOM      3  O   UNL     1       3.650  13.554   6.454  1.00  0.00    -0.550 OA
ATOM      4  O   UNL     1       5.856  14.044   6.826  1.00  0.00    -0.550 OA
ENDBRANCH   1   2
BRANCH   1   5
ATOM      5  C   UNL     1       4.446  16.818   7.007  1.00  0.00     0.006 C 
BRANCH   5   6
ATOM      6  C   UNL     1       3.671  18.040   7.520  1.00  0.00    -0.003 C 
ATOM      7  C   UNL     1       3.289  19.009   6.402  1.00  0.00     0.004 C 
ENDBRANCH   5   6
ENDBRANCH   1   5
TORSDOF 3
ENDMDL
MODEL 6
REMARK VINA RESULT:    -2.062      9.319     10.855
REMARK INTER + INTRA:          -2.439
REMARK INTER:                  -2.422
REMARK INTRA:                  -0.017
REMARK UNBOUND:                -0.016
REMARK SMILES CCCCC(=O)[O-]
REMARK SMILES IDX 4 1 5 2 6 3 7 4 3 5 2 6 1 7
REMARK H PARENT
REMARK Flexibility Score: inf
ROOT
ATOM      1  C   UNL     1      -3.691   9.842   9.096  1.00  0.00     0.053 C 
ENDROOT
BRANCH   1   2
ATOM      2  C   UNL     1      -3.485  11.231   8.578  1.00  0.00     0.041 C 
ATOM      3  O   UNL     1      -3.862  11.536   7.416  1.00  0.00    -0.550 OA
ATOM      4  O   UNL     1      -2.831  12.174   9.360  1.00  0.00    -0.550 OA
ENDBRANCH   1   2
BRANCH   1   5
ATOM      5  C   UNL     1      -3.254   8.810   8.049  1.00  0.00     0.006 C 
BRANCH   5   6
ATOM      6  C   UNL     1      -2.852   7.468   8.677  1.00  0.00    -0.003 C 
ATOM      7  C   UNL     1      -1.744   6.759   7.898  1.00  0.00     0.004 C 
ENDBRANCH   5   6
ENDBRANCH   1   5
TORSDOF 3
ENDMDL
MODEL 7
REMARK VINA RESULT:    -2.053      7.646      7.978
REMARK INTER + INTRA:          -2.429
REMARK INTER:                  -2.379
REMARK INTRA:                  -0.049
REMARK UNBOUND:                -0.016
REMARK SMILES CCCCC(=O)[O-]
REMARK SMILES IDX 4 1 5 2 6 3 7 4 3 5 2 6 1 7
REMARK H PARENT
REMARK Flexibility Score: inf
ROOT
ATOM      1  C   UNL     1      -3.070  14.468   9.245  1.00  0.00     0.053 C 
ENDROOT
BRANCH   1   2
ATOM      2  C   UNL     1      -3.598  13.082   9.045  1.00  0.00     0.041 C 
ATOM      3  O   UNL     1      -2.861  12.086   9.268  1.00  0.00    -0.550 OA
ATOM      4  O   UNL     1      -4.887  12.891   8.565  1.00  0.00    -0.550 OA
ENDBRANCH   1   2
BRANCH   1   5
ATOM      5  C   UNL     1      -4.050  15.502   8.678  1.00  0.00     0.006 C 
BRANCH   5   6
ATOM      6  C   UNL     1      -3.629  16.016   7.294  1.00  0.00    -0.003 C 
ATOM      7  C   UNL     1      -4.091  17.449   7.030  1.00  0.00     0.004 C 
ENDBRANCH   5   6
ENDBRANCH   1   5
TORSDOF 3
ENDMDL
MODEL 8
REMARK VINA RESULT:    -1.924      8.879     10.154
REMARK INTER + INTRA:          -2.278
REMARK INTER:                  -2.260
REMARK INTRA:                  -0.018
REMARK UNBOUND:                -0.016
REMARK SMILES CCCCC(=O)[O-]
REMARK SMILES IDX 4 1 5 2 6 3 7 4 3 5 2 6 1 7
REMARK H PARENT
REMARK Flexibility Score: inf
ROOT
ATOM      1  C   UNL     1      -3.426  11.346   9.523  1.00  0.00     0.053 C 
ENDROOT
BRANCH   1   2
ATOM      2  C   UNL     1      -3.524  12.736   8.977  1.00  0.00     0.041 C 
ATOM      3  O   UNL     1      -2.768  13.643   9.414  1.00  0.00    -0.550 OA
ATOM      4  O   UNL     1      -4.484  13.041   8.021  1.00  0.00    -0.550 OA
ENDBRANCH   1   2
BRANCH   1   5
ATOM      5  C   UNL     1      -3.589  10.316   8.399  1.00  0.00     0.006 C 
BRANCH   5   6
ATOM      6  C   UNL     1      -3.560   8.870   8.916  1.00  0.00    -0.003 C 
ATOM      7  C   UNL     1      -2.753   7.936   8.014  1.00  0.00     0.004 C 
ENDBRANCH   5   6
ENDBRANCH   1   5
TORSDOF 3
ENDMDL
MODEL 9
REMARK VINA RESULT:    -1.894      2.322      2.845
REMARK INTER + INTRA:          -2.242
REMARK INTER:                  -2.208
REMARK INTRA:                  -0.034
REMARK UNBOUND:                -0.016
REMARK SMILES CCCCC(=O)[O-]
REMARK SMILES IDX 4 1 5 2 6 3 7 4 3 5 2 6 1 7
REMARK H PARENT
REMARK Flexibility Score: inf
ROOT
ATOM      1  C   UNL     1       4.062  15.595   7.853  1.00  0.00     0.053 C 
ENDROOT
BRANCH   1   2
ATOM      2  C   UNL     1       4.535  14.382   7.114  1.00  0.00     0.041 C 
ATOM      3  O   UNL     1       5.767  14.189   6.938  1.00  0.00    -0.550 OA
ATOM      4  O   UNL     1       3.615  13.492   6.578  1.00  0.00    -0.550 OA
ENDBRANCH   1   2
BRANCH   1   5
ATOM      5  C   UNL     1       4.457  15.509   9.332  1.00  0.00     0.006 C 
BRANCH   5   6
ATOM      6  C   UNL     1       4.297  16.850  10.064  1.00  0.00    -0.003 C 
ATOM      7  C   UNL     1       4.028  18.014   9.111  1.00  0.00     0.004 C 
ENDBRANCH   5   6
ENDBRANCH   1   5
TORSDOF 3
ENDMDL
