MODEL 1
REMARK VINA RESULT:    -4.575      0.000      0.000
REMARK INTER + INTRA:          -9.355
REMARK INTER:                  -6.982
REMARK INTRA:                  -2.373
REMARK UNBOUND:                -2.373
REMARK SMILES CC(=O)CCC=C(C)CCC=C(C)CCC=C(C)C
REMARK SMILES IDX 10 1 11 2 12 3 13 4 14 5 15 6 16 7 18 8 17 9 19 10 9 11 7 12
REMARK SMILES IDX 6 13 8 14 5 15 4 16 2 17 3 18 1 19
REMARK H PARENT
REMARK Flexibility Score: inf
ROOT
ATOM      1  C   UNL     1     -12.480  11.217 -19.946  1.00  0.00     0.032 C 
ENDROOT
BRANCH   1   2
ATOM      2  C   UNL     1     -13.059   9.948 -20.525  1.00  0.00    -0.028 C 
ATOM      3  C   UNL     1     -12.365   9.020 -21.224  1.00  0.00    -0.077 C 
ATOM      4  C   UNL     1     -13.123   7.852 -21.801  1.00  0.00     0.039 C 
BRANCH   3   5
ATOM      5  C   UNL     1     -10.861   9.075 -21.427  1.00  0.00     0.034 C 
BRANCH   5   6
ATOM      6  C   UNL     1     -10.482   9.013 -22.913  1.00  0.00     0.032 C 
BRANCH   6   7
ATOM      7  C   UNL     1      -9.759  10.263 -23.352  1.00  0.00    -0.028 C 
ATOM      8  C   UNL     1     -11.778  11.287 -24.426  1.00  0.00     0.039 C 
ATOM      9  C   UNL     1     -10.315  11.276 -24.054  1.00  0.00    -0.080 C 
ATOM     10  C   UNL     1      -9.435  12.427 -24.471  1.00  0.00     0.039 C 
ENDBRANCH   6   7
ENDBRANCH   5   6
ENDBRANCH   3   5
ENDBRANCH   1   2
BRANCH   1  11
ATOM     11  C   UNL     1     -13.110  12.467 -20.579  1.00  0.00     0.034 C 
BRANCH  11  12
ATOM     12  C   UNL     1     -12.080  13.318 -21.294  1.00  0.00    -0.077 C 
ATOM     13  C   UNL     1     -12.494  14.206 -22.226  1.00  0.00    -0.028 C 
ATOM     14  C   UNL     1     -10.618  13.131 -20.962  1.00  0.00     0.039 C 
BRANCH  13  15
ATOM     15  C   UNL     1     -11.583  15.144 -22.982  1.00  0.00     0.035 C 
BRANCH  15  16
ATOM     16  C   UNL     1     -11.999  16.610 -22.799  1.00  0.00     0.079 C 
BRANCH  16  17
ATOM     17  C   UNL     1     -13.350  16.884 -23.408  1.00  0.00     0.130 C 
ATOM     18  O   UNL     1     -14.272  17.243 -22.692  1.00  0.00    -0.300 OA
ATOM     19  C   UNL     1     -13.587  16.725 -24.881  1.00  0.00     0.087 C 
ENDBRANCH  16  17
ENDBRANCH  15  16
ENDBRANCH  13  15
ENDBRANCH  11  12
ENDBRANCH   1  11
TORSDOF 9
ENDMDL
MODEL 2
REMARK VINA RESULT:    -4.339      5.497      7.785
REMARK INTER + INTRA:          -8.995
REMARK INTER:                  -7.158
REMARK INTRA:                  -1.838
REMARK UNBOUND:                -2.373
REMARK SMILES CC(=O)CCC=C(C)CCC=C(C)CCC=C(C)C
REMARK SMILES IDX 10 1 11 2 12 3 13 4 14 5 15 6 16 7 18 8 17 9 19 10 9 11 7 12
REMARK SMILES IDX 6 13 8 14 5 15 4 16 2 17 3 18 1 19
REMARK H PARENT
REMARK Flexibility Score: inf
ROOT
ATOM      1  C   UNL     1      -3.637  10.157 -25.161  1.00  0.00     0.032 C 
ENDROOT
BRANCH   1   2
ATOM      2  C   UNL     1      -4.660   9.510 -26.063  1.00  0.00    -0.028 C 
ATOM      3  C   UNL     1      -5.844   8.994 -25.659  1.00  0.00    -0.077 C 
ATOM      4  C   UNL     1      -6.707   8.308 -26.687  1.00  0.00     0.039 C 
BRANCH   3   5
ATOM      5  C   UNL     1      -6.363   9.101 -24.236  1.00  0.00     0.034 C 
BRANCH   5   6
ATOM      6  C   UNL     1      -7.743   9.770 -24.179  1.00  0.00     0.032 C 
BRANCH   6   7
ATOM      7  C   UNL     1      -7.652  11.249 -24.462  1.00  0.00    -0.028 C 
ATOM      8  C   UNL     1     -10.089  11.673 -24.063  1.00  0.00     0.039 C 
ATOM      9  C   UNL     1      -8.696  12.109 -24.444  1.00  0.00    -0.080 C 
ATOM     10  C   UNL     1      -8.444  13.548 -24.816  1.00  0.00     0.039 C 
ENDBRANCH   6   7
ENDBRANCH   5   6
ENDBRANCH   3   5
ENDBRANCH   1   2
BRANCH   1  11
ATOM     11  C   UNL     1      -3.242  11.555 -25.661  1.00  0.00     0.034 C 
BRANCH  11  12
ATOM     12  C   UNL     1      -3.435  12.612 -24.593  1.00  0.00    -0.077 C 
ATOM     13  C   UNL     1      -4.608  13.282 -24.536  1.00  0.00    -0.028 C 
ATOM     14  C   UNL     1      -2.302  12.903 -23.637  1.00  0.00     0.039 C 
BRANCH  13  15
ATOM     15  C   UNL     1      -4.951  14.327 -23.500  1.00  0.00     0.035 C 
BRANCH  15  16
ATOM     16  C   UNL     1      -5.229  15.693 -24.143  1.00  0.00     0.079 C 
BRANCH  16  17
ATOM     17  C   UNL     1      -3.951  16.419 -24.479  1.00  0.00     0.130 C 
ATOM     18  O   UNL     1      -3.272  16.889 -23.580  1.00  0.00    -0.300 OA
ATOM     19  C   UNL     1      -3.496  16.577 -25.900  1.00  0.00     0.087 C 
ENDBRANCH  16  17
ENDBRANCH  15  16
ENDBRANCH  13  15
ENDBRANCH  11  12
ENDBRANCH   1  11
TORSDOF 9
ENDMDL
MODEL 3
REMARK VINA RESULT:    -4.280      4.379      6.635
REMARK INTER + INTRA:          -8.905
REMARK INTER:                  -6.642
REMARK INTRA:                  -2.263
REMARK UNBOUND:                -2.373
REMARK SMILES CC(=O)CCC=C(C)CCC=C(C)CCC=C(C)C
REMARK SMILES IDX 10 1 11 2 12 3 13 4 14 5 15 6 16 7 18 8 17 9 19 10 9 11 7 12
REMARK SMILES IDX 6 13 8 14 5 15 4 16 2 17 3 18 1 19
REMARK H PARENT
REMARK Flexibility Score: inf
ROOT
ATOM      1  C   UNL     1     -14.673   9.121 -16.477  1.00  0.00     0.032 C 
ENDROOT
BRANCH   1   2
ATOM      2  C   UNL     1     -13.493   9.108 -15.534  1.00  0.00    -0.028 C 
ATOM      3  C   UNL     1     -13.079   8.039 -14.815  1.00  0.00    -0.077 C 
ATOM      4  C   UNL     1     -11.931   8.229 -13.857  1.00  0.00     0.039 C 
BRANCH   3   5
ATOM      5  C   UNL     1     -13.687   6.654 -14.948  1.00  0.00     0.034 C 
BRANCH   5   6
ATOM      6  C   UNL     1     -12.821   5.730 -15.815  1.00  0.00     0.032 C 
BRANCH   6   7
ATOM      7  C   UNL     1     -13.252   5.766 -17.261  1.00  0.00    -0.028 C 
ATOM      8  C   UNL     1     -11.355   7.229 -17.994  1.00  0.00     0.039 C 
ATOM      9  C   UNL     1     -12.626   6.454 -18.242  1.00  0.00    -0.080 C 
ATOM     10  C   UNL     1     -13.227   6.437 -19.624  1.00  0.00     0.039 C 
ENDBRANCH   6   7
ENDBRANCH   5   6
ENDBRANCH   3   5
ENDBRANCH   1   2
BRANCH   1  11
ATOM     11  C   UNL     1     -14.886  10.510 -17.100  1.00  0.00     0.034 C 
BRANCH  11  12
ATOM     12  C   UNL     1     -13.738  10.903 -18.007  1.00  0.00    -0.077 C 
ATOM     13  C   UNL     1     -13.432  10.111 -19.060  1.00  0.00    -0.028 C 
ATOM     14  C   UNL     1     -12.952  12.155 -17.694  1.00  0.00     0.039 C 
BRANCH  13  15
ATOM     15  C   UNL     1     -12.344  10.403 -20.067  1.00  0.00     0.035 C 
BRANCH  15  16
ATOM     16  C   UNL     1     -12.565   9.638 -21.379  1.00  0.00     0.079 C 
BRANCH  16  17
ATOM     17  C   UNL     1     -12.313  10.513 -22.581  1.00  0.00     0.130 C 
ATOM     18  O   UNL     1     -12.333  10.020 -23.698  1.00  0.00    -0.300 OA
ATOM     19  C   UNL     1     -12.037  11.979 -22.432  1.00  0.00     0.087 C 
ENDBRANCH  16  17
ENDBRANCH  15  16
ENDBRANCH  13  15
ENDBRANCH  11  12
ENDBRANCH   1  11
TORSDOF 9
ENDMDL
MODEL 4
REMARK VINA RESULT:    -4.257      8.170     10.546
REMARK INTER + INTRA:          -8.870
REMARK INTER:                  -7.434
REMARK INTRA:                  -1.436
REMARK UNBOUND:                -2.373
REMARK SMILES CC(=O)CCC=C(C)CCC=C(C)CCC=C(C)C
REMARK SMILES IDX 10 1 11 2 12 3 13 4 14 5 15 6 16 7 18 8 17 9 19 10 9 11 7 12
REMARK SMILES IDX 6 13 8 14 5 15 4 16 2 17 3 18 1 19
REMARK H PARENT
REMARK Flexibility Score: inf
ROOT
ATOM      1  C   UNL     1     -11.143   9.026 -14.266  1.00  0.00     0.032 C 
ENDROOT
BRANCH   1   2
ATOM      2  C   UNL     1     -10.683   8.529 -12.916  1.00  0.00    -0.028 C 
ATOM      3  C   UNL     1     -10.706   9.246 -11.770  1.00  0.00    -0.077 C 
ATOM      4  C   UNL     1     -10.129   8.619 -10.527  1.00  0.00     0.039 C 
BRANCH   3   5
ATOM      5  C   UNL     1     -11.315  10.634 -11.661  1.00  0.00     0.034 C 
BRANCH   5   6
ATOM      6  C   UNL     1     -10.246  11.733 -11.716  1.00  0.00     0.032 C 
BRANCH   6   7
ATOM      7  C   UNL     1     -10.233  12.555 -10.449  1.00  0.00    -0.028 C 
ATOM      8  C   UNL     1      -8.126  11.522  -9.570  1.00  0.00     0.039 C 
ATOM      9  C   UNL     1      -9.309  12.452  -9.467  1.00  0.00    -0.080 C 
ATOM     10  C   UNL     1      -9.479  13.302  -8.233  1.00  0.00     0.039 C 
ENDBRANCH   6   7
ENDBRANCH   5   6
ENDBRANCH   3   5
ENDBRANCH   1   2
BRANCH   1  11
ATOM     11  C   UNL     1     -12.603   8.636 -14.547  1.00  0.00     0.034 C 
BRANCH  11  12
ATOM     12  C   UNL     1     -13.395   9.794 -15.119  1.00  0.00    -0.077 C 
ATOM     13  C   UNL     1     -13.191  11.037 -14.624  1.00  0.00    -0.028 C 
ATOM     14  C   UNL     1     -14.408   9.523 -16.206  1.00  0.00     0.039 C 
BRANCH  13  15
ATOM     15  C   UNL     1     -13.879  12.284 -15.127  1.00  0.00     0.035 C 
BRANCH  15  16
ATOM     16  C   UNL     1     -13.819  13.420 -14.097  1.00  0.00     0.079 C 
BRANCH  16  17
ATOM     17  C   UNL     1     -14.929  14.418 -14.306  1.00  0.00     0.130 C 
ATOM     18  O   UNL     1     -15.649  14.724 -13.367  1.00  0.00    -0.300 OA
ATOM     19  C   UNL     1     -15.168  15.046 -15.647  1.00  0.00     0.087 C 
ENDBRANCH  16  17
ENDBRANCH  15  16
ENDBRANCH  13  15
ENDBRANCH  11  12
ENDBRANCH   1  11
TORSDOF 9
ENDMDL
MODEL 5
REMARK VINA RESULT:    -4.240     11.374     13.267
REMARK INTER + INTRA:          -8.844
REMARK INTER:                  -6.550
REMARK INTRA:                  -2.293
REMARK UNBOUND:                -2.373
REMARK SMILES CC(=O)CCC=C(C)CCC=C(C)CCC=C(C)C
REMARK SMILES IDX 10 1 11 2 12 3 13 4 14 5 15 6 16 7 18 8 17 9 19 10 9 11 7 12
REMARK SMILES IDX 6 13 8 14 5 15 4 16 2 17 3 18 1 19
REMARK H PARENT
REMARK Flexibility Score: inf
ROOT
ATOM      1  C   UNL     1      -5.851   7.838 -12.600  1.00  0.00     0.032 C 
ENDROOT
BRANCH   1   2
ATOM      2  C   UNL     1      -5.733   6.335 -12.521  1.00  0.00    -0.028 C 
ATOM      3  C   UNL     1      -6.267   5.559 -11.550  1.00  0.00    -0.077 C 
ATOM      4  C   UNL     1      -5.978   4.080 -11.583  1.00  0.00     0.039 C 
BRANCH   3   5
ATOM      5  C   UNL     1      -7.168   6.093 -10.450  1.00  0.00     0.034 C 
BRANCH   5   6
ATOM      6  C   UNL     1      -8.651   6.009 -10.835  1.00  0.00     0.032 C 
BRANCH   6   7
ATOM      7  C   UNL     1      -9.354   7.328 -10.619  1.00  0.00    -0.028 C 
ATOM      8  C   UNL     1      -9.594   7.821 -13.064  1.00  0.00     0.039 C 
ATOM      9  C   UNL     1      -9.755   8.164 -11.603  1.00  0.00    -0.080 C 
ATOM     10  C   UNL     1     -10.385   9.477 -11.214  1.00  0.00     0.039 C 
ENDBRANCH   6   7
ENDBRANCH   5   6
ENDBRANCH   3   5
ENDBRANCH   1   2
BRANCH   1  11
ATOM     11  C   UNL     1      -4.694   8.537 -11.869  1.00  0.00     0.034 C 
BRANCH  11  12
ATOM     12  C   UNL     1      -5.194   9.576 -10.886  1.00  0.00    -0.077 C 
ATOM     13  C   UNL     1      -6.527   9.735 -10.721  1.00  0.00    -0.028 C 
ATOM     14  C   UNL     1      -4.190  10.421 -10.138  1.00  0.00     0.039 C 
BRANCH  13  15
ATOM     15  C   UNL     1      -7.162  10.701  -9.747  1.00  0.00     0.035 C 
BRANCH  15  16
ATOM     16  C   UNL     1      -7.701  11.950 -10.458  1.00  0.00     0.079 C 
BRANCH  16  17
ATOM     17  C   UNL     1      -8.699  12.688  -9.602  1.00  0.00     0.130 C 
ATOM     18  O   UNL     1      -9.234  12.111  -8.668  1.00  0.00    -0.300 OA
ATOM     19  C   UNL     1      -9.049  14.121  -9.875  1.00  0.00     0.087 C 
ENDBRANCH  16  17
ENDBRANCH  15  16
ENDBRANCH  13  15
ENDBRANCH  11  12
ENDBRANCH   1  11
TORSDOF 9
ENDMDL
MODEL 6
REMARK VINA RESULT:    -4.193     10.433     12.428
REMARK INTER + INTRA:          -8.773
REMARK INTER:                  -6.344
REMARK INTRA:                  -2.429
REMARK UNBOUND:                -2.373
REMARK SMILES CC(=O)CCC=C(C)CCC=C(C)CCC=C(C)C
REMARK SMILES IDX 10 1 11 2 12 3 13 4 14 5 15 6 16 7 18 8 17 9 19 10 9 11 7 12
REMARK SMILES IDX 6 13 8 14 5 15 4 16 2 17 3 18 1 19
REMARK H PARENT
REMARK Flexibility Score: inf
ROOT
ATOM      1  C   UNL     1      -5.634   9.729 -10.326  1.00  0.00     0.032 C 
ENDROOT
BRANCH   1   2
ATOM      2  C   UNL     1      -5.761   8.559 -11.272  1.00  0.00    -0.028 C 
ATOM      3  C   UNL     1      -6.818   7.718 -11.338  1.00  0.00    -0.077 C 
ATOM      4  C   UNL     1      -6.739   6.550 -12.288  1.00  0.00     0.039 C 
BRANCH   3   5
ATOM      5  C   UNL     1      -8.092   7.908 -10.534  1.00  0.00     0.034 C 
BRANCH   5   6
ATOM      6  C   UNL     1      -9.345   7.816 -11.416  1.00  0.00     0.032 C 
BRANCH   6   7
ATOM      7  C   UNL     1     -10.195   9.059 -11.301  1.00  0.00    -0.028 C 
ATOM      8  C   UNL     1     -11.380   8.686 -13.477  1.00  0.00     0.039 C 
ATOM      9  C   UNL     1     -11.088   9.478 -12.225  1.00  0.00    -0.080 C 
ATOM     10  C   UNL     1     -11.809  10.779 -11.986  1.00  0.00     0.039 C 
ENDBRANCH   6   7
ENDBRANCH   5   6
ENDBRANCH   3   5
ENDBRANCH   1   2
BRANCH   1  11
ATOM     11  C   UNL     1      -5.841  11.068 -11.049  1.00  0.00     0.034 C 
BRANCH  11  12
ATOM     12  C   UNL     1      -7.286  11.521 -10.994  1.00  0.00    -0.077 C 
ATOM     13  C   UNL     1      -7.884  11.665  -9.789  1.00  0.00    -0.028 C 
ATOM     14  C   UNL     1      -8.024  11.775 -12.287  1.00  0.00     0.039 C 
BRANCH  13  15
ATOM     15  C   UNL     1      -9.300  12.148  -9.586  1.00  0.00     0.035 C 
BRANCH  15  16
ATOM     16  C   UNL     1      -9.338  13.571  -9.013  1.00  0.00     0.079 C 
BRANCH  16  17
ATOM     17  C   UNL     1      -9.201  14.610 -10.097  1.00  0.00     0.130 C 
ATOM     18  O   UNL     1      -8.312  15.444 -10.022  1.00  0.00    -0.300 OA
ATOM     19  C   UNL     1     -10.138  14.641 -11.267  1.00  0.00     0.087 C 
ENDBRANCH  16  17
ENDBRANCH  15  16
ENDBRANCH  13  15
ENDBRANCH  11  12
ENDBRANCH   1  11
TORSDOF 9
ENDMDL
MODEL 7
REMARK VINA RESULT:    -4.184      5.796      9.178
REMARK INTER + INTRA:          -8.759
REMARK INTER:                  -6.026
REMARK INTRA:                  -2.733
REMARK UNBOUND:                -2.373
REMARK SMILES CC(=O)CCC=C(C)CCC=C(C)CCC=C(C)C
REMARK SMILES IDX 10 1 11 2 12 3 13 4 14 5 15 6 16 7 18 8 17 9 19 10 9 11 7 12
REMARK SMILES IDX 6 13 8 14 5 15 4 16 2 17 3 18 1 19
REMARK H PARENT
REMARK Flexibility Score: inf
ROOT
ATOM      1  C   UNL     1     -14.142  12.575 -18.295  1.00  0.00     0.032 C 
ENDROOT
BRANCH   1   2
ATOM      2  C   UNL     1     -13.759  13.925 -17.737  1.00  0.00    -0.028 C 
ATOM      3  C   UNL     1     -14.063  14.374 -16.498  1.00  0.00    -0.077 C 
ATOM      4  C   UNL     1     -13.673  15.785 -16.137  1.00  0.00     0.039 C 
BRANCH   3   5
ATOM      5  C   UNL     1     -14.744  13.522 -15.441  1.00  0.00     0.034 C 
BRANCH   5   6
ATOM      6  C   UNL     1     -13.840  13.289 -14.223  1.00  0.00     0.032 C 
BRANCH   6   7
ATOM      7  C   UNL     1     -13.063  12.001 -14.350  1.00  0.00    -0.028 C 
ATOM      8  C   UNL     1     -10.960  13.117 -15.129  1.00  0.00     0.039 C 
ATOM      9  C   UNL     1     -11.785  11.903 -14.781  1.00  0.00    -0.080 C 
ATOM     10  C   UNL     1     -11.177  10.530 -14.912  1.00  0.00     0.039 C 
ENDBRANCH   6   7
ENDBRANCH   5   6
ENDBRANCH   3   5
ENDBRANCH   1   2
BRANCH   1  11
ATOM     11  C   UNL     1     -12.945  11.612 -18.321  1.00  0.00     0.034 C 
BRANCH  11  12
ATOM     12  C   UNL     1     -13.352  10.198 -17.957  1.00  0.00    -0.077 C 
ATOM     13  C   UNL     1     -14.222  10.007 -16.940  1.00  0.00    -0.028 C 
ATOM     14  C   UNL     1     -12.754   9.043 -18.725  1.00  0.00     0.039 C 
BRANCH  13  15
ATOM     15  C   UNL     1     -14.744   8.659 -16.499  1.00  0.00     0.035 C 
BRANCH  15  16
ATOM     16  C   UNL     1     -13.941   8.098 -15.318  1.00  0.00     0.079 C 
BRANCH  16  17
ATOM     17  C   UNL     1     -13.653   6.629 -15.490  1.00  0.00     0.130 C 
ATOM     18  O   UNL     1     -13.617   5.903 -14.508  1.00  0.00    -0.300 OA
ATOM     19  C   UNL     1     -13.407   6.038 -16.847  1.00  0.00     0.087 C 
ENDBRANCH  16  17
ENDBRANCH  15  16
ENDBRANCH  13  15
ENDBRANCH  11  12
ENDBRANCH   1  11
TORSDOF 9
ENDMDL
MODEL 8
REMARK VINA RESULT:    -4.172      6.540      8.755
REMARK INTER + INTRA:          -8.740
REMARK INTER:                  -6.647
REMARK INTRA:                  -2.093
REMARK UNBOUND:                -2.373
REMARK SMILES CC(=O)CCC=C(C)CCC=C(C)CCC=C(C)C
REMARK SMILES IDX 10 1 11 2 12 3 13 4 14 5 15 6 16 7 18 8 17 9 19 10 9 11 7 12
REMARK SMILES IDX 6 13 8 14 5 15 4 16 2 17 3 18 1 19
REMARK H PARENT
REMARK Flexibility Score: inf
ROOT
ATOM      1  C   UNL     1     -10.779   7.405 -14.360  1.00  0.00     0.032 C 
ENDROOT
BRANCH   1   2
ATOM      2  C   UNL     1     -11.159   5.948 -14.247  1.00  0.00    -0.028 C 
ATOM      3  C   UNL     1     -12.422   5.465 -14.277  1.00  0.00    -0.077 C 
ATOM      4  C   UNL     1     -12.622   3.986 -14.065  1.00  0.00     0.039 C 
BRANCH   3   5
ATOM      5  C   UNL     1     -13.642   6.326 -14.550  1.00  0.00     0.034 C 
BRANCH   5   6
ATOM      6  C   UNL     1     -13.710   6.777 -16.015  1.00  0.00     0.032 C 
BRANCH   6   7
ATOM      7  C   UNL     1     -14.531   8.033 -16.170  1.00  0.00    -0.028 C 
ATOM      8  C   UNL     1     -12.948   9.102 -17.792  1.00  0.00     0.039 C 
ATOM      9  C   UNL     1     -14.192   9.094 -16.937  1.00  0.00    -0.080 C 
ATOM     10  C   UNL     1     -15.094  10.302 -16.928  1.00  0.00     0.039 C 
ENDBRANCH   6   7
ENDBRANCH   5   6
ENDBRANCH   3   5
ENDBRANCH   1   2
BRANCH   1  11
ATOM     11  C   UNL     1     -10.622   8.060 -12.979  1.00  0.00     0.034 C 
BRANCH  11  12
ATOM     12  C   UNL     1     -11.332   9.397 -12.906  1.00  0.00    -0.077 C 
ATOM     13  C   UNL     1     -12.166   9.754 -13.909  1.00  0.00    -0.028 C 
ATOM     14  C   UNL     1     -11.068  10.303 -11.727  1.00  0.00     0.039 C 
BRANCH  13  15
ATOM     15  C   UNL     1     -12.968  11.034 -13.945  1.00  0.00     0.035 C 
BRANCH  15  16
ATOM     16  C   UNL     1     -12.473  11.982 -15.046  1.00  0.00     0.079 C 
BRANCH  16  17
ATOM     17  C   UNL     1     -13.423  13.134 -15.254  1.00  0.00     0.130 C 
ATOM     18  O   UNL     1     -13.357  13.791 -16.282  1.00  0.00    -0.300 OA
ATOM     19  C   UNL     1     -14.450  13.492 -14.221  1.00  0.00     0.087 C 
ENDBRANCH  16  17
ENDBRANCH  15  16
ENDBRANCH  13  15
ENDBRANCH  11  12
ENDBRANCH   1  11
TORSDOF 9
ENDMDL
MODEL 9
REMARK VINA RESULT:    -4.172     12.178     14.405
REMARK INTER + INTRA:          -8.740
REMARK INTER:                  -6.082
REMARK INTRA:                  -2.658
REMARK UNBOUND:                -2.373
REMARK SMILES CC(=O)CCC=C(C)CCC=C(C)CCC=C(C)C
REMARK SMILES IDX 10 1 11 2 12 3 13 4 14 5 15 6 16 7 18 8 17 9 19 10 9 11 7 12
REMARK SMILES IDX 6 13 8 14 5 15 4 16 2 17 3 18 1 19
REMARK H PARENT
REMARK Flexibility Score: inf
ROOT
ATOM      1  C   UNL     1      -4.500  11.365 -11.047  1.00  0.00     0.032 C 
ENDROOT
BRANCH   1   2
ATOM      2  C   UNL     1      -3.171  11.964 -10.653  1.00  0.00    -0.028 C 
ATOM      3  C   UNL     1      -2.058  11.974 -11.422  1.00  0.00    -0.077 C 
ATOM      4  C   UNL     1      -0.792  12.542 -10.834  1.00  0.00     0.039 C 
BRANCH   3   5
ATOM      5  C   UNL     1      -2.027  11.475 -12.857  1.00  0.00     0.034 C 
BRANCH   5   6
ATOM      6  C   UNL     1      -1.031  10.322 -13.041  1.00  0.00     0.032 C 
BRANCH   6   7
ATOM      7  C   UNL     1      -1.738   9.027 -13.358  1.00  0.00    -0.028 C 
ATOM      8  C   UNL     1      -1.540   8.123 -11.029  1.00  0.00     0.039 C 
ATOM      9  C   UNL     1      -1.948   8.021 -12.478  1.00  0.00    -0.080 C 
ATOM     10  C   UNL     1      -2.614   6.763 -12.975  1.00  0.00     0.039 C 
ENDBRANCH   6   7
ENDBRANCH   5   6
ENDBRANCH   3   5
ENDBRANCH   1   2
BRANCH   1  11
ATOM     11  C   UNL     1      -4.640   9.918 -10.550  1.00  0.00     0.034 C 
BRANCH  11  12
ATOM     12  C   UNL     1      -5.318   9.033 -11.576  1.00  0.00    -0.077 C 
ATOM     13  C   UNL     1      -5.762   7.812 -11.199  1.00  0.00    -0.028 C 
ATOM     14  C   UNL     1      -5.458   9.531 -12.995  1.00  0.00     0.039 C 
BRANCH  13  15
ATOM     15  C   UNL     1      -6.491   6.847 -12.104  1.00  0.00     0.035 C 
BRANCH  15  16
ATOM     16  C   UNL     1      -7.868   6.471 -11.540  1.00  0.00     0.079 C 
BRANCH  16  17
ATOM     17  C   UNL     1      -8.830   7.630 -11.604  1.00  0.00     0.130 C 
ATOM     18  O   UNL     1      -9.088   8.139 -12.685  1.00  0.00    -0.300 OA
ATOM     19  C   UNL     1      -9.478   8.174 -10.366  1.00  0.00     0.087 C 
ENDBRANCH  16  17
ENDBRANCH  15  16
ENDBRANCH  13  15
ENDBRANCH  11  12
ENDBRANCH   1  11
TORSDOF 9
ENDMDL
