MODEL 1
REMARK VINA RESULT:    -8.030      0.000      0.000
REMARK INTER + INTRA:          -9.539
REMARK INTER:                  -9.673
REMARK INTRA:                   0.134
REMARK UNBOUND:                 0.134
REMARK SMILES O=c1c(O)c(-c2ccc(O)c(O)c2)oc2cc(O)cc(O)c12
REMARK SMILES IDX 5 1 3 2 2 3 1 4 22 5 20 6 19 7 17 8 16 9 15 10 14 11 6 12
REMARK SMILES IDX 7 13 8 14 9 15 13 16 11 17 10 18 12 20 4 22 21 24 18 26
REMARK H PARENT 10 19 12 21 4 23 21 25 18 27
REMARK Flexibility Score: inf
ROOT
ATOM      1  C   UNL     1      38.488 -12.534   8.147  1.00  0.00     0.180 A 
ATOM      2  C   UNL     1      38.671 -11.198   8.542  1.00  0.00     0.208 A 
ATOM      3  C   UNL     1      39.776 -10.870   9.344  1.00  0.00     0.238 A 
ATOM      4  O   UNL     1      39.963  -9.664   9.649  1.00  0.00    -0.285 OA
ATOM      5  C   UNL     1      40.674 -11.884   9.755  1.00  0.00     0.111 A 
ATOM      6  C   UNL     1      41.803 -11.672  10.602  1.00  0.00     0.134 A 
ATOM      7  C   UNL     1      42.698 -12.724  10.837  1.00  0.00     0.093 A 
ATOM      8  C   UNL     1      42.467 -13.996  10.309  1.00  0.00     0.123 A 
ATOM      9  C   UNL     1      41.336 -14.228   9.530  1.00  0.00     0.094 A 
ATOM     10  C   UNL     1      40.445 -13.189   9.248  1.00  0.00     0.146 A 
ATOM     11  O   UNL     1      39.384 -13.451   8.493  1.00  0.00    -0.452 OA
ENDROOT
BRANCH   1  12
ATOM     12  C   UNL     1      37.335 -12.962   7.321  1.00  0.00     0.025 A 
ATOM     13  C   UNL     1      36.054 -12.417   7.517  1.00  0.00     0.016 A 
ATOM     14  C   UNL     1      34.975 -12.853   6.743  1.00  0.00     0.051 A 
ATOM     15  C   UNL     1      35.158 -13.848   5.773  1.00  0.00     0.157 A 
ATOM     16  C   UNL     1      37.508 -13.974   6.363  1.00  0.00     0.062 A 
ATOM     17  C   UNL     1      36.426 -14.412   5.586  1.00  0.00     0.158 A 
BRANCH  15  18
ATOM     18  O   UNL     1      34.084 -14.284   4.999  1.00  0.00    -0.504 OA
ATOM     19  H   UNL     1      33.385 -14.916   5.370  1.00  0.00     0.293 HD
ENDBRANCH  15  18
BRANCH  17  20
ATOM     20  O   UNL     1      36.603 -15.407   4.626  1.00  0.00    -0.504 OA
ATOM     21  H   UNL     1      37.251 -15.291   3.856  1.00  0.00     0.293 HD
ENDBRANCH  17  20
ENDBRANCH   1  12
BRANCH   2  22
ATOM     22  O   UNL     1      37.784 -10.210   8.107  1.00  0.00    -0.502 OA
ATOM     23  H   UNL     1      38.024  -9.226   8.108  1.00  0.00     0.293 HD
ENDBRANCH   2  22
BRANCH   6  24
ATOM     24  O   UNL     1      42.074 -10.465  11.252  1.00  0.00    -0.507 OA
ATOM     25  H   UNL     1      42.729 -10.356  12.011  1.00  0.00     0.293 HD
ENDBRANCH   6  24
BRANCH   8  26
ATOM     26  O   UNL     1      43.354 -15.041  10.560  1.00  0.00    -0.508 OA
ATOM     27  H   UNL     1      44.344 -14.875  10.694  1.00  0.00     0.293 HD
ENDBRANCH   8  26
TORSDOF 6
ENDMDL
MODEL 2
REMARK VINA RESULT:    -7.534      2.998      8.556
REMARK INTER + INTRA:          -8.942
REMARK INTER:                  -8.625
REMARK INTRA:                  -0.317
REMARK UNBOUND:                 0.134
REMARK SMILES O=c1c(O)c(-c2ccc(O)c(O)c2)oc2cc(O)cc(O)c12
REMARK SMILES IDX 5 1 3 2 2 3 1 4 22 5 20 6 19 7 17 8 16 9 15 10 14 11 6 12
REMARK SMILES IDX 7 13 8 14 9 15 13 16 11 17 10 18 12 20 4 22 21 24 18 26
REMARK H PARENT 10 19 12 21 4 23 21 25 18 27
REMARK Flexibility Score: inf
ROOT
ATOM      1  C   UNL     1      36.123 -13.497   4.866  1.00  0.00     0.180 A 
ATOM      2  C   UNL     1      36.822 -13.546   3.648  1.00  0.00     0.208 A 
ATOM      3  C   UNL     1      36.173 -14.049   2.510  1.00  0.00     0.238 A 
ATOM      4  O   UNL     1      36.786 -14.040   1.411  1.00  0.00    -0.285 OA
ATOM      5  C   UNL     1      34.839 -14.514   2.606  1.00  0.00     0.111 A 
ATOM      6  C   UNL     1      34.099 -15.081   1.526  1.00  0.00     0.134 A 
ATOM      7  C   UNL     1      32.743 -15.386   1.704  1.00  0.00     0.093 A 
ATOM      8  C   UNL     1      32.120 -15.204   2.941  1.00  0.00     0.123 A 
ATOM      9  C   UNL     1      32.850 -14.706   4.017  1.00  0.00     0.094 A 
ATOM     10  C   UNL     1      34.195 -14.359   3.861  1.00  0.00     0.146 A 
ATOM     11  O   UNL     1      34.852 -13.879   4.910  1.00  0.00    -0.452 OA
ENDROOT
BRANCH   1  12
ATOM     12  C   UNL     1      36.747 -13.002   6.115  1.00  0.00     0.025 A 
ATOM     13  C   UNL     1      37.315 -13.887   7.049  1.00  0.00     0.016 A 
ATOM     14  C   UNL     1      37.877 -13.401   8.232  1.00  0.00     0.051 A 
ATOM     15  C   UNL     1      37.867 -12.026   8.505  1.00  0.00     0.157 A 
ATOM     16  C   UNL     1      36.721 -11.628   6.404  1.00  0.00     0.062 A 
ATOM     17  C   UNL     1      37.285 -11.139   7.591  1.00  0.00     0.158 A 
BRANCH  15  18
ATOM     18  O   UNL     1      38.428 -11.537   9.683  1.00  0.00    -0.504 OA
ATOM     19  H   UNL     1      38.160 -10.638  10.064  1.00  0.00     0.293 HD
ENDBRANCH  15  18
BRANCH  17  20
ATOM     20  O   UNL     1      37.270  -9.773   7.869  1.00  0.00    -0.504 OA
ATOM     21  H   UNL     1      37.305  -9.082   7.129  1.00  0.00     0.293 HD
ENDBRANCH  17  20
ENDBRANCH   1  12
BRANCH   2  22
ATOM     22  O   UNL     1      38.131 -13.062   3.571  1.00  0.00    -0.502 OA
ATOM     23  H   UNL     1      38.544 -12.493   4.300  1.00  0.00     0.293 HD
ENDBRANCH   2  22
BRANCH   6  24
ATOM     24  O   UNL     1      34.649 -15.388   0.279  1.00  0.00    -0.507 OA
ATOM     25  H   UNL     1      35.272 -16.161   0.100  1.00  0.00     0.293 HD
ENDBRANCH   6  24
BRANCH   8  26
ATOM     26  O   UNL     1      30.775 -15.525   3.113  1.00  0.00    -0.508 OA
ATOM     27  H   UNL     1      30.488 -16.334   3.651  1.00  0.00     0.293 HD
ENDBRANCH   8  26
TORSDOF 6
ENDMDL
MODEL 3
REMARK VINA RESULT:    -7.498      2.329      3.594
REMARK INTER + INTRA:          -8.897
REMARK INTER:                  -8.563
REMARK INTRA:                  -0.334
REMARK UNBOUND:                 0.134
REMARK SMILES O=c1c(O)c(-c2ccc(O)c(O)c2)oc2cc(O)cc(O)c12
REMARK SMILES IDX 5 1 3 2 2 3 1 4 22 5 20 6 19 7 17 8 16 9 15 10 14 11 6 12
REMARK SMILES IDX 7 13 8 14 9 15 13 16 11 17 10 18 12 20 4 22 21 24 18 26
REMARK H PARENT 10 19 12 21 4 23 21 25 18 27
REMARK Flexibility Score: inf
ROOT
ATOM      1  C   UNL     1      36.559 -13.180   5.436  1.00  0.00     0.180 A 
ATOM      2  C   UNL     1      36.491 -11.787   5.612  1.00  0.00     0.208 A 
ATOM      3  C   UNL     1      37.213 -11.197   6.661  1.00  0.00     0.238 A 
ATOM      4  O   UNL     1      37.192  -9.945   6.780  1.00  0.00    -0.285 OA
ATOM      5  C   UNL     1      37.981 -12.008   7.532  1.00  0.00     0.111 A 
ATOM      6  C   UNL     1      38.719 -11.521   8.652  1.00  0.00     0.134 A 
ATOM      7  C   UNL     1      39.548 -12.396   9.366  1.00  0.00     0.093 A 
ATOM      8  C   UNL     1      39.613 -13.753   9.039  1.00  0.00     0.123 A 
ATOM      9  C   UNL     1      38.851 -14.249   7.984  1.00  0.00     0.094 A 
ATOM     10  C   UNL     1      38.043 -13.393   7.231  1.00  0.00     0.146 A 
ATOM     11  O   UNL     1      37.339 -13.905   6.228  1.00  0.00    -0.452 OA
ENDROOT
BRANCH   1  12
ATOM     12  C   UNL     1      35.806 -13.878   4.368  1.00  0.00     0.025 A 
ATOM     13  C   UNL     1      34.491 -14.329   4.575  1.00  0.00     0.016 A 
ATOM     14  C   UNL     1      33.808 -15.007   3.562  1.00  0.00     0.051 A 
ATOM     15  C   UNL     1      34.434 -15.254   2.333  1.00  0.00     0.157 A 
ATOM     16  C   UNL     1      36.436 -14.147   3.142  1.00  0.00     0.062 A 
ATOM     17  C   UNL     1      35.751 -14.827   2.124  1.00  0.00     0.158 A 
BRANCH  15  18
ATOM     18  O   UNL     1      33.755 -15.929   1.319  1.00  0.00    -0.504 OA
ATOM     19  H   UNL     1      33.036 -16.611   1.526  1.00  0.00     0.293 HD
ENDBRANCH  15  18
BRANCH  17  20
ATOM     20  O   UNL     1      36.373 -15.082   0.903  1.00  0.00    -0.504 OA
ATOM     21  H   UNL     1      35.840 -15.334   0.079  1.00  0.00     0.293 HD
ENDBRANCH  17  20
ENDBRANCH   1  12
BRANCH   2  22
ATOM     22  O   UNL     1      35.744 -11.004   4.728  1.00  0.00    -0.502 OA
ATOM     23  H   UNL     1      36.101 -10.713   3.825  1.00  0.00     0.293 HD
ENDBRANCH   2  22
BRANCH   6  24
ATOM     24  O   UNL     1      38.653 -10.205   9.118  1.00  0.00    -0.507 OA
ATOM     25  H   UNL     1      38.338  -9.936  10.037  1.00  0.00     0.293 HD
ENDBRANCH   6  24
BRANCH   8  26
ATOM     26  O   UNL     1      40.429 -14.620   9.764  1.00  0.00    -0.508 OA
ATOM     27  H   UNL     1      40.584 -15.575   9.465  1.00  0.00     0.293 HD
ENDBRANCH   8  26
TORSDOF 6
ENDMDL
MODEL 4
REMARK VINA RESULT:    -7.357      6.615      9.434
REMARK INTER + INTRA:          -8.728
REMARK INTER:                  -8.397
REMARK INTRA:                  -0.331
REMARK UNBOUND:                 0.134
REMARK SMILES O=c1c(O)c(-c2ccc(O)c(O)c2)oc2cc(O)cc(O)c12
REMARK SMILES IDX 5 1 3 2 2 3 1 4 22 5 20 6 19 7 17 8 16 9 15 10 14 11 6 12
REMARK SMILES IDX 7 13 8 14 9 15 13 16 11 17 10 18 12 20 4 22 21 24 18 26
REMARK H PARENT 10 19 12 21 4 23 21 25 18 27
REMARK Flexibility Score: inf
ROOT
ATOM      1  C   UNL     1      33.214 -14.062   1.334  1.00  0.00     0.180 A 
ATOM      2  C   UNL     1      33.933 -14.890   2.212  1.00  0.00     0.208 A 
ATOM      3  C   UNL     1      35.146 -14.426   2.746  1.00  0.00     0.238 A 
ATOM      4  O   UNL     1      35.758 -15.150   3.573  1.00  0.00    -0.285 OA
ATOM      5  C   UNL     1      35.633 -13.148   2.382  1.00  0.00     0.111 A 
ATOM      6  C   UNL     1      36.870 -12.594   2.830  1.00  0.00     0.134 A 
ATOM      7  C   UNL     1      37.189 -11.268   2.510  1.00  0.00     0.093 A 
ATOM      8  C   UNL     1      36.346 -10.499   1.704  1.00  0.00     0.123 A 
ATOM      9  C   UNL     1      35.165 -11.051   1.213  1.00  0.00     0.094 A 
ATOM     10  C   UNL     1      34.803 -12.359   1.545  1.00  0.00     0.146 A 
ATOM     11  O   UNL     1      33.664 -12.842   1.063  1.00  0.00    -0.452 OA
ENDROOT
BRANCH   1  12
ATOM     12  C   UNL     1      31.940 -14.490   0.712  1.00  0.00     0.025 A 
ATOM     13  C   UNL     1      31.918 -15.156  -0.527  1.00  0.00     0.016 A 
ATOM     14  C   UNL     1      30.703 -15.530  -1.108  1.00  0.00     0.051 A 
ATOM     15  C   UNL     1      29.494 -15.232  -0.466  1.00  0.00     0.157 A 
ATOM     16  C   UNL     1      30.723 -14.176   1.339  1.00  0.00     0.062 A 
ATOM     17  C   UNL     1      29.503 -14.551   0.757  1.00  0.00     0.158 A 
BRANCH  15  18
ATOM     18  O   UNL     1      28.280 -15.605  -1.042  1.00  0.00    -0.504 OA
ATOM     19  H   UNL     1      28.232 -15.983  -1.980  1.00  0.00     0.293 HD
ENDBRANCH  15  18
BRANCH  17  20
ATOM     20  O   UNL     1      28.298 -14.249   1.389  1.00  0.00    -0.504 OA
ATOM     21  H   UNL     1      28.171 -14.394   2.384  1.00  0.00     0.293 HD
ENDBRANCH  17  20
ENDBRANCH   1  12
BRANCH   2  22
ATOM     22  O   UNL     1      33.423 -16.140   2.575  1.00  0.00    -0.502 OA
ATOM     23  H   UNL     1      32.545 -16.494   2.214  1.00  0.00     0.293 HD
ENDBRANCH   2  22
BRANCH   6  24
ATOM     24  O   UNL     1      37.824 -13.306   3.563  1.00  0.00    -0.507 OA
ATOM     25  H   UNL     1      38.428 -14.017   3.180  1.00  0.00     0.293 HD
ENDBRANCH   6  24
BRANCH   8  26
ATOM     26  O   UNL     1      36.678  -9.186   1.378  1.00  0.00    -0.508 OA
ATOM     27  H   UNL     1      37.209  -8.965   0.544  1.00  0.00     0.293 HD
ENDBRANCH   8  26
TORSDOF 6
ENDMDL
MODEL 5
REMARK VINA RESULT:    -7.357      4.151     10.103
REMARK INTER + INTRA:          -8.728
REMARK INTER:                  -8.573
REMARK INTRA:                  -0.155
REMARK UNBOUND:                 0.134
REMARK SMILES O=c1c(O)c(-c2ccc(O)c(O)c2)oc2cc(O)cc(O)c12
REMARK SMILES IDX 5 1 3 2 2 3 1 4 22 5 20 6 19 7 17 8 16 9 15 10 14 11 6 12
REMARK SMILES IDX 7 13 8 14 9 15 13 16 11 17 10 18 12 20 4 22 21 24 18 26
REMARK H PARENT 10 19 12 21 4 23 21 25 18 27
REMARK Flexibility Score: inf
ROOT
ATOM      1  C   UNL     1      34.509 -14.410   3.450  1.00  0.00     0.180 A 
ATOM      2  C   UNL     1      34.972 -14.378   2.123  1.00  0.00     0.208 A 
ATOM      3  C   UNL     1      34.052 -14.553   1.077  1.00  0.00     0.238 A 
ATOM      4  O   UNL     1      34.463 -14.469  -0.109  1.00  0.00    -0.285 OA
ATOM      5  C   UNL     1      32.685 -14.777   1.370  1.00  0.00     0.111 A 
ATOM      6  C   UNL     1      31.673 -15.007   0.391  1.00  0.00     0.134 A 
ATOM      7  C   UNL     1      30.332 -15.086   0.788  1.00  0.00     0.093 A 
ATOM      8  C   UNL     1      29.975 -15.007   2.136  1.00  0.00     0.123 A 
ATOM      9  C   UNL     1      30.962 -14.841   3.105  1.00  0.00     0.094 A 
ATOM     10  C   UNL     1      32.304 -14.723   2.736  1.00  0.00     0.146 A 
ATOM     11  O   UNL     1      33.212 -14.556   3.691  1.00  0.00    -0.452 OA
ENDROOT
BRANCH   1  12
ATOM     12  C   UNL     1      35.421 -14.257   4.607  1.00  0.00     0.025 A 
ATOM     13  C   UNL     1      36.468 -15.168   4.839  1.00  0.00     0.016 A 
ATOM     14  C   UNL     1      37.301 -15.019   5.950  1.00  0.00     0.051 A 
ATOM     15  C   UNL     1      37.094 -13.966   6.852  1.00  0.00     0.157 A 
ATOM     16  C   UNL     1      35.205 -13.217   5.526  1.00  0.00     0.062 A 
ATOM     17  C   UNL     1      36.041 -13.066   6.641  1.00  0.00     0.158 A 
BRANCH  15  18
ATOM     18  O   UNL     1      37.924 -13.813   7.961  1.00  0.00    -0.504 OA
ATOM     19  H   UNL     1      38.826 -13.358   7.888  1.00  0.00     0.293 HD
ENDBRANCH  15  18
BRANCH  17  20
ATOM     20  O   UNL     1      35.832 -12.025   7.544  1.00  0.00    -0.504 OA
ATOM     21  H   UNL     1      34.948 -11.910   8.025  1.00  0.00     0.293 HD
ENDBRANCH  17  20
ENDBRANCH   1  12
BRANCH   2  22
ATOM     22  O   UNL     1      36.322 -14.135   1.856  1.00  0.00    -0.502 OA
ATOM     23  H   UNL     1      36.657 -13.239   1.521  1.00  0.00     0.293 HD
ENDBRANCH   2  22
BRANCH   6  24
ATOM     24  O   UNL     1      31.933 -15.193  -0.970  1.00  0.00    -0.507 OA
ATOM     25  H   UNL     1      32.598 -15.852  -1.344  1.00  0.00     0.293 HD
ENDBRANCH   6  24
BRANCH   8  26
ATOM     26  O   UNL     1      28.640 -15.101   2.524  1.00  0.00    -0.508 OA
ATOM     27  H   UNL     1      28.306 -15.873   3.089  1.00  0.00     0.293 HD
ENDBRANCH   8  26
TORSDOF 6
ENDMDL
MODEL 6
REMARK VINA RESULT:    -7.289      1.825      7.130
REMARK INTER + INTRA:          -8.646
REMARK INTER:                  -8.909
REMARK INTRA:                   0.262
REMARK UNBOUND:                 0.134
REMARK SMILES O=c1c(O)c(-c2ccc(O)c(O)c2)oc2cc(O)cc(O)c12
REMARK SMILES IDX 5 1 3 2 2 3 1 4 22 5 20 6 19 7 17 8 16 9 15 10 14 11 6 12
REMARK SMILES IDX 7 13 8 14 9 15 13 16 11 17 10 18 12 20 4 22 21 24 18 26
REMARK H PARENT 10 19 12 21 4 23 21 25 18 27
REMARK Flexibility Score: inf
ROOT
ATOM      1  C   UNL     1      39.395 -12.702   8.160  1.00  0.00     0.180 A 
ATOM      2  C   UNL     1      38.797 -13.951   7.922  1.00  0.00     0.208 A 
ATOM      3  C   UNL     1      37.739 -14.035   7.004  1.00  0.00     0.238 A 
ATOM      4  O   UNL     1      37.243 -15.164   6.755  1.00  0.00    -0.285 OA
ATOM      5  C   UNL     1      37.279 -12.867   6.349  1.00  0.00     0.111 A 
ATOM      6  C   UNL     1      36.187 -12.829   5.431  1.00  0.00     0.134 A 
ATOM      7  C   UNL     1      35.905 -11.642   4.742  1.00  0.00     0.093 A 
ATOM      8  C   UNL     1      36.633 -10.476   4.989  1.00  0.00     0.123 A 
ATOM      9  C   UNL     1      37.663 -10.488   5.927  1.00  0.00     0.094 A 
ATOM     10  C   UNL     1      37.991 -11.666   6.602  1.00  0.00     0.146 A 
ATOM     11  O   UNL     1      38.986 -11.636   7.481  1.00  0.00    -0.452 OA
ENDROOT
BRANCH   1  12
ATOM     12  C   UNL     1      40.501 -12.528   9.131  1.00  0.00     0.025 A 
ATOM     13  C   UNL     1      40.640 -11.344   9.877  1.00  0.00     0.016 A 
ATOM     14  C   UNL     1      41.704 -11.192  10.769  1.00  0.00     0.051 A 
ATOM     15  C   UNL     1      42.650 -12.215  10.921  1.00  0.00     0.157 A 
ATOM     16  C   UNL     1      41.463 -13.541   9.271  1.00  0.00     0.062 A 
ATOM     17  C   UNL     1      42.532 -13.389  10.168  1.00  0.00     0.158 A 
BRANCH  15  18
ATOM     18  O   UNL     1      43.712 -12.067  11.812  1.00  0.00    -0.504 OA
ATOM     19  H   UNL     1      44.675 -12.107  11.500  1.00  0.00     0.293 HD
ENDBRANCH  15  18
BRANCH  17  20
ATOM     20  O   UNL     1      43.478 -14.402  10.314  1.00  0.00    -0.504 OA
ATOM     21  H   UNL     1      43.359 -15.307   9.875  1.00  0.00     0.293 HD
ENDBRANCH  17  20
ENDBRANCH   1  12
BRANCH   2  22
ATOM     22  O   UNL     1      39.281 -15.094   8.564  1.00  0.00    -0.502 OA
ATOM     23  H   UNL     1      40.000 -15.681   8.159  1.00  0.00     0.293 HD
ENDBRANCH   2  22
BRANCH   6  24
ATOM     24  O   UNL     1      35.340 -13.912   5.181  1.00  0.00    -0.507 OA
ATOM     25  H   UNL     1      35.488 -14.604   4.462  1.00  0.00     0.293 HD
ENDBRANCH   6  24
BRANCH   8  26
ATOM     26  O   UNL     1      36.335  -9.295   4.311  1.00  0.00    -0.508 OA
ATOM     27  H   UNL     1      37.010  -8.543   4.236  1.00  0.00     0.293 HD
ENDBRANCH   8  26
TORSDOF 6
ENDMDL
MODEL 7
REMARK VINA RESULT:    -7.248      5.709      8.975
REMARK INTER + INTRA:          -8.596
REMARK INTER:                  -8.293
REMARK INTRA:                  -0.303
REMARK UNBOUND:                 0.134
REMARK SMILES O=c1c(O)c(-c2ccc(O)c(O)c2)oc2cc(O)cc(O)c12
REMARK SMILES IDX 5 1 3 2 2 3 1 4 22 5 20 6 19 7 17 8 16 9 15 10 14 11 6 12
REMARK SMILES IDX 7 13 8 14 9 15 13 16 11 17 10 18 12 20 4 22 21 24 18 26
REMARK H PARENT 10 19 12 21 4 23 21 25 18 27
REMARK Flexibility Score: inf
ROOT
ATOM      1  C   UNL     1      33.109 -13.715   1.182  1.00  0.00     0.180 A 
ATOM      2  C   UNL     1      33.670 -12.522   0.695  1.00  0.00     0.208 A 
ATOM      3  C   UNL     1      34.815 -12.004   1.321  1.00  0.00     0.238 A 
ATOM      4  O   UNL     1      35.344 -10.965   0.847  1.00  0.00    -0.285 OA
ATOM      5  C   UNL     1      35.374 -12.674   2.436  1.00  0.00     0.111 A 
ATOM      6  C   UNL     1      36.508 -12.216   3.171  1.00  0.00     0.134 A 
ATOM      7  C   UNL     1      37.054 -13.028   4.174  1.00  0.00     0.093 A 
ATOM      8  C   UNL     1      36.466 -14.249   4.511  1.00  0.00     0.123 A 
ATOM      9  C   UNL     1      35.324 -14.677   3.838  1.00  0.00     0.094 A 
ATOM     10  C   UNL     1      34.778 -13.906   2.809  1.00  0.00     0.146 A 
ATOM     11  O   UNL     1      33.694 -14.356   2.187  1.00  0.00    -0.452 OA
ENDROOT
BRANCH   1  12
ATOM     12  C   UNL     1      31.888 -14.311   0.591  1.00  0.00     0.025 A 
ATOM     13  C   UNL     1      31.950 -15.105  -0.569  1.00  0.00     0.016 A 
ATOM     14  C   UNL     1      30.784 -15.638  -1.124  1.00  0.00     0.051 A 
ATOM     15  C   UNL     1      29.539 -15.375  -0.537  1.00  0.00     0.157 A 
ATOM     16  C   UNL     1      30.636 -14.034   1.162  1.00  0.00     0.062 A 
ATOM     17  C   UNL     1      29.464 -14.569   0.606  1.00  0.00     0.158 A 
BRANCH  15  18
ATOM     18  O   UNL     1      28.374 -15.906  -1.086  1.00  0.00    -0.504 OA
ATOM     19  H   UNL     1      28.250 -16.904  -1.204  1.00  0.00     0.293 HD
ENDBRANCH  15  18
BRANCH  17  20
ATOM     20  O   UNL     1      28.224 -14.303   1.183  1.00  0.00    -0.504 OA
ATOM     21  H   UNL     1      27.636 -13.548   0.851  1.00  0.00     0.293 HD
ENDBRANCH  17  20
ENDBRANCH   1  12
BRANCH   2  22
ATOM     22  O   UNL     1      33.114 -11.889  -0.420  1.00  0.00    -0.502 OA
ATOM     23  H   UNL     1      32.492 -11.093  -0.338  1.00  0.00     0.293 HD
ENDBRANCH   2  22
BRANCH   6  24
ATOM     24  O   UNL     1      37.114 -10.972   2.976  1.00  0.00    -0.507 OA
ATOM     25  H   UNL     1      38.087 -10.836   2.748  1.00  0.00     0.293 HD
ENDBRANCH   6  24
BRANCH   8  26
ATOM     26  O   UNL     1      37.006 -15.043   5.521  1.00  0.00    -0.508 OA
ATOM     27  H   UNL     1      36.538 -15.158   6.412  1.00  0.00     0.293 HD
ENDBRANCH   8  26
TORSDOF 6
ENDMDL
MODEL 8
REMARK VINA RESULT:    -7.210      2.592      6.917
REMARK INTER + INTRA:          -8.551
REMARK INTER:                  -8.258
REMARK INTRA:                  -0.293
REMARK UNBOUND:                 0.134
REMARK SMILES O=c1c(O)c(-c2ccc(O)c(O)c2)oc2cc(O)cc(O)c12
REMARK SMILES IDX 5 1 3 2 2 3 1 4 22 5 20 6 19 7 17 8 16 9 15 10 14 11 6 12
REMARK SMILES IDX 7 13 8 14 9 15 13 16 11 17 10 18 12 20 4 22 21 24 18 26
REMARK H PARENT 10 19 12 21 4 23 21 25 18 27
REMARK Flexibility Score: inf
ROOT
ATOM      1  C   UNL     1      39.579 -11.960   8.063  1.00  0.00     0.180 A 
ATOM      2  C   UNL     1      38.291 -12.502   8.213  1.00  0.00     0.208 A 
ATOM      3  C   UNL     1      37.371 -12.372   7.160  1.00  0.00     0.238 A 
ATOM      4  O   UNL     1      36.238 -12.906   7.279  1.00  0.00    -0.285 OA
ATOM      5  C   UNL     1      37.744 -11.688   5.978  1.00  0.00     0.111 A 
ATOM      6  C   UNL     1      36.879 -11.462   4.865  1.00  0.00     0.134 A 
ATOM      7  C   UNL     1      37.394 -10.889   3.696  1.00  0.00     0.093 A 
ATOM      8  C   UNL     1      38.726 -10.473   3.624  1.00  0.00     0.123 A 
ATOM      9  C   UNL     1      39.562 -10.636   4.725  1.00  0.00     0.094 A 
ATOM     10  C   UNL     1      39.086 -11.238   5.893  1.00  0.00     0.146 A 
ATOM     11  O   UNL     1      39.920 -11.382   6.917  1.00  0.00    -0.452 OA
ENDROOT
BRANCH   1  12
ATOM     12  C   UNL     1      40.596 -12.035   9.137  1.00  0.00     0.025 A 
ATOM     13  C   UNL     1      40.871 -10.930   9.962  1.00  0.00     0.016 A 
ATOM     14  C   UNL     1      41.852 -11.015  10.953  1.00  0.00     0.051 A 
ATOM     15  C   UNL     1      42.581 -12.200  11.126  1.00  0.00     0.157 A 
ATOM     16  C   UNL     1      41.344 -13.212   9.300  1.00  0.00     0.062 A 
ATOM     17  C   UNL     1      42.329 -13.299  10.295  1.00  0.00     0.158 A 
BRANCH  15  18
ATOM     18  O   UNL     1      43.559 -12.289  12.114  1.00  0.00    -0.504 OA
ATOM     19  H   UNL     1      44.329 -11.632  12.159  1.00  0.00     0.293 HD
ENDBRANCH  15  18
BRANCH  17  20
ATOM     20  O   UNL     1      43.060 -14.473  10.463  1.00  0.00    -0.504 OA
ATOM     21  H   UNL     1      43.655 -14.837   9.728  1.00  0.00     0.293 HD
ENDBRANCH  17  20
ENDBRANCH   1  12
BRANCH   2  22
ATOM     22  O   UNL     1      37.951 -13.191   9.380  1.00  0.00    -0.502 OA
ATOM     23  H   UNL     1      38.391 -14.065   9.642  1.00  0.00     0.293 HD
ENDBRANCH   2  22
BRANCH   6  24
ATOM     24  O   UNL     1      35.512 -11.756   4.867  1.00  0.00    -0.507 OA
ATOM     25  H   UNL     1      35.123 -12.678   4.746  1.00  0.00     0.293 HD
ENDBRANCH   6  24
BRANCH   8  26
ATOM     26  O   UNL     1      39.226  -9.889   2.462  1.00  0.00    -0.508 OA
ATOM     27  H   UNL     1      40.093 -10.204   2.042  1.00  0.00     0.293 HD
ENDBRANCH   8  26
TORSDOF 6
ENDMDL
MODEL 9
REMARK VINA RESULT:    -6.889      2.047      6.894
REMARK INTER + INTRA:          -8.164
REMARK INTER:                  -7.876
REMARK INTRA:                  -0.288
REMARK UNBOUND:                 0.134
REMARK SMILES O=c1c(O)c(-c2ccc(O)c(O)c2)oc2cc(O)cc(O)c12
REMARK SMILES IDX 5 1 3 2 2 3 1 4 22 5 20 6 19 7 17 8 16 9 15 10 14 11 6 12
REMARK SMILES IDX 7 13 8 14 9 15 13 16 11 17 10 18 12 20 4 22 21 24 18 26
REMARK H PARENT 10 19 12 21 4 23 21 25 18 27
REMARK Flexibility Score: inf
ROOT
ATOM      1  C   UNL     1      39.275 -11.638   7.532  1.00  0.00     0.180 A 
ATOM      2  C   UNL     1      39.585 -10.986   6.327  1.00  0.00     0.208 A 
ATOM      3  C   UNL     1      38.738 -11.161   5.221  1.00  0.00     0.238 A 
ATOM      4  O   UNL     1      38.991 -10.532   4.161  1.00  0.00    -0.285 OA
ATOM      5  C   UNL     1      37.603 -11.999   5.328  1.00  0.00     0.111 A 
ATOM      6  C   UNL     1      36.699 -12.280   4.260  1.00  0.00     0.134 A 
ATOM      7  C   UNL     1      35.536 -13.018   4.515  1.00  0.00     0.093 A 
ATOM      8  C   UNL     1      35.279 -13.540   5.785  1.00  0.00     0.123 A 
ATOM      9  C   UNL     1      36.184 -13.320   6.820  1.00  0.00     0.094 A 
ATOM     10  C   UNL     1      37.335 -12.557   6.604  1.00  0.00     0.146 A 
ATOM     11  O   UNL     1      38.167 -12.364   7.621  1.00  0.00    -0.452 OA
ENDROOT
BRANCH   1  12
ATOM     12  C   UNL     1      40.132 -11.522   8.735  1.00  0.00     0.025 A 
ATOM     13  C   UNL     1      40.075 -10.390   9.567  1.00  0.00     0.016 A 
ATOM     14  C   UNL     1      40.910 -10.290  10.683  1.00  0.00     0.051 A 
ATOM     15  C   UNL     1      41.822 -11.313  10.976  1.00  0.00     0.157 A 
ATOM     16  C   UNL     1      41.062 -12.534   9.022  1.00  0.00     0.062 A 
ATOM     17  C   UNL     1      41.901 -12.435  10.142  1.00  0.00     0.158 A 
BRANCH  15  18
ATOM     18  O   UNL     1      42.655 -11.218  12.090  1.00  0.00    -0.504 OA
ATOM     19  H   UNL     1      42.578 -11.865  12.865  1.00  0.00     0.293 HD
ENDBRANCH  15  18
BRANCH  17  20
ATOM     20  O   UNL     1      42.814 -13.448  10.432  1.00  0.00    -0.504 OA
ATOM     21  H   UNL     1      43.049 -13.692  11.387  1.00  0.00     0.293 HD
ENDBRANCH  17  20
ENDBRANCH   1  12
BRANCH   2  22
ATOM     22  O   UNL     1      40.700 -10.146   6.250  1.00  0.00    -0.502 OA
ATOM     23  H   UNL     1      41.160  -9.777   7.073  1.00  0.00     0.293 HD
ENDBRANCH   2  22
BRANCH   6  24
ATOM     24  O   UNL     1      36.909 -11.884   2.936  1.00  0.00    -0.507 OA
ATOM     25  H   UNL     1      37.433 -12.412   2.255  1.00  0.00     0.293 HD
ENDBRANCH   6  24
BRANCH   8  26
ATOM     26  O   UNL     1      34.127 -14.286   6.026  1.00  0.00    -0.508 OA
ATOM     27  H   UNL     1      33.852 -14.546   6.966  1.00  0.00     0.293 HD
ENDBRANCH   8  26
TORSDOF 6
ENDMDL
