MODEL 1
REMARK VINA RESULT:    -3.854      0.000      0.000
REMARK INTER + INTRA:          -7.889
REMARK INTER:                  -6.782
REMARK INTRA:                  -1.107
REMARK UNBOUND:                -1.107
REMARK SMILES CCCCCCCCCCCCCCC(=O)[O-]
REMARK SMILES IDX 9 1 10 2 11 3 12 4 13 5 14 6 15 7 16 8 17 9 8 10 7 11 6 12
REMARK SMILES IDX 5 13 4 14 3 15 2 16 1 17
REMARK H PARENT
REMARK Flexibility Score: inf
ROOT
ATOM      1  C   UNL     1      -3.228  36.764  20.588  1.00  0.00     0.000 C 
ENDROOT
BRANCH   1   2
ATOM      2  C   UNL     1      -3.134  38.089  19.815  1.00  0.00     0.000 C 
BRANCH   2   3
ATOM      3  C   UNL     1      -1.753  38.252  19.164  1.00  0.00     0.000 C 
BRANCH   3   4
ATOM      4  C   UNL     1      -1.788  38.087  17.634  1.00  0.00     0.000 C 
BRANCH   4   5
ATOM      5  C   UNL     1      -3.099  37.510  17.071  1.00  0.00     0.006 C 
BRANCH   5   6
ATOM      6  C   UNL     1      -2.869  36.395  16.042  1.00  0.00     0.053 C 
BRANCH   6   7
ATOM      7  C   UNL     1      -2.734  36.971  14.669  1.00  0.00     0.041 C 
ATOM      8  O   UNL     1      -1.654  36.848  14.034  1.00  0.00    -0.550 OA
ATOM      9  O   UNL     1      -3.784  37.688  14.109  1.00  0.00    -0.550 OA
ENDBRANCH   6   7
ENDBRANCH   5   6
ENDBRANCH   4   5
ENDBRANCH   3   4
ENDBRANCH   2   3
ENDBRANCH   1   2
BRANCH   1  10
ATOM     10  C   UNL     1      -4.169  35.752  19.899  1.00  0.00     0.000 C 
BRANCH  10  11
ATOM     11  C   UNL     1      -5.660  36.104  20.032  1.00  0.00    -0.000 C 
BRANCH  11  12
ATOM     12  C   UNL     1      -6.116  36.225  21.496  1.00  0.00    -0.000 C 
BRANCH  12  13
ATOM     13  C   UNL     1      -6.125  34.870  22.222  1.00  0.00    -0.000 C 
BRANCH  13  14
ATOM     14  C   UNL     1      -5.829  35.007  23.726  1.00  0.00    -0.000 C 
BRANCH  14  15
ATOM     15  C   UNL     1      -5.088  36.311  24.072  1.00  0.00    -0.000 C 
BRANCH  15  16
ATOM     16  C   UNL     1      -5.745  37.157  25.177  1.00  0.00    -0.003 C 
ATOM     17  C   UNL     1      -4.736  37.967  25.990  1.00  0.00     0.004 C 
ENDBRANCH  15  16
ENDBRANCH  14  15
ENDBRANCH  13  14
ENDBRANCH  12  13
ENDBRANCH  11  12
ENDBRANCH  10  11
ENDBRANCH   1  10
TORSDOF 13
ENDMDL
MODEL 2
REMARK VINA RESULT:    -3.788      4.140      8.157
REMARK INTER + INTRA:          -7.774
REMARK INTER:                  -6.811
REMARK INTRA:                  -0.963
REMARK UNBOUND:                -1.107
REMARK SMILES CCCCCCCCCCCCCCC(=O)[O-]
REMARK SMILES IDX 9 1 10 2 11 3 12 4 13 5 14 6 15 7 16 8 17 9 8 10 7 11 6 12
REMARK SMILES IDX 5 13 4 14 3 15 2 16 1 17
REMARK H PARENT
REMARK Flexibility Score: inf
ROOT
ATOM      1  C   UNL     1      -4.120  37.488  18.890  1.00  0.00     0.000 C 
ENDROOT
BRANCH   1   2
ATOM      2  C   UNL     1      -4.906  36.186  19.108  1.00  0.00     0.000 C 
BRANCH   2   3
ATOM      3  C   UNL     1      -4.747  35.680  20.550  1.00  0.00     0.000 C 
BRANCH   3   4
ATOM      4  C   UNL     1      -6.094  35.443  21.256  1.00  0.00     0.000 C 
BRANCH   4   5
ATOM      5  C   UNL     1      -6.036  35.469  22.794  1.00  0.00     0.006 C 
BRANCH   5   6
ATOM      6  C   UNL     1      -5.423  36.762  23.347  1.00  0.00     0.053 C 
BRANCH   6   7
ATOM      7  C   UNL     1      -5.529  36.793  24.839  1.00  0.00     0.041 C 
ATOM      8  O   UNL     1      -6.125  35.868  25.451  1.00  0.00    -0.550 OA
ATOM      9  O   UNL     1      -5.014  37.869  25.551  1.00  0.00    -0.550 OA
ENDBRANCH   6   7
ENDBRANCH   5   6
ENDBRANCH   4   5
ENDBRANCH   3   4
ENDBRANCH   2   3
ENDBRANCH   1   2
BRANCH   1  10
ATOM     10  C   UNL     1      -2.808  37.521  19.703  1.00  0.00     0.000 C 
BRANCH  10  11
ATOM     11  C   UNL     1      -1.661  38.264  18.996  1.00  0.00    -0.000 C 
BRANCH  11  12
ATOM     12  C   UNL     1      -1.823  38.293  17.467  1.00  0.00    -0.000 C 
BRANCH  12  13
ATOM     13  C   UNL     1      -1.375  36.979  16.805  1.00  0.00    -0.000 C 
BRANCH  13  14
ATOM     14  C   UNL     1      -2.470  36.369  15.912  1.00  0.00    -0.000 C 
BRANCH  14  15
ATOM     15  C   UNL     1      -2.360  36.817  14.442  1.00  0.00    -0.000 C 
BRANCH  15  16
ATOM     16  C   UNL     1      -3.618  37.498  13.875  1.00  0.00    -0.003 C 
ATOM     17  C   UNL     1      -3.883  38.871  14.490  1.00  0.00     0.004 C 
ENDBRANCH  15  16
ENDBRANCH  14  15
ENDBRANCH  13  14
ENDBRANCH  12  13
ENDBRANCH  11  12
ENDBRANCH  10  11
ENDBRANCH   1  10
TORSDOF 13
ENDMDL
MODEL 3
REMARK VINA RESULT:    -3.774      4.051      7.598
REMARK INTER + INTRA:          -7.750
REMARK INTER:                  -6.817
REMARK INTRA:                  -0.933
REMARK UNBOUND:                -1.107
REMARK SMILES CCCCCCCCCCCCCCC(=O)[O-]
REMARK SMILES IDX 9 1 10 2 11 3 12 4 13 5 14 6 15 7 16 8 17 9 8 10 7 11 6 12
REMARK SMILES IDX 5 13 4 14 3 15 2 16 1 17
REMARK H PARENT
REMARK Flexibility Score: inf
ROOT
ATOM      1  C   UNL     1      -3.652  35.851  20.918  1.00  0.00     0.000 C 
ENDROOT
BRANCH   1   2
ATOM      2  C   UNL     1      -4.536  35.844  22.175  1.00  0.00     0.000 C 
BRANCH   2   3
ATOM      3  C   UNL     1      -5.813  36.668  21.955  1.00  0.00     0.000 C 
BRANCH   3   4
ATOM      4  C   UNL     1      -5.788  38.022  22.687  1.00  0.00     0.000 C 
BRANCH   4   5
ATOM      5  C   UNL     1      -5.128  39.172  21.905  1.00  0.00     0.006 C 
BRANCH   5   6
ATOM      6  C   UNL     1      -6.058  40.377  21.715  1.00  0.00     0.053 C 
BRANCH   6   7
ATOM      7  C   UNL     1      -5.855  41.372  22.814  1.00  0.00     0.041 C 
ATOM      8  O   UNL     1      -6.026  42.600  22.596  1.00  0.00    -0.550 OA
ATOM      9  O   UNL     1      -5.428  40.948  24.065  1.00  0.00    -0.550 OA
ENDBRANCH   6   7
ENDBRANCH   5   6
ENDBRANCH   4   5
ENDBRANCH   3   4
ENDBRANCH   2   3
ENDBRANCH   1   2
BRANCH   1  10
ATOM     10  C   UNL     1      -4.416  36.339  19.668  1.00  0.00     0.000 C 
BRANCH  10  11
ATOM     11  C   UNL     1      -3.937  37.704  19.145  1.00  0.00    -0.000 C 
BRANCH  11  12
ATOM     12  C   UNL     1      -2.448  37.961  19.426  1.00  0.00    -0.000 C 
BRANCH  12  13
ATOM     13  C   UNL     1      -1.611  38.029  18.138  1.00  0.00    -0.000 C 
BRANCH  13  14
ATOM     14  C   UNL     1      -2.480  37.979  16.869  1.00  0.00    -0.000 C 
BRANCH  14  15
ATOM     15  C   UNL     1      -2.129  36.795  15.950  1.00  0.00    -0.000 C 
BRANCH  15  16
ATOM     16  C   UNL     1      -2.619  36.933  14.497  1.00  0.00    -0.003 C 
ATOM     17  C   UNL     1      -3.705  37.994  14.331  1.00  0.00     0.004 C 
ENDBRANCH  15  16
ENDBRANCH  14  15
ENDBRANCH  13  14
ENDBRANCH  12  13
ENDBRANCH  11  12
ENDBRANCH  10  11
ENDBRANCH   1  10
TORSDOF 13
ENDMDL
MODEL 4
REMARK VINA RESULT:    -3.608      3.595      7.631
REMARK INTER + INTRA:          -7.457
REMARK INTER:                  -6.489
REMARK INTRA:                  -0.968
REMARK UNBOUND:                -1.107
REMARK SMILES CCCCCCCCCCCCCCC(=O)[O-]
REMARK SMILES IDX 9 1 10 2 11 3 12 4 13 5 14 6 15 7 16 8 17 9 8 10 7 11 6 12
REMARK SMILES IDX 5 13 4 14 3 15 2 16 1 17
REMARK H PARENT
REMARK Flexibility Score: inf
ROOT
ATOM      1  C   UNL     1      -3.027  36.799  20.453  1.00  0.00     0.000 C 
ENDROOT
BRANCH   1   2
ATOM      2  C   UNL     1      -4.230  35.992  19.940  1.00  0.00     0.000 C 
BRANCH   2   3
ATOM      3  C   UNL     1      -5.541  36.506  20.553  1.00  0.00     0.000 C 
BRANCH   3   4
ATOM      4  C   UNL     1      -5.511  36.542  22.092  1.00  0.00     0.000 C 
BRANCH   4   5
ATOM      5  C   UNL     1      -5.610  37.947  22.712  1.00  0.00     0.006 C 
BRANCH   5   6
ATOM      6  C   UNL     1      -5.644  39.064  21.662  1.00  0.00     0.053 C 
BRANCH   6   7
ATOM      7  C   UNL     1      -5.670  40.404  22.325  1.00  0.00     0.041 C 
ATOM      8  O   UNL     1      -5.933  41.437  21.655  1.00  0.00    -0.550 OA
ATOM      9  O   UNL     1      -5.354  40.519  23.672  1.00  0.00    -0.550 OA
ENDBRANCH   6   7
ENDBRANCH   5   6
ENDBRANCH   4   5
ENDBRANCH   3   4
ENDBRANCH   2   3
ENDBRANCH   1   2
BRANCH   1  10
ATOM     10  C   UNL     1      -2.803  38.094  19.643  1.00  0.00     0.000 C 
BRANCH  10  11
ATOM     11  C   UNL     1      -1.348  38.293  19.185  1.00  0.00    -0.000 C 
BRANCH  11  12
ATOM     12  C   UNL     1      -1.135  37.941  17.704  1.00  0.00    -0.000 C 
BRANCH  12  13
ATOM     13  C   UNL     1      -2.438  37.510  17.010  1.00  0.00    -0.000 C 
BRANCH  13  14
ATOM     14  C   UNL     1      -2.194  36.487  15.887  1.00  0.00    -0.000 C 
BRANCH  14  15
ATOM     15  C   UNL     1      -2.377  37.088  14.481  1.00  0.00    -0.000 C 
BRANCH  15  16
ATOM     16  C   UNL     1      -3.824  37.470  14.122  1.00  0.00    -0.003 C 
ATOM     17  C   UNL     1      -4.070  38.978  14.153  1.00  0.00     0.004 C 
ENDBRANCH  15  16
ENDBRANCH  14  15
ENDBRANCH  13  14
ENDBRANCH  12  13
ENDBRANCH  11  12
ENDBRANCH  10  11
ENDBRANCH   1  10
TORSDOF 13
ENDMDL
MODEL 5
REMARK VINA RESULT:    -3.274      4.092      7.513
REMARK INTER + INTRA:          -6.869
REMARK INTER:                  -5.308
REMARK INTRA:                  -1.560
REMARK UNBOUND:                -1.107
REMARK SMILES CCCCCCCCCCCCCCC(=O)[O-]
REMARK SMILES IDX 9 1 10 2 11 3 12 4 13 5 14 6 15 7 16 8 17 9 8 10 7 11 6 12
REMARK SMILES IDX 5 13 4 14 3 15 2 16 1 17
REMARK H PARENT
REMARK Flexibility Score: inf
ROOT
ATOM      1  C   UNL     1      -3.742  38.184  20.130  1.00  0.00     0.000 C 
ENDROOT
BRANCH   1   2
ATOM      2  C   UNL     1      -4.820  37.317  20.799  1.00  0.00     0.000 C 
BRANCH   2   3
ATOM      3  C   UNL     1      -4.191  36.117  21.523  1.00  0.00     0.000 C 
BRANCH   3   4
ATOM      4  C   UNL     1      -5.121  35.500  22.582  1.00  0.00     0.000 C 
BRANCH   4   5
ATOM      5  C   UNL     1      -6.006  36.507  23.338  1.00  0.00     0.006 C 
BRANCH   5   6
ATOM      6  C   UNL     1      -5.734  36.529  24.847  1.00  0.00     0.053 C 
BRANCH   6   7
ATOM      7  C   UNL     1      -5.127  37.836  25.249  1.00  0.00     0.041 C 
ATOM      8  O   UNL     1      -4.378  37.902  26.258  1.00  0.00    -0.550 OA
ATOM      9  O   UNL     1      -5.429  38.991  24.539  1.00  0.00    -0.550 OA
ENDBRANCH   6   7
ENDBRANCH   5   6
ENDBRANCH   4   5
ENDBRANCH   3   4
ENDBRANCH   2   3
ENDBRANCH   1   2
BRANCH   1  10
ATOM     10  C   UNL     1      -2.348  37.524  20.178  1.00  0.00     0.000 C 
BRANCH  10  11
ATOM     11  C   UNL     1      -1.355  38.102  19.155  1.00  0.00    -0.000 C 
BRANCH  11  12
ATOM     12  C   UNL     1      -1.971  38.271  17.756  1.00  0.00    -0.000 C 
BRANCH  12  13
ATOM     13  C   UNL     1      -1.536  37.161  16.785  1.00  0.00    -0.000 C 
BRANCH  13  14
ATOM     14  C   UNL     1      -2.733  36.478  16.101  1.00  0.00    -0.000 C 
BRANCH  14  15
ATOM     15  C   UNL     1      -3.968  36.377  17.015  1.00  0.00    -0.000 C 
BRANCH  15  16
ATOM     16  C   UNL     1      -4.038  35.102  17.873  1.00  0.00    -0.003 C 
ATOM     17  C   UNL     1      -5.437  34.826  18.422  1.00  0.00     0.004 C 
ENDBRANCH  15  16
ENDBRANCH  14  15
ENDBRANCH  13  14
ENDBRANCH  12  13
ENDBRANCH  11  12
ENDBRANCH  10  11
ENDBRANCH   1  10
TORSDOF 13
ENDMDL
MODEL 6
REMARK VINA RESULT:    -3.248      1.974      3.185
REMARK INTER + INTRA:          -6.823
REMARK INTER:                  -5.783
REMARK INTRA:                  -1.040
REMARK UNBOUND:                -1.107
REMARK SMILES CCCCCCCCCCCCCCC(=O)[O-]
REMARK SMILES IDX 9 1 10 2 11 3 12 4 13 5 14 6 15 7 16 8 17 9 8 10 7 11 6 12
REMARK SMILES IDX 5 13 4 14 3 15 2 16 1 17
REMARK H PARENT
REMARK Flexibility Score: inf
ROOT
ATOM      1  C   UNL     1      -4.246  35.652  21.871  1.00  0.00     0.000 C 
ENDROOT
BRANCH   1   2
ATOM      2  C   UNL     1      -5.248  36.446  21.017  1.00  0.00     0.000 C 
BRANCH   2   3
ATOM      3  C   UNL     1      -4.769  36.553  19.562  1.00  0.00     0.000 C 
BRANCH   3   4
ATOM      4  C   UNL     1      -3.468  37.363  19.416  1.00  0.00     0.000 C 
BRANCH   4   5
ATOM      5  C   UNL     1      -3.077  37.711  17.969  1.00  0.00     0.006 C 
BRANCH   5   6
ATOM      6  C   UNL     1      -3.360  36.571  16.982  1.00  0.00     0.053 C 
BRANCH   6   7
ATOM      7  C   UNL     1      -2.492  36.701  15.771  1.00  0.00     0.041 C 
ATOM      8  O   UNL     1      -1.242  36.592  15.873  1.00  0.00    -0.550 OA
ATOM      9  O   UNL     1      -3.058  36.991  14.537  1.00  0.00    -0.550 OA
ENDBRANCH   6   7
ENDBRANCH   5   6
ENDBRANCH   4   5
ENDBRANCH   3   4
ENDBRANCH   2   3
ENDBRANCH   1   2
BRANCH   1  10
ATOM     10  C   UNL     1      -4.854  35.200  23.216  1.00  0.00     0.000 C 
BRANCH  10  11
ATOM     11  C   UNL     1      -6.081  36.022  23.647  1.00  0.00    -0.000 C 
BRANCH  11  12
ATOM     12  C   UNL     1      -5.981  36.528  25.096  1.00  0.00    -0.000 C 
BRANCH  12  13
ATOM     13  C   UNL     1      -5.311  37.909  25.190  1.00  0.00    -0.000 C 
BRANCH  13  14
ATOM     14  C   UNL     1      -5.470  38.728  23.896  1.00  0.00    -0.000 C 
BRANCH  14  15
ATOM     15  C   UNL     1      -5.355  40.245  24.131  1.00  0.00    -0.000 C 
BRANCH  15  16
ATOM     16  C   UNL     1      -5.512  41.111  22.869  1.00  0.00    -0.003 C 
ATOM     17  C   UNL     1      -5.841  40.295  21.620  1.00  0.00     0.004 C 
ENDBRANCH  15  16
ENDBRANCH  14  15
ENDBRANCH  13  14
ENDBRANCH  12  13
ENDBRANCH  11  12
ENDBRANCH  10  11
ENDBRANCH   1  10
TORSDOF 13
ENDMDL
MODEL 7
REMARK VINA RESULT:    -3.240      3.473      7.370
REMARK INTER + INTRA:          -6.809
REMARK INTER:                  -6.039
REMARK INTRA:                  -0.770
REMARK UNBOUND:                -1.107
REMARK SMILES CCCCCCCCCCCCCCC(=O)[O-]
REMARK SMILES IDX 9 1 10 2 11 3 12 4 13 5 14 6 15 7 16 8 17 9 8 10 7 11 6 12
REMARK SMILES IDX 5 13 4 14 3 15 2 16 1 17
REMARK H PARENT
REMARK Flexibility Score: inf
ROOT
ATOM      1  C   UNL     1      -5.363  35.423  22.748  1.00  0.00     0.000 C 
ENDROOT
BRANCH   1   2
ATOM      2  C   UNL     1      -6.048  35.844  24.057  1.00  0.00     0.000 C 
BRANCH   2   3
ATOM      3  C   UNL     1      -5.043  36.489  25.023  1.00  0.00     0.000 C 
BRANCH   3   4
ATOM      4  C   UNL     1      -5.249  38.006  25.179  1.00  0.00     0.000 C 
BRANCH   4   5
ATOM      5  C   UNL     1      -5.669  38.741  23.893  1.00  0.00     0.006 C 
BRANCH   5   6
ATOM      6  C   UNL     1      -5.322  40.235  23.917  1.00  0.00     0.053 C 
BRANCH   6   7
ATOM      7  C   UNL     1      -5.697  40.880  22.621  1.00  0.00     0.041 C 
ATOM      8  O   UNL     1      -5.751  40.195  21.566  1.00  0.00    -0.550 OA
ATOM      9  O   UNL     1      -5.939  42.246  22.568  1.00  0.00    -0.550 OA
ENDBRANCH   6   7
ENDBRANCH   5   6
ENDBRANCH   4   5
ENDBRANCH   3   4
ENDBRANCH   2   3
ENDBRANCH   1   2
BRANCH   1  10
ATOM     10  C   UNL     1      -6.059  36.021  21.506  1.00  0.00     0.000 C 
BRANCH  10  11
ATOM     11  C   UNL     1      -5.160  36.071  20.258  1.00  0.00    -0.000 C 
BRANCH  11  12
ATOM     12  C   UNL     1      -3.762  36.639  20.552  1.00  0.00    -0.000 C 
BRANCH  12  13
ATOM     13  C   UNL     1      -3.367  37.760  19.577  1.00  0.00    -0.000 C 
BRANCH  13  14
ATOM     14  C   UNL     1      -3.321  37.279  18.116  1.00  0.00    -0.000 C 
BRANCH  14  15
ATOM     15  C   UNL     1      -1.982  37.593  17.425  1.00  0.00    -0.000 C 
BRANCH  15  16
ATOM     16  C   UNL     1      -1.767  36.888  16.074  1.00  0.00    -0.003 C 
ATOM     17  C   UNL     1      -2.841  37.230  15.043  1.00  0.00     0.004 C 
ENDBRANCH  15  16
ENDBRANCH  14  15
ENDBRANCH  13  14
ENDBRANCH  12  13
ENDBRANCH  11  12
ENDBRANCH  10  11
ENDBRANCH   1  10
TORSDOF 13
ENDMDL
MODEL 8
REMARK VINA RESULT:    -3.159      4.126      7.458
REMARK INTER + INTRA:          -6.668
REMARK INTER:                  -5.628
REMARK INTRA:                  -1.040
REMARK UNBOUND:                -1.107
REMARK SMILES CCCCCCCCCCCCCCC(=O)[O-]
REMARK SMILES IDX 9 1 10 2 11 3 12 4 13 5 14 6 15 7 16 8 17 9 8 10 7 11 6 12
REMARK SMILES IDX 5 13 4 14 3 15 2 16 1 17
REMARK H PARENT
REMARK Flexibility Score: inf
ROOT
ATOM      1  C   UNL     1      -4.145  36.345  20.002  1.00  0.00     0.000 C 
ENDROOT
BRANCH   1   2
ATOM      2  C   UNL     1      -5.180  37.447  20.275  1.00  0.00     0.000 C 
BRANCH   2   3
ATOM      3  C   UNL     1      -5.533  37.515  21.768  1.00  0.00     0.000 C 
BRANCH   3   4
ATOM      4  C   UNL     1      -6.034  36.172  22.328  1.00  0.00     0.000 C 
BRANCH   4   5
ATOM      5  C   UNL     1      -5.388  35.740  23.658  1.00  0.00     0.006 C 
BRANCH   5   6
ATOM      6  C   UNL     1      -6.009  36.434  24.877  1.00  0.00     0.053 C 
BRANCH   6   7
ATOM      7  C   UNL     1      -5.108  37.520  25.375  1.00  0.00     0.041 C 
ATOM      8  O   UNL     1      -4.199  37.257  26.206  1.00  0.00    -0.550 OA
ATOM      9  O   UNL     1      -5.302  38.830  24.960  1.00  0.00    -0.550 OA
ENDBRANCH   6   7
ENDBRANCH   5   6
ENDBRANCH   4   5
ENDBRANCH   3   4
ENDBRANCH   2   3
ENDBRANCH   1   2
BRANCH   1  10
ATOM     10  C   UNL     1      -4.736  35.179  19.179  1.00  0.00     0.000 C 
BRANCH  10  11
ATOM     11  C   UNL     1      -4.334  35.205  17.694  1.00  0.00    -0.000 C 
BRANCH  11  12
ATOM     12  C   UNL     1      -3.763  36.564  17.255  1.00  0.00    -0.000 C 
BRANCH  12  13
ATOM     13  C   UNL     1      -2.668  36.421  16.185  1.00  0.00    -0.000 C 
BRANCH  13  14
ATOM     14  C   UNL     1      -1.453  37.324  16.464  1.00  0.00    -0.000 C 
BRANCH  14  15
ATOM     15  C   UNL     1      -1.600  38.138  17.762  1.00  0.00    -0.000 C 
BRANCH  15  16
ATOM     16  C   UNL     1      -0.384  38.083  18.704  1.00  0.00    -0.003 C 
ATOM     17  C   UNL     1      -0.758  37.732  20.143  1.00  0.00     0.004 C 
ENDBRANCH  15  16
ENDBRANCH  14  15
ENDBRANCH  13  14
ENDBRANCH  12  13
ENDBRANCH  11  12
ENDBRANCH  10  11
ENDBRANCH   1  10
TORSDOF 13
ENDMDL
MODEL 9
REMARK VINA RESULT:    -3.001      4.010      7.053
REMARK INTER + INTRA:          -6.388
REMARK INTER:                  -4.955
REMARK INTRA:                  -1.433
REMARK UNBOUND:                -1.107
REMARK SMILES CCCCCCCCCCCCCCC(=O)[O-]
REMARK SMILES IDX 9 1 10 2 11 3 12 4 13 5 14 6 15 7 16 8 17 9 8 10 7 11 6 12
REMARK SMILES IDX 5 13 4 14 3 15 2 16 1 17
REMARK H PARENT
REMARK Flexibility Score: inf
ROOT
ATOM      1  C   UNL     1      -1.441  37.517  20.331  1.00  0.00     0.000 C 
ENDROOT
BRANCH   1   2
ATOM      2  C   UNL     1      -2.868  36.978  20.516  1.00  0.00     0.000 C 
BRANCH   2   3
ATOM      3  C   UNL     1      -3.911  38.007  20.054  1.00  0.00     0.000 C 
BRANCH   3   4
ATOM      4  C   UNL     1      -5.294  37.790  20.694  1.00  0.00     0.000 C 
BRANCH   4   5
ATOM      5  C   UNL     1      -5.267  37.209  22.119  1.00  0.00     0.006 C 
BRANCH   5   6
ATOM      6  C   UNL     1      -5.997  35.865  22.232  1.00  0.00     0.053 C 
BRANCH   6   7
ATOM      7  C   UNL     1      -5.987  35.381  23.647  1.00  0.00     0.041 C 
ATOM      8  O   UNL     1      -5.975  34.147  23.895  1.00  0.00    -0.550 OA
ATOM      9  O   UNL     1      -6.040  36.293  24.694  1.00  0.00    -0.550 OA
ENDBRANCH   6   7
ENDBRANCH   5   6
ENDBRANCH   4   5
ENDBRANCH   3   4
ENDBRANCH   2   3
ENDBRANCH   1   2
BRANCH   1  10
ATOM     10  C   UNL     1      -1.340  38.510  19.153  1.00  0.00     0.000 C 
BRANCH  10  11
ATOM     11  C   UNL     1      -0.686  37.912  17.895  1.00  0.00    -0.000 C 
BRANCH  11  12
ATOM     12  C   UNL     1      -1.619  37.930  16.673  1.00  0.00    -0.000 C 
BRANCH  12  13
ATOM     13  C   UNL     1      -1.678  36.570  15.960  1.00  0.00    -0.000 C 
BRANCH  13  14
ATOM     14  C   UNL     1      -3.104  35.991  15.916  1.00  0.00    -0.000 C 
BRANCH  14  15
ATOM     15  C   UNL     1      -3.883  36.222  17.224  1.00  0.00    -0.000 C 
BRANCH  15  16
ATOM     16  C   UNL     1      -4.300  34.939  17.966  1.00  0.00    -0.003 C 
ATOM     17  C   UNL     1      -5.695  35.031  18.581  1.00  0.00     0.004 C 
ENDBRANCH  15  16
ENDBRANCH  14  15
ENDBRANCH  13  14
ENDBRANCH  12  13
ENDBRANCH  11  12
ENDBRANCH  10  11
ENDBRANCH   1  10
TORSDOF 13
ENDMDL
