MODEL 1
REMARK VINA RESULT:    -4.372      0.000      0.000
REMARK INTER + INTRA:          -5.893
REMARK INTER:                  -5.138
REMARK INTRA:                  -0.755
REMARK UNBOUND:                -0.755
REMARK SMILES C=C[C@@]1(C)CC[C@@H](C(=C)C)C[C@H]1C(=C)C
REMARK SMILES IDX 7 1 6 2 5 3 3 4 12 5 11 6 4 7 8 8 10 9 9 10 13 11 14 12
REMARK SMILES IDX 15 13 2 14 1 15
REMARK H PARENT
REMARK Flexibility Score: inf
ROOT
ATOM      1  C   UNL     1      61.113  -3.002 -49.017  1.00  0.00     0.015 C 
ATOM      2  C   UNL     1      61.948  -4.333 -49.156  1.00  0.00     0.009 C 
ATOM      3  C   UNL     1      62.125  -5.270 -47.914  1.00  0.00     0.012 C 
ATOM      4  C   UNL     1      61.135  -5.048 -46.726  1.00  0.00    -0.008 C 
ATOM      5  C   UNL     1      61.200  -3.494 -46.443  1.00  0.00     0.024 C 
ATOM      6  C   UNL     1      60.594  -2.637 -47.573  1.00  0.00     0.017 C 
ATOM      7  C   UNL     1      61.724  -5.806 -45.489  1.00  0.00     0.016 C 
ENDROOT
BRANCH   1   8
ATOM      8  C   UNL     1      60.069  -2.885 -50.139  1.00  0.00    -0.077 C 
ATOM      9  C   UNL     1      59.032  -1.781 -50.184  1.00  0.00     0.039 C 
ATOM     10  C   UNL     1      60.025  -3.827 -51.103  1.00  0.00     0.008 C 
ENDBRANCH   1   8
BRANCH   5  11
ATOM     11  C   UNL     1      60.782  -3.004 -45.066  1.00  0.00    -0.077 C 
ATOM     12  C   UNL     1      59.508  -2.689 -44.773  1.00  0.00     0.008 C 
ATOM     13  C   UNL     1      61.857  -2.338 -44.229  1.00  0.00     0.039 C 
ENDBRANCH   5  11
BRANCH   4  14
ATOM     14  C   UNL     1      59.725  -5.638 -46.985  1.00  0.00    -0.028 C 
ATOM     15  C   UNL     1      59.083  -6.561 -46.230  1.00  0.00     0.004 C 
ENDBRANCH   4  14
TORSDOF 3
ENDMDL
MODEL 2
REMARK VINA RESULT:    -4.242     10.445     12.566
REMARK INTER + INTRA:          -5.740
REMARK INTER:                  -4.833
REMARK INTRA:                  -0.908
REMARK UNBOUND:                -0.755
REMARK SMILES C=C[C@@]1(C)CC[C@@H](C(=C)C)C[C@H]1C(=C)C
REMARK SMILES IDX 7 1 6 2 5 3 3 4 12 5 11 6 4 7 8 8 10 9 9 10 13 11 14 12
REMARK SMILES IDX 15 13 2 14 1 15
REMARK H PARENT
REMARK Flexibility Score: inf
ROOT
ATOM      1  C   UNL     1      53.887   7.783 -49.699  1.00  0.00     0.015 C 
ATOM      2  C   UNL     1      55.051   6.827 -50.164  1.00  0.00     0.009 C 
ATOM      3  C   UNL     1      55.836   5.988 -49.101  1.00  0.00     0.012 C 
ATOM      4  C   UNL     1      55.164   5.831 -47.700  1.00  0.00    -0.008 C 
ATOM      5  C   UNL     1      54.780   7.306 -47.279  1.00  0.00     0.024 C 
ATOM      6  C   UNL     1      53.659   7.920 -48.144  1.00  0.00     0.017 C 
ATOM      7  C   UNL     1      56.263   5.302 -46.718  1.00  0.00     0.016 C 
ENDROOT
BRANCH   1   8
ATOM      8  C   UNL     1      52.615   7.552 -50.530  1.00  0.00    -0.077 C 
ATOM      9  C   UNL     1      52.356   8.253 -51.848  1.00  0.00     0.039 C 
ATOM     10  C   UNL     1      51.654   6.734 -50.055  1.00  0.00     0.008 C 
ENDBRANCH   1   8
BRANCH   5  11
ATOM     11  C   UNL     1      54.586   7.597 -45.800  1.00  0.00    -0.077 C 
ATOM     12  C   UNL     1      53.392   7.469 -45.195  1.00  0.00     0.008 C 
ATOM     13  C   UNL     1      55.574   8.555 -45.162  1.00  0.00     0.039 C 
ENDBRANCH   5  11
BRANCH   4  14
ATOM     14  C   UNL     1      54.012   4.794 -47.686  1.00  0.00    -0.028 C 
ATOM     15  C   UNL     1      53.764   3.847 -48.622  1.00  0.00     0.004 C 
ENDBRANCH   4  14
TORSDOF 3
ENDMDL
MODEL 3
REMARK VINA RESULT:    -4.142     11.398     13.694
REMARK INTER + INTRA:          -5.623
REMARK INTER:                  -4.727
REMARK INTRA:                  -0.896
REMARK UNBOUND:                -0.755
REMARK SMILES C=C[C@@]1(C)CC[C@@H](C(=C)C)C[C@H]1C(=C)C
REMARK SMILES IDX 7 1 6 2 5 3 3 4 12 5 11 6 4 7 8 8 10 9 9 10 13 11 14 12
REMARK SMILES IDX 15 13 2 14 1 15
REMARK H PARENT
REMARK Flexibility Score: inf
ROOT
ATOM      1  C   UNL     1      54.289   8.050 -44.713  1.00  0.00     0.015 C 
ATOM      2  C   UNL     1      52.848   7.558 -44.302  1.00  0.00     0.009 C 
ATOM      3  C   UNL     1      51.944   6.840 -45.360  1.00  0.00     0.012 C 
ATOM      4  C   UNL     1      52.663   6.289 -46.633  1.00  0.00    -0.008 C 
ATOM      5  C   UNL     1      53.521   7.507 -47.161  1.00  0.00     0.024 C 
ATOM      6  C   UNL     1      54.691   7.884 -46.229  1.00  0.00     0.017 C 
ATOM      7  C   UNL     1      51.550   5.968 -47.688  1.00  0.00     0.016 C 
ENDROOT
BRANCH   1   8
ATOM      8  C   UNL     1      55.344   7.580 -43.699  1.00  0.00    -0.077 C 
ATOM      9  C   UNL     1      55.584   6.118 -43.382  1.00  0.00     0.039 C 
ATOM     10  C   UNL     1      56.057   8.496 -43.014  1.00  0.00     0.008 C 
ENDBRANCH   1   8
BRANCH   5  11
ATOM     11  C   UNL     1      53.932   7.508 -48.625  1.00  0.00    -0.077 C 
ATOM     12  C   UNL     1      54.995   6.815 -49.070  1.00  0.00     0.008 C 
ATOM     13  C   UNL     1      53.507   8.708 -49.448  1.00  0.00     0.039 C 
ENDBRANCH   5  11
BRANCH   4  14
ATOM     14  C   UNL     1      53.434   4.969 -46.378  1.00  0.00    -0.028 C 
ATOM     15  C   UNL     1      53.162   4.044 -45.426  1.00  0.00     0.004 C 
ENDBRANCH   4  14
TORSDOF 3
ENDMDL
MODEL 4
REMARK VINA RESULT:    -4.078      6.947      8.863
REMARK INTER + INTRA:          -5.548
REMARK INTER:                  -4.655
REMARK INTRA:                  -0.893
REMARK UNBOUND:                -0.755
REMARK SMILES C=C[C@@]1(C)CC[C@@H](C(=C)C)C[C@H]1C(=C)C
REMARK SMILES IDX 7 1 6 2 5 3 3 4 12 5 11 6 4 7 8 8 10 9 9 10 13 11 14 12
REMARK SMILES IDX 15 13 2 14 1 15
REMARK H PARENT
REMARK Flexibility Score: inf
ROOT
ATOM      1  C   UNL     1      51.823  -7.381 -49.927  1.00  0.00     0.015 C 
ATOM      2  C   UNL     1      51.160  -5.978 -49.644  1.00  0.00     0.009 C 
ATOM      3  C   UNL     1      51.818  -5.005 -48.608  1.00  0.00     0.012 C 
ATOM      4  C   UNL     1      53.302  -5.298 -48.221  1.00  0.00    -0.008 C 
ATOM      5  C   UNL     1      53.316  -6.833 -47.842  1.00  0.00     0.024 C 
ATOM      6  C   UNL     1      53.073  -7.766 -49.046  1.00  0.00     0.017 C 
ATOM      7  C   UNL     1      53.616  -4.463 -46.934  1.00  0.00     0.016 C 
ENDROOT
BRANCH   1   8
ATOM      8  C   UNL     1      51.986  -7.620 -51.437  1.00  0.00    -0.077 C 
ATOM      9  C   UNL     1      51.880  -8.994 -52.067  1.00  0.00     0.039 C 
ATOM     10  C   UNL     1      52.289  -6.582 -52.242  1.00  0.00     0.008 C 
ENDBRANCH   1   8
BRANCH   5  11
ATOM     11  C   UNL     1      54.436  -7.335 -46.945  1.00  0.00    -0.077 C 
ATOM     12  C   UNL     1      55.580  -7.840 -47.442  1.00  0.00     0.008 C 
ATOM     13  C   UNL     1      54.040  -7.788 -45.554  1.00  0.00     0.039 C 
ENDBRANCH   5  11
BRANCH   4  14
ATOM     14  C   UNL     1      54.318  -4.852 -49.304  1.00  0.00    -0.028 C 
ATOM     15  C   UNL     1      54.110  -3.936 -50.280  1.00  0.00     0.004 C 
ENDBRANCH   4  14
TORSDOF 3
ENDMDL
MODEL 5
REMARK VINA RESULT:    -4.028     11.745     13.660
REMARK INTER + INTRA:          -5.489
REMARK INTER:                  -4.695
REMARK INTRA:                  -0.794
REMARK UNBOUND:                -0.755
REMARK SMILES C=C[C@@]1(C)CC[C@@H](C(=C)C)C[C@H]1C(=C)C
REMARK SMILES IDX 7 1 6 2 5 3 3 4 12 5 11 6 4 7 8 8 10 9 9 10 13 11 14 12
REMARK SMILES IDX 15 13 2 14 1 15
REMARK H PARENT
REMARK Flexibility Score: inf
ROOT
ATOM      1  C   UNL     1      54.621   6.555 -46.194  1.00  0.00     0.015 C 
ATOM      2  C   UNL     1      55.844   6.547 -47.189  1.00  0.00     0.009 C 
ATOM      3  C   UNL     1      55.587   6.510 -48.734  1.00  0.00     0.012 C 
ATOM      4  C   UNL     1      54.150   6.895 -49.210  1.00  0.00    -0.008 C 
ATOM      5  C   UNL     1      53.188   6.009 -48.322  1.00  0.00     0.024 C 
ATOM      6  C   UNL     1      53.185   6.409 -46.832  1.00  0.00     0.017 C 
ATOM      7  C   UNL     1      54.020   6.432 -50.701  1.00  0.00     0.016 C 
ENDROOT
BRANCH   1   8
ATOM      8  C   UNL     1      54.764   7.675 -45.151  1.00  0.00    -0.077 C 
ATOM      9  C   UNL     1      53.790   7.860 -44.006  1.00  0.00     0.039 C 
ATOM     10  C   UNL     1      55.763   8.572 -45.277  1.00  0.00     0.008 C 
ENDBRANCH   1   8
BRANCH   5  11
ATOM     11  C   UNL     1      51.787   5.736 -48.844  1.00  0.00    -0.077 C 
ATOM     12  C   UNL     1      50.758   6.568 -48.604  1.00  0.00     0.008 C 
ATOM     13  C   UNL     1      51.439   4.288 -49.128  1.00  0.00     0.039 C 
ENDBRANCH   5  11
BRANCH   4  14
ATOM     14  C   UNL     1      53.886   8.422 -49.190  1.00  0.00    -0.028 C 
ATOM     15  C   UNL     1      53.255   9.147 -50.145  1.00  0.00     0.004 C 
ENDBRANCH   4  14
TORSDOF 3
ENDMDL
MODEL 6
REMARK VINA RESULT:    -3.970     10.617     12.955
REMARK INTER + INTRA:          -5.421
REMARK INTER:                  -4.684
REMARK INTRA:                  -0.737
REMARK UNBOUND:                -0.755
REMARK SMILES C=C[C@@]1(C)CC[C@@H](C(=C)C)C[C@H]1C(=C)C
REMARK SMILES IDX 7 1 6 2 5 3 3 4 12 5 11 6 4 7 8 8 10 9 9 10 13 11 14 12
REMARK SMILES IDX 15 13 2 14 1 15
REMARK H PARENT
REMARK Flexibility Score: inf
ROOT
ATOM      1  C   UNL     1      53.164   7.031 -48.545  1.00  0.00     0.015 C 
ATOM      2  C   UNL     1      52.236   7.691 -47.454  1.00  0.00     0.009 C 
ATOM      3  C   UNL     1      52.548   7.472 -45.935  1.00  0.00     0.012 C 
ATOM      4  C   UNL     1      53.981   6.960 -45.585  1.00  0.00    -0.008 C 
ATOM      5  C   UNL     1      54.195   5.709 -46.528  1.00  0.00     0.024 C 
ATOM      6  C   UNL     1      54.307   6.077 -48.022  1.00  0.00     0.017 C 
ATOM      7  C   UNL     1      53.943   6.464 -44.100  1.00  0.00     0.016 C 
ENDROOT
BRANCH   1   8
ATOM      8  C   UNL     1      53.600   8.061 -49.597  1.00  0.00    -0.077 C 
ATOM      9  C   UNL     1      54.584   7.740 -50.704  1.00  0.00     0.039 C 
ATOM     10  C   UNL     1      53.138   9.326 -49.516  1.00  0.00     0.008 C 
ENDBRANCH   1   8
BRANCH   5  11
ATOM     11  C   UNL     1      55.229   4.674 -46.115  1.00  0.00    -0.077 C 
ATOM     12  C   UNL     1      56.527   4.784 -46.450  1.00  0.00     0.008 C 
ATOM     13  C   UNL     1      54.714   3.275 -45.836  1.00  0.00     0.039 C 
ENDBRANCH   5  11
BRANCH   4  14
ATOM     14  C   UNL     1      55.064   8.066 -45.661  1.00  0.00    -0.028 C 
ATOM     15  C   UNL     1      55.733   8.616 -44.619  1.00  0.00     0.004 C 
ENDBRANCH   4  14
TORSDOF 3
ENDMDL
MODEL 7
REMARK VINA RESULT:    -3.867      1.593      3.294
REMARK INTER + INTRA:          -5.300
REMARK INTER:                  -4.434
REMARK INTRA:                  -0.866
REMARK UNBOUND:                -0.755
REMARK SMILES C=C[C@@]1(C)CC[C@@H](C(=C)C)C[C@H]1C(=C)C
REMARK SMILES IDX 7 1 6 2 5 3 3 4 12 5 11 6 4 7 8 8 10 9 9 10 13 11 14 12
REMARK SMILES IDX 15 13 2 14 1 15
REMARK H PARENT
REMARK Flexibility Score: inf
ROOT
ATOM      1  C   UNL     1      59.935  -3.477 -48.234  1.00  0.00     0.015 C 
ATOM      2  C   UNL     1      60.813  -3.027 -47.004  1.00  0.00     0.009 C 
ATOM      3  C   UNL     1      60.633  -3.740 -45.621  1.00  0.00     0.012 C 
ATOM      4  C   UNL     1      59.895  -5.117 -45.637  1.00  0.00    -0.008 C 
ATOM      5  C   UNL     1      58.573  -4.847 -46.461  1.00  0.00     0.024 C 
ATOM      6  C   UNL     1      58.827  -4.565 -47.956  1.00  0.00     0.017 C 
ATOM      7  C   UNL     1      59.503  -5.447 -44.157  1.00  0.00     0.016 C 
ENDROOT
BRANCH   1   8
ATOM      8  C   UNL     1      60.808  -3.732 -49.473  1.00  0.00    -0.077 C 
ATOM      9  C   UNL     1      60.246  -3.775 -50.879  1.00  0.00     0.039 C 
ATOM     10  C   UNL     1      62.123  -3.983 -49.315  1.00  0.00     0.008 C 
ENDBRANCH   1   8
BRANCH   5  11
ATOM     11  C   UNL     1      57.397  -5.787 -46.247  1.00  0.00    -0.077 C 
ATOM     12  C   UNL     1      57.219  -6.892 -46.993  1.00  0.00     0.008 C 
ATOM     13  C   UNL     1      56.158  -5.190 -45.609  1.00  0.00     0.039 C 
ENDBRANCH   5  11
BRANCH   4  14
ATOM     14  C   UNL     1      60.786  -6.284 -46.136  1.00  0.00    -0.028 C 
ATOM     15  C   UNL     1      62.125  -6.251 -46.337  1.00  0.00     0.004 C 
ENDBRANCH   4  14
TORSDOF 3
ENDMDL
MODEL 8
REMARK VINA RESULT:    -3.820     10.806     13.934
REMARK INTER + INTRA:          -5.245
REMARK INTER:                  -4.353
REMARK INTRA:                  -0.891
REMARK UNBOUND:                -0.755
REMARK SMILES C=C[C@@]1(C)CC[C@@H](C(=C)C)C[C@H]1C(=C)C
REMARK SMILES IDX 7 1 6 2 5 3 3 4 12 5 11 6 4 7 8 8 10 9 9 10 13 11 14 12
REMARK SMILES IDX 15 13 2 14 1 15
REMARK H PARENT
REMARK Flexibility Score: inf
ROOT
ATOM      1  C   UNL     1      52.317   7.159 -47.654  1.00  0.00     0.015 C 
ATOM      2  C   UNL     1      52.310   5.610 -47.948  1.00  0.00     0.009 C 
ATOM      3  C   UNL     1      52.922   5.072 -49.286  1.00  0.00     0.012 C 
ATOM      4  C   UNL     1      53.865   6.045 -50.062  1.00  0.00    -0.008 C 
ATOM      5  C   UNL     1      53.045   7.393 -50.163  1.00  0.00     0.024 C 
ATOM      6  C   UNL     1      52.852   8.097 -48.804  1.00  0.00     0.017 C 
ATOM      7  C   UNL     1      54.043   5.460 -51.504  1.00  0.00     0.016 C 
ENDROOT
BRANCH   1   8
ATOM      8  C   UNL     1      52.877   7.453 -46.254  1.00  0.00    -0.077 C 
ATOM      9  C   UNL     1      54.352   7.684 -45.991  1.00  0.00     0.039 C 
ATOM     10  C   UNL     1      52.043   7.457 -45.195  1.00  0.00     0.008 C 
ENDBRANCH   1   8
BRANCH   5  11
ATOM     11  C   UNL     1      53.415   8.370 -51.267  1.00  0.00    -0.077 C 
ATOM     12  C   UNL     1      54.340   9.331 -51.093  1.00  0.00     0.008 C 
ATOM     13  C   UNL     1      52.364   8.622 -52.330  1.00  0.00     0.039 C 
ENDBRANCH   5  11
BRANCH   4  14
ATOM     14  C   UNL     1      55.282   6.150 -49.442  1.00  0.00    -0.028 C 
ATOM     15  C   UNL     1      55.867   5.261 -48.605  1.00  0.00     0.004 C 
ENDBRANCH   4  14
TORSDOF 3
ENDMDL
MODEL 9
REMARK VINA RESULT:    -3.762     11.501     14.130
REMARK INTER + INTRA:          -5.176
REMARK INTER:                  -4.407
REMARK INTRA:                  -0.770
REMARK UNBOUND:                -0.755
REMARK SMILES C=C[C@@]1(C)CC[C@@H](C(=C)C)C[C@H]1C(=C)C
REMARK SMILES IDX 7 1 6 2 5 3 3 4 12 5 11 6 4 7 8 8 10 9 9 10 13 11 14 12
REMARK SMILES IDX 15 13 2 14 1 15
REMARK H PARENT
REMARK Flexibility Score: inf
ROOT
ATOM      1  C   UNL     1      53.860   7.943 -47.751  1.00  0.00     0.015 C 
ATOM      2  C   UNL     1      52.435   7.448 -47.292  1.00  0.00     0.009 C 
ATOM      3  C   UNL     1      51.408   6.942 -48.361  1.00  0.00     0.012 C 
ATOM      4  C   UNL     1      51.988   6.572 -49.763  1.00  0.00    -0.008 C 
ATOM      5  C   UNL     1      52.861   7.825 -50.173  1.00  0.00     0.024 C 
ATOM      6  C   UNL     1      54.124   8.004 -49.305  1.00  0.00     0.017 C 
ATOM      7  C   UNL     1      50.775   6.466 -50.749  1.00  0.00     0.016 C 
ENDROOT
BRANCH   1   8
ATOM      8  C   UNL     1      54.970   7.277 -46.923  1.00  0.00    -0.077 C 
ATOM      9  C   UNL     1      55.447   7.829 -45.595  1.00  0.00     0.039 C 
ATOM     10  C   UNL     1      55.594   6.186 -47.410  1.00  0.00     0.008 C 
ENDBRANCH   1   8
BRANCH   5  11
ATOM     11  C   UNL     1      53.146   8.041 -51.651  1.00  0.00    -0.077 C 
ATOM     12  C   UNL     1      53.885   7.179 -52.371  1.00  0.00     0.008 C 
ATOM     13  C   UNL     1      53.090   9.472 -52.149  1.00  0.00     0.039 C 
ENDBRANCH   5  11
BRANCH   4  14
ATOM     14  C   UNL     1      52.707   5.199 -49.787  1.00  0.00    -0.028 C 
ATOM     15  C   UNL     1      52.636   4.232 -48.841  1.00  0.00     0.004 C 
ENDBRANCH   4  14
TORSDOF 3
ENDMDL
