MODEL 1
REMARK VINA RESULT:    12.404      0.000      0.000
REMARK INTER + INTRA:          13.129
REMARK INTER:                  13.129
REMARK INTRA:                   0.000
REMARK UNBOUND:                 0.000
REMARK SMILES Cc1cc(O)c(C)c(C)c1O
REMARK SMILES IDX 1 1 2 2 3 3 4 4 6 5 8 6 10 7 9 8 7 9 11 10 5 12
REMARK H PARENT 11 11 5 13
REMARK Flexibility Score: inf
ROOT
ATOM      1  C   UNL     1      -2.906  50.172  22.742  1.00  0.00     0.048 C 
ATOM      2  C   UNL     1      -1.845  50.801  21.878  1.00  0.00    -0.005 A 
ATOM      3  C   UNL     1      -0.706  51.343  22.482  1.00  0.00     0.053 A 
ATOM      4  C   UNL     1       0.306  51.925  21.721  1.00  0.00     0.119 A 
ATOM      5  C   UNL     1       0.206  51.955  20.311  1.00  0.00    -0.003 A 
ATOM      6  C   UNL     1      -0.974  51.465  19.689  1.00  0.00    -0.002 A 
ATOM      7  C   UNL     1      -1.984  50.864  20.476  1.00  0.00     0.121 A 
ATOM      8  C   UNL     1      -1.156  51.553  18.190  1.00  0.00     0.049 C 
ATOM      9  C   UNL     1       1.346  52.537  19.502  1.00  0.00     0.049 C 
ENDROOT
BRANCH   7  10
ATOM     10  O   UNL     1      -3.118  50.338  19.846  1.00  0.00    -0.507 OA
ATOM     11  H   UNL     1      -4.065  50.529  20.146  1.00  0.00     0.293 HD
ENDBRANCH   7  10
BRANCH   4  12
ATOM     12  O   UNL     1       1.397  52.470  22.404  1.00  0.00    -0.508 OA
ATOM     13  H   UNL     1       2.360  52.245  22.192  1.00  0.00     0.293 HD
ENDBRANCH   4  12
TORSDOF 2
ENDMDL
MODEL 2
REMARK VINA RESULT:    12.545     11.746     12.216
REMARK INTER + INTRA:          13.278
REMARK INTER:                  13.278
REMARK INTRA:                   0.000
REMARK UNBOUND:                 0.000
REMARK SMILES Cc1cc(O)c(C)c(C)c1O
REMARK SMILES IDX 1 1 2 2 3 3 4 4 6 5 8 6 10 7 9 8 7 9 11 10 5 12
REMARK H PARENT 11 11 5 13
REMARK Flexibility Score: inf
ROOT
ATOM      1  C   UNL     1       4.052  40.875  25.715  1.00  0.00     0.048 C 
ATOM      2  C   UNL     1       5.248  41.517  25.063  1.00  0.00    -0.005 A 
ATOM      3  C   UNL     1       6.510  40.941  25.234  1.00  0.00     0.053 A 
ATOM      4  C   UNL     1       7.643  41.496  24.640  1.00  0.00     0.119 A 
ATOM      5  C   UNL     1       7.527  42.648  23.829  1.00  0.00    -0.003 A 
ATOM      6  C   UNL     1       6.260  43.280  23.698  1.00  0.00    -0.002 A 
ATOM      7  C   UNL     1       5.120  42.695  24.296  1.00  0.00     0.121 A 
ATOM      8  C   UNL     1       6.109  44.559  22.906  1.00  0.00     0.049 C 
ATOM      9  C   UNL     1       8.761  43.196  23.144  1.00  0.00     0.049 C 
ENDROOT
BRANCH   7  10
ATOM     10  O   UNL     1       3.869  43.297  24.116  1.00  0.00    -0.507 OA
ATOM     11  H   UNL     1       3.410  43.856  24.823  1.00  0.00     0.293 HD
ENDBRANCH   7  10
BRANCH   4  12
ATOM     12  O   UNL     1       8.871  40.875  24.885  1.00  0.00    -0.508 OA
ATOM     13  H   UNL     1       9.515  41.174  25.605  1.00  0.00     0.293 HD
ENDBRANCH   4  12
TORSDOF 2
ENDMDL
MODEL 3
REMARK VINA RESULT:    13.083     11.704     12.546
REMARK INTER + INTRA:          13.848
REMARK INTER:                  13.848
REMARK INTRA:                   0.000
REMARK UNBOUND:                 0.000
REMARK SMILES Cc1cc(O)c(C)c(C)c1O
REMARK SMILES IDX 1 1 2 2 3 3 4 4 6 5 8 6 10 7 9 8 7 9 11 10 5 12
REMARK H PARENT 11 11 5 13
REMARK Flexibility Score: inf
ROOT
ATOM      1  C   UNL     1       8.993  40.875  24.601  1.00  0.00     0.048 C 
ATOM      2  C   UNL     1       7.646  41.535  24.466  1.00  0.00    -0.005 A 
ATOM      3  C   UNL     1       6.536  40.954  25.086  1.00  0.00     0.053 A 
ATOM      4  C   UNL     1       5.273  41.536  24.997  1.00  0.00     0.119 A 
ATOM      5  C   UNL     1       5.098  42.748  24.290  1.00  0.00    -0.003 A 
ATOM      6  C   UNL     1       6.205  43.315  23.601  1.00  0.00    -0.002 A 
ATOM      7  C   UNL     1       7.482  42.719  23.716  1.00  0.00     0.121 A 
ATOM      8  C   UNL     1       6.042  44.566  22.767  1.00  0.00     0.049 C 
ATOM      9  C   UNL     1       3.729  43.393  24.258  1.00  0.00     0.049 C 
ENDROOT
BRANCH   7  10
ATOM     10  O   UNL     1       8.575  43.317  23.077  1.00  0.00    -0.507 OA
ATOM     11  H   UNL     1       8.644  43.429  22.074  1.00  0.00     0.293 HD
ENDBRANCH   7  10
BRANCH   4  12
ATOM     12  O   UNL     1       4.211  40.875  25.621  1.00  0.00    -0.508 OA
ATOM     13  H   UNL     1       4.153  40.726  26.619  1.00  0.00     0.293 HD
ENDBRANCH   4  12
TORSDOF 2
ENDMDL
MODEL 4
REMARK VINA RESULT:    13.370      1.328      3.321
REMARK INTER + INTRA:          14.152
REMARK INTER:                  14.152
REMARK INTRA:                   0.000
REMARK UNBOUND:                 0.000
REMARK SMILES Cc1cc(O)c(C)c(C)c1O
REMARK SMILES IDX 1 1 2 2 3 3 4 4 6 5 8 6 10 7 9 8 7 9 11 10 5 12
REMARK H PARENT 11 11 5 13
REMARK Flexibility Score: inf
ROOT
ATOM      1  C   UNL     1       1.380  52.459  22.597  1.00  0.00     0.048 C 
ATOM      2  C   UNL     1       0.250  51.886  21.782  1.00  0.00    -0.005 A 
ATOM      3  C   UNL     1      -0.753  51.156  22.426  1.00  0.00     0.053 A 
ATOM      4  C   UNL     1      -1.823  50.617  21.714  1.00  0.00     0.119 A 
ATOM      5  C   UNL     1      -1.922  50.822  20.318  1.00  0.00    -0.003 A 
ATOM      6  C   UNL     1      -0.876  51.507  19.642  1.00  0.00    -0.002 A 
ATOM      7  C   UNL     1       0.194  52.061  20.383  1.00  0.00     0.121 A 
ATOM      8  C   UNL     1      -0.904  51.677  18.140  1.00  0.00     0.049 C 
ATOM      9  C   UNL     1      -3.125  50.279  19.576  1.00  0.00     0.049 C 
ENDROOT
BRANCH   7  10
ATOM     10  O   UNL     1       1.189  52.779  19.712  1.00  0.00    -0.507 OA
ATOM     11  H   UNL     1       1.680  53.567  20.116  1.00  0.00     0.293 HD
ENDBRANCH   7  10
BRANCH   4  12
ATOM     12  O   UNL     1      -2.768  49.875  22.429  1.00  0.00    -0.508 OA
ATOM     13  H   UNL     1      -3.637  50.260  22.774  1.00  0.00     0.293 HD
ENDBRANCH   4  12
TORSDOF 2
ENDMDL
MODEL 5
REMARK VINA RESULT:    14.073     12.090     13.147
REMARK INTER + INTRA:          14.896
REMARK INTER:                  14.896
REMARK INTRA:                   0.000
REMARK UNBOUND:                 0.000
REMARK SMILES Cc1cc(O)c(C)c(C)c1O
REMARK SMILES IDX 1 1 2 2 3 3 4 4 6 5 8 6 10 7 9 8 7 9 11 10 5 12
REMARK H PARENT 11 11 5 13
REMARK Flexibility Score: inf
ROOT
ATOM      1  C   UNL     1      10.000  42.580  22.773  1.00  0.00     0.048 C 
ATOM      2  C   UNL     1       8.615  42.579  23.364  1.00  0.00    -0.005 A 
ATOM      3  C   UNL     1       7.647  43.437  22.834  1.00  0.00     0.053 A 
ATOM      4  C   UNL     1       6.348  43.462  23.342  1.00  0.00     0.119 A 
ATOM      5  C   UNL     1       5.982  42.594  24.396  1.00  0.00    -0.003 A 
ATOM      6  C   UNL     1       6.973  41.761  24.985  1.00  0.00    -0.002 A 
ATOM      7  C   UNL     1       8.281  41.739  24.447  1.00  0.00     0.121 A 
ATOM      8  C   UNL     1       6.642  40.877  26.167  1.00  0.00     0.049 C 
ATOM      9  C   UNL     1       4.551  42.594  24.890  1.00  0.00     0.049 C 
ENDROOT
BRANCH   7  10
ATOM     10  O   UNL     1       9.233  40.876  25.002  1.00  0.00    -0.507 OA
ATOM     11  H   UNL     1      10.169  41.165  25.256  1.00  0.00     0.293 HD
ENDBRANCH   7  10
BRANCH   4  12
ATOM     12  O   UNL     1       5.449  44.371  22.776  1.00  0.00    -0.508 OA
ATOM     13  H   UNL     1       4.540  44.576  23.168  1.00  0.00     0.293 HD
ENDBRANCH   4  12
TORSDOF 2
ENDMDL
MODEL 6
REMARK VINA RESULT:    15.298     18.333     20.120
REMARK INTER + INTRA:          16.192
REMARK INTER:                  16.192
REMARK INTRA:                   0.000
REMARK UNBOUND:                 0.000
REMARK SMILES Cc1cc(O)c(C)c(C)c1O
REMARK SMILES IDX 1 1 2 2 3 3 4 4 6 5 8 6 10 7 9 8 7 9 11 10 5 12
REMARK H PARENT 11 11 5 13
REMARK Flexibility Score: inf
ROOT
ATOM      1  C   UNL     1      17.114  45.858  12.360  1.00  0.00     0.048 C 
ATOM      2  C   UNL     1      16.386  44.599  12.749  1.00  0.00    -0.005 A 
ATOM      3  C   UNL     1      16.772  43.383  12.177  1.00  0.00     0.053 A 
ATOM      4  C   UNL     1      16.133  42.191  12.515  1.00  0.00     0.119 A 
ATOM      5  C   UNL     1      15.090  42.191  13.470  1.00  0.00    -0.003 A 
ATOM      6  C   UNL     1      14.646  43.429  14.012  1.00  0.00    -0.002 A 
ATOM      7  C   UNL     1      15.316  44.626  13.668  1.00  0.00     0.121 A 
ATOM      8  C   UNL     1      13.481  43.481  14.974  1.00  0.00     0.049 C 
ATOM      9  C   UNL     1      14.453  40.877  13.867  1.00  0.00     0.049 C 
ENDROOT
BRANCH   7  10
ATOM     10  O   UNL     1      14.903  45.830  14.249  1.00  0.00    -0.507 OA
ATOM     11  H   UNL     1      14.861  45.984  15.248  1.00  0.00     0.293 HD
ENDBRANCH   7  10
BRANCH   4  12
ATOM     12  O   UNL     1      16.560  41.024  11.875  1.00  0.00    -0.508 OA
ATOM     13  H   UNL     1      17.489  40.639  11.975  1.00  0.00     0.293 HD
ENDBRANCH   4  12
TORSDOF 2
ENDMDL
