MODEL 1
REMARK VINA RESULT:    -6.174      0.000      0.000
REMARK INTER + INTRA:          -7.940
REMARK INTER:                  -7.617
REMARK INTRA:                  -0.323
REMARK UNBOUND:                -0.323
REMARK SMILES O=c1c(O)c(-c2cc(O)c(O)c(O)c2)oc2cc(O)cc(O)c12
REMARK SMILES IDX 5 1 3 2 2 3 1 4 23 5 21 6 20 7 18 8 17 9 16 10 15 11 6 12
REMARK SMILES IDX 7 13 8 14 14 15 10 16 12 17 9 18 11 20 13 22 4 24 22 26
REMARK SMILES IDX 19 28
REMARK H PARENT 9 19 11 21 13 23 4 25 22 27 19 29
REMARK Flexibility Score: inf
ROOT
ATOM      1  C   UNL     1      28.651  33.548 125.146  1.00  0.00     0.180 A 
ATOM      2  C   UNL     1      27.330  33.799 124.733  1.00  0.00     0.208 A 
ATOM      3  C   UNL     1      26.984  33.582 123.390  1.00  0.00     0.238 A 
ATOM      4  O   UNL     1      25.816  33.861 123.014  1.00  0.00    -0.285 OA
ATOM      5  C   UNL     1      27.957  33.102 122.480  1.00  0.00     0.111 A 
ATOM      6  C   UNL     1      27.706  32.808 121.106  1.00  0.00     0.134 A 
ATOM      7  C   UNL     1      28.774  32.462 120.268  1.00  0.00     0.093 A 
ATOM      8  C   UNL     1      30.072  32.335 120.770  1.00  0.00     0.123 A 
ATOM      9  C   UNL     1      30.316  32.561 122.123  1.00  0.00     0.094 A 
ATOM     10  C   UNL     1      29.277  32.944 122.975  1.00  0.00     0.146 A 
ATOM     11  O   UNL     1      29.555  33.160 124.255  1.00  0.00    -0.452 OA
ENDROOT
BRANCH   1  12
ATOM     12  C   UNL     1      29.085  33.729 126.550  1.00  0.00     0.029 A 
ATOM     13  C   UNL     1      28.752  32.793 127.545  1.00  0.00     0.062 A 
ATOM     14  C   UNL     1      29.191  32.970 128.864  1.00  0.00     0.162 A 
ATOM     15  C   UNL     1      29.893  34.825 126.887  1.00  0.00     0.062 A 
ATOM     16  C   UNL     1      29.982  34.083 129.197  1.00  0.00     0.200 A 
ATOM     17  C   UNL     1      30.335  35.010 128.201  1.00  0.00     0.162 A 
BRANCH  14  18
ATOM     18  O   UNL     1      28.849  32.039 129.844  1.00  0.00    -0.504 OA
ATOM     19  H   UNL     1      28.711  31.060 129.622  1.00  0.00     0.293 HD
ENDBRANCH  14  18
BRANCH  16  20
ATOM     20  O   UNL     1      30.424  34.276 130.506  1.00  0.00    -0.502 OA
ATOM     21  H   UNL     1      30.600  35.199 130.886  1.00  0.00     0.293 HD
ENDBRANCH  16  20
BRANCH  17  22
ATOM     22  O   UNL     1      31.125  36.120 128.498  1.00  0.00    -0.504 OA
ATOM     23  H   UNL     1      32.104  36.035 128.742  1.00  0.00     0.293 HD
ENDBRANCH  17  22
ENDBRANCH   1  12
BRANCH   2  24
ATOM     24  O   UNL     1      26.392  34.295 125.642  1.00  0.00    -0.502 OA
ATOM     25  H   UNL     1      26.360  35.270 125.913  1.00  0.00     0.293 HD
ENDBRANCH   2  24
BRANCH   6  26
ATOM     26  O   UNL     1      26.434  32.815 120.526  1.00  0.00    -0.507 OA
ATOM     27  H   UNL     1      25.601  32.450 120.962  1.00  0.00     0.293 HD
ENDBRANCH   6  26
BRANCH   8  28
ATOM     28  O   UNL     1      31.125  31.975 119.932  1.00  0.00    -0.508 OA
ATOM     29  H   UNL     1      31.363  32.523 119.114  1.00  0.00     0.293 HD
ENDBRANCH   8  28
TORSDOF 7
ENDMDL
MODEL 2
REMARK VINA RESULT:    -6.169      0.102      1.758
REMARK INTER + INTRA:          -7.934
REMARK INTER:                  -7.632
REMARK INTRA:                  -0.302
REMARK UNBOUND:                -0.323
REMARK SMILES O=c1c(O)c(-c2cc(O)c(O)c(O)c2)oc2cc(O)cc(O)c12
REMARK SMILES IDX 5 1 3 2 2 3 1 4 23 5 21 6 20 7 18 8 17 9 16 10 15 11 6 12
REMARK SMILES IDX 7 13 8 14 14 15 10 16 12 17 9 18 11 20 13 22 4 24 22 26
REMARK SMILES IDX 19 28
REMARK H PARENT 9 19 11 21 13 23 4 25 22 27 19 29
REMARK Flexibility Score: inf
ROOT
ATOM      1  C   UNL     1      28.687  33.508 125.127  1.00  0.00     0.180 A 
ATOM      2  C   UNL     1      27.362  33.781 124.740  1.00  0.00     0.208 A 
ATOM      3  C   UNL     1      26.979  33.545 123.411  1.00  0.00     0.238 A 
ATOM      4  O   UNL     1      25.808  33.842 123.058  1.00  0.00    -0.285 OA
ATOM      5  C   UNL     1      27.918  33.024 122.489  1.00  0.00     0.111 A 
ATOM      6  C   UNL     1      27.628  32.709 121.127  1.00  0.00     0.134 A 
ATOM      7  C   UNL     1      28.668  32.322 120.272  1.00  0.00     0.093 A 
ATOM      8  C   UNL     1      29.974  32.176 120.744  1.00  0.00     0.123 A 
ATOM      9  C   UNL     1      30.256  32.424 122.086  1.00  0.00     0.094 A 
ATOM     10  C   UNL     1      29.247  32.847 122.955  1.00  0.00     0.146 A 
ATOM     11  O   UNL     1      29.561  33.083 124.223  1.00  0.00    -0.452 OA
ENDROOT
BRANCH   1  12
ATOM     12  C   UNL     1      29.159  33.708 126.516  1.00  0.00     0.029 A 
ATOM     13  C   UNL     1      29.929  34.829 126.873  1.00  0.00     0.062 A 
ATOM     14  C   UNL     1      30.346  35.013 128.198  1.00  0.00     0.162 A 
ATOM     15  C   UNL     1      28.784  32.793 127.511  1.00  0.00     0.062 A 
ATOM     16  C   UNL     1      29.985  34.079 129.184  1.00  0.00     0.200 A 
ATOM     17  C   UNL     1      29.197  32.967 128.836  1.00  0.00     0.162 A 
BRANCH  14  18
ATOM     18  O   UNL     1      31.116  36.124 128.540  1.00  0.00    -0.504 OA
ATOM     19  H   UNL     1      31.199  36.923 127.921  1.00  0.00     0.293 HD
ENDBRANCH  14  18
BRANCH  16  20
ATOM     20  O   UNL     1      30.396  34.244 130.507  1.00  0.00    -0.502 OA
ATOM     21  H   UNL     1      29.873  33.865 131.287  1.00  0.00     0.293 HD
ENDBRANCH  16  20
BRANCH  17  22
ATOM     22  O   UNL     1      28.815  32.028 129.792  1.00  0.00    -0.504 OA
ATOM     23  H   UNL     1      28.872  32.215 130.785  1.00  0.00     0.293 HD
ENDBRANCH  17  22
ENDBRANCH   1  12
BRANCH   2  24
ATOM     24  O   UNL     1      26.457  34.316 125.661  1.00  0.00    -0.502 OA
ATOM     25  H   UNL     1      26.703  35.074 126.287  1.00  0.00     0.293 HD
ENDBRANCH   2  24
BRANCH   6  26
ATOM     26  O   UNL     1      26.343  32.732 120.578  1.00  0.00    -0.507 OA
ATOM     27  H   UNL     1      26.139  32.726 119.590  1.00  0.00     0.293 HD
ENDBRANCH   6  26
BRANCH   8  28
ATOM     28  O   UNL     1      30.998  31.776 119.890  1.00  0.00    -0.508 OA
ATOM     29  H   UNL     1      31.779  31.220 120.220  1.00  0.00     0.293 HD
ENDBRANCH   8  28
TORSDOF 7
ENDMDL
MODEL 3
REMARK VINA RESULT:    -5.835      1.426      1.863
REMARK INTER + INTRA:          -7.522
REMARK INTER:                  -7.164
REMARK INTRA:                  -0.358
REMARK UNBOUND:                -0.323
REMARK SMILES O=c1c(O)c(-c2cc(O)c(O)c(O)c2)oc2cc(O)cc(O)c12
REMARK SMILES IDX 5 1 3 2 2 3 1 4 23 5 21 6 20 7 18 8 17 9 16 10 15 11 6 12
REMARK SMILES IDX 7 13 8 14 14 15 10 16 12 17 9 18 11 20 13 22 4 24 22 26
REMARK SMILES IDX 19 28
REMARK H PARENT 9 19 11 21 13 23 4 25 22 27 19 29
REMARK Flexibility Score: inf
ROOT
ATOM      1  C   UNL     1      27.583  34.329 125.409  1.00  0.00     0.180 A 
ATOM      2  C   UNL     1      26.396  35.077 125.312  1.00  0.00     0.208 A 
ATOM      3  C   UNL     1      25.692  35.083 124.098  1.00  0.00     0.238 A 
ATOM      4  O   UNL     1      24.661  35.798 124.000  1.00  0.00    -0.285 OA
ATOM      5  C   UNL     1      26.174  34.329 123.000  1.00  0.00     0.111 A 
ATOM      6  C   UNL     1      25.520  34.230 121.736  1.00  0.00     0.134 A 
ATOM      7  C   UNL     1      26.154  33.561 120.681  1.00  0.00     0.093 A 
ATOM      8  C   UNL     1      27.387  32.931 120.865  1.00  0.00     0.123 A 
ATOM      9  C   UNL     1      28.006  32.972 122.113  1.00  0.00     0.094 A 
ATOM     10  C   UNL     1      27.415  33.663 123.173  1.00  0.00     0.146 A 
ATOM     11  O   UNL     1      28.043  33.685 124.343  1.00  0.00    -0.452 OA
ENDROOT
BRANCH   1  12
ATOM     12  C   UNL     1      28.366  34.254 126.663  1.00  0.00     0.029 A 
ATOM     13  C   UNL     1      28.170  33.212 127.587  1.00  0.00     0.062 A 
ATOM     14  C   UNL     1      28.937  33.145 128.757  1.00  0.00     0.162 A 
ATOM     15  C   UNL     1      29.365  35.207 126.912  1.00  0.00     0.062 A 
ATOM     16  C   UNL     1      29.920  34.117 129.009  1.00  0.00     0.200 A 
ATOM     17  C   UNL     1      30.135  35.149 128.078  1.00  0.00     0.162 A 
BRANCH  14  18
ATOM     18  O   UNL     1      28.729  32.112 129.670  1.00  0.00    -0.504 OA
ATOM     19  H   UNL     1      27.843  31.997 130.150  1.00  0.00     0.293 HD
ENDBRANCH  14  18
BRANCH  16  20
ATOM     20  O   UNL     1      30.690  34.068 130.172  1.00  0.00    -0.502 OA
ATOM     21  H   UNL     1      30.303  34.276 131.085  1.00  0.00     0.293 HD
ENDBRANCH  16  20
BRANCH  17  22
ATOM     22  O   UNL     1      31.108  36.123 128.294  1.00  0.00    -0.504 OA
ATOM     23  H   UNL     1      31.194  36.941 127.704  1.00  0.00     0.293 HD
ENDBRANCH  17  22
ENDBRANCH   1  12
BRANCH   2  24
ATOM     24  O   UNL     1      25.950  35.833 126.400  1.00  0.00    -0.502 OA
ATOM     25  H   UNL     1      25.575  35.408 127.239  1.00  0.00     0.293 HD
ENDBRANCH   2  24
BRANCH   6  26
ATOM     26  O   UNL     1      24.246  34.743 121.473  1.00  0.00    -0.507 OA
ATOM     27  H   UNL     1      24.062  35.657 121.090  1.00  0.00     0.293 HD
ENDBRANCH   6  26
BRANCH   8  28
ATOM     28  O   UNL     1      28.004  32.255 119.814  1.00  0.00    -0.508 OA
ATOM     29  H   UNL     1      28.928  32.512 119.487  1.00  0.00     0.293 HD
ENDBRANCH   8  28
TORSDOF 7
ENDMDL
MODEL 4
REMARK VINA RESULT:    -5.741      1.285      3.053
REMARK INTER + INTRA:          -7.405
REMARK INTER:                  -7.085
REMARK INTRA:                  -0.321
REMARK UNBOUND:                -0.323
REMARK SMILES O=c1c(O)c(-c2cc(O)c(O)c(O)c2)oc2cc(O)cc(O)c12
REMARK SMILES IDX 5 1 3 2 2 3 1 4 23 5 21 6 20 7 18 8 17 9 16 10 15 11 6 12
REMARK SMILES IDX 7 13 8 14 14 15 10 16 12 17 9 18 11 20 13 22 4 24 22 26
REMARK SMILES IDX 19 28
REMARK H PARENT 9 19 11 21 13 23 4 25 22 27 19 29
REMARK Flexibility Score: inf
ROOT
ATOM      1  C   UNL     1      28.498  33.692 125.078  1.00  0.00     0.180 A 
ATOM      2  C   UNL     1      29.312  33.209 124.037  1.00  0.00     0.208 A 
ATOM      3  C   UNL     1      28.787  33.141 122.738  1.00  0.00     0.238 A 
ATOM      4  O   UNL     1      29.501  32.656 121.822  1.00  0.00    -0.285 OA
ATOM      5  C   UNL     1      27.461  33.571 122.490  1.00  0.00     0.111 A 
ATOM      6  C   UNL     1      26.840  33.585 121.205  1.00  0.00     0.134 A 
ATOM      7  C   UNL     1      25.481  33.908 121.098  1.00  0.00     0.093 A 
ATOM      8  C   UNL     1      24.739  34.282 122.221  1.00  0.00     0.123 A 
ATOM      9  C   UNL     1      25.352  34.330 123.471  1.00  0.00     0.094 A 
ATOM     10  C   UNL     1      26.696  33.977 123.614  1.00  0.00     0.146 A 
ATOM     11  O   UNL     1      27.239  34.026 124.825  1.00  0.00    -0.452 OA
ENDROOT
BRANCH   1  12
ATOM     12  C   UNL     1      28.989  33.817 126.469  1.00  0.00     0.029 A 
ATOM     13  C   UNL     1      28.689  32.846 127.440  1.00  0.00     0.062 A 
ATOM     14  C   UNL     1      29.182  32.969 128.746  1.00  0.00     0.162 A 
ATOM     15  C   UNL     1      29.819  34.894 126.814  1.00  0.00     0.062 A 
ATOM     16  C   UNL     1      29.994  34.064 129.089  1.00  0.00     0.200 A 
ATOM     17  C   UNL     1      30.315  35.026 128.115  1.00  0.00     0.162 A 
BRANCH  14  18
ATOM     18  O   UNL     1      28.872  32.005 129.704  1.00  0.00    -0.504 OA
ATOM     19  H   UNL     1      27.949  31.590 129.760  1.00  0.00     0.293 HD
ENDBRANCH  14  18
BRANCH  16  20
ATOM     20  O   UNL     1      30.490  34.204 130.386  1.00  0.00    -0.502 OA
ATOM     21  H   UNL     1      30.044  33.769 131.185  1.00  0.00     0.293 HD
ENDBRANCH  16  20
BRANCH  17  22
ATOM     22  O   UNL     1      31.125  36.118 128.422  1.00  0.00    -0.504 OA
ATOM     23  H   UNL     1      30.897  37.059 128.126  1.00  0.00     0.293 HD
ENDBRANCH  17  22
ENDBRANCH   1  12
BRANCH   2  24
ATOM     24  O   UNL     1      30.610  32.768 124.308  1.00  0.00    -0.502 OA
ATOM     25  H   UNL     1      31.046  32.013 123.793  1.00  0.00     0.293 HD
ENDBRANCH   2  24
BRANCH   6  26
ATOM     26  O   UNL     1      27.514  33.317 120.010  1.00  0.00    -0.507 OA
ATOM     27  H   UNL     1      27.211  32.653 119.314  1.00  0.00     0.293 HD
ENDBRANCH   6  26
BRANCH   8  28
ATOM     28  O   UNL     1      23.392  34.618 122.102  1.00  0.00    -0.508 OA
ATOM     29  H   UNL     1      22.827  34.279 121.332  1.00  0.00     0.293 HD
ENDBRANCH   8  28
TORSDOF 7
ENDMDL
MODEL 5
REMARK VINA RESULT:    -5.445      1.789      7.185
REMARK INTER + INTRA:          -7.041
REMARK INTER:                  -7.484
REMARK INTRA:                   0.442
REMARK UNBOUND:                -0.323
REMARK SMILES O=c1c(O)c(-c2cc(O)c(O)c(O)c2)oc2cc(O)cc(O)c12
REMARK SMILES IDX 5 1 3 2 2 3 1 4 23 5 21 6 20 7 18 8 17 9 16 10 15 11 6 12
REMARK SMILES IDX 7 13 8 14 14 15 10 16 12 17 9 18 11 20 13 22 4 24 22 26
REMARK SMILES IDX 19 28
REMARK H PARENT 9 19 11 21 13 23 4 25 22 27 19 29
REMARK Flexibility Score: inf
ROOT
ATOM      1  C   UNL     1      27.844  33.072 122.242  1.00  0.00     0.180 A 
ATOM      2  C   UNL     1      26.583  33.647 122.484  1.00  0.00     0.208 A 
ATOM      3  C   UNL     1      26.365  34.324 123.694  1.00  0.00     0.238 A 
ATOM      4  O   UNL     1      25.219  34.787 123.928  1.00  0.00    -0.285 OA
ATOM      5  C   UNL     1      27.413  34.432 124.640  1.00  0.00     0.111 A 
ATOM      6  C   UNL     1      27.315  35.131 125.881  1.00  0.00     0.134 A 
ATOM      7  C   UNL     1      28.373  35.062 126.797  1.00  0.00     0.093 A 
ATOM      8  C   UNL     1      29.550  34.377 126.488  1.00  0.00     0.123 A 
ATOM      9  C   UNL     1      29.678  33.742 125.254  1.00  0.00     0.094 A 
ATOM     10  C   UNL     1      28.626  33.762 124.336  1.00  0.00     0.146 A 
ATOM     11  O   UNL     1      28.785  33.135 123.176  1.00  0.00    -0.452 OA
ENDROOT
BRANCH   1  12
ATOM     12  C   UNL     1      28.158  32.364 120.980  1.00  0.00     0.029 A 
ATOM     13  C   UNL     1      27.173  32.142 120.002  1.00  0.00     0.062 A 
ATOM     14  C   UNL     1      27.494  31.491 118.803  1.00  0.00     0.162 A 
ATOM     15  C   UNL     1      29.476  31.957 120.726  1.00  0.00     0.062 A 
ATOM     16  C   UNL     1      28.813  31.066 118.567  1.00  0.00     0.200 A 
ATOM     17  C   UNL     1      29.806  31.306 119.533  1.00  0.00     0.162 A 
BRANCH  14  18
ATOM     18  O   UNL     1      26.508  31.268 117.843  1.00  0.00    -0.504 OA
ATOM     19  H   UNL     1      26.487  31.789 116.973  1.00  0.00     0.293 HD
ENDBRANCH  14  18
BRANCH  16  20
ATOM     20  O   UNL     1      29.149  30.412 117.381  1.00  0.00    -0.502 OA
ATOM     21  H   UNL     1      28.540  30.416 116.571  1.00  0.00     0.293 HD
ENDBRANCH  16  20
BRANCH  17  22
ATOM     22  O   UNL     1      31.125  30.905 119.324  1.00  0.00    -0.504 OA
ATOM     23  H   UNL     1      31.430  30.485 118.455  1.00  0.00     0.293 HD
ENDBRANCH  17  22
ENDBRANCH   1  12
BRANCH   2  24
ATOM     24  O   UNL     1      25.556  33.508 121.547  1.00  0.00    -0.502 OA
ATOM     25  H   UNL     1      25.473  34.111 120.738  1.00  0.00     0.293 HD
ENDBRANCH   2  24
BRANCH   6  26
ATOM     26  O   UNL     1      26.221  35.921 126.248  1.00  0.00    -0.507 OA
ATOM     27  H   UNL     1      26.287  36.825 126.688  1.00  0.00     0.293 HD
ENDBRANCH   6  26
BRANCH   8  28
ATOM     28  O   UNL     1      30.603  34.327 127.399  1.00  0.00    -0.508 OA
ATOM     29  H   UNL     1      30.812  33.485 127.923  1.00  0.00     0.293 HD
ENDBRANCH   8  28
TORSDOF 7
ENDMDL
MODEL 6
REMARK VINA RESULT:    -5.317      2.483      4.587
REMARK INTER + INTRA:          -6.882
REMARK INTER:                  -7.251
REMARK INTRA:                   0.369
REMARK UNBOUND:                -0.323
REMARK SMILES O=c1c(O)c(-c2cc(O)c(O)c(O)c2)oc2cc(O)cc(O)c12
REMARK SMILES IDX 5 1 3 2 2 3 1 4 23 5 21 6 20 7 18 8 17 9 16 10 15 11 6 12
REMARK SMILES IDX 7 13 8 14 14 15 10 16 12 17 9 18 11 20 13 22 4 24 22 26
REMARK SMILES IDX 19 28
REMARK H PARENT 9 19 11 21 13 23 4 25 22 27 19 29
REMARK Flexibility Score: inf
ROOT
ATOM      1  C   UNL     1      28.224  33.261 122.321  1.00  0.00     0.180 A 
ATOM      2  C   UNL     1      29.550  32.806 122.204  1.00  0.00     0.208 A 
ATOM      3  C   UNL     1      29.942  32.145 121.030  1.00  0.00     0.238 A 
ATOM      4  O   UNL     1      31.114  31.692 120.954  1.00  0.00    -0.285 OA
ATOM      5  C   UNL     1      29.010  31.959 119.981  1.00  0.00     0.111 A 
ATOM      6  C   UNL     1      29.309  31.338 118.731  1.00  0.00     0.134 A 
ATOM      7  C   UNL     1      28.276  31.092 117.818  1.00  0.00     0.093 A 
ATOM      8  C   UNL     1      26.967  31.503 118.082  1.00  0.00     0.123 A 
ATOM      9  C   UNL     1      26.677  32.163 119.274  1.00  0.00     0.094 A 
ATOM     10  C   UNL     1      27.679  32.391 120.220  1.00  0.00     0.146 A 
ATOM     11  O   UNL     1      27.357  33.014 121.347  1.00  0.00    -0.452 OA
ENDROOT
BRANCH   1  12
ATOM     12  C   UNL     1      27.743  33.989 123.518  1.00  0.00     0.029 A 
ATOM     13  C   UNL     1      28.642  34.538 124.449  1.00  0.00     0.062 A 
ATOM     14  C   UNL     1      28.168  35.244 125.563  1.00  0.00     0.162 A 
ATOM     15  C   UNL     1      26.367  34.186 123.699  1.00  0.00     0.062 A 
ATOM     16  C   UNL     1      26.786  35.417 125.749  1.00  0.00     0.200 A 
ATOM     17  C   UNL     1      25.885  34.888 124.809  1.00  0.00     0.162 A 
BRANCH  14  18
ATOM     18  O   UNL     1      29.067  35.779 126.485  1.00  0.00    -0.504 OA
ATOM     19  H   UNL     1      29.042  35.517 127.464  1.00  0.00     0.293 HD
ENDBRANCH  14  18
BRANCH  16  20
ATOM     20  O   UNL     1      26.297  36.113 126.855  1.00  0.00    -0.502 OA
ATOM     21  H   UNL     1      25.307  36.272 126.999  1.00  0.00     0.293 HD
ENDBRANCH  16  20
BRANCH  17  22
ATOM     22  O   UNL     1      24.508  35.050 124.960  1.00  0.00    -0.504 OA
ATOM     23  H   UNL     1      23.843  34.376 124.602  1.00  0.00     0.293 HD
ENDBRANCH  17  22
ENDBRANCH   1  12
BRANCH   2  24
ATOM     24  O   UNL     1      30.448  32.980 123.261  1.00  0.00    -0.502 OA
ATOM     25  H   UNL     1      30.388  33.761 123.902  1.00  0.00     0.293 HD
ENDBRANCH   2  24
BRANCH   6  26
ATOM     26  O   UNL     1      30.598  30.973 118.330  1.00  0.00    -0.507 OA
ATOM     27  H   UNL     1      30.808  30.381 117.542  1.00  0.00     0.293 HD
ENDBRANCH   6  26
BRANCH   8  28
ATOM     28  O   UNL     1      25.949  31.267 117.161  1.00  0.00    -0.508 OA
ATOM     29  H   UNL     1      25.124  30.732 117.407  1.00  0.00     0.293 HD
ENDBRANCH   8  28
TORSDOF 7
ENDMDL
MODEL 7
REMARK VINA RESULT:    -5.260      1.885      4.079
REMARK INTER + INTRA:          -6.812
REMARK INTER:                  -6.990
REMARK INTRA:                   0.178
REMARK UNBOUND:                -0.323
REMARK SMILES O=c1c(O)c(-c2cc(O)c(O)c(O)c2)oc2cc(O)cc(O)c12
REMARK SMILES IDX 5 1 3 2 2 3 1 4 23 5 21 6 20 7 18 8 17 9 16 10 15 11 6 12
REMARK SMILES IDX 7 13 8 14 14 15 10 16 12 17 9 18 11 20 13 22 4 24 22 26
REMARK SMILES IDX 19 28
REMARK H PARENT 9 19 11 21 13 23 4 25 22 27 19 29
REMARK Flexibility Score: inf
ROOT
ATOM      1  C   UNL     1      28.440  33.099 122.683  1.00  0.00     0.180 A 
ATOM      2  C   UNL     1      29.751  32.830 122.249  1.00  0.00     0.208 A 
ATOM      3  C   UNL     1      29.955  32.387 120.933  1.00  0.00     0.238 A 
ATOM      4  O   UNL     1      31.123  32.096 120.567  1.00  0.00    -0.285 OA
ATOM      5  C   UNL     1      28.849  32.233 120.062  1.00  0.00     0.111 A 
ATOM      6  C   UNL     1      28.943  31.828 118.696  1.00  0.00     0.134 A 
ATOM      7  C   UNL     1      27.773  31.583 117.967  1.00  0.00     0.093 A 
ATOM      8  C   UNL     1      26.513  31.791 118.534  1.00  0.00     0.123 A 
ATOM      9  C   UNL     1      26.412  32.243 119.847  1.00  0.00     0.094 A 
ATOM     10  C   UNL     1      27.561  32.461 120.612  1.00  0.00     0.146 A 
ATOM     11  O   UNL     1      27.419  32.882 121.863  1.00  0.00    -0.452 OA
ENDROOT
BRANCH   1  12
ATOM     12  C   UNL     1      28.148  33.593 124.048  1.00  0.00     0.029 A 
ATOM     13  C   UNL     1      27.129  34.532 124.283  1.00  0.00     0.062 A 
ATOM     14  C   UNL     1      26.852  34.971 125.585  1.00  0.00     0.162 A 
ATOM     15  C   UNL     1      28.863  33.075 125.137  1.00  0.00     0.062 A 
ATOM     16  C   UNL     1      27.588  34.462 126.668  1.00  0.00     0.200 A 
ATOM     17  C   UNL     1      28.595  33.507 126.440  1.00  0.00     0.162 A 
BRANCH  14  18
ATOM     18  O   UNL     1      25.843  35.907 125.807  1.00  0.00    -0.504 OA
ATOM     19  H   UNL     1      25.095  35.735 126.469  1.00  0.00     0.293 HD
ENDBRANCH  14  18
BRANCH  16  20
ATOM     20  O   UNL     1      27.329  34.892 127.970  1.00  0.00    -0.502 OA
ATOM     21  H   UNL     1      28.008  34.796 128.716  1.00  0.00     0.293 HD
ENDBRANCH  16  20
BRANCH  17  22
ATOM     22  O   UNL     1      29.337  32.977 127.495  1.00  0.00    -0.504 OA
ATOM     23  H   UNL     1      29.334  31.989 127.713  1.00  0.00     0.293 HD
ENDBRANCH  17  22
ENDBRANCH   1  12
BRANCH   2  24
ATOM     24  O   UNL     1      30.825  32.968 123.132  1.00  0.00    -0.502 OA
ATOM     25  H   UNL     1      31.736  33.295 122.833  1.00  0.00     0.293 HD
ENDBRANCH   2  24
BRANCH   6  26
ATOM     26  O   UNL     1      30.151  31.681 118.008  1.00  0.00    -0.507 OA
ATOM     27  H   UNL     1      30.239  31.630 117.005  1.00  0.00     0.293 HD
ENDBRANCH   6  26
BRANCH   8  28
ATOM     28  O   UNL     1      25.355  31.560 117.795  1.00  0.00    -0.508 OA
ATOM     29  H   UNL     1      25.248  30.732 117.221  1.00  0.00     0.293 HD
ENDBRANCH   8  28
TORSDOF 7
ENDMDL
MODEL 8
REMARK VINA RESULT:    -5.253      1.676      7.001
REMARK INTER + INTRA:          -6.804
REMARK INTER:                  -6.570
REMARK INTRA:                  -0.234
REMARK UNBOUND:                -0.323
REMARK SMILES O=c1c(O)c(-c2cc(O)c(O)c(O)c2)oc2cc(O)cc(O)c12
REMARK SMILES IDX 5 1 3 2 2 3 1 4 23 5 21 6 20 7 18 8 17 9 16 10 15 11 6 12
REMARK SMILES IDX 7 13 8 14 14 15 10 16 12 17 9 18 11 20 13 22 4 24 22 26
REMARK SMILES IDX 19 28
REMARK H PARENT 9 19 11 21 13 23 4 25 22 27 19 29
REMARK Flexibility Score: inf
ROOT
ATOM      1  C   UNL     1      28.868  34.057 123.425  1.00  0.00     0.180 A 
ATOM      2  C   UNL     1      27.579  34.550 123.699  1.00  0.00     0.208 A 
ATOM      3  C   UNL     1      27.239  34.865 125.024  1.00  0.00     0.238 A 
ATOM      4  O   UNL     1      26.068  35.253 125.271  1.00  0.00    -0.285 OA
ATOM      5  C   UNL     1      28.195  34.700 126.055  1.00  0.00     0.111 A 
ATOM      6  C   UNL     1      27.972  35.026 127.427  1.00  0.00     0.134 A 
ATOM      7  C   UNL     1      28.944  34.698 128.381  1.00  0.00     0.093 A 
ATOM      8  C   UNL     1      30.157  34.118 128.004  1.00  0.00     0.123 A 
ATOM      9  C   UNL     1      30.408  33.851 126.660  1.00  0.00     0.094 A 
ATOM     10  C   UNL     1      29.443  34.132 125.690  1.00  0.00     0.146 A 
ATOM     11  O   UNL     1      29.719  33.851 124.422  1.00  0.00    -0.452 OA
ENDROOT
BRANCH   1  12
ATOM     12  C   UNL     1      29.308  33.726 122.050  1.00  0.00     0.029 A 
ATOM     13  C   UNL     1      29.445  34.721 121.067  1.00  0.00     0.062 A 
ATOM     14  C   UNL     1      29.885  34.392 119.778  1.00  0.00     0.162 A 
ATOM     15  C   UNL     1      29.652  32.404 121.735  1.00  0.00     0.062 A 
ATOM     16  C   UNL     1      30.206  33.060 119.464  1.00  0.00     0.200 A 
ATOM     17  C   UNL     1      30.091  32.065 120.450  1.00  0.00     0.162 A 
BRANCH  14  18
ATOM     18  O   UNL     1      30.010  35.386 118.807  1.00  0.00    -0.504 OA
ATOM     19  H   UNL     1      30.547  35.236 117.960  1.00  0.00     0.293 HD
ENDBRANCH  14  18
BRANCH  16  20
ATOM     20  O   UNL     1      30.641  32.715 118.184  1.00  0.00    -0.502 OA
ATOM     21  H   UNL     1      31.090  33.382 117.568  1.00  0.00     0.293 HD
ENDBRANCH  16  20
BRANCH  17  22
ATOM     22  O   UNL     1      30.409  30.737 120.173  1.00  0.00    -0.504 OA
ATOM     23  H   UNL     1      29.816  29.968 120.460  1.00  0.00     0.293 HD
ENDBRANCH  17  22
ENDBRANCH   1  12
BRANCH   2  24
ATOM     24  O   UNL     1      26.644  34.684 122.669  1.00  0.00    -0.502 OA
ATOM     25  H   UNL     1      26.915  34.773 121.698  1.00  0.00     0.293 HD
ENDBRANCH   2  24
BRANCH   6  26
ATOM     26  O   UNL     1      26.834  35.690 127.896  1.00  0.00    -0.507 OA
ATOM     27  H   UNL     1      26.644  36.671 127.760  1.00  0.00     0.293 HD
ENDBRANCH   6  26
BRANCH   8  28
ATOM     28  O   UNL     1      31.124  33.810 128.958  1.00  0.00    -0.508 OA
ATOM     29  H   UNL     1      31.902  34.433 129.146  1.00  0.00     0.293 HD
ENDBRANCH   8  28
TORSDOF 7
ENDMDL
MODEL 9
REMARK VINA RESULT:    -5.228      2.092      7.414
REMARK INTER + INTRA:          -6.773
REMARK INTER:                  -6.410
REMARK INTRA:                  -0.363
REMARK UNBOUND:                -0.323
REMARK SMILES O=c1c(O)c(-c2cc(O)c(O)c(O)c2)oc2cc(O)cc(O)c12
REMARK SMILES IDX 5 1 3 2 2 3 1 4 23 5 21 6 20 7 18 8 17 9 16 10 15 11 6 12
REMARK SMILES IDX 7 13 8 14 14 15 10 16 12 17 9 18 11 20 13 22 4 24 22 26
REMARK SMILES IDX 19 28
REMARK H PARENT 9 19 11 21 13 23 4 25 22 27 19 29
REMARK Flexibility Score: inf
ROOT
ATOM      1  C   UNL     1      28.992  33.635 123.072  1.00  0.00     0.180 A 
ATOM      2  C   UNL     1      30.057  32.979 123.717  1.00  0.00     0.208 A 
ATOM      3  C   UNL     1      30.141  33.033 125.116  1.00  0.00     0.238 A 
ATOM      4  O   UNL     1      31.125  32.491 125.684  1.00  0.00    -0.285 OA
ATOM      5  C   UNL     1      29.153  33.727 125.856  1.00  0.00     0.111 A 
ATOM      6  C   UNL     1      29.117  33.812 127.280  1.00  0.00     0.134 A 
ATOM      7  C   UNL     1      28.167  34.634 127.899  1.00  0.00     0.093 A 
ATOM      8  C   UNL     1      27.211  35.322 127.149  1.00  0.00     0.123 A 
ATOM      9  C   UNL     1      27.200  35.198 125.761  1.00  0.00     0.094 A 
ATOM     10  C   UNL     1      28.158  34.414 125.113  1.00  0.00     0.146 A 
ATOM     11  O   UNL     1      28.119  34.332 123.788  1.00  0.00    -0.452 OA
ENDROOT
BRANCH   1  12
ATOM     12  C   UNL     1      28.822  33.603 121.601  1.00  0.00     0.029 A 
ATOM     13  C   UNL     1      28.158  32.539 120.965  1.00  0.00     0.062 A 
ATOM     14  C   UNL     1      27.987  32.537 119.575  1.00  0.00     0.162 A 
ATOM     15  C   UNL     1      29.280  34.680 120.829  1.00  0.00     0.062 A 
ATOM     16  C   UNL     1      28.469  33.610 118.806  1.00  0.00     0.200 A 
ATOM     17  C   UNL     1      29.115  34.686 119.440  1.00  0.00     0.162 A 
BRANCH  14  18
ATOM     18  O   UNL     1      27.333  31.474 118.953  1.00  0.00    -0.504 OA
ATOM     19  H   UNL     1      26.323  31.393 118.962  1.00  0.00     0.293 HD
ENDBRANCH  14  18
BRANCH  16  20
ATOM     20  O   UNL     1      28.311  33.622 117.420  1.00  0.00    -0.502 OA
ATOM     21  H   UNL     1      27.708  32.965 116.940  1.00  0.00     0.293 HD
ENDBRANCH  16  20
BRANCH  17  22
ATOM     22  O   UNL     1      29.597  35.770 118.707  1.00  0.00    -0.504 OA
ATOM     23  H   UNL     1      30.510  35.762 118.270  1.00  0.00     0.293 HD
ENDBRANCH  17  22
ENDBRANCH   1  12
BRANCH   2  24
ATOM     24  O   UNL     1      31.033  32.319 122.966  1.00  0.00    -0.502 OA
ATOM     25  H   UNL     1      31.389  31.406 123.220  1.00  0.00     0.293 HD
ENDBRANCH   2  24
BRANCH   6  26
ATOM     26  O   UNL     1      29.968  33.093 128.126  1.00  0.00    -0.507 OA
ATOM     27  H   UNL     1      30.858  32.707 127.854  1.00  0.00     0.293 HD
ENDBRANCH   6  26
BRANCH   8  28
ATOM     28  O   UNL     1      26.260  36.125 127.774  1.00  0.00    -0.508 OA
ATOM     29  H   UNL     1      26.528  36.884 128.391  1.00  0.00     0.293 HD
ENDBRANCH   8  28
TORSDOF 7
ENDMDL
