MODEL 1
REMARK VINA RESULT:    -5.165      0.000      0.000
REMARK INTER + INTRA:          -5.990
REMARK INTER:                  -5.769
REMARK INTRA:                  -0.221
REMARK UNBOUND:                -0.221
REMARK SMILES CC(C)c1ccc(C(=O)[O-])cc1
REMARK SMILES IDX 7 1 6 2 11 3 5 4 12 5 4 6 8 7 9 8 10 9 2 10 1 11 3 12
REMARK H PARENT
REMARK Flexibility Score: inf
ROOT
ATOM      1  C   UNL     1      36.138  19.174   8.045  1.00  0.00    -0.003 A 
ATOM      2  C   UNL     1      37.432  18.641   8.165  1.00  0.00     0.010 A 
ATOM      3  C   UNL     1      35.336  19.275   9.195  1.00  0.00     0.010 A 
ATOM      4  C   UNL     1      37.915  18.220   9.407  1.00  0.00     0.004 A 
ATOM      5  C   UNL     1      35.819  18.854  10.438  1.00  0.00     0.004 A 
ATOM      6  C   UNL     1      37.116  18.321  10.557  1.00  0.00    -0.045 A 
ENDROOT
BRANCH   1   7
ATOM      7  C   UNL     1      35.631  19.618   6.729  1.00  0.00     0.071 C 
ATOM      8  O   UNL     1      34.424  19.951   6.586  1.00  0.00    -0.545 OA
ATOM      9  O   UNL     1      36.479  19.675   5.630  1.00  0.00    -0.545 OA
ENDBRANCH   1   7
BRANCH   6  10
ATOM     10  C   UNL     1      37.652  17.860  11.899  1.00  0.00     0.013 C 
ATOM     11  C   UNL     1      39.171  18.052  11.982  1.00  0.00     0.012 C 
ATOM     12  C   UNL     1      36.941  18.576  13.054  1.00  0.00     0.012 C 
ENDBRANCH   6  10
TORSDOF 2
ENDMDL
MODEL 2
REMARK VINA RESULT:    -5.122      3.017      4.334
REMARK INTER + INTRA:          -5.942
REMARK INTER:                  -5.729
REMARK INTRA:                  -0.213
REMARK UNBOUND:                -0.221
REMARK SMILES CC(C)c1ccc(C(=O)[O-])cc1
REMARK SMILES IDX 7 1 6 2 11 3 5 4 12 5 4 6 8 7 9 8 10 9 2 10 1 11 3 12
REMARK H PARENT
REMARK Flexibility Score: inf
ROOT
ATOM      1  C   UNL     1      39.097  18.328  10.546  1.00  0.00    -0.003 A 
ATOM      2  C   UNL     1      38.780  18.105  11.896  1.00  0.00     0.010 A 
ATOM      3  C   UNL     1      38.051  18.495   9.622  1.00  0.00     0.010 A 
ATOM      4  C   UNL     1      37.449  18.050  12.314  1.00  0.00     0.004 A 
ATOM      5  C   UNL     1      36.718  18.441  10.039  1.00  0.00     0.004 A 
ATOM      6  C   UNL     1      36.402  18.218  11.392  1.00  0.00    -0.045 A 
ENDROOT
BRANCH   1   7
ATOM      7  C   UNL     1      40.509  18.384  10.108  1.00  0.00     0.071 C 
ATOM      8  O   UNL     1      41.440  18.093  10.907  1.00  0.00    -0.545 OA
ATOM      9  O   UNL     1      40.829  18.756   8.808  1.00  0.00    -0.545 OA
ENDBRANCH   1   7
BRANCH   6  10
ATOM     10  C   UNL     1      34.960  18.156  11.860  1.00  0.00     0.013 C 
ATOM     11  C   UNL     1      34.824  17.295  13.121  1.00  0.00     0.012 C 
ATOM     12  C   UNL     1      34.393  19.563  12.088  1.00  0.00     0.012 C 
ENDBRANCH   6  10
TORSDOF 2
ENDMDL
MODEL 3
REMARK VINA RESULT:    -5.100      3.632      4.912
REMARK INTER + INTRA:          -5.917
REMARK INTER:                  -5.708
REMARK INTRA:                  -0.209
REMARK UNBOUND:                -0.221
REMARK SMILES CC(C)c1ccc(C(=O)[O-])cc1
REMARK SMILES IDX 7 1 6 2 11 3 5 4 12 5 4 6 8 7 9 8 10 9 2 10 1 11 3 12
REMARK H PARENT
REMARK Flexibility Score: inf
ROOT
ATOM      1  C   UNL     1      40.747  18.544  10.280  1.00  0.00    -0.003 A 
ATOM      2  C   UNL     1      39.707  18.676   9.346  1.00  0.00     0.010 A 
ATOM      3  C   UNL     1      40.429  18.212  11.609  1.00  0.00     0.010 A 
ATOM      4  C   UNL     1      38.378  18.482   9.729  1.00  0.00     0.004 A 
ATOM      5  C   UNL     1      39.099  18.018  11.993  1.00  0.00     0.004 A 
ATOM      6  C   UNL     1      38.057  18.150  11.056  1.00  0.00    -0.045 A 
ENDROOT
BRANCH   1   7
ATOM      7  C   UNL     1      42.153  18.751   9.870  1.00  0.00     0.071 C 
ATOM      8  O   UNL     1      42.425  19.368   8.805  1.00  0.00    -0.545 OA
ATOM      9  O   UNL     1      43.194  18.270  10.654  1.00  0.00    -0.545 OA
ENDBRANCH   1   7
BRANCH   6  10
ATOM     10  C   UNL     1      36.610  17.942  11.458  1.00  0.00     0.013 C 
ATOM     11  C   UNL     1      36.232  16.456  11.415  1.00  0.00     0.012 C 
ATOM     12  C   UNL     1      36.329  18.542  12.841  1.00  0.00     0.012 C 
ENDBRANCH   6  10
TORSDOF 2
ENDMDL
MODEL 4
REMARK VINA RESULT:    -5.065      2.888      4.121
REMARK INTER + INTRA:          -5.878
REMARK INTER:                  -5.667
REMARK INTRA:                  -0.211
REMARK UNBOUND:                -0.221
REMARK SMILES CC(C)c1ccc(C(=O)[O-])cc1
REMARK SMILES IDX 7 1 6 2 11 3 5 4 12 5 4 6 8 7 9 8 10 9 2 10 1 11 3 12
REMARK H PARENT
REMARK Flexibility Score: inf
ROOT
ATOM      1  C   UNL     1      38.845  18.416  10.222  1.00  0.00    -0.003 A 
ATOM      2  C   UNL     1      37.765  18.702   9.371  1.00  0.00     0.010 A 
ATOM      3  C   UNL     1      38.586  18.100  11.566  1.00  0.00     0.010 A 
ATOM      4  C   UNL     1      36.454  18.673   9.853  1.00  0.00     0.004 A 
ATOM      5  C   UNL     1      37.275  18.071  12.050  1.00  0.00     0.004 A 
ATOM      6  C   UNL     1      36.192  18.357  11.197  1.00  0.00    -0.045 A 
ENDROOT
BRANCH   1   7
ATOM      7  C   UNL     1      40.231  18.449   9.707  1.00  0.00     0.071 C 
ATOM      8  O   UNL     1      40.454  18.459   8.466  1.00  0.00    -0.545 OA
ATOM      9  O   UNL     1      41.308  18.469  10.584  1.00  0.00    -0.545 OA
ENDBRANCH   1   7
BRANCH   6  10
ATOM     10  C   UNL     1      34.764  18.329  11.707  1.00  0.00     0.013 C 
ATOM     11  C   UNL     1      34.623  17.381  12.904  1.00  0.00     0.012 C 
ATOM     12  C   UNL     1      34.276  19.740  12.060  1.00  0.00     0.012 C 
ENDBRANCH   6  10
TORSDOF 2
ENDMDL
MODEL 5
REMARK VINA RESULT:    -5.047      3.610      4.916
REMARK INTER + INTRA:          -5.858
REMARK INTER:                  -5.655
REMARK INTRA:                  -0.203
REMARK UNBOUND:                -0.221
REMARK SMILES CC(C)c1ccc(C(=O)[O-])cc1
REMARK SMILES IDX 7 1 6 2 11 3 5 4 12 5 4 6 8 7 9 8 10 9 2 10 1 11 3 12
REMARK H PARENT
REMARK Flexibility Score: inf
ROOT
ATOM      1  C   UNL     1      37.794  17.756  11.702  1.00  0.00    -0.003 A 
ATOM      2  C   UNL     1      37.139  18.554  12.654  1.00  0.00     0.010 A 
ATOM      3  C   UNL     1      37.137  16.620  11.200  1.00  0.00     0.010 A 
ATOM      4  C   UNL     1      35.855  18.225  13.094  1.00  0.00     0.004 A 
ATOM      5  C   UNL     1      35.852  16.289  11.641  1.00  0.00     0.004 A 
ATOM      6  C   UNL     1      35.196  17.090  12.594  1.00  0.00    -0.045 A 
ENDROOT
BRANCH   1   7
ATOM      7  C   UNL     1      39.154  18.109  11.239  1.00  0.00     0.071 C 
ATOM      8  O   UNL     1      40.125  18.109  12.043  1.00  0.00    -0.545 OA
ATOM      9  O   UNL     1      39.381  18.443   9.910  1.00  0.00    -0.545 OA
ENDBRANCH   1   7
BRANCH   6  10
ATOM     10  C   UNL     1      33.802  16.744  13.081  1.00  0.00     0.013 C 
ATOM     11  C   UNL     1      33.815  16.354  14.564  1.00  0.00     0.012 C 
ATOM     12  C   UNL     1      32.823  17.896  12.822  1.00  0.00     0.012 C 
ENDBRANCH   6  10
TORSDOF 2
ENDMDL
MODEL 6
REMARK VINA RESULT:    -5.022      9.495     10.965
REMARK INTER + INTRA:          -5.830
REMARK INTER:                  -5.622
REMARK INTRA:                  -0.208
REMARK UNBOUND:                -0.221
REMARK SMILES CC(C)c1ccc(C(=O)[O-])cc1
REMARK SMILES IDX 7 1 6 2 11 3 5 4 12 5 4 6 8 7 9 8 10 9 2 10 1 11 3 12
REMARK H PARENT
REMARK Flexibility Score: inf
ROOT
ATOM      1  C   UNL     1      32.387  13.574  15.492  1.00  0.00    -0.003 A 
ATOM      2  C   UNL     1      31.166  14.226  15.729  1.00  0.00     0.010 A 
ATOM      3  C   UNL     1      32.370  12.267  14.976  1.00  0.00     0.010 A 
ATOM      4  C   UNL     1      29.954  13.588  15.455  1.00  0.00     0.004 A 
ATOM      5  C   UNL     1      31.158  11.627  14.702  1.00  0.00     0.004 A 
ATOM      6  C   UNL     1      29.935  12.282  14.938  1.00  0.00    -0.045 A 
ENDROOT
BRANCH   1   7
ATOM      7  C   UNL     1      33.668  14.254  15.784  1.00  0.00     0.071 C 
ATOM      8  O   UNL     1      34.689  14.028  15.081  1.00  0.00    -0.545 OA
ATOM      9  O   UNL     1      33.763  15.154  16.838  1.00  0.00    -0.545 OA
ENDBRANCH   1   7
BRANCH   6  10
ATOM     10  C   UNL     1      28.612  11.599  14.645  1.00  0.00     0.013 C 
ATOM     11  C   UNL     1      27.690  11.633  15.870  1.00  0.00     0.012 C 
ATOM     12  C   UNL     1      27.928  12.222  13.422  1.00  0.00     0.012 C 
ENDBRANCH   6  10
TORSDOF 2
ENDMDL
MODEL 7
REMARK VINA RESULT:    -5.004      3.737      5.259
REMARK INTER + INTRA:          -5.810
REMARK INTER:                  -5.595
REMARK INTRA:                  -0.215
REMARK UNBOUND:                -0.221
REMARK SMILES CC(C)c1ccc(C(=O)[O-])cc1
REMARK SMILES IDX 7 1 6 2 11 3 5 4 12 5 4 6 8 7 9 8 10 9 2 10 1 11 3 12
REMARK H PARENT
REMARK Flexibility Score: inf
ROOT
ATOM      1  C   UNL     1      38.454  18.211  11.482  1.00  0.00    -0.003 A 
ATOM      2  C   UNL     1      39.759  18.166  11.998  1.00  0.00     0.010 A 
ATOM      3  C   UNL     1      38.277  18.331  10.093  1.00  0.00     0.010 A 
ATOM      4  C   UNL     1      40.864  18.239  11.146  1.00  0.00     0.004 A 
ATOM      5  C   UNL     1      39.382  18.405   9.239  1.00  0.00     0.004 A 
ATOM      6  C   UNL     1      40.689  18.359   9.757  1.00  0.00    -0.045 A 
ENDROOT
BRANCH   1   7
ATOM      7  C   UNL     1      37.288  18.134  12.388  1.00  0.00     0.071 C 
ATOM      8  O   UNL     1      37.234  18.849  13.426  1.00  0.00    -0.545 OA
ATOM      9  O   UNL     1      36.234  17.274  12.109  1.00  0.00    -0.545 OA
ENDBRANCH   1   7
BRANCH   6  10
ATOM     10  C   UNL     1      41.897  18.437   8.843  1.00  0.00     0.013 C 
ATOM     11  C   UNL     1      42.966  17.416   9.251  1.00  0.00     0.012 C 
ATOM     12  C   UNL     1      41.492  18.256   7.375  1.00  0.00     0.012 C 
ENDBRANCH   6  10
TORSDOF 2
ENDMDL
MODEL 8
REMARK VINA RESULT:    -5.002      3.774      5.330
REMARK INTER + INTRA:          -5.807
REMARK INTER:                  -5.596
REMARK INTRA:                  -0.212
REMARK UNBOUND:                -0.221
REMARK SMILES CC(C)c1ccc(C(=O)[O-])cc1
REMARK SMILES IDX 7 1 6 2 11 3 5 4 12 5 4 6 8 7 9 8 10 9 2 10 1 11 3 12
REMARK H PARENT
REMARK Flexibility Score: inf
ROOT
ATOM      1  C   UNL     1      38.512  18.210  11.455  1.00  0.00    -0.003 A 
ATOM      2  C   UNL     1      38.377  18.314  10.061  1.00  0.00     0.010 A 
ATOM      3  C   UNL     1      39.803  18.170  12.011  1.00  0.00     0.010 A 
ATOM      4  C   UNL     1      39.505  18.377   9.240  1.00  0.00     0.004 A 
ATOM      5  C   UNL     1      40.933  18.232  11.190  1.00  0.00     0.004 A 
ATOM      6  C   UNL     1      40.796  18.337   9.793  1.00  0.00    -0.045 A 
ENDROOT
BRANCH   1   7
ATOM      7  C   UNL     1      37.315  18.143  12.320  1.00  0.00     0.071 C 
ATOM      8  O   UNL     1      36.359  17.372  12.034  1.00  0.00    -0.545 OA
ATOM      9  O   UNL     1      37.226  18.929  13.463  1.00  0.00    -0.545 OA
ENDBRANCH   1   7
BRANCH   6  10
ATOM     10  C   UNL     1      42.013  18.406   8.890  1.00  0.00     0.013 C 
ATOM     11  C   UNL     1      41.607  18.365   7.412  1.00  0.00     0.012 C 
ATOM     12  C   UNL     1      42.859  19.648   9.196  1.00  0.00     0.012 C 
ENDBRANCH   6  10
TORSDOF 2
ENDMDL
MODEL 9
REMARK VINA RESULT:    -4.953      3.023      4.344
REMARK INTER + INTRA:          -5.753
REMARK INTER:                  -5.544
REMARK INTRA:                  -0.209
REMARK UNBOUND:                -0.221
REMARK SMILES CC(C)c1ccc(C(=O)[O-])cc1
REMARK SMILES IDX 7 1 6 2 11 3 5 4 12 5 4 6 8 7 9 8 10 9 2 10 1 11 3 12
REMARK H PARENT
REMARK Flexibility Score: inf
ROOT
ATOM      1  C   UNL     1      36.447  18.123  11.374  1.00  0.00    -0.003 A 
ATOM      2  C   UNL     1      37.657  17.950  12.065  1.00  0.00     0.010 A 
ATOM      3  C   UNL     1      36.485  18.491  10.018  1.00  0.00     0.010 A 
ATOM      4  C   UNL     1      38.879  18.139  11.416  1.00  0.00     0.004 A 
ATOM      5  C   UNL     1      37.708  18.680   9.367  1.00  0.00     0.004 A 
ATOM      6  C   UNL     1      38.920  18.505  10.060  1.00  0.00    -0.045 A 
ENDROOT
BRANCH   1   7
ATOM      7  C   UNL     1      35.155  17.923  12.066  1.00  0.00     0.071 C 
ATOM      8  O   UNL     1      34.433  18.910  12.375  1.00  0.00    -0.545 OA
ATOM      9  O   UNL     1      34.718  16.644  12.386  1.00  0.00    -0.545 OA
ENDBRANCH   1   7
BRANCH   6  10
ATOM     10  C   UNL     1      40.255  18.707   9.367  1.00  0.00     0.013 C 
ATOM     11  C   UNL     1      41.420  18.520  10.346  1.00  0.00     0.012 C 
ATOM     12  C   UNL     1      40.395  17.776   8.156  1.00  0.00     0.012 C 
ENDBRANCH   6  10
TORSDOF 2
ENDMDL
