MODEL 1
REMARK VINA RESULT:    -6.975      0.000      0.000
REMARK INTER + INTRA:         -12.354
REMARK INTER:                 -10.237
REMARK INTRA:                  -2.117
REMARK UNBOUND:                -2.117
REMARK SMILES O=c1c(O[C@@H]2O[C@@H](CO)[C@H](O)[C@H](O)[C@@H]2O)c(-c2ccc(O)c(O)c2)oc2cc(O)cc(O)c12
REMARK SMILES IDX 4 1 3 2 16 3 25 4 2 5 26 6 1 7 33 8 27 9 31 10 28 11 30 12
REMARK SMILES IDX 17 13 18 14 19 15 20 16 24 17 22 18 21 19 23 21 32 23 29 25
REMARK SMILES IDX 5 27 14 28 6 29 12 30 7 31 10 32 15 33 13 35 8 37 9 38 11 40
REMARK H PARENT 21 20 23 22 32 24 29 26 15 34 13 36 9 39 11 41
REMARK Flexibility Score: inf
ROOT
ATOM      1  O   UNL     1       8.061  -8.614 -27.861  1.00  0.00    -0.454 OA
ENDROOT
BRANCH   1   2
ATOM      2  C   UNL     1       8.959  -9.676 -28.025  1.00  0.00     0.214 A 
ATOM      3  C   UNL     1      10.348  -9.467 -28.163  1.00  0.00     0.180 A 
ATOM      4  O   UNL     1      11.150 -10.498 -28.408  1.00  0.00    -0.452 OA
ATOM      5  C   UNL     1       8.467 -10.984 -28.064  1.00  0.00     0.239 A 
ATOM      6  C   UNL     1      10.719 -11.753 -28.490  1.00  0.00     0.146 A 
ATOM      7  O   UNL     1       7.233 -11.181 -27.899  1.00  0.00    -0.285 OA
ATOM      8  C   UNL     1       9.349 -12.057 -28.305  1.00  0.00     0.111 A 
ATOM      9  C   UNL     1      11.639 -12.773 -28.749  1.00  0.00     0.094 A 
ATOM     10  C   UNL     1       8.926 -13.406 -28.380  1.00  0.00     0.134 A 
ATOM     11  C   UNL     1      11.214 -14.103 -28.826  1.00  0.00     0.123 A 
ATOM     12  C   UNL     1       9.865 -14.415 -28.640  1.00  0.00     0.093 A 
BRANCH   3  13
ATOM     13  C   UNL     1      10.959  -8.128 -28.024  1.00  0.00     0.025 A 
ATOM     14  C   UNL     1      11.559  -7.490 -29.119  1.00  0.00     0.016 A 
ATOM     15  C   UNL     1      12.125  -6.223 -28.973  1.00  0.00     0.051 A 
ATOM     16  C   UNL     1      12.088  -5.562 -27.741  1.00  0.00     0.157 A 
ATOM     17  C   UNL     1      10.897  -7.459 -26.793  1.00  0.00     0.062 A 
ATOM     18  C   UNL     1      11.461  -6.187 -26.637  1.00  0.00     0.158 A 
BRANCH  16  19
ATOM     19  O   UNL     1      12.679  -4.299 -27.659  1.00  0.00    -0.504 OA
ATOM     20  H   UNL     1      12.862  -3.710 -28.458  1.00  0.00     0.293 HD
ENDBRANCH  16  19
BRANCH  18  21
ATOM     21  O   UNL     1      11.376  -5.585 -25.379  1.00  0.00    -0.504 OA
ATOM     22  H   UNL     1      12.050  -5.723 -24.641  1.00  0.00     0.293 HD
ENDBRANCH  18  21
ENDBRANCH   3  13
BRANCH  10  23
ATOM     23  O   UNL     1       7.586 -13.748 -28.202  1.00  0.00    -0.507 OA
ATOM     24  H   UNL     1       6.847 -13.057 -28.259  1.00  0.00     0.293 HD
ENDBRANCH  10  23
BRANCH  11  25
ATOM     25  O   UNL     1      12.125 -15.125 -29.084  1.00  0.00    -0.508 OA
ATOM     26  H   UNL     1      12.139 -15.609 -29.975  1.00  0.00     0.293 HD
ENDBRANCH  11  25
ENDBRANCH   1   2
BRANCH   1  27
ATOM     27  C   UNL     1       7.501  -7.885 -28.961  1.00  0.00     0.339 C 
ATOM     28  C   UNL     1       5.962  -7.853 -28.889  1.00  0.00     0.214 C 
ATOM     29  O   UNL     1       8.040  -6.575 -29.028  1.00  0.00    -0.332 OA
ATOM     30  C   UNL     1       5.457  -6.947 -27.744  1.00  0.00     0.180 C 
ATOM     31  C   UNL     1       7.745  -5.826 -27.861  1.00  0.00     0.179 C 
ATOM     32  C   UNL     1       6.219  -5.602 -27.721  1.00  0.00     0.177 C 
BRANCH  28  33
ATOM     33  O   UNL     1       5.465  -9.158 -28.748  1.00  0.00    -0.384 OA
ATOM     34  H   UNL     1       6.173  -9.771 -29.077  1.00  0.00     0.211 HD
ENDBRANCH  28  33
BRANCH  30  35
ATOM     35  O   UNL     1       5.496  -7.606 -26.500  1.00  0.00    -0.387 OA
ATOM     36  H   UNL     1       5.919  -7.006 -25.837  1.00  0.00     0.211 HD
ENDBRANCH  30  35
BRANCH  31  37
ATOM     37  C   UNL     1       8.500  -4.493 -27.942  1.00  0.00     0.191 C 
BRANCH  37  38
ATOM     38  O   UNL     1       8.851  -4.049 -26.659  1.00  0.00    -0.394 OA
ATOM     39  H   UNL     1       8.908  -3.060 -26.717  1.00  0.00     0.210 HD
ENDBRANCH  37  38
ENDBRANCH  31  37
BRANCH  32  40
ATOM     40  O   UNL     1       5.943  -4.910 -26.530  1.00  0.00    -0.387 OA
ATOM     41  H   UNL     1       5.195  -5.390 -26.088  1.00  0.00     0.211 HD
ENDBRANCH  32  40
ENDBRANCH   1  27
TORSDOF 12
ENDMDL
MODEL 2
REMARK VINA RESULT:    -6.607      1.649      4.564
REMARK INTER + INTRA:         -11.814
REMARK INTER:                  -9.861
REMARK INTRA:                  -1.953
REMARK UNBOUND:                -2.117
REMARK SMILES O=c1c(O[C@@H]2O[C@@H](CO)[C@H](O)[C@H](O)[C@@H]2O)c(-c2ccc(O)c(O)c2)oc2cc(O)cc(O)c12
REMARK SMILES IDX 4 1 3 2 16 3 25 4 2 5 26 6 1 7 33 8 27 9 31 10 28 11 30 12
REMARK SMILES IDX 17 13 18 14 19 15 20 16 24 17 22 18 21 19 23 21 32 23 29 25
REMARK SMILES IDX 5 27 14 28 6 29 12 30 7 31 10 32 15 33 13 35 8 37 9 38 11 40
REMARK H PARENT 21 20 23 22 32 24 29 26 15 34 13 36 9 39 11 41
REMARK Flexibility Score: inf
ROOT
ATOM      1  O   UNL     1      10.181  -8.325 -27.658  1.00  0.00    -0.454 OA
ENDROOT
BRANCH   1   2
ATOM      2  C   UNL     1       9.590  -9.588 -27.788  1.00  0.00     0.214 A 
ATOM      3  C   UNL     1       8.235  -9.815 -27.467  1.00  0.00     0.180 A 
ATOM      4  O   UNL     1       7.741 -11.049 -27.519  1.00  0.00    -0.452 OA
ATOM      5  C   UNL     1      10.365 -10.660 -28.239  1.00  0.00     0.239 A 
ATOM      6  C   UNL     1       8.453 -12.102 -27.907  1.00  0.00     0.146 A 
ATOM      7  O   UNL     1      11.565 -10.455 -28.567  1.00  0.00    -0.285 OA
ATOM      8  C   UNL     1       9.804 -11.951 -28.302  1.00  0.00     0.111 A 
ATOM      9  C   UNL     1       7.848 -13.361 -27.931  1.00  0.00     0.094 A 
ATOM     10  C   UNL     1      10.529 -13.091 -28.726  1.00  0.00     0.134 A 
ATOM     11  C   UNL     1       8.570 -14.483 -28.348  1.00  0.00     0.123 A 
ATOM     12  C   UNL     1       9.903 -14.346 -28.745  1.00  0.00     0.093 A 
BRANCH   3  13
ATOM     13  C   UNL     1       7.320  -8.716 -27.090  1.00  0.00     0.025 A 
ATOM     14  C   UNL     1       6.624  -7.988 -28.066  1.00  0.00     0.016 A 
ATOM     15  C   UNL     1       5.759  -6.959 -27.694  1.00  0.00     0.051 A 
ATOM     16  C   UNL     1       5.557  -6.648 -26.345  1.00  0.00     0.157 A 
ATOM     17  C   UNL     1       7.102  -8.426 -25.736  1.00  0.00     0.062 A 
ATOM     18  C   UNL     1       6.234  -7.395 -25.352  1.00  0.00     0.158 A 
BRANCH  16  19
ATOM     19  O   UNL     1       4.684  -5.602 -26.039  1.00  0.00    -0.504 OA
ATOM     20  H   UNL     1       3.679  -5.696 -26.013  1.00  0.00     0.293 HD
ENDBRANCH  16  19
BRANCH  18  21
ATOM     21  O   UNL     1       6.076  -7.150 -23.986  1.00  0.00    -0.504 OA
ATOM     22  H   UNL     1       5.254  -7.404 -23.459  1.00  0.00     0.293 HD
ENDBRANCH  18  21
ENDBRANCH   3  13
BRANCH  10  23
ATOM     23  O   UNL     1      11.861 -12.986 -29.125  1.00  0.00    -0.507 OA
ATOM     24  H   UNL     1      12.121 -12.580 -30.017  1.00  0.00     0.293 HD
ENDBRANCH  10  23
BRANCH  11  25
ATOM     25  O   UNL     1       7.973 -15.742 -28.375  1.00  0.00    -0.508 OA
ATOM     26  H   UNL     1       7.262 -15.976 -29.059  1.00  0.00     0.293 HD
ENDBRANCH  11  25
ENDBRANCH   1   2
BRANCH   1  27
ATOM     27  C   UNL     1      10.795  -7.868 -26.446  1.00  0.00     0.339 C 
ATOM     28  C   UNL     1      12.211  -7.318 -26.704  1.00  0.00     0.214 C 
ATOM     29  O   UNL     1       9.980  -6.906 -25.796  1.00  0.00    -0.332 OA
ATOM     30  C   UNL     1      12.177  -5.970 -27.455  1.00  0.00     0.180 C 
ATOM     31  C   UNL     1       9.783  -5.756 -26.601  1.00  0.00     0.179 C 
ATOM     32  C   UNL     1      11.123  -5.018 -26.844  1.00  0.00     0.177 C 
BRANCH  28  33
ATOM     33  O   UNL     1      12.967  -8.265 -27.413  1.00  0.00    -0.384 OA
ATOM     34  H   UNL     1      12.353  -8.690 -28.066  1.00  0.00     0.211 HD
ENDBRANCH  28  33
BRANCH  30  35
ATOM     35  O   UNL     1      12.000  -6.147 -28.841  1.00  0.00    -0.387 OA
ATOM     36  H   UNL     1      12.497  -6.954 -29.123  1.00  0.00     0.211 HD
ENDBRANCH  30  35
BRANCH  31  37
ATOM     37  C   UNL     1       8.764  -4.848 -25.901  1.00  0.00     0.191 C 
BRANCH  37  38
ATOM     38  O   UNL     1       9.418  -3.925 -25.072  1.00  0.00    -0.394 OA
ATOM     39  H   UNL     1       9.789  -4.451 -24.316  1.00  0.00     0.210 HD
ENDBRANCH  37  38
ENDBRANCH  31  37
BRANCH  32  40
ATOM     40  O   UNL     1      10.917  -3.917 -27.691  1.00  0.00    -0.387 OA
ATOM     41  H   UNL     1       9.939  -3.859 -27.851  1.00  0.00     0.211 HD
ENDBRANCH  32  40
ENDBRANCH   1  27
TORSDOF 12
ENDMDL
MODEL 3
REMARK VINA RESULT:    -6.177      1.355      2.490
REMARK INTER + INTRA:         -11.183
REMARK INTER:                  -9.787
REMARK INTRA:                  -1.396
REMARK UNBOUND:                -2.117
REMARK SMILES O=c1c(O[C@@H]2O[C@@H](CO)[C@H](O)[C@H](O)[C@@H]2O)c(-c2ccc(O)c(O)c2)oc2cc(O)cc(O)c12
REMARK SMILES IDX 4 1 3 2 16 3 25 4 2 5 26 6 1 7 33 8 27 9 31 10 28 11 30 12
REMARK SMILES IDX 17 13 18 14 19 15 20 16 24 17 22 18 21 19 23 21 32 23 29 25
REMARK SMILES IDX 5 27 14 28 6 29 12 30 7 31 10 32 15 33 13 35 8 37 9 38 11 40
REMARK H PARENT 21 20 23 22 32 24 29 26 15 34 13 36 9 39 11 41
REMARK Flexibility Score: inf
ROOT
ATOM      1  O   UNL     1       7.844  -8.442 -27.678  1.00  0.00    -0.454 OA
ENDROOT
BRANCH   1   2
ATOM      2  C   UNL     1       8.545  -9.644 -27.835  1.00  0.00     0.214 A 
ATOM      3  C   UNL     1       9.945  -9.675 -28.008  1.00  0.00     0.180 A 
ATOM      4  O   UNL     1      10.556 -10.832 -28.245  1.00  0.00    -0.452 OA
ATOM      5  C   UNL     1       7.839 -10.851 -27.830  1.00  0.00     0.239 A 
ATOM      6  C   UNL     1       9.918 -11.998 -28.286  1.00  0.00     0.146 A 
ATOM      7  O   UNL     1       6.594 -10.832 -27.633  1.00  0.00    -0.285 OA
ATOM      8  C   UNL     1       8.521 -12.062 -28.063  1.00  0.00     0.111 A 
ATOM      9  C   UNL     1      10.645 -13.164 -28.539  1.00  0.00     0.094 A 
ATOM     10  C   UNL     1       7.876 -13.321 -28.096  1.00  0.00     0.134 A 
ATOM     11  C   UNL     1      10.001 -14.404 -28.574  1.00  0.00     0.123 A 
ATOM     12  C   UNL     1       8.624 -14.480 -28.351  1.00  0.00     0.093 A 
BRANCH   3  13
ATOM     13  C   UNL     1      10.777  -8.457 -27.915  1.00  0.00     0.025 A 
ATOM     14  C   UNL     1      11.208  -7.786 -29.069  1.00  0.00     0.016 A 
ATOM     15  C   UNL     1      11.986  -6.633 -28.965  1.00  0.00     0.051 A 
ATOM     16  C   UNL     1      12.333  -6.117 -27.712  1.00  0.00     0.157 A 
ATOM     17  C   UNL     1      11.100  -7.929 -26.657  1.00  0.00     0.062 A 
ATOM     18  C   UNL     1      11.880  -6.771 -26.542  1.00  0.00     0.158 A 
BRANCH  16  19
ATOM     19  O   UNL     1      13.120  -4.963 -27.676  1.00  0.00    -0.504 OA
ATOM     20  H   UNL     1      13.504  -4.568 -26.830  1.00  0.00     0.293 HD
ENDBRANCH  16  19
BRANCH  18  21
ATOM     21  O   UNL     1      12.177  -6.309 -25.258  1.00  0.00    -0.504 OA
ATOM     22  H   UNL     1      12.054  -5.353 -24.959  1.00  0.00     0.293 HD
ENDBRANCH  18  21
ENDBRANCH   3  13
BRANCH  10  23
ATOM     23  O   UNL     1       6.502 -13.428 -27.880  1.00  0.00    -0.507 OA
ATOM     24  H   UNL     1       6.024 -12.861 -27.190  1.00  0.00     0.293 HD
ENDBRANCH  10  23
BRANCH  11  25
ATOM     25  O   UNL     1      10.720 -15.571 -28.826  1.00  0.00    -0.508 OA
ATOM     26  H   UNL     1      11.664 -15.541 -29.194  1.00  0.00     0.293 HD
ENDBRANCH  11  25
ENDBRANCH   1   2
BRANCH   1  27
ATOM     27  C   UNL     1       7.781  -7.729 -26.436  1.00  0.00     0.339 C 
ATOM     28  C   UNL     1       7.619  -6.214 -26.666  1.00  0.00     0.214 C 
ATOM     29  O   UNL     1       6.746  -8.237 -25.611  1.00  0.00    -0.332 OA
ATOM     30  C   UNL     1       6.213  -5.858 -27.195  1.00  0.00     0.180 C 
ATOM     31  C   UNL     1       5.472  -8.094 -26.218  1.00  0.00     0.179 C 
ATOM     32  C   UNL     1       5.114  -6.599 -26.400  1.00  0.00     0.177 C 
BRANCH  28  33
ATOM     33  O   UNL     1       8.613  -5.756 -27.545  1.00  0.00    -0.384 OA
ATOM     34  H   UNL     1       8.305  -4.880 -27.894  1.00  0.00     0.211 HD
ENDBRANCH  28  33
BRANCH  30  35
ATOM     35  O   UNL     1       6.107  -6.074 -28.584  1.00  0.00    -0.387 OA
ATOM     36  H   UNL     1       6.879  -6.617 -28.879  1.00  0.00     0.211 HD
ENDBRANCH  30  35
BRANCH  31  37
ATOM     37  C   UNL     1       4.439  -8.814 -25.342  1.00  0.00     0.191 C 
BRANCH  37  38
ATOM     38  O   UNL     1       4.636 -10.202 -25.392  1.00  0.00    -0.394 OA
ATOM     39  H   UNL     1       5.560 -10.359 -25.064  1.00  0.00     0.210 HD
ENDBRANCH  37  38
ENDBRANCH  31  37
BRANCH  32  40
ATOM     40  O   UNL     1       3.877  -6.479 -27.055  1.00  0.00    -0.387 OA
ATOM     41  H   UNL     1       4.075  -6.210 -27.990  1.00  0.00     0.211 HD
ENDBRANCH  32  40
ENDBRANCH   1  27
TORSDOF 12
ENDMDL
MODEL 4
REMARK VINA RESULT:    -6.160      1.896      2.605
REMARK INTER + INTRA:         -11.157
REMARK INTER:                  -9.950
REMARK INTRA:                  -1.207
REMARK UNBOUND:                -2.117
REMARK SMILES O=c1c(O[C@@H]2O[C@@H](CO)[C@H](O)[C@H](O)[C@@H]2O)c(-c2ccc(O)c(O)c2)oc2cc(O)cc(O)c12
REMARK SMILES IDX 4 1 3 2 16 3 25 4 2 5 26 6 1 7 33 8 27 9 31 10 28 11 30 12
REMARK SMILES IDX 17 13 18 14 19 15 20 16 24 17 22 18 21 19 23 21 32 23 29 25
REMARK SMILES IDX 5 27 14 28 6 29 12 30 7 31 10 32 15 33 13 35 8 37 9 38 11 40
REMARK H PARENT 21 20 23 22 32 24 29 26 15 34 13 36 9 39 11 41
REMARK Flexibility Score: inf
ROOT
ATOM      1  O   UNL     1       8.302  -7.417 -26.415  1.00  0.00    -0.454 OA
ENDROOT
BRANCH   1   2
ATOM      2  C   UNL     1       8.578  -8.701 -26.900  1.00  0.00     0.214 A 
ATOM      3  C   UNL     1       9.677  -8.959 -27.747  1.00  0.00     0.180 A 
ATOM      4  O   UNL     1       9.847 -10.176 -28.257  1.00  0.00    -0.452 OA
ATOM      5  C   UNL     1       7.737  -9.759 -26.545  1.00  0.00     0.239 A 
ATOM      6  C   UNL     1       9.049 -11.201 -27.975  1.00  0.00     0.146 A 
ATOM      7  O   UNL     1       6.778  -9.543 -25.755  1.00  0.00    -0.285 OA
ATOM      8  C   UNL     1       7.958 -11.041 -27.087  1.00  0.00     0.111 A 
ATOM      9  C   UNL     1       9.308 -12.445 -28.557  1.00  0.00     0.094 A 
ATOM     10  C   UNL     1       7.138 -12.158 -26.795  1.00  0.00     0.134 A 
ATOM     11  C   UNL     1       8.492 -13.543 -28.266  1.00  0.00     0.123 A 
ATOM     12  C   UNL     1       7.416 -13.398 -27.388  1.00  0.00     0.093 A 
BRANCH   3  13
ATOM     13  C   UNL     1      10.675  -7.921 -28.080  1.00  0.00     0.025 A 
ATOM     14  C   UNL     1      10.318  -6.787 -28.824  1.00  0.00     0.016 A 
ATOM     15  C   UNL     1      11.269  -5.812 -29.124  1.00  0.00     0.051 A 
ATOM     16  C   UNL     1      12.588  -5.939 -28.673  1.00  0.00     0.157 A 
ATOM     17  C   UNL     1      11.989  -8.040 -27.604  1.00  0.00     0.062 A 
ATOM     18  C   UNL     1      12.951  -7.066 -27.898  1.00  0.00     0.158 A 
BRANCH  16  19
ATOM     19  O   UNL     1      13.494  -4.932 -29.013  1.00  0.00    -0.504 OA
ATOM     20  H   UNL     1      14.497  -5.045 -28.994  1.00  0.00     0.293 HD
ENDBRANCH  16  19
BRANCH  18  21
ATOM     21  O   UNL     1      14.244  -7.256 -27.405  1.00  0.00    -0.504 OA
ATOM     22  H   UNL     1      14.942  -7.828 -27.856  1.00  0.00     0.293 HD
ENDBRANCH  18  21
ENDBRANCH   3  13
BRANCH  10  23
ATOM     23  O   UNL     1       6.055 -12.044 -25.924  1.00  0.00    -0.507 OA
ATOM     24  H   UNL     1       5.900 -11.209 -25.371  1.00  0.00     0.293 HD
ENDBRANCH  10  23
BRANCH  11  25
ATOM     25  O   UNL     1       8.744 -14.787 -28.843  1.00  0.00    -0.508 OA
ATOM     26  H   UNL     1       9.080 -15.568 -28.291  1.00  0.00     0.293 HD
ENDBRANCH  11  25
ENDBRANCH   1   2
BRANCH   1  27
ATOM     27  C   UNL     1       7.014  -6.798 -26.527  1.00  0.00     0.339 C 
ATOM     28  C   UNL     1       6.531  -6.253 -25.168  1.00  0.00     0.214 C 
ATOM     29  O   UNL     1       7.024  -5.780 -27.515  1.00  0.00    -0.332 OA
ATOM     30  C   UNL     1       7.335  -5.010 -24.728  1.00  0.00     0.180 C 
ATOM     31  C   UNL     1       7.937  -4.745 -27.192  1.00  0.00     0.179 C 
ATOM     32  C   UNL     1       7.506  -4.013 -25.897  1.00  0.00     0.177 C 
BRANCH  28  33
ATOM     33  O   UNL     1       6.604  -7.264 -24.197  1.00  0.00    -0.384 OA
ATOM     34  H   UNL     1       7.564  -7.492 -24.093  1.00  0.00     0.211 HD
ENDBRANCH  28  33
BRANCH  30  35
ATOM     35  O   UNL     1       8.566  -5.364 -24.142  1.00  0.00    -0.387 OA
ATOM     36  H   UNL     1       8.451  -6.218 -23.656  1.00  0.00     0.211 HD
ENDBRANCH  30  35
BRANCH  31  37
ATOM     37  C   UNL     1       8.009  -3.779 -28.382  1.00  0.00     0.191 C 
BRANCH  37  38
ATOM     38  O   UNL     1       9.207  -3.051 -28.350  1.00  0.00    -0.394 OA
ATOM     39  H   UNL     1       8.965  -2.115 -28.578  1.00  0.00     0.210 HD
ENDBRANCH  37  38
ENDBRANCH  31  37
BRANCH  32  40
ATOM     40  O   UNL     1       8.453  -3.032 -25.562  1.00  0.00    -0.387 OA
ATOM     41  H   UNL     1       8.239  -2.231 -26.109  1.00  0.00     0.211 HD
ENDBRANCH  32  40
ENDBRANCH   1  27
TORSDOF 12
ENDMDL
MODEL 5
REMARK VINA RESULT:    -5.966      2.440      6.849
REMARK INTER + INTRA:         -10.872
REMARK INTER:                 -10.067
REMARK INTRA:                  -0.805
REMARK UNBOUND:                -2.117
REMARK SMILES O=c1c(O[C@@H]2O[C@@H](CO)[C@H](O)[C@H](O)[C@@H]2O)c(-c2ccc(O)c(O)c2)oc2cc(O)cc(O)c12
REMARK SMILES IDX 4 1 3 2 16 3 25 4 2 5 26 6 1 7 33 8 27 9 31 10 28 11 30 12
REMARK SMILES IDX 17 13 18 14 19 15 20 16 24 17 22 18 21 19 23 21 32 23 29 25
REMARK SMILES IDX 5 27 14 28 6 29 12 30 7 31 10 32 15 33 13 35 8 37 9 38 11 40
REMARK H PARENT 21 20 23 22 32 24 29 26 15 34 13 36 9 39 11 41
REMARK Flexibility Score: inf
ROOT
ATOM      1  O   UNL     1       9.919  -7.743 -27.673  1.00  0.00    -0.454 OA
ENDROOT
BRANCH   1   2
ATOM      2  C   UNL     1      10.839  -6.729 -27.966  1.00  0.00     0.214 A 
ATOM      3  C   UNL     1      12.189  -7.008 -28.265  1.00  0.00     0.180 A 
ATOM      4  O   UNL     1      13.046  -6.008 -28.447  1.00  0.00    -0.452 OA
ATOM      5  C   UNL     1      10.413  -5.398 -27.952  1.00  0.00     0.239 A 
ATOM      6  C   UNL     1      12.691  -4.728 -28.406  1.00  0.00     0.146 A 
ATOM      7  O   UNL     1       9.198  -5.144 -27.727  1.00  0.00    -0.285 OA
ATOM      8  C   UNL     1      11.344  -4.363 -28.170  1.00  0.00     0.111 A 
ATOM      9  C   UNL     1      13.663  -3.745 -28.611  1.00  0.00     0.094 A 
ATOM     10  C   UNL     1      10.996  -2.990 -28.150  1.00  0.00     0.134 A 
ATOM     11  C   UNL     1      13.312  -2.391 -28.587  1.00  0.00     0.123 A 
ATOM     12  C   UNL     1      11.985  -2.019 -28.360  1.00  0.00     0.093 A 
BRANCH   3  13
ATOM     13  C   UNL     1      12.694  -8.391 -28.408  1.00  0.00     0.025 A 
ATOM     14  C   UNL     1      11.903  -9.392 -28.990  1.00  0.00     0.016 A 
ATOM     15  C   UNL     1      12.396 -10.690 -29.125  1.00  0.00     0.051 A 
ATOM     16  C   UNL     1      13.690 -11.010 -28.701  1.00  0.00     0.157 A 
ATOM     17  C   UNL     1      14.001  -8.699 -28.006  1.00  0.00     0.062 A 
ATOM     18  C   UNL     1      14.506  -9.999 -28.139  1.00  0.00     0.158 A 
BRANCH  16  19
ATOM     19  O   UNL     1      14.121 -12.329 -28.858  1.00  0.00    -0.504 OA
ATOM     20  H   UNL     1      13.579 -13.136 -28.587  1.00  0.00     0.293 HD
ENDBRANCH  16  19
BRANCH  18  21
ATOM     21  O   UNL     1      15.811 -10.240 -27.703  1.00  0.00    -0.504 OA
ATOM     22  H   UNL     1      16.476  -9.513 -27.483  1.00  0.00     0.293 HD
ENDBRANCH  18  21
ENDBRANCH   3  13
BRANCH  10  23
ATOM     23  O   UNL     1       9.680  -2.588 -27.922  1.00  0.00    -0.507 OA
ATOM     24  H   UNL     1       9.035  -2.415 -28.685  1.00  0.00     0.293 HD
ENDBRANCH  10  23
BRANCH  11  25
ATOM     25  O   UNL     1      14.276  -1.405 -28.791  1.00  0.00    -0.508 OA
ATOM     26  H   UNL     1      14.834  -1.045 -28.025  1.00  0.00     0.293 HD
ENDBRANCH  11  25
ENDBRANCH   1   2
BRANCH   1  27
ATOM     27  C   UNL     1       9.964  -8.517 -26.467  1.00  0.00     0.339 C 
ATOM     28  C   UNL     1       9.046  -7.922 -25.382  1.00  0.00     0.214 C 
ATOM     29  O   UNL     1       9.644  -9.875 -26.724  1.00  0.00    -0.332 OA
ATOM     30  C   UNL     1       7.552  -8.124 -25.717  1.00  0.00     0.180 C 
ATOM     31  C   UNL     1       8.331 -10.016 -27.239  1.00  0.00     0.179 C 
ATOM     32  C   UNL     1       7.278  -9.568 -26.196  1.00  0.00     0.177 C 
BRANCH  28  33
ATOM     33  O   UNL     1       9.338  -6.561 -25.205  1.00  0.00    -0.384 OA
ATOM     34  H   UNL     1       9.493  -6.182 -26.110  1.00  0.00     0.211 HD
ENDBRANCH  28  33
BRANCH  30  35
ATOM     35  O   UNL     1       7.086  -7.159 -26.632  1.00  0.00    -0.387 OA
ATOM     36  H   UNL     1       6.534  -7.612 -27.316  1.00  0.00     0.211 HD
ENDBRANCH  30  35
BRANCH  31  37
ATOM     37  C   UNL     1       8.128 -11.482 -27.644  1.00  0.00     0.191 C 
BRANCH  37  38
ATOM     38  O   UNL     1       7.329 -11.568 -28.793  1.00  0.00    -0.394 OA
ATOM     39  H   UNL     1       7.820 -11.082 -29.505  1.00  0.00     0.210 HD
ENDBRANCH  37  38
ENDBRANCH  31  37
BRANCH  32  40
ATOM     40  O   UNL     1       5.989  -9.659 -26.746  1.00  0.00    -0.387 OA
ATOM     41  H   UNL     1       5.821  -8.805 -27.223  1.00  0.00     0.211 HD
ENDBRANCH  32  40
ENDBRANCH   1  27
TORSDOF 12
ENDMDL
MODEL 6
REMARK VINA RESULT:    -5.943      1.793      2.471
REMARK INTER + INTRA:         -10.839
REMARK INTER:                  -9.694
REMARK INTRA:                  -1.146
REMARK UNBOUND:                -2.117
REMARK SMILES O=c1c(O[C@@H]2O[C@@H](CO)[C@H](O)[C@H](O)[C@@H]2O)c(-c2ccc(O)c(O)c2)oc2cc(O)cc(O)c12
REMARK SMILES IDX 4 1 3 2 16 3 25 4 2 5 26 6 1 7 33 8 27 9 31 10 28 11 30 12
REMARK SMILES IDX 17 13 18 14 19 15 20 16 24 17 22 18 21 19 23 21 32 23 29 25
REMARK SMILES IDX 5 27 14 28 6 29 12 30 7 31 10 32 15 33 13 35 8 37 9 38 11 40
REMARK H PARENT 21 20 23 22 32 24 29 26 15 34 13 36 9 39 11 41
REMARK Flexibility Score: inf
ROOT
ATOM      1  O   UNL     1       8.167  -8.303 -26.994  1.00  0.00    -0.454 OA
ENDROOT
BRANCH   1   2
ATOM      2  C   UNL     1       8.309  -9.668 -27.276  1.00  0.00     0.214 A 
ATOM      3  C   UNL     1       9.553 -10.232 -27.630  1.00  0.00     0.180 A 
ATOM      4  O   UNL     1       9.621 -11.514 -27.978  1.00  0.00    -0.452 OA
ATOM      5  C   UNL     1       7.185 -10.496 -27.215  1.00  0.00     0.239 A 
ATOM      6  C   UNL     1       8.571 -12.328 -27.969  1.00  0.00     0.146 A 
ATOM      7  O   UNL     1       6.079 -10.006 -26.858  1.00  0.00    -0.285 OA
ATOM      8  C   UNL     1       7.297 -11.856 -27.570  1.00  0.00     0.111 A 
ATOM      9  C   UNL     1       8.740 -13.662 -28.350  1.00  0.00     0.094 A 
ATOM     10  C   UNL     1       6.203 -12.753 -27.556  1.00  0.00     0.134 A 
ATOM     11  C   UNL     1       7.654 -14.543 -28.336  1.00  0.00     0.123 A 
ATOM     12  C   UNL     1       6.394 -14.089 -27.939  1.00  0.00     0.093 A 
BRANCH   3  13
ATOM     13  C   UNL     1      10.807  -9.449 -27.610  1.00  0.00     0.025 A 
ATOM     14  C   UNL     1      11.872  -9.770 -28.463  1.00  0.00     0.016 A 
ATOM     15  C   UNL     1      13.046  -9.018 -28.438  1.00  0.00     0.051 A 
ATOM     16  C   UNL     1      13.174  -7.922 -27.577  1.00  0.00     0.157 A 
ATOM     17  C   UNL     1      10.919  -8.337 -26.764  1.00  0.00     0.062 A 
ATOM     18  C   UNL     1      12.093  -7.574 -26.732  1.00  0.00     0.158 A 
BRANCH  16  19
ATOM     19  O   UNL     1      14.378  -7.214 -27.596  1.00  0.00    -0.504 OA
ATOM     20  H   UNL     1      15.288  -7.649 -27.573  1.00  0.00     0.293 HD
ENDBRANCH  16  19
BRANCH  18  21
ATOM     21  O   UNL     1      12.143  -6.488 -25.855  1.00  0.00    -0.504 OA
ATOM     22  H   UNL     1      12.201  -5.525 -26.151  1.00  0.00     0.293 HD
ENDBRANCH  18  21
ENDBRANCH   3  13
BRANCH  10  23
ATOM     23  O   UNL     1       4.933 -12.329 -27.167  1.00  0.00    -0.507 OA
ATOM     24  H   UNL     1       4.169 -12.254 -27.830  1.00  0.00     0.293 HD
ENDBRANCH  10  23
BRANCH  11  25
ATOM     25  O   UNL     1       7.815 -15.874 -28.714  1.00  0.00    -0.508 OA
ATOM     26  H   UNL     1       7.242 -16.610 -28.318  1.00  0.00     0.293 HD
ENDBRANCH  11  25
ENDBRANCH   1   2
BRANCH   1  27
ATOM     27  C   UNL     1       7.373  -7.417 -27.793  1.00  0.00     0.339 C 
ATOM     28  C   UNL     1       6.442  -6.553 -26.919  1.00  0.00     0.214 C 
ATOM     29  O   UNL     1       8.193  -6.611 -28.624  1.00  0.00    -0.332 OA
ATOM     30  C   UNL     1       7.225  -5.488 -26.122  1.00  0.00     0.180 C 
ATOM     31  C   UNL     1       9.064  -5.790 -27.863  1.00  0.00     0.179 C 
ATOM     32  C   UNL     1       8.262  -4.771 -27.017  1.00  0.00     0.177 C 
BRANCH  28  33
ATOM     33  O   UNL     1       5.700  -7.376 -26.058  1.00  0.00    -0.384 OA
ATOM     34  H   UNL     1       5.031  -7.847 -26.620  1.00  0.00     0.211 HD
ENDBRANCH  28  33
BRANCH  30  35
ATOM     35  O   UNL     1       7.806  -6.029 -24.957  1.00  0.00    -0.387 OA
ATOM     36  H   UNL     1       8.767  -5.794 -24.945  1.00  0.00     0.211 HD
ENDBRANCH  30  35
BRANCH  31  37
ATOM     37  C   UNL     1      10.022  -5.082 -28.830  1.00  0.00     0.191 C 
BRANCH  37  38
ATOM     38  O   UNL     1      11.148  -4.605 -28.142  1.00  0.00    -0.394 OA
ATOM     39  H   UNL     1      11.622  -5.408 -27.802  1.00  0.00     0.210 HD
ENDBRANCH  37  38
ENDBRANCH  31  37
BRANCH  32  40
ATOM     40  O   UNL     1       9.138  -4.008 -26.228  1.00  0.00    -0.387 OA
ATOM     41  H   UNL     1       9.928  -4.580 -26.044  1.00  0.00     0.211 HD
ENDBRANCH  32  40
ENDBRANCH   1  27
TORSDOF 12
ENDMDL
MODEL 7
REMARK VINA RESULT:    -5.861      2.322      5.081
REMARK INTER + INTRA:         -10.719
REMARK INTER:                  -9.457
REMARK INTRA:                  -1.262
REMARK UNBOUND:                -2.117
REMARK SMILES O=c1c(O[C@@H]2O[C@@H](CO)[C@H](O)[C@H](O)[C@@H]2O)c(-c2ccc(O)c(O)c2)oc2cc(O)cc(O)c12
REMARK SMILES IDX 4 1 3 2 16 3 25 4 2 5 26 6 1 7 33 8 27 9 31 10 28 11 30 12
REMARK SMILES IDX 17 13 18 14 19 15 20 16 24 17 22 18 21 19 23 21 32 23 29 25
REMARK SMILES IDX 5 27 14 28 6 29 12 30 7 31 10 32 15 33 13 35 8 37 9 38 11 40
REMARK H PARENT 21 20 23 22 32 24 29 26 15 34 13 36 9 39 11 41
REMARK Flexibility Score: inf
ROOT
ATOM      1  O   UNL     1       9.239  -6.887 -26.389  1.00  0.00    -0.454 OA
ENDROOT
BRANCH   1   2
ATOM      2  C   UNL     1      10.027  -7.888 -26.971  1.00  0.00     0.214 A 
ATOM      3  C   UNL     1       9.478  -9.109 -27.415  1.00  0.00     0.180 A 
ATOM      4  O   UNL     1      10.279 -10.065 -27.876  1.00  0.00    -0.452 OA
ATOM      5  C   UNL     1      11.403  -7.677 -27.108  1.00  0.00     0.239 A 
ATOM      6  C   UNL     1      11.595  -9.920 -27.989  1.00  0.00     0.146 A 
ATOM      7  O   UNL     1      11.893  -6.572 -26.751  1.00  0.00    -0.285 OA
ATOM      8  C   UNL     1      12.220  -8.705 -27.621  1.00  0.00     0.111 A 
ATOM      9  C   UNL     1      12.357 -10.981 -28.487  1.00  0.00     0.094 A 
ATOM     10  C   UNL     1      13.622  -8.578 -27.769  1.00  0.00     0.134 A 
ATOM     11  C   UNL     1      13.742 -10.850 -28.629  1.00  0.00     0.123 A 
ATOM     12  C   UNL     1      14.368  -9.654 -28.273  1.00  0.00     0.093 A 
BRANCH   3  13
ATOM     13  C   UNL     1       8.022  -9.366 -27.407  1.00  0.00     0.025 A 
ATOM     14  C   UNL     1       7.192  -8.845 -28.410  1.00  0.00     0.016 A 
ATOM     15  C   UNL     1       5.821  -9.102 -28.394  1.00  0.00     0.051 A 
ATOM     16  C   UNL     1       5.255  -9.897 -27.391  1.00  0.00     0.157 A 
ATOM     17  C   UNL     1       7.465 -10.185 -26.415  1.00  0.00     0.062 A 
ATOM     18  C   UNL     1       6.090 -10.450 -26.391  1.00  0.00     0.158 A 
BRANCH  16  19
ATOM     19  O   UNL     1       3.875 -10.111 -27.427  1.00  0.00    -0.504 OA
ATOM     20  H   UNL     1       3.222  -9.687 -26.786  1.00  0.00     0.293 HD
ENDBRANCH  16  19
BRANCH  18  21
ATOM     21  O   UNL     1       5.600 -11.261 -25.364  1.00  0.00    -0.504 OA
ATOM     22  H   UNL     1       5.603 -12.270 -25.392  1.00  0.00     0.293 HD
ENDBRANCH  18  21
ENDBRANCH   3  13
BRANCH  10  23
ATOM     23  O   UNL     1      14.276  -7.397 -27.420  1.00  0.00    -0.507 OA
ATOM     24  H   UNL     1      13.780  -6.517 -27.333  1.00  0.00     0.293 HD
ENDBRANCH  10  23
BRANCH  11  25
ATOM     25  O   UNL     1      14.507 -11.904 -29.125  1.00  0.00    -0.508 OA
ATOM     26  H   UNL     1      14.563 -12.095 -30.119  1.00  0.00     0.293 HD
ENDBRANCH  11  25
ENDBRANCH   1   2
BRANCH   1  27
ATOM     27  C   UNL     1       8.414  -5.997 -27.152  1.00  0.00     0.339 C 
ATOM     28  C   UNL     1       7.295  -5.387 -26.287  1.00  0.00     0.214 C 
ATOM     29  O   UNL     1       9.195  -4.988 -27.771  1.00  0.00    -0.332 OA
ATOM     30  C   UNL     1       7.845  -4.361 -25.273  1.00  0.00     0.180 C 
ATOM     31  C   UNL     1       9.868  -4.186 -26.815  1.00  0.00     0.179 C 
ATOM     32  C   UNL     1       8.857  -3.403 -25.942  1.00  0.00     0.177 C 
BRANCH  28  33
ATOM     33  O   UNL     1       6.589  -6.408 -25.631  1.00  0.00    -0.384 OA
ATOM     34  H   UNL     1       7.107  -6.633 -24.815  1.00  0.00     0.211 HD
ENDBRANCH  28  33
BRANCH  30  35
ATOM     35  O   UNL     1       8.377  -4.989 -24.130  1.00  0.00    -0.387 OA
ATOM     36  H   UNL     1       7.851  -4.709 -23.341  1.00  0.00     0.211 HD
ENDBRANCH  30  35
BRANCH  31  37
ATOM     37  C   UNL     1      10.812  -3.236 -27.565  1.00  0.00     0.191 C 
BRANCH  37  38
ATOM     38  O   UNL     1      11.848  -3.957 -28.177  1.00  0.00    -0.394 OA
ATOM     39  H   UNL     1      11.434  -4.791 -28.523  1.00  0.00     0.210 HD
ENDBRANCH  37  38
ENDBRANCH  31  37
BRANCH  32  40
ATOM     40  O   UNL     1       9.541  -2.662 -24.965  1.00  0.00    -0.387 OA
ATOM     41  H   UNL     1      10.225  -2.123 -25.442  1.00  0.00     0.211 HD
ENDBRANCH  32  40
ENDBRANCH   1  27
TORSDOF 12
ENDMDL
MODEL 8
REMARK VINA RESULT:    -5.838      2.431      8.106
REMARK INTER + INTRA:         -10.685
REMARK INTER:                  -8.565
REMARK INTRA:                  -2.121
REMARK UNBOUND:                -2.117
REMARK SMILES O=c1c(O[C@@H]2O[C@@H](CO)[C@H](O)[C@H](O)[C@@H]2O)c(-c2ccc(O)c(O)c2)oc2cc(O)cc(O)c12
REMARK SMILES IDX 4 1 3 2 16 3 25 4 2 5 26 6 1 7 33 8 27 9 31 10 28 11 30 12
REMARK SMILES IDX 17 13 18 14 19 15 20 16 24 17 22 18 21 19 23 21 32 23 29 25
REMARK SMILES IDX 5 27 14 28 6 29 12 30 7 31 10 32 15 33 13 35 8 37 9 38 11 40
REMARK H PARENT 21 20 23 22 32 24 29 26 15 34 13 36 9 39 11 41
REMARK Flexibility Score: inf
ROOT
ATOM      1  O   UNL     1       9.631  -7.005 -27.131  1.00  0.00    -0.454 OA
ENDROOT
BRANCH   1   2
ATOM      2  C   UNL     1       8.710  -6.177 -26.477  1.00  0.00     0.214 A 
ATOM      3  C   UNL     1       7.353  -6.535 -26.334  1.00  0.00     0.180 A 
ATOM      4  O   UNL     1       6.497  -5.677 -25.787  1.00  0.00    -0.452 OA
ATOM      5  C   UNL     1       9.143  -4.953 -25.957  1.00  0.00     0.239 A 
ATOM      6  C   UNL     1       6.860  -4.489 -25.314  1.00  0.00     0.146 A 
ATOM      7  O   UNL     1      10.363  -4.647 -26.044  1.00  0.00    -0.285 OA
ATOM      8  C   UNL     1       8.213  -4.076 -25.364  1.00  0.00     0.111 A 
ATOM      9  C   UNL     1       5.889  -3.654 -24.754  1.00  0.00     0.094 A 
ATOM     10  C   UNL     1       8.568  -2.812 -24.836  1.00  0.00     0.134 A 
ATOM     11  C   UNL     1       6.246  -2.405 -24.237  1.00  0.00     0.123 A 
ATOM     12  C   UNL     1       7.579  -1.989 -24.276  1.00  0.00     0.093 A 
BRANCH   3  13
ATOM     13  C   UNL     1       6.839  -7.855 -26.756  1.00  0.00     0.025 A 
ATOM     14  C   UNL     1       5.974  -7.977 -27.853  1.00  0.00     0.016 A 
ATOM     15  C   UNL     1       5.503  -9.230 -28.244  1.00  0.00     0.051 A 
ATOM     16  C   UNL     1       5.899 -10.386 -27.562  1.00  0.00     0.157 A 
ATOM     17  C   UNL     1       7.259  -9.012 -26.085  1.00  0.00     0.062 A 
ATOM     18  C   UNL     1       6.794 -10.276 -26.471  1.00  0.00     0.158 A 
BRANCH  16  19
ATOM     19  O   UNL     1       5.387 -11.610 -27.999  1.00  0.00    -0.504 OA
ATOM     20  H   UNL     1       4.480 -11.968 -27.736  1.00  0.00     0.293 HD
ENDBRANCH  16  19
BRANCH  18  21
ATOM     21  O   UNL     1       7.241 -11.385 -25.749  1.00  0.00    -0.504 OA
ATOM     22  H   UNL     1       6.771 -12.277 -25.736  1.00  0.00     0.293 HD
ENDBRANCH  18  21
ENDBRANCH   3  13
BRANCH  10  23
ATOM     23  O   UNL     1       9.890  -2.368 -24.864  1.00  0.00    -0.507 OA
ATOM     24  H   UNL     1      10.605  -2.855 -25.393  1.00  0.00     0.293 HD
ENDBRANCH  10  23
BRANCH  11  25
ATOM     25  O   UNL     1       5.283  -1.567 -23.676  1.00  0.00    -0.508 OA
ATOM     26  H   UNL     1       4.654  -1.023 -24.256  1.00  0.00     0.293 HD
ENDBRANCH  11  25
ENDBRANCH   1   2
BRANCH   1  27
ATOM     27  C   UNL     1       9.796  -7.022 -28.554  1.00  0.00     0.339 C 
ATOM     28  C   UNL     1      11.265  -6.781 -28.953  1.00  0.00     0.214 C 
ATOM     29  O   UNL     1       9.305  -8.232 -29.107  1.00  0.00    -0.332 OA
ATOM     30  C   UNL     1      12.160  -7.992 -28.614  1.00  0.00     0.180 C 
ATOM     31  C   UNL     1      10.008  -9.359 -28.611  1.00  0.00     0.179 C 
ATOM     32  C   UNL     1      11.493  -9.318 -29.046  1.00  0.00     0.177 C 
BRANCH  28  33
ATOM     33  O   UNL     1      11.743  -5.617 -28.331  1.00  0.00    -0.384 OA
ATOM     34  H   UNL     1      11.125  -5.421 -27.579  1.00  0.00     0.211 HD
ENDBRANCH  28  33
BRANCH  30  35
ATOM     35  O   UNL     1      12.537  -8.000 -27.256  1.00  0.00    -0.387 OA
ATOM     36  H   UNL     1      12.344  -8.894 -26.879  1.00  0.00     0.211 HD
ENDBRANCH  30  35
BRANCH  31  37
ATOM     37  C   UNL     1       9.310 -10.625 -29.125  1.00  0.00     0.191 C 
BRANCH  37  38
ATOM     38  O   UNL     1       9.395 -11.652 -28.174  1.00  0.00    -0.394 OA
ATOM     39  H   UNL     1       8.975 -12.448 -28.592  1.00  0.00     0.210 HD
ENDBRANCH  37  38
ENDBRANCH  31  37
BRANCH  32  40
ATOM     40  O   UNL     1      12.184 -10.410 -28.496  1.00  0.00    -0.387 OA
ATOM     41  H   UNL     1      11.707 -10.659 -27.662  1.00  0.00     0.211 HD
ENDBRANCH  32  40
ENDBRANCH   1  27
TORSDOF 12
ENDMDL
MODEL 9
REMARK VINA RESULT:    -5.777      2.399      5.392
REMARK INTER + INTRA:         -10.596
REMARK INTER:                  -9.216
REMARK INTRA:                  -1.380
REMARK UNBOUND:                -2.117
REMARK SMILES O=c1c(O[C@@H]2O[C@@H](CO)[C@H](O)[C@H](O)[C@@H]2O)c(-c2ccc(O)c(O)c2)oc2cc(O)cc(O)c12
REMARK SMILES IDX 4 1 3 2 16 3 25 4 2 5 26 6 1 7 33 8 27 9 31 10 28 11 30 12
REMARK SMILES IDX 17 13 18 14 19 15 20 16 24 17 22 18 21 19 23 21 32 23 29 25
REMARK SMILES IDX 5 27 14 28 6 29 12 30 7 31 10 32 15 33 13 35 8 37 9 38 11 40
REMARK H PARENT 21 20 23 22 32 24 29 26 15 34 13 36 9 39 11 41
REMARK Flexibility Score: inf
ROOT
ATOM      1  O   UNL     1       8.714  -8.453 -26.244  1.00  0.00    -0.454 OA
ENDROOT
BRANCH   1   2
ATOM      2  C   UNL     1       7.877  -9.521 -26.590  1.00  0.00     0.214 A 
ATOM      3  C   UNL     1       6.500  -9.523 -26.282  1.00  0.00     0.180 A 
ATOM      4  O   UNL     1       5.765 -10.598 -26.549  1.00  0.00    -0.452 OA
ATOM      5  C   UNL     1       8.421 -10.626 -27.253  1.00  0.00     0.239 A 
ATOM      6  C   UNL     1       6.250 -11.683 -27.144  1.00  0.00     0.146 A 
ATOM      7  O   UNL     1       9.642 -10.612 -27.569  1.00  0.00    -0.285 OA
ATOM      8  C   UNL     1       7.608 -11.740 -27.540  1.00  0.00     0.111 A 
ATOM      9  C   UNL     1       5.399 -12.765 -27.386  1.00  0.00     0.094 A 
ATOM     10  C   UNL     1       8.088 -12.904 -28.187  1.00  0.00     0.134 A 
ATOM     11  C   UNL     1       5.881 -13.913 -28.023  1.00  0.00     0.123 A 
ATOM     12  C   UNL     1       7.218 -13.979 -28.422  1.00  0.00     0.093 A 
BRANCH   3  13
ATOM     13  C   UNL     1       5.826  -8.351 -25.683  1.00  0.00     0.025 A 
ATOM     14  C   UNL     1       5.445  -7.257 -26.472  1.00  0.00     0.016 A 
ATOM     15  C   UNL     1       4.803  -6.161 -25.894  1.00  0.00     0.051 A 
ATOM     16  C   UNL     1       4.513  -6.144 -24.525  1.00  0.00     0.157 A 
ATOM     17  C   UNL     1       5.516  -8.350 -24.316  1.00  0.00     0.062 A 
ATOM     18  C   UNL     1       4.870  -7.256 -23.727  1.00  0.00     0.158 A 
BRANCH  16  19
ATOM     19  O   UNL     1       3.875  -5.014 -24.008  1.00  0.00    -0.504 OA
ATOM     20  H   UNL     1       3.968  -4.087 -24.395  1.00  0.00     0.293 HD
ENDBRANCH  16  19
BRANCH  18  21
ATOM     21  O   UNL     1       4.605  -7.315 -22.357  1.00  0.00    -0.504 OA
ATOM     22  H   UNL     1       4.220  -6.550 -21.822  1.00  0.00     0.293 HD
ENDBRANCH  18  21
ENDBRANCH   3  13
BRANCH  10  23
ATOM     23  O   UNL     1       9.419 -13.001 -28.594  1.00  0.00    -0.507 OA
ATOM     24  H   UNL     1      10.125 -13.439 -28.014  1.00  0.00     0.293 HD
ENDBRANCH  10  23
BRANCH  11  25
ATOM     25  O   UNL     1       5.038 -14.996 -28.267  1.00  0.00    -0.508 OA
ATOM     26  H   UNL     1       5.376 -15.836 -28.723  1.00  0.00     0.293 HD
ENDBRANCH  11  25
ENDBRANCH   1   2
BRANCH   1  27
ATOM     27  C   UNL     1       8.765  -7.227 -26.984  1.00  0.00     0.339 C 
ATOM     28  C   UNL     1       9.201  -6.049 -26.091  1.00  0.00     0.214 C 
ATOM     29  O   UNL     1       9.609  -7.353 -28.117  1.00  0.00    -0.332 OA
ATOM     30  C   UNL     1      10.694  -6.137 -25.708  1.00  0.00     0.180 C 
ATOM     31  C   UNL     1      10.945  -7.651 -27.746  1.00  0.00     0.179 C 
ATOM     32  C   UNL     1      11.565  -6.485 -26.938  1.00  0.00     0.177 C 
BRANCH  28  33
ATOM     33  O   UNL     1       8.394  -5.997 -24.944  1.00  0.00    -0.384 OA
ATOM     34  H   UNL     1       8.998  -5.817 -24.177  1.00  0.00     0.211 HD
ENDBRANCH  28  33
BRANCH  30  35
ATOM     35  O   UNL     1      10.907  -7.023 -24.633  1.00  0.00    -0.387 OA
ATOM     36  H   UNL     1      11.010  -7.938 -24.994  1.00  0.00     0.211 HD
ENDBRANCH  30  35
BRANCH  31  37
ATOM     37  C   UNL     1      11.746  -7.934 -29.023  1.00  0.00     0.191 C 
BRANCH  37  38
ATOM     38  O   UNL     1      12.846  -8.758 -28.739  1.00  0.00    -0.394 OA
ATOM     39  H   UNL     1      13.315  -8.895 -29.602  1.00  0.00     0.210 HD
ENDBRANCH  37  38
ENDBRANCH  31  37
BRANCH  32  40
ATOM     40  O   UNL     1      12.865  -6.823 -26.529  1.00  0.00    -0.387 OA
ATOM     41  H   UNL     1      13.045  -7.736 -26.875  1.00  0.00     0.211 HD
ENDBRANCH  32  40
ENDBRANCH   1  27
TORSDOF 12
ENDMDL
