MODEL 1
REMARK VINA RESULT:    -3.878      0.000      0.000
REMARK INTER + INTRA:          -9.422
REMARK INTER:                  -7.052
REMARK INTRA:                  -2.369
REMARK UNBOUND:                -2.369
REMARK SMILES CCCCCCCCCCCCCCCC(=O)[O-]
REMARK SMILES IDX 9 1 10 2 11 3 12 4 13 5 14 6 15 7 16 8 17 9 18 10 8 11 7 12
REMARK SMILES IDX 6 13 5 14 4 15 3 16 2 17 1 18
REMARK H PARENT
REMARK Flexibility Score: inf
ROOT
ATOM      1  C   UNL     1     148.604 142.432 140.101  1.00  0.00     0.000 C 
ENDROOT
BRANCH   1   2
ATOM      2  C   UNL     1     148.072 141.532 138.974  1.00  0.00     0.000 C 
BRANCH   2   3
ATOM      3  C   UNL     1     149.070 140.438 138.566  1.00  0.00     0.000 C 
BRANCH   3   4
ATOM      4  C   UNL     1     148.805 139.956 137.134  1.00  0.00     0.000 C 
BRANCH   4   5
ATOM      5  C   UNL     1     147.721 140.778 136.416  1.00  0.00     0.000 C 
BRANCH   5   6
ATOM      6  C   UNL     1     146.438 139.978 136.110  1.00  0.00     0.006 C 
BRANCH   6   7
ATOM      7  C   UNL     1     145.192 140.617 136.742  1.00  0.00     0.053 C 
BRANCH   7   8
ATOM      8  C   UNL     1     143.964 139.851 136.366  1.00  0.00     0.041 C 
ATOM      9  O   UNL     1     144.061 138.672 135.933  1.00  0.00    -0.550 OA
ATOM     10  O   UNL     1     142.715 140.455 136.447  1.00  0.00    -0.550 OA
ENDBRANCH   7   8
ENDBRANCH   6   7
ENDBRANCH   5   6
ENDBRANCH   4   5
ENDBRANCH   3   4
ENDBRANCH   2   3
ENDBRANCH   1   2
BRANCH   1  11
ATOM     11  C   UNL     1     147.659 142.482 141.314  1.00  0.00     0.000 C 
BRANCH  11  12
ATOM     12  C   UNL     1     147.652 141.166 142.109  1.00  0.00    -0.000 C 
BRANCH  12  13
ATOM     13  C   UNL     1     149.068 140.683 142.470  1.00  0.00    -0.000 C 
BRANCH  13  14
ATOM     14  C   UNL     1     149.291 139.203 142.121  1.00  0.00    -0.000 C 
BRANCH  14  15
ATOM     15  C   UNL     1     147.994 138.495 141.690  1.00  0.00    -0.000 C 
BRANCH  15  16
ATOM     16  C   UNL     1     148.230 137.505 140.530  1.00  0.00    -0.000 C 
BRANCH  16  17
ATOM     17  C   UNL     1     147.087 137.479 139.501  1.00  0.00    -0.003 C 
ATOM     18  C   UNL     1     146.028 138.550 139.755  1.00  0.00     0.004 C 
ENDBRANCH  16  17
ENDBRANCH  15  16
ENDBRANCH  14  15
ENDBRANCH  13  14
ENDBRANCH  12  13
ENDBRANCH  11  12
ENDBRANCH   1  11
TORSDOF 14
ENDMDL
MODEL 2
REMARK VINA RESULT:    -3.863      1.042      1.950
REMARK INTER + INTRA:          -9.395
REMARK INTER:                  -6.896
REMARK INTRA:                  -2.499
REMARK UNBOUND:                -2.369
REMARK SMILES CCCCCCCCCCCCCCCC(=O)[O-]
REMARK SMILES IDX 9 1 10 2 11 3 12 4 13 5 14 6 15 7 16 8 17 9 18 10 8 11 7 12
REMARK SMILES IDX 6 13 5 14 4 15 3 16 2 17 1 18
REMARK H PARENT
REMARK Flexibility Score: inf
ROOT
ATOM      1  C   UNL     1     147.677 141.380 141.870  1.00  0.00     0.000 C 
ENDROOT
BRANCH   1   2
ATOM      2  C   UNL     1     147.884 142.630 140.999  1.00  0.00     0.000 C 
BRANCH   2   3
ATOM      3  C   UNL     1     148.217 142.288 139.539  1.00  0.00     0.000 C 
BRANCH   3   4
ATOM      4  C   UNL     1     147.180 141.323 138.948  1.00  0.00     0.000 C 
BRANCH   4   5
ATOM      5  C   UNL     1     147.675 140.620 137.673  1.00  0.00     0.000 C 
BRANCH   5   6
ATOM      6  C   UNL     1     146.614 140.549 136.554  1.00  0.00     0.006 C 
BRANCH   6   7
ATOM      7  C   UNL     1     145.356 141.361 136.895  1.00  0.00     0.053 C 
BRANCH   7   8
ATOM      8  C   UNL     1     144.160 140.466 136.969  1.00  0.00     0.041 C 
ATOM      9  O   UNL     1     144.187 139.430 137.684  1.00  0.00    -0.550 OA
ATOM     10  O   UNL     1     143.032 140.750 136.209  1.00  0.00    -0.550 OA
ENDBRANCH   7   8
ENDBRANCH   6   7
ENDBRANCH   5   6
ENDBRANCH   4   5
ENDBRANCH   3   4
ENDBRANCH   2   3
ENDBRANCH   1   2
BRANCH   1  11
ATOM     11  C   UNL     1     148.987 140.878 142.502  1.00  0.00     0.000 C 
BRANCH  11  12
ATOM     12  C   UNL     1     149.313 139.427 142.108  1.00  0.00    -0.000 C 
BRANCH  12  13
ATOM     13  C   UNL     1     149.870 139.312 140.678  1.00  0.00    -0.000 C 
BRANCH  13  14
ATOM     14  C   UNL     1     149.434 138.014 139.980  1.00  0.00    -0.000 C 
BRANCH  14  15
ATOM     15  C   UNL     1     148.193 137.379 140.633  1.00  0.00    -0.000 C 
BRANCH  15  16
ATOM     16  C   UNL     1     146.906 137.656 139.829  1.00  0.00    -0.000 C 
BRANCH  16  17
ATOM     17  C   UNL     1     145.810 138.362 140.645  1.00  0.00    -0.003 C 
ATOM     18  C   UNL     1     145.877 138.045 142.137  1.00  0.00     0.004 C 
ENDBRANCH  16  17
ENDBRANCH  15  16
ENDBRANCH  14  15
ENDBRANCH  13  14
ENDBRANCH  12  13
ENDBRANCH  11  12
ENDBRANCH   1  11
TORSDOF 14
ENDMDL
MODEL 3
REMARK VINA RESULT:    -3.786      1.344      3.232
REMARK INTER + INTRA:          -9.253
REMARK INTER:                  -6.884
REMARK INTRA:                  -2.370
REMARK UNBOUND:                -2.369
REMARK SMILES CCCCCCCCCCCCCCCC(=O)[O-]
REMARK SMILES IDX 9 1 10 2 11 3 12 4 13 5 14 6 15 7 16 8 17 9 18 10 8 11 7 12
REMARK SMILES IDX 6 13 5 14 4 15 3 16 2 17 1 18
REMARK H PARENT
REMARK Flexibility Score: inf
ROOT
ATOM      1  C   UNL     1     149.904 138.497 139.765  1.00  0.00     0.000 C 
ENDROOT
BRANCH   1   2
ATOM      2  C   UNL     1     150.112 139.781 138.945  1.00  0.00     0.000 C 
BRANCH   2   3
ATOM      3  C   UNL     1     149.031 139.983 137.872  1.00  0.00     0.000 C 
BRANCH   3   4
ATOM      4  C   UNL     1     148.004 141.034 138.316  1.00  0.00     0.000 C 
BRANCH   4   5
ATOM      5  C   UNL     1     146.697 140.971 137.508  1.00  0.00     0.000 C 
BRANCH   5   6
ATOM      6  C   UNL     1     145.746 139.841 137.954  1.00  0.00     0.006 C 
BRANCH   6   7
ATOM      7  C   UNL     1     145.719 138.677 136.953  1.00  0.00     0.053 C 
BRANCH   7   8
ATOM      8  C   UNL     1     145.178 139.133 135.635  1.00  0.00     0.041 C 
ATOM      9  O   UNL     1     145.888 139.053 134.598  1.00  0.00    -0.550 OA
ATOM     10  O   UNL     1     143.909 139.693 135.560  1.00  0.00    -0.550 OA
ENDBRANCH   7   8
ENDBRANCH   6   7
ENDBRANCH   5   6
ENDBRANCH   4   5
ENDBRANCH   3   4
ENDBRANCH   2   3
ENDBRANCH   1   2
BRANCH   1  11
ATOM     11  C   UNL     1     148.654 137.714 139.327  1.00  0.00     0.000 C 
BRANCH  11  12
ATOM     12  C   UNL     1     147.557 137.706 140.405  1.00  0.00    -0.000 C 
BRANCH  12  13
ATOM     13  C   UNL     1     147.926 138.557 141.633  1.00  0.00    -0.000 C 
BRANCH  13  14
ATOM     14  C   UNL     1     146.805 139.529 142.034  1.00  0.00    -0.000 C 
BRANCH  14  15
ATOM     15  C   UNL     1     147.345 140.889 142.513  1.00  0.00    -0.000 C 
BRANCH  15  16
ATOM     16  C   UNL     1     148.847 141.059 142.207  1.00  0.00    -0.000 C 
BRANCH  16  17
ATOM     17  C   UNL     1     149.209 142.451 141.660  1.00  0.00    -0.003 C 
ATOM     18  C   UNL     1     148.029 143.161 141.000  1.00  0.00     0.004 C 
ENDBRANCH  16  17
ENDBRANCH  15  16
ENDBRANCH  14  15
ENDBRANCH  13  14
ENDBRANCH  12  13
ENDBRANCH  11  12
ENDBRANCH   1  11
TORSDOF 14
ENDMDL
MODEL 4
REMARK VINA RESULT:    -3.782      1.115      1.998
REMARK INTER + INTRA:          -9.248
REMARK INTER:                  -7.165
REMARK INTRA:                  -2.082
REMARK UNBOUND:                -2.369
REMARK SMILES CCCCCCCCCCCCCCCC(=O)[O-]
REMARK SMILES IDX 9 1 10 2 11 3 12 4 13 5 14 6 15 7 16 8 17 9 18 10 8 11 7 12
REMARK SMILES IDX 6 13 5 14 4 15 3 16 2 17 1 18
REMARK H PARENT
REMARK Flexibility Score: inf
ROOT
ATOM      1  C   UNL     1     149.826 141.223 139.555  1.00  0.00     0.000 C 
ENDROOT
BRANCH   1   2
ATOM      2  C   UNL     1     149.740 139.976 138.659  1.00  0.00     0.000 C 
BRANCH   2   3
ATOM      3  C   UNL     1     148.633 140.082 137.599  1.00  0.00     0.000 C 
BRANCH   3   4
ATOM      4  C   UNL     1     147.500 139.087 137.884  1.00  0.00     0.000 C 
BRANCH   4   5
ATOM      5  C   UNL     1     146.179 139.776 138.262  1.00  0.00     0.000 C 
BRANCH   5   6
ATOM      6  C   UNL     1     145.726 140.846 137.247  1.00  0.00     0.006 C 
BRANCH   6   7
ATOM      7  C   UNL     1     144.220 141.130 137.337  1.00  0.00     0.053 C 
BRANCH   7   8
ATOM      8  C   UNL     1     143.494 140.469 136.208  1.00  0.00     0.041 C 
ATOM      9  O   UNL     1     143.338 139.220 136.201  1.00  0.00    -0.550 OA
ATOM     10  O   UNL     1     143.034 141.227 135.138  1.00  0.00    -0.550 OA
ENDBRANCH   7   8
ENDBRANCH   6   7
ENDBRANCH   5   6
ENDBRANCH   4   5
ENDBRANCH   3   4
ENDBRANCH   2   3
ENDBRANCH   1   2
BRANCH   1  11
ATOM     11  C   UNL     1     148.579 142.117 139.443  1.00  0.00     0.000 C 
BRANCH  11  12
ATOM     12  C   UNL     1     148.114 142.651 140.808  1.00  0.00    -0.000 C 
BRANCH  12  13
ATOM     13  C   UNL     1     149.090 142.302 141.946  1.00  0.00    -0.000 C 
BRANCH  13  14
ATOM     14  C   UNL     1     148.658 141.052 142.728  1.00  0.00    -0.000 C 
BRANCH  14  15
ATOM     15  C   UNL     1     147.194 140.661 142.458  1.00  0.00    -0.000 C 
BRANCH  15  16
ATOM     16  C   UNL     1     147.069 139.228 141.901  1.00  0.00    -0.000 C 
BRANCH  16  17
ATOM     17  C   UNL     1     148.418 138.503 141.756  1.00  0.00    -0.003 C 
ATOM     18  C   UNL     1     148.321 137.211 140.947  1.00  0.00     0.004 C 
ENDBRANCH  16  17
ENDBRANCH  15  16
ENDBRANCH  14  15
ENDBRANCH  13  14
ENDBRANCH  12  13
ENDBRANCH  11  12
ENDBRANCH   1  11
TORSDOF 14
ENDMDL
MODEL 5
REMARK VINA RESULT:    -3.753      3.125      5.647
REMARK INTER + INTRA:          -9.195
REMARK INTER:                  -6.825
REMARK INTRA:                  -2.370
REMARK UNBOUND:                -2.369
REMARK SMILES CCCCCCCCCCCCCCCC(=O)[O-]
REMARK SMILES IDX 9 1 10 2 11 3 12 4 13 5 14 6 15 7 16 8 17 9 18 10 8 11 7 12
REMARK SMILES IDX 6 13 5 14 4 15 3 16 2 17 1 18
REMARK H PARENT
REMARK Flexibility Score: inf
ROOT
ATOM      1  C   UNL     1     149.594 138.207 139.870  1.00  0.00     0.000 C 
ENDROOT
BRANCH   1   2
ATOM      2  C   UNL     1     148.365 137.559 140.528  1.00  0.00     0.000 C 
BRANCH   2   3
ATOM      3  C   UNL     1     147.946 138.265 141.827  1.00  0.00     0.000 C 
BRANCH   3   4
ATOM      4  C   UNL     1     147.079 139.496 141.530  1.00  0.00     0.000 C 
BRANCH   4   5
ATOM      5  C   UNL     1     147.375 140.677 142.470  1.00  0.00     0.000 C 
BRANCH   5   6
ATOM      6  C   UNL     1     148.865 141.075 142.513  1.00  0.00     0.006 C 
BRANCH   6   7
ATOM      7  C   UNL     1     149.344 141.675 141.184  1.00  0.00     0.053 C 
BRANCH   7   8
ATOM      8  C   UNL     1     149.084 143.148 141.151  1.00  0.00     0.041 C 
ATOM      9  O   UNL     1     149.938 143.951 141.611  1.00  0.00    -0.550 OA
ATOM     10  O   UNL     1     147.879 143.631 140.658  1.00  0.00    -0.550 OA
ENDBRANCH   7   8
ENDBRANCH   6   7
ENDBRANCH   5   6
ENDBRANCH   4   5
ENDBRANCH   3   4
ENDBRANCH   2   3
ENDBRANCH   1   2
BRANCH   1  11
ATOM     11  C   UNL     1     149.410 138.423 138.358  1.00  0.00     0.000 C 
BRANCH  11  12
ATOM     12  C   UNL     1     149.601 139.892 137.946  1.00  0.00    -0.000 C 
BRANCH  12  13
ATOM     13  C   UNL     1     148.383 140.462 137.196  1.00  0.00    -0.000 C 
BRANCH  13  14
ATOM     14  C   UNL     1     147.258 140.897 138.148  1.00  0.00    -0.000 C 
BRANCH  14  15
ATOM     15  C   UNL     1     145.890 140.312 137.754  1.00  0.00    -0.000 C 
BRANCH  15  16
ATOM     16  C   UNL     1     145.751 138.831 138.161  1.00  0.00    -0.000 C 
BRANCH  16  17
ATOM     17  C   UNL     1     145.308 137.914 137.008  1.00  0.00    -0.003 C 
ATOM     18  C   UNL     1     145.728 138.434 135.635  1.00  0.00     0.004 C 
ENDBRANCH  16  17
ENDBRANCH  15  16
ENDBRANCH  14  15
ENDBRANCH  13  14
ENDBRANCH  12  13
ENDBRANCH  11  12
ENDBRANCH   1  11
TORSDOF 14
ENDMDL
MODEL 6
REMARK VINA RESULT:    -3.731      2.757      5.191
REMARK INTER + INTRA:          -9.155
REMARK INTER:                  -7.240
REMARK INTRA:                  -1.915
REMARK UNBOUND:                -2.369
REMARK SMILES CCCCCCCCCCCCCCCC(=O)[O-]
REMARK SMILES IDX 9 1 10 2 11 3 12 4 13 5 14 6 15 7 16 8 17 9 18 10 8 11 7 12
REMARK SMILES IDX 6 13 5 14 4 15 3 16 2 17 1 18
REMARK H PARENT
REMARK Flexibility Score: inf
ROOT
ATOM      1  C   UNL     1     147.705 137.691 140.312  1.00  0.00     0.000 C 
ENDROOT
BRANCH   1   2
ATOM      2  C   UNL     1     147.247 136.492 141.158  1.00  0.00     0.000 C 
BRANCH   2   3
ATOM      3  C   UNL     1     146.455 136.913 142.406  1.00  0.00     0.000 C 
BRANCH   3   4
ATOM      4  C   UNL     1     145.626 138.175 142.132  1.00  0.00     0.000 C 
BRANCH   4   5
ATOM      5  C   UNL     1     144.866 138.673 143.374  1.00  0.00     0.000 C 
BRANCH   5   6
ATOM      6  C   UNL     1     143.332 138.599 143.231  1.00  0.00     0.006 C 
BRANCH   6   7
ATOM      7  C   UNL     1     142.899 137.658 142.098  1.00  0.00     0.053 C 
BRANCH   7   8
ATOM      8  C   UNL     1     141.906 138.335 141.207  1.00  0.00     0.041 C 
ATOM      9  O   UNL     1     142.160 138.495 139.984  1.00  0.00    -0.550 OA
ATOM     10  O   UNL     1     140.722 138.832 141.736  1.00  0.00    -0.550 OA
ENDBRANCH   7   8
ENDBRANCH   6   7
ENDBRANCH   5   6
ENDBRANCH   4   5
ENDBRANCH   3   4
ENDBRANCH   2   3
ENDBRANCH   1   2
BRANCH   1  11
ATOM     11  C   UNL     1     149.234 137.749 140.148  1.00  0.00     0.000 C 
BRANCH  11  12
ATOM     12  C   UNL     1     149.849 138.998 140.801  1.00  0.00    -0.000 C 
BRANCH  12  13
ATOM     13  C   UNL     1     149.254 139.297 142.188  1.00  0.00    -0.000 C 
BRANCH  13  14
ATOM     14  C   UNL     1     149.044 140.800 142.427  1.00  0.00    -0.000 C 
BRANCH  14  15
ATOM     15  C   UNL     1     147.617 141.261 142.078  1.00  0.00    -0.000 C 
BRANCH  15  16
ATOM     16  C   UNL     1     147.613 142.451 141.097  1.00  0.00    -0.000 C 
BRANCH  16  17
ATOM     17  C   UNL     1     148.256 142.129 139.737  1.00  0.00    -0.003 C 
ATOM     18  C   UNL     1     147.407 141.192 138.880  1.00  0.00     0.004 C 
ENDBRANCH  16  17
ENDBRANCH  15  16
ENDBRANCH  14  15
ENDBRANCH  13  14
ENDBRANCH  12  13
ENDBRANCH  11  12
ENDBRANCH   1  11
TORSDOF 14
ENDMDL
MODEL 7
REMARK VINA RESULT:    -3.690      3.143      5.055
REMARK INTER + INTRA:          -9.079
REMARK INTER:                  -6.681
REMARK INTRA:                  -2.398
REMARK UNBOUND:                -2.369
REMARK SMILES CCCCCCCCCCCCCCCC(=O)[O-]
REMARK SMILES IDX 9 1 10 2 11 3 12 4 13 5 14 6 15 7 16 8 17 9 18 10 8 11 7 12
REMARK SMILES IDX 6 13 5 14 4 15 3 16 2 17 1 18
REMARK H PARENT
REMARK Flexibility Score: inf
ROOT
ATOM      1  C   UNL     1     148.363 140.760 138.135  1.00  0.00     0.000 C 
ENDROOT
BRANCH   1   2
ATOM      2  C   UNL     1     146.864 140.440 138.018  1.00  0.00     0.000 C 
BRANCH   2   3
ATOM      3  C   UNL     1     146.590 138.939 137.834  1.00  0.00     0.000 C 
BRANCH   3   4
ATOM      4  C   UNL     1     145.554 138.439 138.850  1.00  0.00     0.000 C 
BRANCH   4   5
ATOM      5  C   UNL     1     146.195 137.878 140.131  1.00  0.00     0.000 C 
BRANCH   5   6
ATOM      6  C   UNL     1     145.637 138.502 141.427  1.00  0.00     0.006 C 
BRANCH   6   7
ATOM      7  C   UNL     1     145.690 137.525 142.610  1.00  0.00     0.053 C 
BRANCH   7   8
ATOM      8  C   UNL     1     144.683 137.906 143.649  1.00  0.00     0.041 C 
ATOM      9  O   UNL     1     143.997 138.952 143.511  1.00  0.00    -0.550 OA
ATOM     10  O   UNL     1     144.538 137.132 144.793  1.00  0.00    -0.550 OA
ENDBRANCH   7   8
ENDBRANCH   6   7
ENDBRANCH   5   6
ENDBRANCH   4   5
ENDBRANCH   3   4
ENDBRANCH   2   3
ENDBRANCH   1   2
BRANCH   1  11
ATOM     11  C   UNL     1     149.200 139.532 138.537  1.00  0.00     0.000 C 
BRANCH  11  12
ATOM     12  C   UNL     1     150.110 139.811 139.745  1.00  0.00    -0.000 C 
BRANCH  12  13
ATOM     13  C   UNL     1     149.960 138.757 140.857  1.00  0.00    -0.000 C 
BRANCH  13  14
ATOM     14  C   UNL     1     149.114 139.262 142.036  1.00  0.00    -0.000 C 
BRANCH  14  15
ATOM     15  C   UNL     1     149.093 140.798 142.134  1.00  0.00    -0.000 C 
BRANCH  15  16
ATOM     16  C   UNL     1     147.676 141.375 141.934  1.00  0.00    -0.000 C 
BRANCH  16  17
ATOM     17  C   UNL     1     147.654 142.692 141.140  1.00  0.00    -0.003 C 
ATOM     18  C   UNL     1     149.047 143.270 140.899  1.00  0.00     0.004 C 
ENDBRANCH  16  17
ENDBRANCH  15  16
ENDBRANCH  14  15
ENDBRANCH  13  14
ENDBRANCH  12  13
ENDBRANCH  11  12
ENDBRANCH   1  11
TORSDOF 14
ENDMDL
MODEL 8
REMARK VINA RESULT:    -3.665      1.463      3.342
REMARK INTER + INTRA:          -9.035
REMARK INTER:                  -6.665
REMARK INTRA:                  -2.369
REMARK UNBOUND:                -2.369
REMARK SMILES CCCCCCCCCCCCCCCC(=O)[O-]
REMARK SMILES IDX 9 1 10 2 11 3 12 4 13 5 14 6 15 7 16 8 17 9 18 10 8 11 7 12
REMARK SMILES IDX 6 13 5 14 4 15 3 16 2 17 1 18
REMARK H PARENT
REMARK Flexibility Score: inf
ROOT
ATOM      1  C   UNL     1     148.425 138.549 141.909  1.00  0.00     0.000 C 
ENDROOT
BRANCH   1   2
ATOM      2  C   UNL     1     148.270 137.315 141.006  1.00  0.00     0.000 C 
BRANCH   2   3
ATOM      3  C   UNL     1     149.408 137.183 139.982  1.00  0.00     0.000 C 
BRANCH   3   4
ATOM      4  C   UNL     1     148.858 136.880 138.582  1.00  0.00     0.000 C 
BRANCH   4   5
ATOM      5  C   UNL     1     147.325 136.979 138.507  1.00  0.00     0.000 C 
BRANCH   5   6
ATOM      6  C   UNL     1     146.791 137.253 137.085  1.00  0.00     0.006 C 
BRANCH   6   7
ATOM      7  C   UNL     1     145.691 138.324 137.076  1.00  0.00     0.053 C 
BRANCH   7   8
ATOM      8  C   UNL     1     145.700 139.072 135.781  1.00  0.00     0.041 C 
ATOM      9  O   UNL     1     146.718 139.729 135.438  1.00  0.00    -0.550 OA
ATOM     10  O   UNL     1     144.568 139.085 134.976  1.00  0.00    -0.550 OA
ENDBRANCH   7   8
ENDBRANCH   6   7
ENDBRANCH   5   6
ENDBRANCH   4   5
ENDBRANCH   3   4
ENDBRANCH   2   3
ENDBRANCH   1   2
BRANCH   1  11
ATOM     11  C   UNL     1     147.146 139.404 141.967  1.00  0.00     0.000 C 
BRANCH  11  12
ATOM     12  C   UNL     1     147.407 140.817 142.515  1.00  0.00    -0.000 C 
BRANCH  12  13
ATOM     13  C   UNL     1     148.879 141.244 142.379  1.00  0.00    -0.000 C 
BRANCH  13  14
ATOM     14  C   UNL     1     149.031 142.640 141.756  1.00  0.00    -0.000 C 
BRANCH  14  15
ATOM     15  C   UNL     1     149.296 142.587 140.240  1.00  0.00    -0.000 C 
BRANCH  15  16
ATOM     16  C   UNL     1     149.738 141.183 139.777  1.00  0.00    -0.000 C 
BRANCH  16  17
ATOM     17  C   UNL     1     148.870 140.607 138.645  1.00  0.00    -0.003 C 
ATOM     18  C   UNL     1     147.441 141.147 138.652  1.00  0.00     0.004 C 
ENDBRANCH  16  17
ENDBRANCH  15  16
ENDBRANCH  14  15
ENDBRANCH  13  14
ENDBRANCH  12  13
ENDBRANCH  11  12
ENDBRANCH   1  11
TORSDOF 14
ENDMDL
MODEL 9
REMARK VINA RESULT:    -3.664      1.527      3.782
REMARK INTER + INTRA:          -9.032
REMARK INTER:                  -6.439
REMARK INTRA:                  -2.593
REMARK UNBOUND:                -2.369
REMARK SMILES CCCCCCCCCCCCCCCC(=O)[O-]
REMARK SMILES IDX 9 1 10 2 11 3 12 4 13 5 14 6 15 7 16 8 17 9 18 10 8 11 7 12
REMARK SMILES IDX 6 13 5 14 4 15 3 16 2 17 1 18
REMARK H PARENT
REMARK Flexibility Score: inf
ROOT
ATOM      1  C   UNL     1     148.702 141.036 142.505  1.00  0.00     0.000 C 
ENDROOT
BRANCH   1   2
ATOM      2  C   UNL     1     149.375 139.793 141.901  1.00  0.00     0.000 C 
BRANCH   2   3
ATOM      3  C   UNL     1     148.388 138.639 141.663  1.00  0.00     0.000 C 
BRANCH   3   4
ATOM      4  C   UNL     1     146.951 139.068 141.987  1.00  0.00     0.000 C 
BRANCH   4   5
ATOM      5  C   UNL     1     145.907 138.403 141.075  1.00  0.00     0.000 C 
BRANCH   5   6
ATOM      6  C   UNL     1     146.521 137.676 139.859  1.00  0.00     0.006 C 
BRANCH   6   7
ATOM      7  C   UNL     1     145.452 137.224 138.854  1.00  0.00     0.053 C 
BRANCH   7   8
ATOM      8  C   UNL     1     145.328 138.216 137.741  1.00  0.00     0.041 C 
ATOM      9  O   UNL     1     145.922 138.018 136.648  1.00  0.00    -0.550 OA
ATOM     10  O   UNL     1     144.597 139.383 137.927  1.00  0.00    -0.550 OA
ENDBRANCH   7   8
ENDBRANCH   6   7
ENDBRANCH   5   6
ENDBRANCH   4   5
ENDBRANCH   3   4
ENDBRANCH   2   3
ENDBRANCH   1   2
BRANCH   1  11
ATOM     11  C   UNL     1     149.201 142.345 141.870  1.00  0.00     0.000 C 
BRANCH  11  12
ATOM     12  C   UNL     1     149.308 142.254 140.339  1.00  0.00    -0.000 C 
BRANCH  12  13
ATOM     13  C   UNL     1     147.946 142.407 139.638  1.00  0.00    -0.000 C 
BRANCH  13  14
ATOM     14  C   UNL     1     147.499 141.117 138.933  1.00  0.00    -0.000 C 
BRANCH  14  15
ATOM     15  C   UNL     1     147.750 141.154 137.415  1.00  0.00    -0.000 C 
BRANCH  15  16
ATOM     16  C   UNL     1     148.705 140.033 136.955  1.00  0.00    -0.000 C 
BRANCH  16  17
ATOM     17  C   UNL     1     149.501 139.393 138.105  1.00  0.00    -0.003 C 
ATOM     18  C   UNL     1     149.600 137.873 137.992  1.00  0.00     0.004 C 
ENDBRANCH  16  17
ENDBRANCH  15  16
ENDBRANCH  14  15
ENDBRANCH  13  14
ENDBRANCH  12  13
ENDBRANCH  11  12
ENDBRANCH   1  11
TORSDOF 14
ENDMDL
