MODEL 1
REMARK VINA RESULT:    -4.912      0.000      0.000
REMARK INTER + INTRA:          -5.597
REMARK INTER:                  -5.342
REMARK INTRA:                  -0.255
REMARK UNBOUND:                -0.255
REMARK SMILES O=C([O-])c1ccccc1O
REMARK SMILES IDX 4 1 9 2 5 3 8 4 6 5 7 6 2 7 1 8 3 9 10 10
REMARK H PARENT 10 11
REMARK Flexibility Score: inf
ROOT
ATOM      1  C   UNL     1      23.197  -6.817 -38.627  1.00  0.00     0.039 A 
ATOM      2  C   UNL     1      23.202  -8.177 -38.233  1.00  0.00     0.124 A 
ATOM      3  C   UNL     1      24.342  -6.289 -39.257  1.00  0.00     0.014 A 
ATOM      4  C   UNL     1      24.334  -8.971 -38.474  1.00  0.00     0.047 A 
ATOM      5  C   UNL     1      25.462  -7.091 -39.490  1.00  0.00     0.001 A 
ATOM      6  C   UNL     1      25.458  -8.429 -39.100  1.00  0.00     0.004 A 
ENDROOT
BRANCH   1   7
ATOM      7  C   UNL     1      22.021  -5.940 -38.392  1.00  0.00     0.075 C 
ATOM      8  O   UNL     1      21.572  -5.216 -39.319  1.00  0.00    -0.545 OA
ATOM      9  O   UNL     1      21.394  -5.897 -37.152  1.00  0.00    -0.545 OA
ENDBRANCH   1   7
BRANCH   2  10
ATOM     10  O   UNL     1      22.092  -8.743 -37.607  1.00  0.00    -0.507 OA
ATOM     11  H   UNL     1      21.203  -8.839 -38.085  1.00  0.00     0.293 HD
ENDBRANCH   2  10
TORSDOF 2
ENDMDL
MODEL 2
REMARK VINA RESULT:    -4.874      2.731      3.231
REMARK INTER + INTRA:          -5.556
REMARK INTER:                  -5.306
REMARK INTRA:                  -0.249
REMARK UNBOUND:                -0.255
REMARK SMILES O=C([O-])c1ccccc1O
REMARK SMILES IDX 4 1 9 2 5 3 8 4 6 5 7 6 2 7 1 8 3 9 10 10
REMARK H PARENT 10 11
REMARK Flexibility Score: inf
ROOT
ATOM      1  C   UNL     1      21.814  -5.085 -38.614  1.00  0.00     0.039 A 
ATOM      2  C   UNL     1      21.877  -5.901 -39.769  1.00  0.00     0.124 A 
ATOM      3  C   UNL     1      22.030  -5.678 -37.353  1.00  0.00     0.014 A 
ATOM      4  C   UNL     1      22.150  -7.271 -39.645  1.00  0.00     0.047 A 
ATOM      5  C   UNL     1      22.301  -7.044 -37.244  1.00  0.00     0.001 A 
ATOM      6  C   UNL     1      22.361  -7.839 -38.387  1.00  0.00     0.004 A 
ENDROOT
BRANCH   1   7
ATOM      7  C   UNL     1      21.528  -3.630 -38.699  1.00  0.00     0.075 C 
ATOM      8  O   UNL     1      20.503  -3.218 -39.304  1.00  0.00    -0.545 OA
ATOM      9  O   UNL     1      22.378  -2.696 -38.119  1.00  0.00    -0.545 OA
ENDBRANCH   1   7
BRANCH   2  10
ATOM     10  O   UNL     1      21.671  -5.358 -41.038  1.00  0.00    -0.507 OA
ATOM     11  H   UNL     1      20.993  -5.752 -41.681  1.00  0.00     0.293 HD
ENDBRANCH   2  10
TORSDOF 2
ENDMDL
MODEL 3
REMARK VINA RESULT:    -4.802      2.026      3.426
REMARK INTER + INTRA:          -5.478
REMARK INTER:                  -5.234
REMARK INTRA:                  -0.245
REMARK UNBOUND:                -0.255
REMARK SMILES O=C([O-])c1ccccc1O
REMARK SMILES IDX 4 1 9 2 5 3 8 4 6 5 7 6 2 7 1 8 3 9 10 10
REMARK H PARENT 10 11
REMARK Flexibility Score: inf
ROOT
ATOM      1  C   UNL     1      24.016  -7.325 -38.216  1.00  0.00     0.039 A 
ATOM      2  C   UNL     1      22.752  -7.677 -37.686  1.00  0.00     0.124 A 
ATOM      3  C   UNL     1      24.462  -5.995 -38.077  1.00  0.00     0.014 A 
ATOM      4  C   UNL     1      21.970  -6.710 -37.036  1.00  0.00     0.047 A 
ATOM      5  C   UNL     1      23.673  -5.042 -37.429  1.00  0.00     0.001 A 
ATOM      6  C   UNL     1      22.430  -5.398 -36.910  1.00  0.00     0.004 A 
ENDROOT
BRANCH   1   7
ATOM      7  C   UNL     1      24.877  -8.317 -38.910  1.00  0.00     0.075 C 
ATOM      8  O   UNL     1      25.575  -7.971 -39.900  1.00  0.00    -0.545 OA
ATOM      9  O   UNL     1      24.931  -9.640 -38.488  1.00  0.00    -0.545 OA
ENDBRANCH   1   7
BRANCH   2  10
ATOM     10  O   UNL     1      22.270  -8.981 -37.799  1.00  0.00    -0.507 OA
ATOM     11  H   UNL     1      22.597  -9.725 -37.192  1.00  0.00     0.293 HD
ENDBRANCH   2  10
TORSDOF 2
ENDMDL
MODEL 4
REMARK VINA RESULT:    -4.793      3.052      3.818
REMARK INTER + INTRA:          -5.468
REMARK INTER:                  -5.218
REMARK INTRA:                  -0.249
REMARK UNBOUND:                -0.255
REMARK SMILES O=C([O-])c1ccccc1O
REMARK SMILES IDX 4 1 9 2 5 3 8 4 6 5 7 6 2 7 1 8 3 9 10 10
REMARK H PARENT 10 11
REMARK Flexibility Score: inf
ROOT
ATOM      1  C   UNL     1      25.034  -6.867 -37.527  1.00  0.00     0.039 A 
ATOM      2  C   UNL     1      24.779  -8.094 -38.185  1.00  0.00     0.124 A 
ATOM      3  C   UNL     1      23.959  -6.189 -36.917  1.00  0.00     0.014 A 
ATOM      4  C   UNL     1      23.476  -8.613 -38.218  1.00  0.00     0.047 A 
ATOM      5  C   UNL     1      22.667  -6.717 -36.958  1.00  0.00     0.001 A 
ATOM      6  C   UNL     1      22.425  -7.927 -37.608  1.00  0.00     0.004 A 
ENDROOT
BRANCH   1   7
ATOM      7  C   UNL     1      26.398  -6.281 -37.467  1.00  0.00     0.075 C 
ATOM      8  O   UNL     1      27.363  -6.961 -37.030  1.00  0.00    -0.545 OA
ATOM      9  O   UNL     1      26.639  -4.978 -37.888  1.00  0.00    -0.545 OA
ENDBRANCH   1   7
BRANCH   2  10
ATOM     10  O   UNL     1      25.811  -8.800 -38.803  1.00  0.00    -0.507 OA
ATOM     11  H   UNL     1      25.727  -9.788 -39.017  1.00  0.00     0.293 HD
ENDBRANCH   2  10
TORSDOF 2
ENDMDL
MODEL 5
REMARK VINA RESULT:    -4.778      1.851      2.539
REMARK INTER + INTRA:          -5.452
REMARK INTER:                  -5.219
REMARK INTRA:                  -0.232
REMARK UNBOUND:                -0.255
REMARK SMILES O=C([O-])c1ccccc1O
REMARK SMILES IDX 4 1 9 2 5 3 8 4 6 5 7 6 2 7 1 8 3 9 10 10
REMARK H PARENT 10 11
REMARK Flexibility Score: inf
ROOT
ATOM      1  C   UNL     1      23.163  -6.426 -37.328  1.00  0.00     0.039 A 
ATOM      2  C   UNL     1      24.575  -6.331 -37.354  1.00  0.00     0.124 A 
ATOM      3  C   UNL     1      22.555  -7.606 -37.800  1.00  0.00     0.014 A 
ATOM      4  C   UNL     1      25.340  -7.400 -37.843  1.00  0.00     0.047 A 
ATOM      5  C   UNL     1      23.329  -8.663 -38.285  1.00  0.00     0.001 A 
ATOM      6  C   UNL     1      24.719  -8.561 -38.307  1.00  0.00     0.004 A 
ENDROOT
BRANCH   1   7
ATOM      7  C   UNL     1      22.315  -5.318 -36.817  1.00  0.00     0.075 C 
ATOM      8  O   UNL     1      21.161  -5.133 -37.286  1.00  0.00    -0.545 OA
ATOM      9  O   UNL     1      22.771  -4.465 -35.819  1.00  0.00    -0.545 OA
ENDBRANCH   1   7
BRANCH   2  10
ATOM     10  O   UNL     1      25.222  -5.182 -36.896  1.00  0.00    -0.507 OA
ATOM     11  H   UNL     1      24.761  -4.279 -36.888  1.00  0.00     0.293 HD
ENDBRANCH   2  10
TORSDOF 2
ENDMDL
MODEL 6
REMARK VINA RESULT:    -4.770      1.913      3.957
REMARK INTER + INTRA:          -5.443
REMARK INTER:                  -5.199
REMARK INTRA:                  -0.244
REMARK UNBOUND:                -0.255
REMARK SMILES O=C([O-])c1ccccc1O
REMARK SMILES IDX 4 1 9 2 5 3 8 4 6 5 7 6 2 7 1 8 3 9 10 10
REMARK H PARENT 10 11
REMARK Flexibility Score: inf
ROOT
ATOM      1  C   UNL     1      22.946  -6.439 -37.660  1.00  0.00     0.039 A 
ATOM      2  C   UNL     1      21.859  -5.994 -38.451  1.00  0.00     0.124 A 
ATOM      3  C   UNL     1      23.276  -5.716 -36.496  1.00  0.00     0.014 A 
ATOM      4  C   UNL     1      21.134  -4.855 -38.069  1.00  0.00     0.047 A 
ATOM      5  C   UNL     1      22.547  -4.584 -36.128  1.00  0.00     0.001 A 
ATOM      6  C   UNL     1      21.478  -4.154 -36.912  1.00  0.00     0.004 A 
ENDROOT
BRANCH   1   7
ATOM      7  C   UNL     1      23.740  -7.640 -38.027  1.00  0.00     0.075 C 
ATOM      8  O   UNL     1      23.166  -8.674 -38.459  1.00  0.00    -0.545 OA
ATOM      9  O   UNL     1      25.124  -7.650 -37.903  1.00  0.00    -0.545 OA
ENDBRANCH   1   7
BRANCH   2  10
ATOM     10  O   UNL     1      21.495  -6.678 -39.611  1.00  0.00    -0.507 OA
ATOM     11  H   UNL     1      20.593  -7.133 -39.700  1.00  0.00     0.293 HD
ENDBRANCH   2  10
TORSDOF 2
ENDMDL
MODEL 7
REMARK VINA RESULT:    -4.767      2.064      4.292
REMARK INTER + INTRA:          -5.440
REMARK INTER:                  -5.188
REMARK INTRA:                  -0.251
REMARK UNBOUND:                -0.255
REMARK SMILES O=C([O-])c1ccccc1O
REMARK SMILES IDX 4 1 9 2 5 3 8 4 6 5 7 6 2 7 1 8 3 9 10 10
REMARK H PARENT 10 11
REMARK Flexibility Score: inf
ROOT
ATOM      1  C   UNL     1      22.939  -6.169 -38.739  1.00  0.00     0.039 A 
ATOM      2  C   UNL     1      22.906  -4.964 -39.480  1.00  0.00     0.124 A 
ATOM      3  C   UNL     1      22.073  -6.311 -37.636  1.00  0.00     0.014 A 
ATOM      4  C   UNL     1      22.020  -3.940 -39.111  1.00  0.00     0.047 A 
ATOM      5  C   UNL     1      21.197  -5.283 -37.280  1.00  0.00     0.001 A 
ATOM      6  C   UNL     1      21.170  -4.100 -38.015  1.00  0.00     0.004 A 
ENDROOT
BRANCH   1   7
ATOM      7  C   UNL     1      23.861  -7.279 -39.094  1.00  0.00     0.075 C 
ATOM      8  O   UNL     1      23.467  -8.474 -39.038  1.00  0.00    -0.545 OA
ATOM      9  O   UNL     1      25.168  -7.027 -39.492  1.00  0.00    -0.545 OA
ENDBRANCH   1   7
BRANCH   2  10
ATOM     10  O   UNL     1      23.744  -4.778 -40.579  1.00  0.00    -0.507 OA
ATOM     11  H   UNL     1      24.629  -5.267 -40.662  1.00  0.00     0.293 HD
ENDBRANCH   2  10
TORSDOF 2
ENDMDL
MODEL 8
REMARK VINA RESULT:    -4.762      2.320      3.914
REMARK INTER + INTRA:          -5.435
REMARK INTER:                  -5.185
REMARK INTRA:                  -0.250
REMARK UNBOUND:                -0.255
REMARK SMILES O=C([O-])c1ccccc1O
REMARK SMILES IDX 4 1 9 2 5 3 8 4 6 5 7 6 2 7 1 8 3 9 10 10
REMARK H PARENT 10 11
REMARK Flexibility Score: inf
ROOT
ATOM      1  C   UNL     1      22.383  -6.314 -37.685  1.00  0.00     0.039 A 
ATOM      2  C   UNL     1      23.536  -5.943 -36.953  1.00  0.00     0.124 A 
ATOM      3  C   UNL     1      21.266  -5.454 -37.670  1.00  0.00     0.014 A 
ATOM      4  C   UNL     1      23.551  -4.740 -36.232  1.00  0.00     0.047 A 
ATOM      5  C   UNL     1      21.294  -4.260 -36.947  1.00  0.00     0.001 A 
ATOM      6  C   UNL     1      22.434  -3.902 -36.229  1.00  0.00     0.004 A 
ENDROOT
BRANCH   1   7
ATOM      7  C   UNL     1      22.324  -7.579 -38.463  1.00  0.00     0.075 C 
ATOM      8  O   UNL     1      22.726  -8.658 -37.953  1.00  0.00    -0.545 OA
ATOM      9  O   UNL     1      21.829  -7.600 -39.761  1.00  0.00    -0.545 OA
ENDBRANCH   1   7
BRANCH   2  10
ATOM     10  O   UNL     1      24.666  -6.762 -36.938  1.00  0.00    -0.507 OA
ATOM     11  H   UNL     1      24.602  -7.760 -37.107  1.00  0.00     0.293 HD
ENDBRANCH   2  10
TORSDOF 2
ENDMDL
MODEL 9
REMARK VINA RESULT:    -4.750      3.017      3.896
REMARK INTER + INTRA:          -5.422
REMARK INTER:                  -5.172
REMARK INTRA:                  -0.250
REMARK UNBOUND:                -0.255
REMARK SMILES O=C([O-])c1ccccc1O
REMARK SMILES IDX 4 1 9 2 5 3 8 4 6 5 7 6 2 7 1 8 3 9 10 10
REMARK H PARENT 10 11
REMARK Flexibility Score: inf
ROOT
ATOM      1  C   UNL     1      25.167  -6.885 -37.534  1.00  0.00     0.039 A 
ATOM      2  C   UNL     1      24.061  -6.287 -36.884  1.00  0.00     0.124 A 
ATOM      3  C   UNL     1      24.966  -8.084 -38.248  1.00  0.00     0.014 A 
ATOM      4  C   UNL     1      22.795  -6.888 -36.960  1.00  0.00     0.047 A 
ATOM      5  C   UNL     1      23.701  -8.671 -38.314  1.00  0.00     0.001 A 
ATOM      6  C   UNL     1      22.617  -8.075 -37.672  1.00  0.00     0.004 A 
ENDROOT
BRANCH   1   7
ATOM      7  C   UNL     1      26.524  -6.282 -37.481  1.00  0.00     0.075 C 
ATOM      8  O   UNL     1      26.699  -5.079 -37.809  1.00  0.00    -0.545 OA
ATOM      9  O   UNL     1      27.624  -7.027 -37.071  1.00  0.00    -0.545 OA
ENDBRANCH   1   7
BRANCH   2  10
ATOM     10  O   UNL     1      24.211  -5.100 -36.167  1.00  0.00    -0.507 OA
ATOM     11  H   UNL     1      23.952  -4.203 -36.562  1.00  0.00     0.293 HD
ENDBRANCH   2  10
TORSDOF 2
ENDMDL
