MODEL 1
REMARK VINA RESULT:    -3.384      0.000      0.000
REMARK INTER + INTRA:          -4.816
REMARK INTER:                  -4.571
REMARK INTRA:                  -0.246
REMARK UNBOUND:                -0.246
REMARK SMILES CCCCCCC=CC(=O)[O-]
REMARK SMILES IDX 5 1 6 2 7 3 8 4 9 5 10 6 11 7 4 8 3 9 2 10 1 11
REMARK H PARENT
REMARK Flexibility Score: inf
ROOT
ATOM      1  C   UNL     1      17.473  -3.688  -3.997  1.00  0.00     0.004 C 
ENDROOT
BRANCH   1   2
ATOM      2  C   UNL     1      15.961  -3.959  -3.952  1.00  0.00     0.027 C 
BRANCH   2   3
ATOM      3  C   UNL     1      15.443  -3.919  -2.544  1.00  0.00    -0.025 C 
ATOM      4  C   UNL     1      16.203  -4.295  -1.509  1.00  0.00     0.020 C 
BRANCH   4   5
ATOM      5  C   UNL     1      15.712  -4.276  -0.122  1.00  0.00     0.064 C 
ATOM      6  O   UNL     1      15.043  -5.237   0.345  1.00  0.00    -0.545 OA
ATOM      7  O   UNL     1      15.989  -3.182   0.686  1.00  0.00    -0.545 OA
ENDBRANCH   4   5
ENDBRANCH   2   3
ENDBRANCH   1   2
BRANCH   1   8
ATOM      8  C   UNL     1      18.016  -3.610  -5.432  1.00  0.00     0.000 C 
BRANCH   8   9
ATOM      9  C   UNL     1      19.387  -2.914  -5.510  1.00  0.00    -0.000 C 
BRANCH   9  10
ATOM     10  C   UNL     1      20.557  -3.902  -5.395  1.00  0.00    -0.003 C 
ATOM     11  C   UNL     1      20.287  -5.223  -6.115  1.00  0.00     0.004 C 
ENDBRANCH   9  10
ENDBRANCH   8   9
ENDBRANCH   1   8
TORSDOF 6
ENDMDL
MODEL 2
REMARK VINA RESULT:    -3.267     13.651     15.364
REMARK INTER + INTRA:          -4.659
REMARK INTER:                  -4.197
REMARK INTRA:                  -0.462
REMARK UNBOUND:                -0.246
REMARK SMILES CCCCCCC=CC(=O)[O-]
REMARK SMILES IDX 5 1 6 2 7 3 8 4 9 5 10 6 11 7 4 8 3 9 2 10 1 11
REMARK H PARENT
REMARK Flexibility Score: inf
ROOT
ATOM      1  C   UNL     1      30.506  -4.612   1.516  1.00  0.00     0.004 C 
ENDROOT
BRANCH   1   2
ATOM      2  C   UNL     1      29.317  -3.734   1.934  1.00  0.00     0.027 C 
BRANCH   2   3
ATOM      3  C   UNL     1      29.573  -2.287   1.624  1.00  0.00    -0.025 C 
ATOM      4  C   UNL     1      30.687  -1.894   0.997  1.00  0.00     0.020 C 
BRANCH   4   5
ATOM      5  C   UNL     1      30.966  -0.481   0.697  1.00  0.00     0.064 C 
ATOM      6  O   UNL     1      32.148  -0.054   0.606  1.00  0.00    -0.545 OA
ATOM      7  O   UNL     1      29.908   0.399   0.509  1.00  0.00    -0.545 OA
ENDBRANCH   4   5
ENDBRANCH   2   3
ENDBRANCH   1   2
BRANCH   1   8
ATOM      8  C   UNL     1      30.655  -5.862   2.395  1.00  0.00     0.000 C 
BRANCH   8   9
ATOM      9  C   UNL     1      32.076  -6.019   2.968  1.00  0.00    -0.000 C 
BRANCH   9  10
ATOM     10  C   UNL     1      33.037  -4.931   2.465  1.00  0.00    -0.003 C 
ATOM     11  C   UNL     1      33.885  -4.328   3.585  1.00  0.00     0.004 C 
ENDBRANCH   9  10
ENDBRANCH   8   9
ENDBRANCH   1   8
TORSDOF 6
ENDMDL
MODEL 3
REMARK VINA RESULT:    -3.263     11.330     13.141
REMARK INTER + INTRA:          -4.653
REMARK INTER:                  -3.938
REMARK INTRA:                  -0.715
REMARK UNBOUND:                -0.246
REMARK SMILES CCCCCCC=CC(=O)[O-]
REMARK SMILES IDX 5 1 6 2 7 3 8 4 9 5 10 6 11 7 4 8 3 9 2 10 1 11
REMARK H PARENT
REMARK Flexibility Score: inf
ROOT
ATOM      1  C   UNL     1      30.672  -2.273   1.293  1.00  0.00     0.004 C 
ENDROOT
BRANCH   1   2
ATOM      2  C   UNL     1      29.772  -3.239   0.507  1.00  0.00     0.027 C 
BRANCH   2   3
ATOM      3  C   UNL     1      28.581  -2.527  -0.066  1.00  0.00    -0.025 C 
ATOM      4  C   UNL     1      27.833  -1.706   0.679  1.00  0.00     0.020 C 
BRANCH   4   5
ATOM      5  C   UNL     1      26.653  -1.009   0.143  1.00  0.00     0.064 C 
ATOM      6  O   UNL     1      25.677  -0.715   0.884  1.00  0.00    -0.545 OA
ATOM      7  O   UNL     1      26.614  -0.669  -1.203  1.00  0.00    -0.545 OA
ENDBRANCH   4   5
ENDBRANCH   2   3
ENDBRANCH   1   2
BRANCH   1   8
ATOM      8  C   UNL     1      31.991  -1.970   0.566  1.00  0.00     0.000 C 
BRANCH   8   9
ATOM      9  C   UNL     1      32.172  -0.470   0.267  1.00  0.00    -0.000 C 
BRANCH   9  10
ATOM     10  C   UNL     1      30.964   0.369   0.711  1.00  0.00    -0.003 C 
ATOM     11  C   UNL     1      30.214   0.993  -0.466  1.00  0.00     0.004 C 
ENDBRANCH   9  10
ENDBRANCH   8   9
ENDBRANCH   1   8
TORSDOF 6
ENDMDL
MODEL 4
REMARK VINA RESULT:    -3.215     11.113     13.001
REMARK INTER + INTRA:          -4.589
REMARK INTER:                  -3.868
REMARK INTRA:                  -0.721
REMARK UNBOUND:                -0.246
REMARK SMILES CCCCCCC=CC(=O)[O-]
REMARK SMILES IDX 5 1 6 2 7 3 8 4 9 5 10 6 11 7 4 8 3 9 2 10 1 11
REMARK H PARENT
REMARK Flexibility Score: inf
ROOT
ATOM      1  C   UNL     1      30.691   0.272   0.635  1.00  0.00     0.004 C 
ENDROOT
BRANCH   1   2
ATOM      2  C   UNL     1      30.117   0.744  -0.710  1.00  0.00     0.027 C 
BRANCH   2   3
ATOM      3  C   UNL     1      28.716   0.243  -0.909  1.00  0.00    -0.025 C 
ATOM      4  C   UNL     1      27.742   0.529  -0.038  1.00  0.00     0.020 C 
BRANCH   4   5
ATOM      5  C   UNL     1      26.365   0.037  -0.206  1.00  0.00     0.064 C 
ATOM      6  O   UNL     1      25.766  -0.556   0.731  1.00  0.00    -0.545 OA
ATOM      7  O   UNL     1      25.714   0.229  -1.417  1.00  0.00    -0.545 OA
ENDBRANCH   4   5
ENDBRANCH   2   3
ENDBRANCH   1   2
BRANCH   1   8
ATOM      8  C   UNL     1      31.722  -0.856   0.474  1.00  0.00     0.000 C 
BRANCH   8   9
ATOM      9  C   UNL     1      31.199  -2.213   0.981  1.00  0.00    -0.000 C 
BRANCH   9  10
ATOM     10  C   UNL     1      29.838  -2.095   1.683  1.00  0.00    -0.003 C 
ATOM     11  C   UNL     1      28.761  -2.964   1.032  1.00  0.00     0.004 C 
ENDBRANCH   9  10
ENDBRANCH   8   9
ENDBRANCH   1   8
TORSDOF 6
ENDMDL
MODEL 5
REMARK VINA RESULT:    -3.179     11.864     13.665
REMARK INTER + INTRA:          -4.539
REMARK INTER:                  -3.868
REMARK INTRA:                  -0.672
REMARK UNBOUND:                -0.246
REMARK SMILES CCCCCCC=CC(=O)[O-]
REMARK SMILES IDX 5 1 6 2 7 3 8 4 9 5 10 6 11 7 4 8 3 9 2 10 1 11
REMARK H PARENT
REMARK Flexibility Score: inf
ROOT
ATOM      1  C   UNL     1      30.839  -3.698   0.694  1.00  0.00     0.004 C 
ENDROOT
BRANCH   1   2
ATOM      2  C   UNL     1      29.728  -3.596   1.750  1.00  0.00     0.027 C 
BRANCH   2   3
ATOM      3  C   UNL     1      28.903  -2.357   1.552  1.00  0.00    -0.025 C 
ATOM      4  C   UNL     1      28.328  -2.082   0.376  1.00  0.00     0.020 C 
BRANCH   4   5
ATOM      5  C   UNL     1      27.526  -0.867   0.156  1.00  0.00     0.064 C 
ATOM      6  O   UNL     1      27.947   0.067  -0.578  1.00  0.00    -0.545 OA
ATOM      7  O   UNL     1      26.285  -0.749   0.766  1.00  0.00    -0.545 OA
ENDBRANCH   4   5
ENDBRANCH   2   3
ENDBRANCH   1   2
BRANCH   1   8
ATOM      8  C   UNL     1      31.999  -2.728   0.961  1.00  0.00     0.000 C 
BRANCH   8   9
ATOM      9  C   UNL     1      32.209  -1.724  -0.188  1.00  0.00    -0.000 C 
BRANCH   9  10
ATOM     10  C   UNL     1      32.486  -0.300   0.317  1.00  0.00    -0.003 C 
ATOM     11  C   UNL     1      31.207   0.468   0.651  1.00  0.00     0.004 C 
ENDBRANCH   9  10
ENDBRANCH   8   9
ENDBRANCH   1   8
TORSDOF 6
ENDMDL
MODEL 6
REMARK VINA RESULT:    -3.178     10.936     12.368
REMARK INTER + INTRA:          -4.538
REMARK INTER:                  -3.794
REMARK INTRA:                  -0.744
REMARK UNBOUND:                -0.246
REMARK SMILES CCCCCCC=CC(=O)[O-]
REMARK SMILES IDX 5 1 6 2 7 3 8 4 9 5 10 6 11 7 4 8 3 9 2 10 1 11
REMARK H PARENT
REMARK Flexibility Score: inf
ROOT
ATOM      1  C   UNL     1      28.379  -2.527   0.190  1.00  0.00     0.004 C 
ENDROOT
BRANCH   1   2
ATOM      2  C   UNL     1      26.883  -2.217   0.350  1.00  0.00     0.027 C 
BRANCH   2   3
ATOM      3  C   UNL     1      26.646  -0.740   0.480  1.00  0.00    -0.025 C 
ATOM      4  C   UNL     1      26.711   0.074  -0.580  1.00  0.00     0.020 C 
BRANCH   4   5
ATOM      5  C   UNL     1      26.495   1.526  -0.473  1.00  0.00     0.064 C 
ATOM      6  O   UNL     1      25.806   2.147  -1.326  1.00  0.00    -0.545 OA
ATOM      7  O   UNL     1      27.060   2.224   0.586  1.00  0.00    -0.545 OA
ENDBRANCH   4   5
ENDBRANCH   2   3
ENDBRANCH   1   2
BRANCH   1   8
ATOM      8  C   UNL     1      29.222  -1.990   1.356  1.00  0.00     0.000 C 
BRANCH   8   9
ATOM      9  C   UNL     1      30.519  -1.306   0.884  1.00  0.00    -0.000 C 
BRANCH   9  10
ATOM     10  C   UNL     1      30.332   0.197   0.627  1.00  0.00    -0.003 C 
ATOM     11  C   UNL     1      30.409   0.555  -0.857  1.00  0.00     0.004 C 
ENDBRANCH   9  10
ENDBRANCH   8   9
ENDBRANCH   1   8
TORSDOF 6
ENDMDL
MODEL 7
REMARK VINA RESULT:    -3.170     12.977     14.323
REMARK INTER + INTRA:          -4.528
REMARK INTER:                  -3.896
REMARK INTRA:                  -0.632
REMARK UNBOUND:                -0.246
REMARK SMILES CCCCCCC=CC(=O)[O-]
REMARK SMILES IDX 5 1 6 2 7 3 8 4 9 5 10 6 11 7 4 8 3 9 2 10 1 11
REMARK H PARENT
REMARK Flexibility Score: inf
ROOT
ATOM      1  C   UNL     1      28.796  -1.850   0.229  1.00  0.00     0.004 C 
ENDROOT
BRANCH   1   2
ATOM      2  C   UNL     1      29.201  -2.256   1.654  1.00  0.00     0.027 C 
BRANCH   2   3
ATOM      3  C   UNL     1      29.453  -3.733   1.748  1.00  0.00    -0.025 C 
ATOM      4  C   UNL     1      30.677  -4.245   1.579  1.00  0.00     0.020 C 
BRANCH   4   5
ATOM      5  C   UNL     1      30.944  -5.690   1.652  1.00  0.00     0.064 C 
ATOM      6  O   UNL     1      31.452  -6.310   0.679  1.00  0.00    -0.545 OA
ATOM      7  O   UNL     1      30.633  -6.383   2.814  1.00  0.00    -0.545 OA
ENDBRANCH   4   5
ENDBRANCH   2   3
ENDBRANCH   1   2
BRANCH   1   8
ATOM      8  C   UNL     1      29.755  -0.821  -0.388  1.00  0.00     0.000 C 
BRANCH   8   9
ATOM      9  C   UNL     1      30.586  -0.075   0.673  1.00  0.00    -0.000 C 
BRANCH   9  10
ATOM     10  C   UNL     1      32.089  -0.082   0.356  1.00  0.00    -0.003 C 
ATOM     11  C   UNL     1      32.614  -1.478   0.019  1.00  0.00     0.004 C 
ENDBRANCH   9  10
ENDBRANCH   8   9
ENDBRANCH   1   8
TORSDOF 6
ENDMDL
MODEL 8
REMARK VINA RESULT:    -3.157     13.772     15.276
REMARK INTER + INTRA:          -4.510
REMARK INTER:                  -3.943
REMARK INTRA:                  -0.566
REMARK UNBOUND:                -0.246
REMARK SMILES CCCCCCC=CC(=O)[O-]
REMARK SMILES IDX 5 1 6 2 7 3 8 4 9 5 10 6 11 7 4 8 3 9 2 10 1 11
REMARK H PARENT
REMARK Flexibility Score: inf
ROOT
ATOM      1  C   UNL     1      29.431  -2.245   1.752  1.00  0.00     0.004 C 
ENDROOT
BRANCH   1   2
ATOM      2  C   UNL     1      29.499  -3.752   1.456  1.00  0.00     0.027 C 
BRANCH   2   3
ATOM      3  C   UNL     1      30.862  -4.304   1.758  1.00  0.00    -0.025 C 
ATOM      4  C   UNL     1      31.951  -3.527   1.738  1.00  0.00     0.020 C 
BRANCH   4   5
ATOM      5  C   UNL     1      33.298  -4.050   2.016  1.00  0.00     0.064 C 
ATOM      6  O   UNL     1      33.707  -4.200   3.199  1.00  0.00    -0.545 OA
ATOM      7  O   UNL     1      34.132  -4.385   0.958  1.00  0.00    -0.545 OA
ENDBRANCH   4   5
ENDBRANCH   2   3
ENDBRANCH   1   2
BRANCH   1   8
ATOM      8  C   UNL     1      28.730  -1.456   0.636  1.00  0.00     0.000 C 
BRANCH   8   9
ATOM      9  C   UNL     1      29.720  -0.678  -0.251  1.00  0.00    -0.000 C 
BRANCH   9  10
ATOM     10  C   UNL     1      30.642   0.243   0.563  1.00  0.00    -0.003 C 
ATOM     11  C   UNL     1      32.122  -0.090   0.377  1.00  0.00     0.004 C 
ENDBRANCH   9  10
ENDBRANCH   8   9
ENDBRANCH   1   8
TORSDOF 6
ENDMDL
MODEL 9
REMARK VINA RESULT:    -3.106      1.342      2.000
REMARK INTER + INTRA:          -4.441
REMARK INTER:                  -3.944
REMARK INTRA:                  -0.496
REMARK UNBOUND:                -0.246
REMARK SMILES CCCCCCC=CC(=O)[O-]
REMARK SMILES IDX 5 1 6 2 7 3 8 4 9 5 10 6 11 7 4 8 3 9 2 10 1 11
REMARK H PARENT
REMARK Flexibility Score: inf
ROOT
ATOM      1  C   UNL     1      17.845  -5.409  -4.652  1.00  0.00     0.004 C 
ENDROOT
BRANCH   1   2
ATOM      2  C   UNL     1      16.464  -4.822  -4.980  1.00  0.00     0.027 C 
BRANCH   2   3
ATOM      3  C   UNL     1      15.702  -4.495  -3.728  1.00  0.00    -0.025 C 
ATOM      4  C   UNL     1      16.325  -4.093  -2.615  1.00  0.00     0.020 C 
BRANCH   4   5
ATOM      5  C   UNL     1      15.600  -3.781  -1.374  1.00  0.00     0.064 C 
ATOM      6  O   UNL     1      15.145  -2.626  -1.157  1.00  0.00    -0.545 OA
ATOM      7  O   UNL     1      15.412  -4.777  -0.424  1.00  0.00    -0.545 OA
ENDBRANCH   4   5
ENDBRANCH   2   3
ENDBRANCH   1   2
BRANCH   1   8
ATOM      8  C   UNL     1      18.948  -4.877  -5.580  1.00  0.00     0.000 C 
BRANCH   8   9
ATOM      9  C   UNL     1      18.859  -3.355  -5.796  1.00  0.00    -0.000 C 
BRANCH   9  10
ATOM     10  C   UNL     1      19.360  -2.559  -4.582  1.00  0.00    -0.003 C 
ATOM     11  C   UNL     1      20.661  -1.807  -4.866  1.00  0.00     0.004 C 
ENDBRANCH   9  10
ENDBRANCH   8   9
ENDBRANCH   1   8
TORSDOF 6
ENDMDL
