MODEL 1
REMARK VINA RESULT:    -2.875      0.000      0.000
REMARK INTER + INTRA:          -3.128
REMARK INTER:                  -3.128
REMARK INTRA:                   0.000
REMARK UNBOUND:                 0.000
REMARK SMILES [NH3+]CC(=O)[O-]
REMARK SMILES IDX 2 1 1 2 3 6 4 7 5 8
REMARK H PARENT 1 3 1 4 1 5
REMARK Flexibility Score: inf
ROOT
ATOM      1  C   UNL     1      25.064  19.233 -16.062  1.00  0.00     0.312 C 
ENDROOT
BRANCH   1   2
ATOM      2  N   UNL     1      23.625  19.166 -16.311  1.00  0.00    -0.353 N 
ATOM      3  H   UNL     1      23.330  18.171 -16.447  1.00  0.00     0.344 HD
ATOM      4  H   UNL     1      23.402  19.707 -17.177  1.00  0.00     0.344 HD
ATOM      5  H   UNL     1      23.101  19.583 -15.507  1.00  0.00     0.344 HD
ENDBRANCH   1   2
BRANCH   1   6
ATOM      6  C   UNL     1      25.631  17.860 -15.865  1.00  0.00     0.096 C 
ATOM      7  O   UNL     1      26.773  17.577 -16.313  1.00  0.00    -0.544 OA
ATOM      8  O   UNL     1      24.919  16.911 -15.143  1.00  0.00    -0.544 OA
ENDBRANCH   1   6
TORSDOF 2
ENDMDL
MODEL 2
REMARK VINA RESULT:    -2.756      1.897      2.165
REMARK INTER + INTRA:          -2.998
REMARK INTER:                  -2.998
REMARK INTRA:                   0.000
REMARK UNBOUND:                 0.000
REMARK SMILES [NH3+]CC(=O)[O-]
REMARK SMILES IDX 2 1 1 2 3 6 4 7 5 8
REMARK H PARENT 1 3 1 4 1 5
REMARK Flexibility Score: inf
ROOT
ATOM      1  C   UNL     1      26.405  18.461 -16.289  1.00  0.00     0.312 C 
ENDROOT
BRANCH   1   2
ATOM      2  N   UNL     1      26.701  19.459 -15.265  1.00  0.00    -0.353 N 
ATOM      3  H   UNL     1      26.212  19.215 -14.373  1.00  0.00     0.344 HD
ATOM      4  H   UNL     1      26.365  20.394 -15.591  1.00  0.00     0.344 HD
ATOM      5  H   UNL     1      27.733  19.510 -15.100  1.00  0.00     0.344 HD
ENDBRANCH   1   2
BRANCH   1   6
ATOM      6  C   UNL     1      25.087  17.801 -16.019  1.00  0.00     0.096 C 
ATOM      7  O   UNL     1      24.997  16.902 -15.142  1.00  0.00    -0.544 OA
ATOM      8  O   UNL     1      23.949  18.216 -16.698  1.00  0.00    -0.544 OA
ENDBRANCH   1   6
TORSDOF 2
ENDMDL
MODEL 3
REMARK VINA RESULT:    -2.675      2.276      2.764
REMARK INTER + INTRA:          -2.910
REMARK INTER:                  -2.910
REMARK INTRA:                   0.000
REMARK UNBOUND:                 0.000
REMARK SMILES [NH3+]CC(=O)[O-]
REMARK SMILES IDX 2 1 1 2 3 6 4 7 5 8
REMARK H PARENT 1 3 1 4 1 5
REMARK Flexibility Score: inf
ROOT
ATOM      1  C   UNL     1      25.217  17.695 -16.039  1.00  0.00     0.312 C 
ENDROOT
BRANCH   1   2
ATOM      2  N   UNL     1      24.669  16.996 -14.879  1.00  0.00    -0.353 N 
ATOM      3  H   UNL     1      25.389  16.353 -14.474  1.00  0.00     0.344 HD
ATOM      4  H   UNL     1      23.841  16.431 -15.179  1.00  0.00     0.344 HD
ATOM      5  H   UNL     1      24.363  17.686 -14.154  1.00  0.00     0.344 HD
ENDBRANCH   1   2
BRANCH   1   6
ATOM      6  C   UNL     1      24.687  19.094 -16.112  1.00  0.00     0.096 C 
ATOM      7  O   UNL     1      23.463  19.298 -16.327  1.00  0.00    -0.544 OA
ATOM      8  O   UNL     1      25.536  20.171 -15.890  1.00  0.00    -0.544 OA
ENDBRANCH   1   6
TORSDOF 2
ENDMDL
MODEL 4
REMARK VINA RESULT:    -2.362      1.819      2.088
REMARK INTER + INTRA:          -2.569
REMARK INTER:                  -2.569
REMARK INTRA:                   0.000
REMARK UNBOUND:                 0.000
REMARK SMILES [NH3+]CC(=O)[O-]
REMARK SMILES IDX 2 1 1 2 3 6 4 7 5 8
REMARK H PARENT 1 3 1 4 1 5
REMARK Flexibility Score: inf
ROOT
ATOM      1  C   UNL     1      25.083  18.264 -15.998  1.00  0.00     0.312 C 
ENDROOT
BRANCH   1   2
ATOM      2  N   UNL     1      24.733  17.243 -15.014  1.00  0.00    -0.353 N 
ATOM      3  H   UNL     1      24.200  17.673 -14.224  1.00  0.00     0.344 HD
ATOM      4  H   UNL     1      25.610  16.815 -14.639  1.00  0.00     0.344 HD
ATOM      5  H   UNL     1      24.156  16.493 -15.463  1.00  0.00     0.344 HD
ENDBRANCH   1   2
BRANCH   1   6
ATOM      6  C   UNL     1      26.564  18.489 -16.022  1.00  0.00     0.096 C 
ATOM      7  O   UNL     1      27.330  17.613 -16.504  1.00  0.00    -0.544 OA
ATOM      8  O   UNL     1      27.093  19.687 -15.561  1.00  0.00    -0.544 OA
ENDBRANCH   1   6
TORSDOF 2
ENDMDL
MODEL 5
REMARK VINA RESULT:    -2.359     21.542     21.866
REMARK INTER + INTRA:          -2.566
REMARK INTER:                  -2.566
REMARK INTRA:                   0.000
REMARK UNBOUND:                 0.000
REMARK SMILES [NH3+]CC(=O)[O-]
REMARK SMILES IDX 2 1 1 2 3 6 4 7 5 8
REMARK H PARENT 1 3 1 4 1 5
REMARK Flexibility Score: inf
ROOT
ATOM      1  C   UNL     1      12.157   3.080  -7.569  1.00  0.00     0.312 C 
ENDROOT
BRANCH   1   2
ATOM      2  N   UNL     1      13.327   3.041  -6.694  1.00  0.00    -0.353 N 
ATOM      3  H   UNL     1      13.238   2.254  -6.010  1.00  0.00     0.344 HD
ATOM      4  H   UNL     1      13.391   3.942  -6.168  1.00  0.00     0.344 HD
ATOM      5  H   UNL     1      14.197   2.918  -7.262  1.00  0.00     0.344 HD
ENDBRANCH   1   2
BRANCH   1   6
ATOM      6  C   UNL     1      11.124   4.019  -7.027  1.00  0.00     0.096 C 
ATOM      7  O   UNL     1      10.784   3.958  -5.816  1.00  0.00    -0.544 OA
ATOM      8  O   UNL     1      10.574   4.996  -7.847  1.00  0.00    -0.544 OA
ENDBRANCH   1   6
TORSDOF 2
ENDMDL
MODEL 6
REMARK VINA RESULT:    -2.284     21.636     21.841
REMARK INTER + INTRA:          -2.484
REMARK INTER:                  -2.484
REMARK INTRA:                   0.000
REMARK UNBOUND:                 0.000
REMARK SMILES [NH3+]CC(=O)[O-]
REMARK SMILES IDX 2 1 1 2 3 6 4 7 5 8
REMARK H PARENT 1 3 1 4 1 5
REMARK Flexibility Score: inf
ROOT
ATOM      1  C   UNL     1      11.593   3.401  -5.921  1.00  0.00     0.312 C 
ENDROOT
BRANCH   1   2
ATOM      2  N   UNL     1      13.005   3.351  -5.551  1.00  0.00    -0.353 N 
ATOM      3  H   UNL     1      13.433   4.302  -5.635  1.00  0.00     0.344 HD
ATOM      4  H   UNL     1      13.504   2.696  -6.197  1.00  0.00     0.344 HD
ATOM      5  H   UNL     1      13.108   3.002  -4.570  1.00  0.00     0.344 HD
ENDBRANCH   1   2
BRANCH   1   6
ATOM      6  C   UNL     1      11.437   3.758  -7.368  1.00  0.00     0.096 C 
ATOM      7  O   UNL     1      11.866   2.981  -8.261  1.00  0.00    -0.544 OA
ATOM      8  O   UNL     1      10.773   4.922  -7.729  1.00  0.00    -0.544 OA
ENDBRANCH   1   6
TORSDOF 2
ENDMDL
MODEL 7
REMARK VINA RESULT:    -2.123     21.941     22.125
REMARK INTER + INTRA:          -2.309
REMARK INTER:                  -2.309
REMARK INTRA:                   0.000
REMARK UNBOUND:                 0.000
REMARK SMILES [NH3+]CC(=O)[O-]
REMARK SMILES IDX 2 1 1 2 3 6 4 7 5 8
REMARK H PARENT 1 3 1 4 1 5
REMARK Flexibility Score: inf
ROOT
ATOM      1  C   UNL     1      12.756   2.854  -6.834  1.00  0.00     0.312 C 
ENDROOT
BRANCH   1   2
ATOM      2  N   UNL     1      12.302   3.796  -7.854  1.00  0.00    -0.353 N 
ATOM      3  H   UNL     1      13.107   4.091  -8.454  1.00  0.00     0.344 HD
ATOM      4  H   UNL     1      11.901   4.640  -7.385  1.00  0.00     0.344 HD
ATOM      5  H   UNL     1      11.561   3.355  -8.447  1.00  0.00     0.344 HD
ENDBRANCH   1   2
BRANCH   1   6
ATOM      6  C   UNL     1      12.215   3.230  -5.488  1.00  0.00     0.096 C 
ATOM      7  O   UNL     1      12.914   3.061  -4.455  1.00  0.00    -0.544 OA
ATOM      8  O   UNL     1      10.960   3.814  -5.383  1.00  0.00    -0.544 OA
ENDBRANCH   1   6
TORSDOF 2
ENDMDL
MODEL 8
REMARK VINA RESULT:    -2.091     17.164     17.610
REMARK INTER + INTRA:          -2.274
REMARK INTER:                  -2.274
REMARK INTRA:                   0.000
REMARK UNBOUND:                 0.000
REMARK SMILES [NH3+]CC(=O)[O-]
REMARK SMILES IDX 2 1 1 2 3 6 4 7 5 8
REMARK H PARENT 1 3 1 4 1 5
REMARK Flexibility Score: inf
ROOT
ATOM      1  C   UNL     1      28.236   4.158  -4.872  1.00  0.00     0.312 C 
ENDROOT
BRANCH   1   2
ATOM      2  N   UNL     1      27.323   4.840  -3.957  1.00  0.00    -0.353 N 
ATOM      3  H   UNL     1      27.044   4.195  -3.182  1.00  0.00     0.344 HD
ATOM      4  H   UNL     1      26.466   5.129  -4.482  1.00  0.00     0.344 HD
ATOM      5  H   UNL     1      27.780   5.693  -3.561  1.00  0.00     0.344 HD
ENDBRANCH   1   2
BRANCH   1   6
ATOM      6  C   UNL     1      27.597   3.967  -6.213  1.00  0.00     0.096 C 
ATOM      7  O   UNL     1      27.533   4.926  -7.027  1.00  0.00    -0.544 OA
ATOM      8  O   UNL     1      27.119   2.717  -6.583  1.00  0.00    -0.544 OA
ENDBRANCH   1   6
TORSDOF 2
ENDMDL
MODEL 9
REMARK VINA RESULT:    -2.072     16.747     16.954
REMARK INTER + INTRA:          -2.253
REMARK INTER:                  -2.253
REMARK INTRA:                   0.000
REMARK UNBOUND:                 0.000
REMARK SMILES [NH3+]CC(=O)[O-]
REMARK SMILES IDX 2 1 1 2 3 6 4 7 5 8
REMARK H PARENT 1 3 1 4 1 5
REMARK Flexibility Score: inf
ROOT
ATOM      1  C   UNL     1      28.816   4.965  -7.173  1.00  0.00     0.312 C 
ENDROOT
BRANCH   1   2
ATOM      2  N   UNL     1      29.073   4.377  -8.486  1.00  0.00    -0.353 N 
ATOM      3  H   UNL     1      28.637   3.427  -8.545  1.00  0.00     0.344 HD
ATOM      4  H   UNL     1      30.106   4.285  -8.623  1.00  0.00     0.344 HD
ATOM      5  H   UNL     1      28.685   4.992  -9.238  1.00  0.00     0.344 HD
ENDBRANCH   1   2
BRANCH   1   6
ATOM      6  C   UNL     1      27.747   4.202  -6.452  1.00  0.00     0.096 C 
ATOM      7  O   UNL     1      27.307   3.123  -6.930  1.00  0.00    -0.544 OA
ATOM      8  O   UNL     1      27.274   4.656  -5.228  1.00  0.00    -0.544 OA
ENDBRANCH   1   6
TORSDOF 2
ENDMDL
