MODEL 1
REMARK VINA RESULT:    -4.109      0.000      0.000
REMARK INTER + INTRA:          -7.652
REMARK INTER:                  -6.271
REMARK INTRA:                  -1.381
REMARK UNBOUND:                -1.381
REMARK SMILES OC[C@H]1O[C@@H](O[C@@]2(CO)O[C@H](CO)[C@@H](O)[C@H]2O)[C@@H](O)[C@H](O)[C@@H]1O
REMARK SMILES IDX 6 1 5 2 3 3 22 4 4 5 20 6 18 7 2 8 1 9 23 11 21 13 19 15
REMARK SMILES IDX 7 17 16 18 10 19 14 20 11 21 8 22 9 23 17 25 15 27 12 29
REMARK SMILES IDX 13 30
REMARK H PARENT 1 10 23 12 21 14 19 16 9 24 17 26 15 28 13 31
REMARK Flexibility Score: inf
ROOT
ATOM      1  O   UNL     1     190.510 182.146 182.400  1.00  0.00    -0.313 OA
ENDROOT
BRANCH   1   2
ATOM      2  C   UNL     1     189.236 182.025 181.775  1.00  0.00     0.285 C 
ATOM      3  C   UNL     1     187.721 183.258 180.481  1.00  0.00     0.178 C 
ATOM      4  C   UNL     1     186.696 182.098 180.747  1.00  0.00     0.177 C 
ATOM      5  O   UNL     1     188.782 183.320 181.436  1.00  0.00    -0.341 OA
ATOM      6  C   UNL     1     186.750 181.675 182.229  1.00  0.00     0.179 C 
ATOM      7  C   UNL     1     188.194 181.383 182.722  1.00  0.00     0.202 C 
BRANCH   3   8
ATOM      8  C   UNL     1     187.011 184.620 180.437  1.00  0.00     0.191 C 
BRANCH   8   9
ATOM      9  O   UNL     1     187.908 185.653 180.128  1.00  0.00    -0.394 OA
ATOM     10  H   UNL     1     188.454 185.807 180.943  1.00  0.00     0.210 HD
ENDBRANCH   8   9
ENDBRANCH   3   8
BRANCH   4  11
ATOM     11  O   UNL     1     187.009 180.994 179.929  1.00  0.00    -0.387 OA
ATOM     12  H   UNL     1     187.065 181.332 178.998  1.00  0.00     0.211 HD
ENDBRANCH   4  11
BRANCH   6  13
ATOM     13  O   UNL     1     185.897 180.585 182.488  1.00  0.00    -0.387 OA
ATOM     14  H   UNL     1     185.979 179.949 181.731  1.00  0.00     0.211 HD
ENDBRANCH   6  13
BRANCH   7  15
ATOM     15  O   UNL     1     188.357 181.903 184.016  1.00  0.00    -0.385 OA
ATOM     16  H   UNL     1     189.069 182.594 183.956  1.00  0.00     0.211 HD
ENDBRANCH   7  15
ENDBRANCH   1   2
BRANCH   1  17
ATOM     17  C   UNL     1     191.651 181.963 181.542  1.00  0.00     0.224 C 
ATOM     18  C   UNL     1     192.507 183.245 181.556  1.00  0.00     0.208 C 
ATOM     19  O   UNL     1     191.305 181.699 180.188  1.00  0.00    -0.337 OA
ATOM     20  C   UNL     1     192.020 183.997 180.341  1.00  0.00     0.180 C 
ATOM     21  C   UNL     1     191.489 182.882 179.430  1.00  0.00     0.179 C 
BRANCH  17  22
ATOM     22  C   UNL     1     192.475 180.778 182.089  1.00  0.00     0.225 C 
BRANCH  22  23
ATOM     23  O   UNL     1     193.701 180.666 181.416  1.00  0.00    -0.391 OA
ATOM     24  H   UNL     1     194.079 179.786 181.678  1.00  0.00     0.210 HD
ENDBRANCH  22  23
ENDBRANCH  17  22
BRANCH  18  25
ATOM     25  O   UNL     1     192.341 183.994 182.732  1.00  0.00    -0.385 OA
ATOM     26  H   UNL     1     193.247 184.290 183.010  1.00  0.00     0.211 HD
ENDBRANCH  18  25
BRANCH  20  27
ATOM     27  O   UNL     1     191.006 184.930 180.650  1.00  0.00    -0.387 OA
ATOM     28  H   UNL     1     191.432 185.740 181.041  1.00  0.00     0.211 HD
ENDBRANCH  20  27
BRANCH  21  29
ATOM     29  C   UNL     1     192.432 182.591 178.255  1.00  0.00     0.191 C 
BRANCH  29  30
ATOM     30  O   UNL     1     193.145 181.405 178.481  1.00  0.00    -0.394 OA
ATOM     31  H   UNL     1     193.940 181.443 177.887  1.00  0.00     0.210 HD
ENDBRANCH  29  30
ENDBRANCH  21  29
ENDBRANCH   1  17
TORSDOF 13
ENDMDL
MODEL 2
REMARK VINA RESULT:    -4.020      2.264      3.741
REMARK INTER + INTRA:          -7.516
REMARK INTER:                  -6.641
REMARK INTRA:                  -0.874
REMARK UNBOUND:                -1.381
REMARK SMILES OC[C@H]1O[C@@H](O[C@@]2(CO)O[C@H](CO)[C@@H](O)[C@H]2O)[C@@H](O)[C@H](O)[C@@H]1O
REMARK SMILES IDX 6 1 5 2 3 3 22 4 4 5 20 6 18 7 2 8 1 9 23 11 21 13 19 15
REMARK SMILES IDX 7 17 16 18 10 19 14 20 11 21 8 22 9 23 17 25 15 27 12 29
REMARK SMILES IDX 13 30
REMARK H PARENT 1 10 23 12 21 14 19 16 9 24 17 26 15 28 13 31
REMARK Flexibility Score: inf
ROOT
ATOM      1  O   UNL     1     192.373 180.732 181.826  1.00  0.00    -0.313 OA
ENDROOT
BRANCH   1   2
ATOM      2  C   UNL     1     191.228 179.891 181.903  1.00  0.00     0.285 C 
ATOM      3  C   UNL     1     188.989 179.925 182.595  1.00  0.00     0.178 C 
ATOM      4  C   UNL     1     189.004 178.367 182.400  1.00  0.00     0.177 C 
ATOM      5  O   UNL     1     190.287 180.497 182.766  1.00  0.00    -0.341 OA
ATOM      6  C   UNL     1     190.301 177.774 182.985  1.00  0.00     0.179 C 
ATOM      7  C   UNL     1     191.579 178.498 182.477  1.00  0.00     0.202 C 
BRANCH   3   8
ATOM      8  C   UNL     1     188.108 180.321 183.790  1.00  0.00     0.191 C 
BRANCH   8   9
ATOM      9  O   UNL     1     188.248 181.684 184.096  1.00  0.00    -0.394 OA
ATOM     10  H   UNL     1     187.624 182.173 183.499  1.00  0.00     0.210 HD
ENDBRANCH   8   9
ENDBRANCH   3   8
BRANCH   4  11
ATOM     11  O   UNL     1     188.922 178.061 181.027  1.00  0.00    -0.387 OA
ATOM     12  H   UNL     1     188.344 177.259 180.945  1.00  0.00     0.211 HD
ENDBRANCH   4  11
BRANCH   6  13
ATOM     13  O   UNL     1     190.384 176.386 182.761  1.00  0.00    -0.387 OA
ATOM     14  H   UNL     1     191.237 176.204 182.289  1.00  0.00     0.211 HD
ENDBRANCH   6  13
BRANCH   7  15
ATOM     15  O   UNL     1     192.483 178.647 183.542  1.00  0.00    -0.385 OA
ATOM     16  H   UNL     1     192.032 179.221 184.216  1.00  0.00     0.211 HD
ENDBRANCH   7  15
ENDBRANCH   1   2
BRANCH   1  17
ATOM     17  C   UNL     1     192.450 181.587 180.670  1.00  0.00     0.224 C 
ATOM     18  C   UNL     1     193.408 182.757 180.968  1.00  0.00     0.208 C 
ATOM     19  O   UNL     1     191.198 182.149 180.297  1.00  0.00    -0.337 OA
ATOM     20  C   UNL     1     192.479 183.858 181.418  1.00  0.00     0.180 C 
ATOM     21  C   UNL     1     191.153 183.495 180.734  1.00  0.00     0.179 C 
BRANCH  17  22
ATOM     22  C   UNL     1     192.995 180.751 179.493  1.00  0.00     0.225 C 
BRANCH  22  23
ATOM     23  O   UNL     1     194.108 179.993 179.889  1.00  0.00    -0.391 OA
ATOM     24  H   UNL     1     194.481 179.597 179.058  1.00  0.00     0.210 HD
ENDBRANCH  22  23
ENDBRANCH  17  22
BRANCH  18  25
ATOM     25  O   UNL     1     194.357 182.443 181.954  1.00  0.00    -0.385 OA
ATOM     26  H   UNL     1     195.011 183.190 181.966  1.00  0.00     0.211 HD
ENDBRANCH  18  25
BRANCH  20  27
ATOM     27  O   UNL     1     192.332 183.905 182.821  1.00  0.00    -0.387 OA
ATOM     28  H   UNL     1     193.192 184.209 183.218  1.00  0.00     0.211 HD
ENDBRANCH  20  27
BRANCH  21  29
ATOM     29  C   UNL     1     190.846 184.408 179.538  1.00  0.00     0.191 C 
BRANCH  29  30
ATOM     30  O   UNL     1     190.504 185.693 179.979  1.00  0.00    -0.394 OA
ATOM     31  H   UNL     1     189.603 185.883 179.607  1.00  0.00     0.210 HD
ENDBRANCH  29  30
ENDBRANCH  21  29
ENDBRANCH   1  17
TORSDOF 13
ENDMDL
MODEL 3
REMARK VINA RESULT:    -3.916      3.292      5.965
REMARK INTER + INTRA:          -7.357
REMARK INTER:                  -6.147
REMARK INTRA:                  -1.210
REMARK UNBOUND:                -1.381
REMARK SMILES OC[C@H]1O[C@@H](O[C@@]2(CO)O[C@H](CO)[C@@H](O)[C@H]2O)[C@@H](O)[C@H](O)[C@@H]1O
REMARK SMILES IDX 6 1 5 2 3 3 22 4 4 5 20 6 18 7 2 8 1 9 23 11 21 13 19 15
REMARK SMILES IDX 7 17 16 18 10 19 14 20 11 21 8 22 9 23 17 25 15 27 12 29
REMARK SMILES IDX 13 30
REMARK H PARENT 1 10 23 12 21 14 19 16 9 24 17 26 15 28 13 31
REMARK Flexibility Score: inf
ROOT
ATOM      1  O   UNL     1     192.159 182.075 178.028  1.00  0.00    -0.313 OA
ENDROOT
BRANCH   1   2
ATOM      2  C   UNL     1     192.596 181.980 179.379  1.00  0.00     0.285 C 
ATOM      3  C   UNL     1     192.876 180.409 181.095  1.00  0.00     0.178 C 
ATOM      4  C   UNL     1     193.123 181.633 182.047  1.00  0.00     0.177 C 
ATOM      5  O   UNL     1     192.163 180.741 179.902  1.00  0.00    -0.341 OA
ATOM      6  C   UNL     1     192.089 182.741 181.761  1.00  0.00     0.179 C 
ATOM      7  C   UNL     1     191.996 183.107 180.254  1.00  0.00     0.202 C 
BRANCH   3   8
ATOM      8  C   UNL     1     192.126 179.285 181.827  1.00  0.00     0.191 C 
BRANCH   8   9
ATOM      9  O   UNL     1     192.769 178.940 183.025  1.00  0.00    -0.394 OA
ATOM     10  H   UNL     1     192.368 179.507 183.735  1.00  0.00     0.210 HD
ENDBRANCH   8   9
ENDBRANCH   3   8
BRANCH   4  11
ATOM     11  O   UNL     1     194.423 182.137 181.843  1.00  0.00    -0.387 OA
ATOM     12  H   UNL     1     194.899 181.481 181.271  1.00  0.00     0.211 HD
ENDBRANCH   4  11
BRANCH   6  13
ATOM     13  O   UNL     1     192.326 183.886 182.546  1.00  0.00    -0.387 OA
ATOM     14  H   UNL     1     192.625 183.584 183.442  1.00  0.00     0.211 HD
ENDBRANCH   6  13
BRANCH   7  15
ATOM     15  O   UNL     1     190.650 183.302 179.906  1.00  0.00    -0.385 OA
ATOM     16  H   UNL     1     190.582 184.225 179.543  1.00  0.00     0.211 HD
ENDBRANCH   7  15
ENDBRANCH   1   2
BRANCH   1  17
ATOM     17  C   UNL     1     193.129 181.719 177.026  1.00  0.00     0.224 C 
ATOM     18  C   UNL     1     192.471 180.781 175.994  1.00  0.00     0.208 C 
ATOM     19  O   UNL     1     194.263 181.041 177.552  1.00  0.00    -0.337 OA
ATOM     20  C   UNL     1     192.841 179.406 176.493  1.00  0.00     0.180 C 
ATOM     21  C   UNL     1     194.135 179.657 177.279  1.00  0.00     0.179 C 
BRANCH  17  22
ATOM     22  C   UNL     1     193.596 183.015 176.332  1.00  0.00     0.225 C 
BRANCH  22  23
ATOM     23  O   UNL     1     194.881 182.858 175.790  1.00  0.00    -0.391 OA
ATOM     24  H   UNL     1     195.517 183.054 176.528  1.00  0.00     0.210 HD
ENDBRANCH  22  23
ENDBRANCH  17  22
BRANCH  18  25
ATOM     25  O   UNL     1     191.079 180.949 175.919  1.00  0.00    -0.385 OA
ATOM     26  H   UNL     1     190.911 181.611 175.199  1.00  0.00     0.211 HD
ENDBRANCH  18  25
BRANCH  20  27
ATOM     27  O   UNL     1     191.844 178.841 177.319  1.00  0.00    -0.387 OA
ATOM     28  H   UNL     1     190.969 178.910 176.850  1.00  0.00     0.211 HD
ENDBRANCH  20  27
BRANCH  21  29
ATOM     29  C   UNL     1     195.379 179.171 176.523  1.00  0.00     0.191 C 
BRANCH  29  30
ATOM     30  O   UNL     1     196.050 180.254 175.938  1.00  0.00    -0.394 OA
ATOM     31  H   UNL     1     196.186 180.013 174.985  1.00  0.00     0.210 HD
ENDBRANCH  29  30
ENDBRANCH  21  29
ENDBRANCH   1  17
TORSDOF 13
ENDMDL
MODEL 4
REMARK VINA RESULT:    -3.812      3.112      7.127
REMARK INTER + INTRA:          -7.199
REMARK INTER:                  -6.352
REMARK INTRA:                  -0.846
REMARK UNBOUND:                -1.381
REMARK SMILES OC[C@H]1O[C@@H](O[C@@]2(CO)O[C@H](CO)[C@@H](O)[C@H]2O)[C@@H](O)[C@H](O)[C@@H]1O
REMARK SMILES IDX 6 1 5 2 3 3 22 4 4 5 20 6 18 7 2 8 1 9 23 11 21 13 19 15
REMARK SMILES IDX 7 17 16 18 10 19 14 20 11 21 8 22 9 23 17 25 15 27 12 29
REMARK SMILES IDX 13 30
REMARK H PARENT 1 10 23 12 21 14 19 16 9 24 17 26 15 28 13 31
REMARK Flexibility Score: inf
ROOT
ATOM      1  O   UNL     1     193.044 179.889 179.290  1.00  0.00    -0.313 OA
ENDROOT
BRANCH   1   2
ATOM      2  C   UNL     1     193.665 180.019 178.016  1.00  0.00     0.285 C 
ATOM      3  C   UNL     1     193.191 179.810 175.730  1.00  0.00     0.178 C 
ATOM      4  C   UNL     1     194.739 179.938 175.494  1.00  0.00     0.177 C 
ATOM      5  O   UNL     1     192.842 179.394 177.052  1.00  0.00    -0.341 OA
ATOM      6  C   UNL     1     195.503 179.074 176.518  1.00  0.00     0.179 C 
ATOM      7  C   UNL     1     195.052 179.333 177.983  1.00  0.00     0.202 C 
BRANCH   3   8
ATOM      8  C   UNL     1     192.560 178.839 174.720  1.00  0.00     0.191 C 
BRANCH   8   9
ATOM      9  O   UNL     1     193.448 178.541 173.676  1.00  0.00    -0.394 OA
ATOM     10  H   UNL     1     193.552 179.375 173.147  1.00  0.00     0.210 HD
ENDBRANCH   8   9
ENDBRANCH   3   8
BRANCH   4  11
ATOM     11  O   UNL     1     195.127 181.285 175.630  1.00  0.00    -0.387 OA
ATOM     12  H   UNL     1     196.043 181.284 176.012  1.00  0.00     0.211 HD
ENDBRANCH   4  11
BRANCH   6  13
ATOM     13  O   UNL     1     196.897 179.224 176.384  1.00  0.00    -0.387 OA
ATOM     14  H   UNL     1     197.332 178.528 176.941  1.00  0.00     0.211 HD
ENDBRANCH   6  13
BRANCH   7  15
ATOM     15  O   UNL     1     194.983 178.110 178.670  1.00  0.00    -0.385 OA
ATOM     16  H   UNL     1     195.208 178.305 179.618  1.00  0.00     0.211 HD
ENDBRANCH   7  15
ENDBRANCH   1   2
BRANCH   1  17
ATOM     17  C   UNL     1     192.544 181.105 179.874  1.00  0.00     0.224 C 
ATOM     18  C   UNL     1     193.333 181.411 181.162  1.00  0.00     0.208 C 
ATOM     19  O   UNL     1     191.167 181.040 180.226  1.00  0.00    -0.337 OA
ATOM     20  C   UNL     1     192.465 180.821 182.247  1.00  0.00     0.180 C 
ATOM     21  C   UNL     1     191.062 180.853 181.626  1.00  0.00     0.179 C 
BRANCH  17  22
ATOM     22  C   UNL     1     192.747 182.244 178.852  1.00  0.00     0.225 C 
BRANCH  22  23
ATOM     23  O   UNL     1     192.430 183.488 179.419  1.00  0.00    -0.391 OA
ATOM     24  H   UNL     1     193.247 184.046 179.333  1.00  0.00     0.210 HD
ENDBRANCH  22  23
ENDBRANCH  17  22
BRANCH  18  25
ATOM     25  O   UNL     1     194.618 180.845 181.159  1.00  0.00    -0.385 OA
ATOM     26  H   UNL     1     194.648 180.215 180.392  1.00  0.00     0.211 HD
ENDBRANCH  18  25
BRANCH  20  27
ATOM     27  O   UNL     1     192.843 179.503 182.587  1.00  0.00    -0.387 OA
ATOM     28  H   UNL     1     193.736 179.319 182.190  1.00  0.00     0.211 HD
ENDBRANCH  20  27
BRANCH  21  29
ATOM     29  C   UNL     1     190.186 181.964 182.222  1.00  0.00     0.191 C 
BRANCH  29  30
ATOM     30  O   UNL     1     190.871 183.186 182.210  1.00  0.00    -0.394 OA
ATOM     31  H   UNL     1     190.426 183.746 181.521  1.00  0.00     0.210 HD
ENDBRANCH  29  30
ENDBRANCH  21  29
ENDBRANCH   1  17
TORSDOF 13
ENDMDL
MODEL 5
REMARK VINA RESULT:    -3.788      7.002      9.517
REMARK INTER + INTRA:          -7.162
REMARK INTER:                  -6.251
REMARK INTRA:                  -0.911
REMARK UNBOUND:                -1.381
REMARK SMILES OC[C@H]1O[C@@H](O[C@@]2(CO)O[C@H](CO)[C@@H](O)[C@H]2O)[C@@H](O)[C@H](O)[C@@H]1O
REMARK SMILES IDX 6 1 5 2 3 3 22 4 4 5 20 6 18 7 2 8 1 9 23 11 21 13 19 15
REMARK SMILES IDX 7 17 16 18 10 19 14 20 11 21 8 22 9 23 17 25 15 27 12 29
REMARK SMILES IDX 13 30
REMARK H PARENT 1 10 23 12 21 14 19 16 9 24 17 26 15 28 13 31
REMARK Flexibility Score: inf
ROOT
ATOM      1  O   UNL     1     195.418 177.554 176.892  1.00  0.00    -0.313 OA
ENDROOT
BRANCH   1   2
ATOM      2  C   UNL     1     194.862 178.634 176.150  1.00  0.00     0.285 C 
ATOM      3  C   UNL     1     194.090 179.158 174.000  1.00  0.00     0.178 C 
ATOM      4  C   UNL     1     194.053 180.653 174.481  1.00  0.00     0.177 C 
ATOM      5  O   UNL     1     194.956 178.325 174.774  1.00  0.00    -0.341 OA
ATOM      6  C   UNL     1     195.333 180.984 175.275  1.00  0.00     0.179 C 
ATOM      7  C   UNL     1     195.630 179.954 176.400  1.00  0.00     0.202 C 
BRANCH   3   8
ATOM      8  C   UNL     1     194.501 179.066 172.523  1.00  0.00     0.191 C 
BRANCH   8   9
ATOM      9  O   UNL     1     195.358 180.118 172.165  1.00  0.00    -0.394 OA
ATOM     10  H   UNL     1     195.831 180.391 172.994  1.00  0.00     0.210 HD
ENDBRANCH   8   9
ENDBRANCH   3   8
BRANCH   4  11
ATOM     11  O   UNL     1     192.924 180.859 175.298  1.00  0.00    -0.387 OA
ATOM     12  H   UNL     1     192.133 180.571 174.773  1.00  0.00     0.211 HD
ENDBRANCH   4  11
BRANCH   6  13
ATOM     13  O   UNL     1     195.300 182.296 175.787  1.00  0.00    -0.387 OA
ATOM     14  H   UNL     1     195.911 182.333 176.567  1.00  0.00     0.211 HD
ENDBRANCH   6  13
BRANCH   7  15
ATOM     15  O   UNL     1     197.009 179.691 176.437  1.00  0.00    -0.385 OA
ATOM     16  H   UNL     1     197.364 180.160 177.238  1.00  0.00     0.211 HD
ENDBRANCH   7  15
ENDBRANCH   1   2
BRANCH   1  17
ATOM     17  C   UNL     1     194.472 176.675 177.529  1.00  0.00     0.224 C 
ATOM     18  C   UNL     1     195.159 175.964 178.711  1.00  0.00     0.208 C 
ATOM     19  O   UNL     1     193.966 175.666 176.664  1.00  0.00    -0.337 OA
ATOM     20  C   UNL     1     195.605 174.652 178.113  1.00  0.00     0.180 C 
ATOM     21  C   UNL     1     194.618 174.443 176.956  1.00  0.00     0.179 C 
BRANCH  17  22
ATOM     22  C   UNL     1     193.297 177.531 178.044  1.00  0.00     0.225 C 
BRANCH  22  23
ATOM     23  O   UNL     1     193.538 177.978 179.352  1.00  0.00    -0.391 OA
ATOM     24  H   UNL     1     193.154 178.892 179.406  1.00  0.00     0.210 HD
ENDBRANCH  22  23
ENDBRANCH  17  22
BRANCH  18  25
ATOM     25  O   UNL     1     196.241 176.693 179.229  1.00  0.00    -0.385 OA
ATOM     26  H   UNL     1     196.770 176.062 179.783  1.00  0.00     0.211 HD
ENDBRANCH  18  25
BRANCH  20  27
ATOM     27  O   UNL     1     196.937 174.693 177.646  1.00  0.00    -0.387 OA
ATOM     28  H   UNL     1     197.254 175.636 177.679  1.00  0.00     0.211 HD
ENDBRANCH  20  27
BRANCH  21  29
ATOM     29  C   UNL     1     193.568 173.369 177.272  1.00  0.00     0.191 C 
BRANCH  29  30
ATOM     30  O   UNL     1     192.304 173.953 177.430  1.00  0.00    -0.394 OA
ATOM     31  H   UNL     1     191.801 173.360 178.047  1.00  0.00     0.210 HD
ENDBRANCH  29  30
ENDBRANCH  21  29
ENDBRANCH   1  17
TORSDOF 13
ENDMDL
MODEL 6
REMARK VINA RESULT:    -3.776      2.677      5.618
REMARK INTER + INTRA:          -7.144
REMARK INTER:                  -6.023
REMARK INTRA:                  -1.121
REMARK UNBOUND:                -1.381
REMARK SMILES OC[C@H]1O[C@@H](O[C@@]2(CO)O[C@H](CO)[C@@H](O)[C@H]2O)[C@@H](O)[C@H](O)[C@@H]1O
REMARK SMILES IDX 6 1 5 2 3 3 22 4 4 5 20 6 18 7 2 8 1 9 23 11 21 13 19 15
REMARK SMILES IDX 7 17 16 18 10 19 14 20 11 21 8 22 9 23 17 25 15 27 12 29
REMARK SMILES IDX 13 30
REMARK H PARENT 1 10 23 12 21 14 19 16 9 24 17 26 15 28 13 31
REMARK Flexibility Score: inf
ROOT
ATOM      1  O   UNL     1     191.827 179.824 181.048  1.00  0.00    -0.313 OA
ENDROOT
BRANCH   1   2
ATOM      2  C   UNL     1     191.623 181.230 180.957  1.00  0.00     0.285 C 
ATOM      3  C   UNL     1     191.335 182.928 179.368  1.00  0.00     0.178 C 
ATOM      4  C   UNL     1     191.512 183.940 180.556  1.00  0.00     0.177 C 
ATOM      5  O   UNL     1     191.881 181.633 179.627  1.00  0.00    -0.341 OA
ATOM      6  C   UNL     1     192.683 183.497 181.457  1.00  0.00     0.179 C 
ATOM      7  C   UNL     1     192.582 182.008 181.890  1.00  0.00     0.202 C 
BRANCH   3   8
ATOM      8  C   UNL     1     191.959 183.481 178.077  1.00  0.00     0.191 C 
BRANCH   8   9
ATOM      9  O   UNL     1     193.113 182.767 177.722  1.00  0.00    -0.394 OA
ATOM     10  H   UNL     1     193.281 182.961 176.763  1.00  0.00     0.210 HD
ENDBRANCH   8   9
ENDBRANCH   3   8
BRANCH   4  11
ATOM     11  O   UNL     1     190.326 183.991 181.314  1.00  0.00    -0.387 OA
ATOM     12  H   UNL     1     190.360 183.234 181.955  1.00  0.00     0.211 HD
ENDBRANCH   4  11
BRANCH   6  13
ATOM     13  O   UNL     1     192.823 184.341 182.576  1.00  0.00    -0.387 OA
ATOM     14  H   UNL     1     193.426 183.890 183.222  1.00  0.00     0.211 HD
ENDBRANCH   6  13
BRANCH   7  15
ATOM     15  O   UNL     1     193.858 181.423 181.840  1.00  0.00    -0.385 OA
ATOM     16  H   UNL     1     194.054 181.093 182.757  1.00  0.00     0.211 HD
ENDBRANCH   7  15
ENDBRANCH   1   2
BRANCH   1  17
ATOM     17  C   UNL     1     190.844 179.093 181.803  1.00  0.00     0.224 C 
ATOM     18  C   UNL     1     191.552 178.282 182.906  1.00  0.00     0.208 C 
ATOM     19  O   UNL     1     190.095 178.174 181.017  1.00  0.00    -0.337 OA
ATOM     20  C   UNL     1     191.725 176.921 182.277  1.00  0.00     0.180 C 
ATOM     21  C   UNL     1     190.589 176.867 181.246  1.00  0.00     0.179 C 
BRANCH  17  22
ATOM     22  C   UNL     1     189.877 180.112 182.441  1.00  0.00     0.225 C 
BRANCH  22  23
ATOM     23  O   UNL     1     188.986 179.477 183.319  1.00  0.00    -0.391 OA
ATOM     24  H   UNL     1     189.496 178.733 183.737  1.00  0.00     0.210 HD
ENDBRANCH  22  23
ENDBRANCH  17  22
BRANCH  18  25
ATOM     25  O   UNL     1     192.783 178.841 183.284  1.00  0.00    -0.385 OA
ATOM     26  H   UNL     1     193.483 178.189 183.019  1.00  0.00     0.211 HD
ENDBRANCH  18  25
BRANCH  20  27
ATOM     27  O   UNL     1     192.984 176.767 181.657  1.00  0.00    -0.387 OA
ATOM     28  H   UNL     1     192.952 175.961 181.073  1.00  0.00     0.211 HD
ENDBRANCH  20  27
BRANCH  21  29
ATOM     29  C   UNL     1     189.436 175.959 181.697  1.00  0.00     0.191 C 
BRANCH  29  30
ATOM     30  O   UNL     1     188.431 176.716 182.315  1.00  0.00    -0.394 OA
ATOM     31  H   UNL     1     187.585 176.484 181.852  1.00  0.00     0.210 HD
ENDBRANCH  29  30
ENDBRANCH  21  29
ENDBRANCH   1  17
TORSDOF 13
ENDMDL
MODEL 7
REMARK VINA RESULT:    -3.728      3.438      5.720
REMARK INTER + INTRA:          -7.071
REMARK INTER:                  -6.038
REMARK INTRA:                  -1.033
REMARK UNBOUND:                -1.381
REMARK SMILES OC[C@H]1O[C@@H](O[C@@]2(CO)O[C@H](CO)[C@@H](O)[C@H]2O)[C@@H](O)[C@H](O)[C@@H]1O
REMARK SMILES IDX 6 1 5 2 3 3 22 4 4 5 20 6 18 7 2 8 1 9 23 11 21 13 19 15
REMARK SMILES IDX 7 17 16 18 10 19 14 20 11 21 8 22 9 23 17 25 15 27 12 29
REMARK SMILES IDX 13 30
REMARK H PARENT 1 10 23 12 21 14 19 16 9 24 17 26 15 28 13 31
REMARK Flexibility Score: inf
ROOT
ATOM      1  O   UNL     1     193.924 179.548 179.504  1.00  0.00    -0.313 OA
ENDROOT
BRANCH   1   2
ATOM      2  C   UNL     1     192.868 180.413 179.907  1.00  0.00     0.285 C 
ATOM      3  C   UNL     1     192.471 182.642 180.512  1.00  0.00     0.178 C 
ATOM      4  C   UNL     1     191.044 182.166 180.962  1.00  0.00     0.177 C 
ATOM      5  O   UNL     1     193.435 181.589 180.447  1.00  0.00    -0.341 OA
ATOM      6  C   UNL     1     191.150 180.842 181.744  1.00  0.00     0.179 C 
ATOM      7  C   UNL     1     191.981 179.763 180.995  1.00  0.00     0.202 C 
BRANCH   3   8
ATOM      8  C   UNL     1     193.001 183.745 181.441  1.00  0.00     0.191 C 
BRANCH   8   9
ATOM      9  O   UNL     1     192.223 183.849 182.605  1.00  0.00    -0.394 OA
ATOM     10  H   UNL     1     192.105 182.925 182.949  1.00  0.00     0.210 HD
ENDBRANCH   8   9
ENDBRANCH   3   8
BRANCH   4  11
ATOM     11  O   UNL     1     190.228 181.981 179.828  1.00  0.00    -0.387 OA
ATOM     12  H   UNL     1     190.578 181.187 179.348  1.00  0.00     0.211 HD
ENDBRANCH   4  11
BRANCH   6  13
ATOM     13  O   UNL     1     189.880 180.346 182.099  1.00  0.00    -0.387 OA
ATOM     14  H   UNL     1     189.207 181.034 181.857  1.00  0.00     0.211 HD
ENDBRANCH   6  13
BRANCH   7  15
ATOM     15  O   UNL     1     192.794 179.083 181.916  1.00  0.00    -0.385 OA
ATOM     16  H   UNL     1     192.294 179.061 182.774  1.00  0.00     0.211 HD
ENDBRANCH   7  15
ENDBRANCH   1   2
BRANCH   1  17
ATOM     17  C   UNL     1     193.810 178.986 178.185  1.00  0.00     0.224 C 
ATOM     18  C   UNL     1     193.763 177.449 178.291  1.00  0.00     0.208 C 
ATOM     19  O   UNL     1     194.897 179.319 177.331  1.00  0.00    -0.337 OA
ATOM     20  C   UNL     1     195.201 177.045 178.073  1.00  0.00     0.180 C 
ATOM     21  C   UNL     1     195.767 178.205 177.242  1.00  0.00     0.179 C 
BRANCH  17  22
ATOM     22  C   UNL     1     192.500 179.507 177.556  1.00  0.00     0.225 C 
BRANCH  22  23
ATOM     23  O   UNL     1     192.654 179.715 176.177  1.00  0.00    -0.391 OA
ATOM     24  H   UNL     1     191.741 179.672 175.788  1.00  0.00     0.210 HD
ENDBRANCH  22  23
ENDBRANCH  17  22
BRANCH  18  25
ATOM     25  O   UNL     1     193.281 177.005 179.532  1.00  0.00    -0.385 OA
ATOM     26  H   UNL     1     192.580 176.330 179.340  1.00  0.00     0.211 HD
ENDBRANCH  18  25
BRANCH  20  27
ATOM     27  O   UNL     1     195.911 176.890 179.284  1.00  0.00    -0.387 OA
ATOM     28  H   UNL     1     195.256 176.714 180.012  1.00  0.00     0.211 HD
ENDBRANCH  20  27
BRANCH  21  29
ATOM     29  C   UNL     1     195.960 177.826 175.767  1.00  0.00     0.191 C 
BRANCH  29  30
ATOM     30  O   UNL     1     195.273 178.723 174.938  1.00  0.00    -0.394 OA
ATOM     31  H   UNL     1     195.339 178.357 174.018  1.00  0.00     0.210 HD
ENDBRANCH  29  30
ENDBRANCH  21  29
ENDBRANCH   1  17
TORSDOF 13
ENDMDL
MODEL 8
REMARK VINA RESULT:    -3.726      3.808      6.048
REMARK INTER + INTRA:          -7.068
REMARK INTER:                  -6.106
REMARK INTRA:                  -0.962
REMARK UNBOUND:                -1.381
REMARK SMILES OC[C@H]1O[C@@H](O[C@@]2(CO)O[C@H](CO)[C@@H](O)[C@H]2O)[C@@H](O)[C@H](O)[C@@H]1O
REMARK SMILES IDX 6 1 5 2 3 3 22 4 4 5 20 6 18 7 2 8 1 9 23 11 21 13 19 15
REMARK SMILES IDX 7 17 16 18 10 19 14 20 11 21 8 22 9 23 17 25 15 27 12 29
REMARK SMILES IDX 13 30
REMARK H PARENT 1 10 23 12 21 14 19 16 9 24 17 26 15 28 13 31
REMARK Flexibility Score: inf
ROOT
ATOM      1  O   UNL     1     194.407 179.545 178.802  1.00  0.00    -0.313 OA
ENDROOT
BRANCH   1   2
ATOM      2  C   UNL     1     193.161 180.181 179.066  1.00  0.00     0.285 C 
ATOM      3  C   UNL     1     191.831 181.958 178.315  1.00  0.00     0.178 C 
ATOM      4  C   UNL     1     190.950 181.713 179.592  1.00  0.00     0.177 C 
ATOM      5  O   UNL     1     193.158 181.439 178.422  1.00  0.00    -0.341 OA
ATOM      6  C   UNL     1     191.853 181.491 180.822  1.00  0.00     0.179 C 
ATOM      7  C   UNL     1     192.948 180.415 180.580  1.00  0.00     0.202 C 
BRANCH   3   8
ATOM      8  C   UNL     1     191.908 183.455 177.978  1.00  0.00     0.191 C 
BRANCH   8   9
ATOM      9  O   UNL     1     193.136 183.781 177.384  1.00  0.00    -0.394 OA
ATOM     10  H   UNL     1     193.067 184.728 177.094  1.00  0.00     0.210 HD
ENDBRANCH   8   9
ENDBRANCH   3   8
BRANCH   4  11
ATOM     11  O   UNL     1     190.134 180.583 179.394  1.00  0.00    -0.387 OA
ATOM     12  H   UNL     1     190.736 179.831 179.156  1.00  0.00     0.211 HD
ENDBRANCH   4  11
BRANCH   6  13
ATOM     13  O   UNL     1     191.097 181.194 181.973  1.00  0.00    -0.387 OA
ATOM     14  H   UNL     1     190.537 181.986 182.181  1.00  0.00     0.211 HD
ENDBRANCH   6  13
BRANCH   7  15
ATOM     15  O   UNL     1     194.154 180.842 181.161  1.00  0.00    -0.385 OA
ATOM     16  H   UNL     1     193.970 180.977 182.128  1.00  0.00     0.211 HD
ENDBRANCH   7  15
ENDBRANCH   1   2
BRANCH   1  17
ATOM     17  C   UNL     1     194.352 178.372 177.970  1.00  0.00     0.224 C 
ATOM     18  C   UNL     1     195.780 177.835 177.755  1.00  0.00     0.208 C 
ATOM     19  O   UNL     1     193.793 178.616 176.685  1.00  0.00    -0.337 OA
ATOM     20  C   UNL     1     196.186 178.452 176.439  1.00  0.00     0.180 C 
ATOM     21  C   UNL     1     194.842 178.691 175.737  1.00  0.00     0.179 C 
BRANCH  17  22
ATOM     22  C   UNL     1     193.498 177.311 178.696  1.00  0.00     0.225 C 
BRANCH  22  23
ATOM     23  O   UNL     1     194.285 176.547 179.570  1.00  0.00    -0.391 OA
ATOM     24  H   UNL     1     195.042 177.130 179.840  1.00  0.00     0.210 HD
ENDBRANCH  22  23
ENDBRANCH  17  22
BRANCH  18  25
ATOM     25  O   UNL     1     196.657 178.197 178.790  1.00  0.00    -0.385 OA
ATOM     26  H   UNL     1     197.564 178.247 178.390  1.00  0.00     0.211 HD
ENDBRANCH  18  25
BRANCH  20  27
ATOM     27  O   UNL     1     196.898 179.661 176.602  1.00  0.00    -0.387 OA
ATOM     28  H   UNL     1     197.812 179.446 176.931  1.00  0.00     0.211 HD
ENDBRANCH  20  27
BRANCH  21  29
ATOM     29  C   UNL     1     194.584 177.679 174.612  1.00  0.00     0.191 C 
BRANCH  29  30
ATOM     30  O   UNL     1     195.793 177.285 174.022  1.00  0.00    -0.394 OA
ATOM     31  H   UNL     1     195.955 177.917 173.273  1.00  0.00     0.210 HD
ENDBRANCH  29  30
ENDBRANCH  21  29
ENDBRANCH   1  17
TORSDOF 13
ENDMDL
MODEL 9
REMARK VINA RESULT:    -3.594      6.556      9.536
REMARK INTER + INTRA:          -6.867
REMARK INTER:                  -5.637
REMARK INTRA:                  -1.230
REMARK UNBOUND:                -1.381
REMARK SMILES OC[C@H]1O[C@@H](O[C@@]2(CO)O[C@H](CO)[C@@H](O)[C@H]2O)[C@@H](O)[C@H](O)[C@@H]1O
REMARK SMILES IDX 6 1 5 2 3 3 22 4 4 5 20 6 18 7 2 8 1 9 23 11 21 13 19 15
REMARK SMILES IDX 7 17 16 18 10 19 14 20 11 21 8 22 9 23 17 25 15 27 12 29
REMARK SMILES IDX 13 30
REMARK H PARENT 1 10 23 12 21 14 19 16 9 24 17 26 15 28 13 31
REMARK Flexibility Score: inf
ROOT
ATOM      1  O   UNL     1     194.932 178.054 174.494  1.00  0.00    -0.313 OA
ENDROOT
BRANCH   1   2
ATOM      2  C   UNL     1     195.069 177.693 175.864  1.00  0.00     0.285 C 
ATOM      3  C   UNL     1     195.981 178.486 177.872  1.00  0.00     0.178 C 
ATOM      4  C   UNL     1     195.687 177.059 178.459  1.00  0.00     0.177 C 
ATOM      5  O   UNL     1     196.059 178.518 176.446  1.00  0.00    -0.341 OA
ATOM      6  C   UNL     1     196.101 175.975 177.444  1.00  0.00     0.179 C 
ATOM      7  C   UNL     1     195.515 176.220 176.025  1.00  0.00     0.202 C 
BRANCH   3   8
ATOM      8  C   UNL     1     197.281 179.062 178.455  1.00  0.00     0.191 C 
BRANCH   8   9
ATOM      9  O   UNL     1     197.630 178.423 179.654  1.00  0.00    -0.394 OA
ATOM     10  H   UNL     1     197.114 178.872 180.374  1.00  0.00     0.210 HD
ENDBRANCH   8   9
ENDBRANCH   3   8
BRANCH   4  11
ATOM     11  O   UNL     1     194.313 176.939 178.744  1.00  0.00    -0.387 OA
ATOM     12  H   UNL     1     194.240 176.530 179.645  1.00  0.00     0.211 HD
ENDBRANCH   4  11
BRANCH   6  13
ATOM     13  O   UNL     1     195.782 174.683 177.906  1.00  0.00    -0.387 OA
ATOM     14  H   UNL     1     194.794 174.616 177.961  1.00  0.00     0.211 HD
ENDBRANCH   6  13
BRANCH   7  15
ATOM     15  O   UNL     1     196.492 175.921 175.062  1.00  0.00    -0.385 OA
ATOM     16  H   UNL     1     197.272 176.505 175.259  1.00  0.00     0.211 HD
ENDBRANCH   7  15
ENDBRANCH   1   2
BRANCH   1  17
ATOM     17  C   UNL     1     193.733 178.772 174.150  1.00  0.00     0.224 C 
ATOM     18  C   UNL     1     194.115 180.146 173.564  1.00  0.00     0.208 C 
ATOM     19  O   UNL     1     192.876 179.009 175.260  1.00  0.00    -0.337 OA
ATOM     20  C   UNL     1     194.032 181.065 174.758  1.00  0.00     0.180 C 
ATOM     21  C   UNL     1     193.026 180.355 175.675  1.00  0.00     0.179 C 
BRANCH  17  22
ATOM     22  C   UNL     1     192.969 177.947 173.093  1.00  0.00     0.225 C 
BRANCH  22  23
ATOM     23  O   UNL     1     193.405 178.265 171.798  1.00  0.00    -0.391 OA
ATOM     24  H   UNL     1     193.790 179.179 171.854  1.00  0.00     0.210 HD
ENDBRANCH  22  23
ENDBRANCH  17  22
BRANCH  18  25
ATOM     25  O   UNL     1     195.398 180.153 172.992  1.00  0.00    -0.385 OA
ATOM     26  H   UNL     1     195.336 180.699 172.165  1.00  0.00     0.211 HD
ENDBRANCH  18  25
BRANCH  20  27
ATOM     27  O   UNL     1     195.277 181.235 175.401  1.00  0.00    -0.387 OA
ATOM     28  H   UNL     1     195.267 182.105 175.884  1.00  0.00     0.211 HD
ENDBRANCH  20  27
BRANCH  21  29
ATOM     29  C   UNL     1     191.654 181.042 175.678  1.00  0.00     0.191 C 
BRANCH  29  30
ATOM     30  O   UNL     1     191.803 182.431 175.561  1.00  0.00    -0.394 OA
ATOM     31  H   UNL     1     191.848 182.784 176.488  1.00  0.00     0.210 HD
ENDBRANCH  29  30
ENDBRANCH  21  29
ENDBRANCH   1  17
TORSDOF 13
ENDMDL
