MODEL 1
REMARK VINA RESULT:    -4.632      0.000      0.000
REMARK INTER + INTRA:          -7.274
REMARK INTER:                  -6.799
REMARK INTRA:                  -0.476
REMARK UNBOUND:                -0.476
REMARK SMILES O=C([O-])CCCCCCCC(=O)[O-]
REMARK SMILES IDX 7 1 6 2 5 3 4 4 2 5 1 6 3 7 8 8 9 9 10 10 11 11 12 12 13 13
REMARK H PARENT
REMARK Flexibility Score: inf
ROOT
ATOM      1  C   UNL     1    -144.053 101.679  33.599  1.00  0.00     0.000 C 
ENDROOT
BRANCH   1   2
ATOM      2  C   UNL     1    -143.189 101.532  32.336  1.00  0.00     0.000 C 
BRANCH   2   3
ATOM      3  C   UNL     1    -143.057 100.070  31.874  1.00  0.00     0.006 C 
BRANCH   3   4
ATOM      4  C   UNL     1    -143.186  99.080  33.040  1.00  0.00     0.053 C 
BRANCH   4   5
ATOM      5  C   UNL     1    -141.899  98.941  33.794  1.00  0.00     0.041 C 
ATOM      6  O   UNL     1    -140.805  98.875  33.174  1.00  0.00    -0.550 OA
ATOM      7  O   UNL     1    -141.904  98.920  35.184  1.00  0.00    -0.550 OA
ENDBRANCH   4   5
ENDBRANCH   3   4
ENDBRANCH   2   3
ENDBRANCH   1   2
BRANCH   1   8
ATOM      8  C   UNL     1    -143.322 102.419  34.731  1.00  0.00     0.000 C 
BRANCH   8   9
ATOM      9  C   UNL     1    -142.205 103.338  34.211  1.00  0.00     0.006 C 
BRANCH   9  10
ATOM     10  C   UNL     1    -142.658 104.797  34.064  1.00  0.00     0.053 C 
BRANCH  10  11
ATOM     11  C   UNL     1    -142.137 105.621  35.199  1.00  0.00     0.041 C 
ATOM     12  O   UNL     1    -141.390 106.609  34.972  1.00  0.00    -0.550 OA
ATOM     13  O   UNL     1    -142.437 105.270  36.510  1.00  0.00    -0.550 OA
ENDBRANCH  10  11
ENDBRANCH   9  10
ENDBRANCH   8   9
ENDBRANCH   1   8
TORSDOF 8
ENDMDL
MODEL 2
REMARK VINA RESULT:    -4.585      0.736      5.747
REMARK INTER + INTRA:          -7.205
REMARK INTER:                  -6.741
REMARK INTRA:                  -0.464
REMARK UNBOUND:                -0.476
REMARK SMILES O=C([O-])CCCCCCCC(=O)[O-]
REMARK SMILES IDX 7 1 6 2 5 3 4 4 2 5 1 6 3 7 8 8 9 9 10 10 11 11 12 12 13 13
REMARK H PARENT
REMARK Flexibility Score: inf
ROOT
ATOM      1  C   UNL     1    -143.600 102.316  32.384  1.00  0.00     0.000 C 
ENDROOT
BRANCH   1   2
ATOM      2  C   UNL     1    -143.294 102.291  33.890  1.00  0.00     0.000 C 
BRANCH   2   3
ATOM      3  C   UNL     1    -142.165 103.261  34.283  1.00  0.00     0.006 C 
BRANCH   3   4
ATOM      4  C   UNL     1    -142.561 104.729  34.069  1.00  0.00     0.053 C 
BRANCH   4   5
ATOM      5  C   UNL     1    -142.186 105.581  35.241  1.00  0.00     0.041 C 
ATOM      6  O   UNL     1    -141.585 106.673  35.065  1.00  0.00    -0.550 OA
ATOM      7  O   UNL     1    -142.532 105.187  36.529  1.00  0.00    -0.550 OA
ENDBRANCH   4   5
ENDBRANCH   3   4
ENDBRANCH   2   3
ENDBRANCH   1   2
BRANCH   1   8
ATOM      8  C   UNL     1    -143.233 100.996  31.685  1.00  0.00     0.000 C 
BRANCH   8   9
ATOM      9  C   UNL     1    -143.140  99.815  32.665  1.00  0.00     0.006 C 
BRANCH   9  10
ATOM     10  C   UNL     1    -141.827  99.034  32.529  1.00  0.00     0.053 C 
BRANCH  10  11
ATOM     11  C   UNL     1    -141.102  99.002  33.838  1.00  0.00     0.041 C 
ATOM     12  O   UNL     1    -141.745  99.048  34.919  1.00  0.00    -0.550 OA
ATOM     13  O   UNL     1    -139.713  98.969  33.862  1.00  0.00    -0.550 OA
ENDBRANCH  10  11
ENDBRANCH   9  10
ENDBRANCH   8   9
ENDBRANCH   1   8
TORSDOF 8
ENDMDL
MODEL 3
REMARK VINA RESULT:    -4.452     14.306     16.415
REMARK INTER + INTRA:          -7.009
REMARK INTER:                  -6.529
REMARK INTRA:                  -0.480
REMARK UNBOUND:                -0.476
REMARK SMILES O=C([O-])CCCCCCCC(=O)[O-]
REMARK SMILES IDX 7 1 6 2 5 3 4 4 2 5 1 6 3 7 8 8 9 9 10 10 11 11 12 12 13 13
REMARK H PARENT
REMARK Flexibility Score: inf
ROOT
ATOM      1  C   UNL     1    -130.117 109.534  40.275  1.00  0.00     0.000 C 
ENDROOT
BRANCH   1   2
ATOM      2  C   UNL     1    -129.178 108.977  41.357  1.00  0.00     0.000 C 
BRANCH   2   3
ATOM      3  C   UNL     1    -129.937 108.271  42.495  1.00  0.00     0.006 C 
BRANCH   3   4
ATOM      4  C   UNL     1    -129.917 109.084  43.797  1.00  0.00     0.053 C 
BRANCH   4   5
ATOM      5  C   UNL     1    -130.938 108.590  44.775  1.00  0.00     0.041 C 
ATOM      6  O   UNL     1    -130.673 108.559  46.006  1.00  0.00    -0.550 OA
ATOM      7  O   UNL     1    -132.195 108.197  44.332  1.00  0.00    -0.550 OA
ENDBRANCH   4   5
ENDBRANCH   3   4
ENDBRANCH   2   3
ENDBRANCH   1   2
BRANCH   1   8
ATOM      8  C   UNL     1    -130.685 108.434  39.363  1.00  0.00     0.000 C 
BRANCH   8   9
ATOM      9  C   UNL     1    -129.602 107.467  38.859  1.00  0.00     0.006 C 
BRANCH   9  10
ATOM     10  C   UNL     1    -130.092 106.015  38.785  1.00  0.00     0.053 C 
BRANCH  10  11
ATOM     11  C   UNL     1    -129.243 105.134  39.647  1.00  0.00     0.041 C 
ATOM     12  O   UNL     1    -128.573 105.629  40.591  1.00  0.00    -0.550 OA
ATOM     13  O   UNL     1    -129.155 103.774  39.378  1.00  0.00    -0.550 OA
ENDBRANCH  10  11
ENDBRANCH   9  10
ENDBRANCH   8   9
ENDBRANCH   1   8
TORSDOF 8
ENDMDL
MODEL 4
REMARK VINA RESULT:    -4.443     14.445     15.822
REMARK INTER + INTRA:          -6.996
REMARK INTER:                  -6.574
REMARK INTRA:                  -0.422
REMARK UNBOUND:                -0.476
REMARK SMILES O=C([O-])CCCCCCCC(=O)[O-]
REMARK SMILES IDX 7 1 6 2 5 3 4 4 2 5 1 6 3 7 8 8 9 9 10 10 11 11 12 12 13 13
REMARK H PARENT
REMARK Flexibility Score: inf
ROOT
ATOM      1  C   UNL     1    -130.015 109.280  40.375  1.00  0.00     0.000 C 
ENDROOT
BRANCH   1   2
ATOM      2  C   UNL     1    -129.652 108.497  39.103  1.00  0.00     0.000 C 
BRANCH   2   3
ATOM      3  C   UNL     1    -130.396 107.154  38.999  1.00  0.00     0.006 C 
BRANCH   3   4
ATOM      4  C   UNL     1    -129.491 106.029  38.477  1.00  0.00     0.053 C 
BRANCH   4   5
ATOM      5  C   UNL     1    -129.046 105.118  39.580  1.00  0.00     0.041 C 
ATOM      6  O   UNL     1    -128.604 105.596  40.657  1.00  0.00    -0.550 OA
ATOM      7  O   UNL     1    -129.154 103.740  39.432  1.00  0.00    -0.550 OA
ENDBRANCH   4   5
ENDBRANCH   3   4
ENDBRANCH   2   3
ENDBRANCH   1   2
BRANCH   1   8
ATOM      8  C   UNL     1    -129.095 108.943  41.560  1.00  0.00     0.000 C 
BRANCH   8   9
ATOM      9  C   UNL     1    -129.837 108.227  42.700  1.00  0.00     0.006 C 
BRANCH   9  10
ATOM     10  C   UNL     1    -129.904 109.066  43.982  1.00  0.00     0.053 C 
BRANCH  10  11
ATOM     11  C   UNL     1    -131.046 108.618  44.839  1.00  0.00     0.041 C 
ATOM     12  O   UNL     1    -132.048 108.062  44.319  1.00  0.00    -0.550 OA
ATOM     13  O   UNL     1    -131.025 108.859  46.208  1.00  0.00    -0.550 OA
ENDBRANCH  10  11
ENDBRANCH   9  10
ENDBRANCH   8   9
ENDBRANCH   1   8
TORSDOF 8
ENDMDL
MODEL 5
REMARK VINA RESULT:    -4.307     14.016     15.346
REMARK INTER + INTRA:          -6.796
REMARK INTER:                  -6.187
REMARK INTRA:                  -0.610
REMARK UNBOUND:                -0.476
REMARK SMILES O=C([O-])CCCCCCCC(=O)[O-]
REMARK SMILES IDX 7 1 6 2 5 3 4 4 2 5 1 6 3 7 8 8 9 9 10 10 11 11 12 12 13 13
REMARK H PARENT
REMARK Flexibility Score: inf
ROOT
ATOM      1  C   UNL     1    -128.257 108.180  42.215  1.00  0.00     0.000 C 
ENDROOT
BRANCH   1   2
ATOM      2  C   UNL     1    -128.055 106.781  41.611  1.00  0.00     0.000 C 
BRANCH   2   3
ATOM      3  C   UNL     1    -129.340 106.217  40.978  1.00  0.00     0.006 C 
BRANCH   3   4
ATOM      4  C   UNL     1    -129.076 104.934  40.177  1.00  0.00     0.053 C 
BRANCH   4   5
ATOM      5  C   UNL     1    -129.320 105.134  38.713  1.00  0.00     0.041 C 
ATOM      6  O   UNL     1    -129.023 106.228  38.165  1.00  0.00    -0.550 OA
ATOM      7  O   UNL     1    -129.841 104.100  37.945  1.00  0.00    -0.550 OA
ENDBRANCH   4   5
ENDBRANCH   3   4
ENDBRANCH   2   3
ENDBRANCH   1   2
BRANCH   1   8
ATOM      8  C   UNL     1    -129.653 108.754  41.924  1.00  0.00     0.000 C 
BRANCH   8   9
ATOM      9  C   UNL     1    -129.610 109.949  40.958  1.00  0.00     0.006 C 
BRANCH   9  10
ATOM     10  C   UNL     1    -129.776 109.532  39.491  1.00  0.00     0.053 C 
BRANCH  10  11
ATOM     11  C   UNL     1    -131.206 109.196  39.203  1.00  0.00     0.041 C 
ATOM     12  O   UNL     1    -132.117 110.023  39.471  1.00  0.00    -0.550 OA
ATOM     13  O   UNL     1    -131.537 107.950  38.684  1.00  0.00    -0.550 OA
ENDBRANCH  10  11
ENDBRANCH   9  10
ENDBRANCH   8   9
ENDBRANCH   1   8
TORSDOF 8
ENDMDL
MODEL 6
REMARK VINA RESULT:    -4.240     14.059     16.023
REMARK INTER + INTRA:          -6.699
REMARK INTER:                  -6.108
REMARK INTRA:                  -0.591
REMARK UNBOUND:                -0.476
REMARK SMILES O=C([O-])CCCCCCCC(=O)[O-]
REMARK SMILES IDX 7 1 6 2 5 3 4 4 2 5 1 6 3 7 8 8 9 9 10 10 11 11 12 12 13 13
REMARK H PARENT
REMARK Flexibility Score: inf
ROOT
ATOM      1  C   UNL     1    -128.390 108.437  42.334  1.00  0.00     0.000 C 
ENDROOT
BRANCH   1   2
ATOM      2  C   UNL     1    -129.744 108.957  41.826  1.00  0.00     0.000 C 
BRANCH   2   3
ATOM      3  C   UNL     1    -129.598 110.105  40.812  1.00  0.00     0.006 C 
BRANCH   3   4
ATOM      4  C   UNL     1    -129.855 109.641  39.371  1.00  0.00     0.053 C 
BRANCH   4   5
ATOM      5  C   UNL     1    -131.270 109.190  39.178  1.00  0.00     0.041 C 
ATOM      6  O   UNL     1    -132.224 109.973  39.424  1.00  0.00    -0.550 OA
ATOM      7  O   UNL     1    -131.535 107.915  38.691  1.00  0.00    -0.550 OA
ENDBRANCH   4   5
ENDBRANCH   3   4
ENDBRANCH   2   3
ENDBRANCH   1   2
BRANCH   1   8
ATOM      8  C   UNL     1    -128.060 107.032  41.804  1.00  0.00     0.000 C 
BRANCH   8   9
ATOM      9  C   UNL     1    -129.196 106.439  40.956  1.00  0.00     0.006 C 
BRANCH   9  10
ATOM     10  C   UNL     1    -128.802 105.123  40.274  1.00  0.00     0.053 C 
BRANCH  10  11
ATOM     11  C   UNL     1    -129.173 105.155  38.824  1.00  0.00     0.041 C 
ATOM     12  O   UNL     1    -128.988 106.199  38.147  1.00  0.00    -0.550 OA
ATOM     13  O   UNL     1    -129.768 104.046  38.234  1.00  0.00    -0.550 OA
ENDBRANCH  10  11
ENDBRANCH   9  10
ENDBRANCH   8   9
ENDBRANCH   1   8
TORSDOF 8
ENDMDL
MODEL 7
REMARK VINA RESULT:    -4.229     19.040     22.059
REMARK INTER + INTRA:          -6.682
REMARK INTER:                  -6.297
REMARK INTRA:                  -0.384
REMARK UNBOUND:                -0.476
REMARK SMILES O=C([O-])CCCCCCCC(=O)[O-]
REMARK SMILES IDX 7 1 6 2 5 3 4 4 2 5 1 6 3 7 8 8 9 9 10 10 11 11 12 12 13 13
REMARK H PARENT
REMARK Flexibility Score: inf
ROOT
ATOM      1  C   UNL     1    -128.817 117.800  42.882  1.00  0.00     0.000 C 
ENDROOT
BRANCH   1   2
ATOM      2  C   UNL     1    -128.980 118.379  44.297  1.00  0.00     0.000 C 
BRANCH   2   3
ATOM      3  C   UNL     1    -129.959 117.565  45.162  1.00  0.00     0.006 C 
BRANCH   3   4
ATOM      4  C   UNL     1    -130.522 118.387  46.330  1.00  0.00     0.053 C 
BRANCH   4   5
ATOM      5  C   UNL     1    -131.642 117.672  47.022  1.00  0.00     0.041 C 
ATOM      6  O   UNL     1    -132.705 118.285  47.305  1.00  0.00    -0.550 OA
ATOM      7  O   UNL     1    -131.526 116.321  47.322  1.00  0.00    -0.550 OA
ENDBRANCH   4   5
ENDBRANCH   3   4
ENDBRANCH   2   3
ENDBRANCH   1   2
BRANCH   1   8
ATOM      8  C   UNL     1    -129.928 116.801  42.520  1.00  0.00     0.000 C 
BRANCH   8   9
ATOM      9  C   UNL     1    -129.385 115.391  42.239  1.00  0.00     0.006 C 
BRANCH   9  10
ATOM     10  C   UNL     1    -129.663 114.410  43.386  1.00  0.00     0.053 C 
BRANCH  10  11
ATOM     11  C   UNL     1    -129.621 112.999  42.887  1.00  0.00     0.041 C 
ATOM     12  O   UNL     1    -129.968 112.735  41.706  1.00  0.00    -0.550 OA
ATOM     13  O   UNL     1    -129.243 111.971  43.741  1.00  0.00    -0.550 OA
ENDBRANCH  10  11
ENDBRANCH   9  10
ENDBRANCH   8   9
ENDBRANCH   1   8
TORSDOF 8
ENDMDL
MODEL 8
REMARK VINA RESULT:    -4.223     14.331     16.378
REMARK INTER + INTRA:          -6.674
REMARK INTER:                  -6.114
REMARK INTRA:                  -0.560
REMARK UNBOUND:                -0.476
REMARK SMILES O=C([O-])CCCCCCCC(=O)[O-]
REMARK SMILES IDX 7 1 6 2 5 3 4 4 2 5 1 6 3 7 8 8 9 9 10 10 11 11 12 12 13 13
REMARK H PARENT
REMARK Flexibility Score: inf
ROOT
ATOM      1  C   UNL     1    -127.981 106.965  41.795  1.00  0.00     0.000 C 
ENDROOT
BRANCH   1   2
ATOM      2  C   UNL     1    -129.293 106.476  41.160  1.00  0.00     0.000 C 
BRANCH   2   3
ATOM      3  C   UNL     1    -129.208 106.369  39.628  1.00  0.00     0.006 C 
BRANCH   3   4
ATOM      4  C   UNL     1    -130.388 107.063  38.932  1.00  0.00     0.053 C 
BRANCH   4   5
ATOM      5  C   UNL     1    -130.379 108.542  39.167  1.00  0.00     0.041 C 
ATOM      6  O   UNL     1    -129.294 109.181  39.143  1.00  0.00    -0.550 OA
ATOM      7  O   UNL     1    -131.573 109.222  39.377  1.00  0.00    -0.550 OA
ENDBRANCH   4   5
ENDBRANCH   3   4
ENDBRANCH   2   3
ENDBRANCH   1   2
BRANCH   1   8
ATOM      8  C   UNL     1    -128.108 108.371  42.403  1.00  0.00     0.000 C 
BRANCH   8   9
ATOM      9  C   UNL     1    -129.570 108.781  42.644  1.00  0.00     0.006 C 
BRANCH   9  10
ATOM     10  C   UNL     1    -129.774 109.478  43.996  1.00  0.00     0.053 C 
BRANCH  10  11
ATOM     11  C   UNL     1    -130.785 108.738  44.816  1.00  0.00     0.041 C 
ATOM     12  O   UNL     1    -130.790 108.855  46.069  1.00  0.00    -0.550 OA
ATOM     13  O   UNL     1    -131.690 107.884  44.199  1.00  0.00    -0.550 OA
ENDBRANCH  10  11
ENDBRANCH   9  10
ENDBRANCH   8   9
ENDBRANCH   1   8
TORSDOF 8
ENDMDL
MODEL 9
REMARK VINA RESULT:    -4.102     14.652     16.512
REMARK INTER + INTRA:          -6.496
REMARK INTER:                  -6.133
REMARK INTRA:                  -0.363
REMARK UNBOUND:                -0.476
REMARK SMILES O=C([O-])CCCCCCCC(=O)[O-]
REMARK SMILES IDX 7 1 6 2 5 3 4 4 2 5 1 6 3 7 8 8 9 9 10 10 11 11 12 12 13 13
REMARK H PARENT
REMARK Flexibility Score: inf
ROOT
ATOM      1  C   UNL     1    -128.378 108.593  42.237  1.00  0.00     0.000 C 
ENDROOT
BRANCH   1   2
ATOM      2  C   UNL     1    -128.020 107.171  41.775  1.00  0.00     0.000 C 
BRANCH   2   3
ATOM      3  C   UNL     1    -129.243 106.383  41.275  1.00  0.00     0.006 C 
BRANCH   3   4
ATOM      4  C   UNL     1    -128.890 105.433  40.121  1.00  0.00     0.053 C 
BRANCH   4   5
ATOM      5  C   UNL     1    -129.633 105.781  38.869  1.00  0.00     0.041 C 
ATOM      6  O   UNL     1    -130.217 106.892  38.766  1.00  0.00    -0.550 OA
ATOM      7  O   UNL     1    -129.652 104.894  37.800  1.00  0.00    -0.550 OA
ENDBRANCH   4   5
ENDBRANCH   3   4
ENDBRANCH   2   3
ENDBRANCH   1   2
BRANCH   1   8
ATOM      8  C   UNL     1    -129.862 108.734  42.615  1.00  0.00     0.000 C 
BRANCH   8   9
ATOM      9  C   UNL     1    -130.060 109.172  44.075  1.00  0.00     0.006 C 
BRANCH   9  10
ATOM     10  C   UNL     1    -130.908 108.179  44.881  1.00  0.00     0.053 C 
BRANCH  10  11
ATOM     11  C   UNL     1    -131.063 108.652  46.293  1.00  0.00     0.041 C 
ATOM     12  O   UNL     1    -131.642 109.743  46.534  1.00  0.00    -0.550 OA
ATOM     13  O   UNL     1    -130.525 107.910  47.337  1.00  0.00    -0.550 OA
ENDBRANCH  10  11
ENDBRANCH   9  10
ENDBRANCH   8   9
ENDBRANCH   1   8
TORSDOF 8
ENDMDL
