MODEL 1
REMARK VINA RESULT:    -3.003      0.000      0.000
REMARK INTER + INTRA:          -5.144
REMARK INTER:                  -4.408
REMARK INTRA:                  -0.736
REMARK UNBOUND:                -0.736
REMARK SMILES O=C([O-])CCCCCCCC(=O)[O-]
REMARK SMILES IDX 7 1 6 2 5 3 4 4 2 5 1 6 3 7 8 8 9 9 10 10 11 11 12 12 13 13
REMARK H PARENT
REMARK Flexibility Score: inf
ROOT
ATOM      1  C   UNL     1      53.629  81.835  32.379  1.00  0.00     0.000 C 
ENDROOT
BRANCH   1   2
ATOM      2  C   UNL     1      55.162  81.744  32.309  1.00  0.00     0.000 C 
BRANCH   2   3
ATOM      3  C   UNL     1      55.857  82.955  32.949  1.00  0.00     0.006 C 
BRANCH   3   4
ATOM      4  C   UNL     1      55.432  84.256  32.260  1.00  0.00     0.053 C 
BRANCH   4   5
ATOM      5  C   UNL     1      55.997  84.326  30.877  1.00  0.00     0.041 C 
ATOM      6  O   UNL     1      55.252  84.603  29.901  1.00  0.00    -0.550 OA
ATOM      7  O   UNL     1      57.359  84.136  30.672  1.00  0.00    -0.550 OA
ENDBRANCH   4   5
ENDBRANCH   3   4
ENDBRANCH   2   3
ENDBRANCH   1   2
BRANCH   1   8
ATOM      8  C   UNL     1      52.965  81.703  31.001  1.00  0.00     0.000 C 
BRANCH   8   9
ATOM      9  C   UNL     1      52.143  82.953  30.666  1.00  0.00     0.006 C 
BRANCH   9  10
ATOM     10  C   UNL     1      51.372  83.450  31.893  1.00  0.00     0.053 C 
BRANCH  10  11
ATOM     11  C   UNL     1      49.922  83.100  31.776  1.00  0.00     0.041 C 
ATOM     12  O   UNL     1      49.479  82.581  30.718  1.00  0.00    -0.550 OA
ATOM     13  O   UNL     1      49.050  83.393  32.817  1.00  0.00    -0.550 OA
ENDBRANCH  10  11
ENDBRANCH   9  10
ENDBRANCH   8   9
ENDBRANCH   1   8
TORSDOF 8
ENDMDL
MODEL 2
REMARK VINA RESULT:    -2.932     22.736     24.365
REMARK INTER + INTRA:          -5.039
REMARK INTER:                  -4.835
REMARK INTRA:                  -0.203
REMARK UNBOUND:                -0.736
REMARK SMILES O=C([O-])CCCCCCCC(=O)[O-]
REMARK SMILES IDX 7 1 6 2 5 3 4 4 2 5 1 6 3 7 8 8 9 9 10 10 11 11 12 12 13 13
REMARK H PARENT
REMARK Flexibility Score: inf
ROOT
ATOM      1  C   UNL     1      67.014  66.302  43.336  1.00  0.00     0.000 C 
ENDROOT
BRANCH   1   2
ATOM      2  C   UNL     1      66.823  65.163  42.321  1.00  0.00     0.000 C 
BRANCH   2   3
ATOM      3  C   UNL     1      67.526  65.439  40.983  1.00  0.00     0.006 C 
BRANCH   3   4
ATOM      4  C   UNL     1      66.727  66.440  40.141  1.00  0.00     0.053 C 
BRANCH   4   5
ATOM      5  C   UNL     1      66.961  66.203  38.683  1.00  0.00     0.041 C 
ATOM      6  O   UNL     1      67.135  65.033  38.251  1.00  0.00    -0.550 OA
ATOM      7  O   UNL     1      66.937  67.269  37.793  1.00  0.00    -0.550 OA
ENDBRANCH   4   5
ENDBRANCH   3   4
ENDBRANCH   2   3
ENDBRANCH   1   2
BRANCH   1   8
ATOM      8  C   UNL     1      66.198  66.092  44.620  1.00  0.00     0.000 C 
BRANCH   8   9
ATOM      9  C   UNL     1      66.657  67.053  45.724  1.00  0.00     0.006 C 
BRANCH   9  10
ATOM     10  C   UNL     1      65.928  66.766  47.041  1.00  0.00     0.053 C 
BRANCH  10  11
ATOM     11  C   UNL     1      65.045  67.916  47.411  1.00  0.00     0.041 C 
ATOM     12  O   UNL     1      64.118  68.277  46.639  1.00  0.00    -0.550 OA
ATOM     13  O   UNL     1      65.276  68.620  48.586  1.00  0.00    -0.550 OA
ENDBRANCH  10  11
ENDBRANCH   9  10
ENDBRANCH   8   9
ENDBRANCH   1   8
TORSDOF 8
ENDMDL
MODEL 3
REMARK VINA RESULT:    -2.893      0.677      5.323
REMARK INTER + INTRA:          -4.982
REMARK INTER:                  -4.242
REMARK INTRA:                  -0.740
REMARK UNBOUND:                -0.736
REMARK SMILES O=C([O-])CCCCCCCC(=O)[O-]
REMARK SMILES IDX 7 1 6 2 5 3 4 4 2 5 1 6 3 7 8 8 9 9 10 10 11 11 12 12 13 13
REMARK H PARENT
REMARK Flexibility Score: inf
ROOT
ATOM      1  C   UNL     1      53.601  81.737  32.580  1.00  0.00     0.000 C 
ENDROOT
BRANCH   1   2
ATOM      2  C   UNL     1      52.598  81.592  31.424  1.00  0.00     0.000 C 
BRANCH   2   3
ATOM      3  C   UNL     1      52.348  82.917  30.687  1.00  0.00     0.006 C 
BRANCH   3   4
ATOM      4  C   UNL     1      51.713  83.952  31.621  1.00  0.00     0.053 C 
BRANCH   4   5
ATOM      5  C   UNL     1      50.221  83.895  31.529  1.00  0.00     0.041 C 
ATOM      6  O   UNL     1      49.619  84.512  30.611  1.00  0.00    -0.550 OA
ATOM      7  O   UNL     1      49.498  83.119  32.426  1.00  0.00    -0.550 OA
ENDBRANCH   4   5
ENDBRANCH   3   4
ENDBRANCH   2   3
ENDBRANCH   1   2
BRANCH   1   8
ATOM      8  C   UNL     1      55.058  81.787  32.095  1.00  0.00     0.000 C 
BRANCH   8   9
ATOM      9  C   UNL     1      55.843  82.879  32.832  1.00  0.00     0.006 C 
BRANCH   9  10
ATOM     10  C   UNL     1      55.524  84.265  32.264  1.00  0.00     0.053 C 
BRANCH  10  11
ATOM     11  C   UNL     1      56.075  84.402  30.880  1.00  0.00     0.041 C 
ATOM     12  O   UNL     1      55.325  84.754  29.931  1.00  0.00    -0.550 OA
ATOM     13  O   UNL     1      57.406  84.096  30.628  1.00  0.00    -0.550 OA
ENDBRANCH  10  11
ENDBRANCH   9  10
ENDBRANCH   8   9
ENDBRANCH   1   8
TORSDOF 8
ENDMDL
MODEL 4
REMARK VINA RESULT:    -2.881     23.092     24.756
REMARK INTER + INTRA:          -4.964
REMARK INTER:                  -4.744
REMARK INTRA:                  -0.220
REMARK UNBOUND:                -0.736
REMARK SMILES O=C([O-])CCCCCCCC(=O)[O-]
REMARK SMILES IDX 7 1 6 2 5 3 4 4 2 5 1 6 3 7 8 8 9 9 10 10 11 11 12 12 13 13
REMARK H PARENT
REMARK Flexibility Score: inf
ROOT
ATOM      1  C   UNL     1      66.730  66.457  44.047  1.00  0.00     0.000 C 
ENDROOT
BRANCH   1   2
ATOM      2  C   UNL     1      65.868  65.982  45.228  1.00  0.00     0.000 C 
BRANCH   2   3
ATOM      3  C   UNL     1      65.931  66.938  46.429  1.00  0.00     0.006 C 
BRANCH   3   4
ATOM      4  C   UNL     1      64.766  67.934  46.398  1.00  0.00     0.053 C 
BRANCH   4   5
ATOM      5  C   UNL     1      64.358  68.307  47.788  1.00  0.00     0.041 C 
ATOM      6  O   UNL     1      65.210  68.323  48.715  1.00  0.00    -0.550 OA
ATOM      7  O   UNL     1      63.047  68.685  48.049  1.00  0.00    -0.550 OA
ENDBRANCH   4   5
ENDBRANCH   3   4
ENDBRANCH   2   3
ENDBRANCH   1   2
BRANCH   1   8
ATOM      8  C   UNL     1      67.632  65.347  43.488  1.00  0.00     0.000 C 
BRANCH   8   9
ATOM      9  C   UNL     1      67.942  65.586  42.005  1.00  0.00     0.006 C 
BRANCH   9  10
ATOM     10  C   UNL     1      66.674  65.962  41.232  1.00  0.00     0.053 C 
BRANCH  10  11
ATOM     11  C   UNL     1      66.981  66.137  39.778  1.00  0.00     0.041 C 
ATOM     12  O   UNL     1      67.569  65.225  39.140  1.00  0.00    -0.550 OA
ATOM     13  O   UNL     1      66.659  67.328  39.139  1.00  0.00    -0.550 OA
ENDBRANCH  10  11
ENDBRANCH   9  10
ENDBRANCH   8   9
ENDBRANCH   1   8
TORSDOF 8
ENDMDL
MODEL 5
REMARK VINA RESULT:    -2.860     12.850     14.372
REMARK INTER + INTRA:          -4.933
REMARK INTER:                  -4.375
REMARK INTRA:                  -0.558
REMARK UNBOUND:                -0.736
REMARK SMILES O=C([O-])CCCCCCCC(=O)[O-]
REMARK SMILES IDX 7 1 6 2 5 3 4 4 2 5 1 6 3 7 8 8 9 9 10 10 11 11 12 12 13 13
REMARK H PARENT
REMARK Flexibility Score: inf
ROOT
ATOM      1  C   UNL     1      49.628  84.236  45.383  1.00  0.00     0.000 C 
ENDROOT
BRANCH   1   2
ATOM      2  C   UNL     1      49.705  83.945  43.876  1.00  0.00     0.000 C 
BRANCH   2   3
ATOM      3  C   UNL     1      48.324  83.704  43.248  1.00  0.00     0.006 C 
BRANCH   3   4
ATOM      4  C   UNL     1      48.241  82.306  42.626  1.00  0.00     0.053 C 
BRANCH   4   5
ATOM      5  C   UNL     1      48.598  82.356  41.174  1.00  0.00     0.041 C 
ATOM      6  O   UNL     1      48.598  83.454  40.560  1.00  0.00    -0.550 OA
ATOM      7  O   UNL     1      48.980  81.196  40.512  1.00  0.00    -0.550 OA
ENDBRANCH   4   5
ENDBRANCH   3   4
ENDBRANCH   2   3
ENDBRANCH   1   2
BRANCH   1   8
ATOM      8  C   UNL     1      48.695  83.268  46.126  1.00  0.00     0.000 C 
BRANCH   8   9
ATOM      9  C   UNL     1      49.403  81.940  46.419  1.00  0.00     0.006 C 
BRANCH   9  10
ATOM     10  C   UNL     1      48.474  80.751  46.157  1.00  0.00     0.053 C 
BRANCH  10  11
ATOM     11  C   UNL     1      48.842  79.596  47.033  1.00  0.00     0.041 C 
ATOM     12  O   UNL     1      48.932  79.750  48.280  1.00  0.00    -0.550 OA
ATOM     13  O   UNL     1      49.133  78.361  46.469  1.00  0.00    -0.550 OA
ENDBRANCH  10  11
ENDBRANCH   9  10
ENDBRANCH   8   9
ENDBRANCH   1   8
TORSDOF 8
ENDMDL
MODEL 6
REMARK VINA RESULT:    -2.844      2.089      4.947
REMARK INTER + INTRA:          -4.909
REMARK INTER:                  -4.210
REMARK INTRA:                  -0.700
REMARK UNBOUND:                -0.736
REMARK SMILES O=C([O-])CCCCCCCC(=O)[O-]
REMARK SMILES IDX 7 1 6 2 5 3 4 4 2 5 1 6 3 7 8 8 9 9 10 10 11 11 12 12 13 13
REMARK H PARENT
REMARK Flexibility Score: inf
ROOT
ATOM      1  C   UNL     1      55.074  81.449  29.720  1.00  0.00     0.000 C 
ENDROOT
BRANCH   1   2
ATOM      2  C   UNL     1      53.773  80.967  29.059  1.00  0.00     0.000 C 
BRANCH   2   3
ATOM      3  C   UNL     1      52.517  81.501  29.764  1.00  0.00     0.006 C 
BRANCH   3   4
ATOM      4  C   UNL     1      52.736  81.592  31.278  1.00  0.00     0.053 C 
BRANCH   4   5
ATOM      5  C   UNL     1      51.885  82.672  31.867  1.00  0.00     0.041 C 
ATOM      6  O   UNL     1      50.636  82.533  31.927  1.00  0.00    -0.550 OA
ATOM      7  O   UNL     1      52.478  83.813  32.395  1.00  0.00    -0.550 OA
ENDBRANCH   4   5
ENDBRANCH   3   4
ENDBRANCH   2   3
ENDBRANCH   1   2
BRANCH   1   8
ATOM      8  C   UNL     1      55.643  82.711  29.056  1.00  0.00     0.000 C 
BRANCH   8   9
ATOM      9  C   UNL     1      55.508  83.926  29.982  1.00  0.00     0.006 C 
BRANCH   9  10
ATOM     10  C   UNL     1      56.588  83.913  31.068  1.00  0.00     0.053 C 
BRANCH  10  11
ATOM     11  C   UNL     1      55.964  83.822  32.425  1.00  0.00     0.041 C 
ATOM     12  O   UNL     1      55.840  82.704  32.992  1.00  0.00    -0.550 OA
ATOM     13  O   UNL     1      55.476  84.965  33.044  1.00  0.00    -0.550 OA
ENDBRANCH  10  11
ENDBRANCH   9  10
ENDBRANCH   8   9
ENDBRANCH   1   8
TORSDOF 8
ENDMDL
MODEL 7
REMARK VINA RESULT:    -2.838      2.120      5.107
REMARK INTER + INTRA:          -4.901
REMARK INTER:                  -4.123
REMARK INTRA:                  -0.778
REMARK UNBOUND:                -0.736
REMARK SMILES O=C([O-])CCCCCCCC(=O)[O-]
REMARK SMILES IDX 7 1 6 2 5 3 4 4 2 5 1 6 3 7 8 8 9 9 10 10 11 11 12 12 13 13
REMARK H PARENT
REMARK Flexibility Score: inf
ROOT
ATOM      1  C   UNL     1      55.019  84.940  29.507  1.00  0.00     0.000 C 
ENDROOT
BRANCH   1   2
ATOM      2  C   UNL     1      53.495  84.950  29.306  1.00  0.00     0.000 C 
BRANCH   2   3
ATOM      3  C   UNL     1      52.744  84.224  30.432  1.00  0.00     0.006 C 
BRANCH   3   4
ATOM      4  C   UNL     1      51.727  83.230  29.859  1.00  0.00     0.053 C 
BRANCH   4   5
ATOM      5  C   UNL     1      51.380  82.191  30.878  1.00  0.00     0.041 C 
ATOM      6  O   UNL     1      51.766  81.002  30.727  1.00  0.00    -0.550 OA
ATOM      7  O   UNL     1      50.672  82.546  32.020  1.00  0.00    -0.550 OA
ENDBRANCH   4   5
ENDBRANCH   3   4
ENDBRANCH   2   3
ENDBRANCH   1   2
BRANCH   1   8
ATOM      8  C   UNL     1      55.421  85.070  30.984  1.00  0.00     0.000 C 
BRANCH   8   9
ATOM      9  C   UNL     1      56.380  83.945  31.392  1.00  0.00     0.006 C 
BRANCH   9  10
ATOM     10  C   UNL     1      55.842  83.176  32.603  1.00  0.00     0.053 C 
BRANCH  10  11
ATOM     11  C   UNL     1      55.020  82.008  32.157  1.00  0.00     0.041 C 
ATOM     12  O   UNL     1      54.247  81.431  32.966  1.00  0.00    -0.550 OA
ATOM     13  O   UNL     1      55.142  81.526  30.860  1.00  0.00    -0.550 OA
ENDBRANCH  10  11
ENDBRANCH   9  10
ENDBRANCH   8   9
ENDBRANCH   1   8
TORSDOF 8
ENDMDL
MODEL 8
REMARK VINA RESULT:    -2.820      1.183      1.728
REMARK INTER + INTRA:          -4.874
REMARK INTER:                  -4.148
REMARK INTRA:                  -0.727
REMARK UNBOUND:                -0.736
REMARK SMILES O=C([O-])CCCCCCCC(=O)[O-]
REMARK SMILES IDX 7 1 6 2 5 3 4 4 2 5 1 6 3 7 8 8 9 9 10 10 11 11 12 12 13 13
REMARK H PARENT
REMARK Flexibility Score: inf
ROOT
ATOM      1  C   UNL     1      53.477  81.881  32.387  1.00  0.00     0.000 C 
ENDROOT
BRANCH   1   2
ATOM      2  C   UNL     1      55.003  81.744  32.259  1.00  0.00     0.000 C 
BRANCH   2   3
ATOM      3  C   UNL     1      55.760  82.890  32.947  1.00  0.00     0.006 C 
BRANCH   3   4
ATOM      4  C   UNL     1      55.461  84.230  32.268  1.00  0.00     0.053 C 
BRANCH   4   5
ATOM      5  C   UNL     1      56.038  84.258  30.888  1.00  0.00     0.041 C 
ATOM      6  O   UNL     1      57.259  84.015  30.707  1.00  0.00    -0.550 OA
ATOM      7  O   UNL     1      55.215  84.504  29.796  1.00  0.00    -0.550 OA
ENDBRANCH   4   5
ENDBRANCH   3   4
ENDBRANCH   2   3
ENDBRANCH   1   2
BRANCH   1   8
ATOM      8  C   UNL     1      52.757  81.755  31.037  1.00  0.00     0.000 C 
BRANCH   8   9
ATOM      9  C   UNL     1      51.501  82.635  31.001  1.00  0.00     0.006 C 
BRANCH   9  10
ATOM     10  C   UNL     1      51.866  84.119  31.112  1.00  0.00     0.053 C 
BRANCH  10  11
ATOM     11  C   UNL     1      51.180  84.740  32.287  1.00  0.00     0.041 C 
ATOM     12  O   UNL     1      51.794  84.879  33.378  1.00  0.00    -0.550 OA
ATOM     13  O   UNL     1      49.848  85.122  32.193  1.00  0.00    -0.550 OA
ENDBRANCH  10  11
ENDBRANCH   9  10
ENDBRANCH   8   9
ENDBRANCH   1   8
TORSDOF 8
ENDMDL
MODEL 9
REMARK VINA RESULT:    -2.800      2.204      2.680
REMARK INTER + INTRA:          -4.846
REMARK INTER:                  -4.078
REMARK INTRA:                  -0.768
REMARK UNBOUND:                -0.736
REMARK SMILES O=C([O-])CCCCCCCC(=O)[O-]
REMARK SMILES IDX 7 1 6 2 5 3 4 4 2 5 1 6 3 7 8 8 9 9 10 10 11 11 12 12 13 13
REMARK H PARENT
REMARK Flexibility Score: inf
ROOT
ATOM      1  C   UNL     1      54.412  81.386  29.231  1.00  0.00     0.000 C 
ENDROOT
BRANCH   1   2
ATOM      2  C   UNL     1      55.765  81.831  29.808  1.00  0.00     0.000 C 
BRANCH   2   3
ATOM      3  C   UNL     1      56.088  83.300  29.497  1.00  0.00     0.006 C 
BRANCH   3   4
ATOM      4  C   UNL     1      56.827  83.958  30.667  1.00  0.00     0.053 C 
BRANCH   4   5
ATOM      5  C   UNL     1      55.932  84.059  31.861  1.00  0.00     0.041 C 
ATOM      6  O   UNL     1      54.844  84.688  31.787  1.00  0.00    -0.550 OA
ATOM      7  O   UNL     1      56.275  83.414  33.044  1.00  0.00    -0.550 OA
ENDBRANCH   4   5
ENDBRANCH   3   4
ENDBRANCH   2   3
ENDBRANCH   1   2
BRANCH   1   8
ATOM      8  C   UNL     1      53.400  82.538  29.142  1.00  0.00     0.000 C 
BRANCH   8   9
ATOM      9  C   UNL     1      51.996  82.067  29.540  1.00  0.00     0.006 C 
BRANCH   9  10
ATOM     10  C   UNL     1      52.038  81.240  30.828  1.00  0.00     0.053 C 
BRANCH  10  11
ATOM     11  C   UNL     1      52.411  82.103  31.992  1.00  0.00     0.041 C 
ATOM     12  O   UNL     1      53.340  81.754  32.767  1.00  0.00    -0.550 OA
ATOM     13  O   UNL     1      51.702  83.270  32.248  1.00  0.00    -0.550 OA
ENDBRANCH  10  11
ENDBRANCH   9  10
ENDBRANCH   8   9
ENDBRANCH   1   8
TORSDOF 8
ENDMDL
