MODEL 1
REMARK VINA RESULT:    -7.433      0.000      0.000
REMARK INTER + INTRA:          -9.521
REMARK INTER:                  -9.171
REMARK INTRA:                  -0.349
REMARK UNBOUND:                -0.349
REMARK SMILES O=c1c(O)c(-c2cc(O)c(O)c(O)c2)oc2cc(O)cc(O)c12
REMARK SMILES IDX 5 1 3 2 2 3 1 4 23 5 21 6 20 7 18 8 17 9 16 10 15 11 6 12
REMARK SMILES IDX 7 13 8 14 14 15 10 16 12 17 9 18 11 20 13 22 4 24 22 26
REMARK SMILES IDX 19 28
REMARK H PARENT 9 19 11 21 13 23 4 25 22 27 19 29
REMARK Flexibility Score: inf
ROOT
ATOM      1  C   UNL     1     132.753 135.015 153.352  1.00  0.00     0.180 A 
ATOM      2  C   UNL     1     132.013 134.127 154.156  1.00  0.00     0.208 A 
ATOM      3  C   UNL     1     131.368 133.040 153.549  1.00  0.00     0.238 A 
ATOM      4  O   UNL     1     130.710 132.232 154.261  1.00  0.00    -0.285 OA
ATOM      5  C   UNL     1     131.454 132.869 152.152  1.00  0.00     0.111 A 
ATOM      6  C   UNL     1     130.830 131.801 151.462  1.00  0.00     0.134 A 
ATOM      7  C   UNL     1     130.957 131.706 150.068  1.00  0.00     0.093 A 
ATOM      8  C   UNL     1     131.692 132.654 149.353  1.00  0.00     0.123 A 
ATOM      9  C   UNL     1     132.312 133.709 150.029  1.00  0.00     0.094 A 
ATOM     10  C   UNL     1     132.199 133.821 151.418  1.00  0.00     0.146 A 
ATOM     11  O   UNL     1     132.801 134.831 152.037  1.00  0.00    -0.452 OA
ENDROOT
BRANCH   1  12
ATOM     12  C   UNL     1     133.477 136.175 153.921  1.00  0.00     0.029 A 
ATOM     13  C   UNL     1     132.885 137.448 153.982  1.00  0.00     0.062 A 
ATOM     14  C   UNL     1     133.569 138.533 154.544  1.00  0.00     0.162 A 
ATOM     15  C   UNL     1     134.755 135.992 154.465  1.00  0.00     0.062 A 
ATOM     16  C   UNL     1     134.871 138.345 155.066  1.00  0.00     0.200 A 
ATOM     17  C   UNL     1     135.453 137.064 155.026  1.00  0.00     0.162 A 
BRANCH  14  18
ATOM     18  O   UNL     1     132.917 139.767 154.567  1.00  0.00    -0.504 OA
ATOM     19  H   UNL     1     132.741 140.299 155.406  1.00  0.00     0.293 HD
ENDBRANCH  14  18
BRANCH  16  20
ATOM     20  O   UNL     1     135.607 139.391 155.628  1.00  0.00    -0.502 OA
ATOM     21  H   UNL     1     136.224 139.996 155.105  1.00  0.00     0.293 HD
ENDBRANCH  16  20
BRANCH  17  22
ATOM     22  O   UNL     1     136.730 136.836 155.541  1.00  0.00    -0.504 OA
ATOM     23  H   UNL     1     136.890 136.647 156.523  1.00  0.00     0.293 HD
ENDBRANCH  17  22
ENDBRANCH   1  12
BRANCH   2  24
ATOM     24  O   UNL     1     131.902 134.347 155.532  1.00  0.00    -0.502 OA
ATOM     25  H   UNL     1     131.926 133.591 156.206  1.00  0.00     0.293 HD
ENDBRANCH   2  24
BRANCH   6  26
ATOM     26  O   UNL     1     130.087 130.840 152.147  1.00  0.00    -0.507 OA
ATOM     27  H   UNL     1     129.865 129.943 151.732  1.00  0.00     0.293 HD
ENDBRANCH   6  26
BRANCH   8  28
ATOM     28  O   UNL     1     131.802 132.536 147.968  1.00  0.00    -0.508 OA
ATOM     29  H   UNL     1     131.008 132.281 147.394  1.00  0.00     0.293 HD
ENDBRANCH   8  28
TORSDOF 7
ENDMDL
MODEL 2
REMARK VINA RESULT:    -7.426      2.137      3.811
REMARK INTER + INTRA:          -9.512
REMARK INTER:                  -9.461
REMARK INTRA:                  -0.051
REMARK UNBOUND:                -0.349
REMARK SMILES O=c1c(O)c(-c2cc(O)c(O)c(O)c2)oc2cc(O)cc(O)c12
REMARK SMILES IDX 5 1 3 2 2 3 1 4 23 5 21 6 20 7 18 8 17 9 16 10 15 11 6 12
REMARK SMILES IDX 7 13 8 14 14 15 10 16 12 17 9 18 11 20 13 22 4 24 22 26
REMARK SMILES IDX 19 28
REMARK H PARENT 9 19 11 21 13 23 4 25 22 27 19 29
REMARK Flexibility Score: inf
ROOT
ATOM      1  C   UNL     1     131.564 135.578 153.890  1.00  0.00     0.180 A 
ATOM      2  C   UNL     1     131.999 135.329 152.574  1.00  0.00     0.208 A 
ATOM      3  C   UNL     1     132.047 134.004 152.116  1.00  0.00     0.238 A 
ATOM      4  O   UNL     1     132.426 133.769 150.936  1.00  0.00    -0.285 OA
ATOM      5  C   UNL     1     131.681 132.953 152.982  1.00  0.00     0.111 A 
ATOM      6  C   UNL     1     131.705 131.589 152.598  1.00  0.00     0.134 A 
ATOM      7  C   UNL     1     131.334 130.601 153.522  1.00  0.00     0.093 A 
ATOM      8  C   UNL     1     130.941 130.947 154.817  1.00  0.00     0.123 A 
ATOM      9  C   UNL     1     130.914 132.291 155.200  1.00  0.00     0.094 A 
ATOM     10  C   UNL     1     131.278 133.292 154.295  1.00  0.00     0.146 A 
ATOM     11  O   UNL     1     131.240 134.562 154.683  1.00  0.00    -0.452 OA
ENDROOT
BRANCH   1  12
ATOM     12  C   UNL     1     131.468 136.950 154.441  1.00  0.00     0.029 A 
ATOM     13  C   UNL     1     130.287 137.415 155.041  1.00  0.00     0.062 A 
ATOM     14  C   UNL     1     130.214 138.705 155.581  1.00  0.00     0.162 A 
ATOM     15  C   UNL     1     132.594 137.783 154.418  1.00  0.00     0.062 A 
ATOM     16  C   UNL     1     131.348 139.551 155.528  1.00  0.00     0.200 A 
ATOM     17  C   UNL     1     132.538 139.074 154.947  1.00  0.00     0.162 A 
BRANCH  14  18
ATOM     18  O   UNL     1     129.005 139.098 156.159  1.00  0.00    -0.504 OA
ATOM     19  H   UNL     1     128.310 139.660 155.691  1.00  0.00     0.293 HD
ENDBRANCH  14  18
BRANCH  16  20
ATOM     20  O   UNL     1     131.332 140.851 156.038  1.00  0.00    -0.502 OA
ATOM     21  H   UNL     1     130.723 141.162 156.780  1.00  0.00     0.293 HD
ENDBRANCH  16  20
BRANCH  17  22
ATOM     22  O   UNL     1     133.681 139.873 154.887  1.00  0.00    -0.504 OA
ATOM     23  H   UNL     1     134.117 140.256 155.717  1.00  0.00     0.293 HD
ENDBRANCH  17  22
ENDBRANCH   1  12
BRANCH   2  24
ATOM     24  O   UNL     1     132.404 136.384 151.753  1.00  0.00    -0.502 OA
ATOM     25  H   UNL     1     132.503 137.332 152.097  1.00  0.00     0.293 HD
ENDBRANCH   2  24
BRANCH   6  26
ATOM     26  O   UNL     1     132.094 131.211 151.313  1.00  0.00    -0.507 OA
ATOM     27  H   UNL     1     131.453 130.756 150.674  1.00  0.00     0.293 HD
ENDBRANCH   6  26
BRANCH   8  28
ATOM     28  O   UNL     1     130.578 129.945 155.715  1.00  0.00    -0.508 OA
ATOM     29  H   UNL     1     131.270 129.352 156.156  1.00  0.00     0.293 HD
ENDBRANCH   8  28
TORSDOF 7
ENDMDL
MODEL 3
REMARK VINA RESULT:    -7.374      1.599      2.539
REMARK INTER + INTRA:          -9.448
REMARK INTER:                  -9.262
REMARK INTRA:                  -0.186
REMARK UNBOUND:                -0.349
REMARK SMILES O=c1c(O)c(-c2cc(O)c(O)c(O)c2)oc2cc(O)cc(O)c12
REMARK SMILES IDX 5 1 3 2 2 3 1 4 23 5 21 6 20 7 18 8 17 9 16 10 15 11 6 12
REMARK SMILES IDX 7 13 8 14 14 15 10 16 12 17 9 18 11 20 13 22 4 24 22 26
REMARK SMILES IDX 19 28
REMARK H PARENT 9 19 11 21 13 23 4 25 22 27 19 29
REMARK Flexibility Score: inf
ROOT
ATOM      1  C   UNL     1     132.530 135.314 152.143  1.00  0.00     0.180 A 
ATOM      2  C   UNL     1     131.224 134.816 152.319  1.00  0.00     0.208 A 
ATOM      3  C   UNL     1     130.686 133.966 151.341  1.00  0.00     0.238 A 
ATOM      4  O   UNL     1     129.521 133.506 151.492  1.00  0.00    -0.285 OA
ATOM      5  C   UNL     1     131.448 133.646 150.199  1.00  0.00     0.111 A 
ATOM      6  C   UNL     1     130.977 132.800 149.165  1.00  0.00     0.134 A 
ATOM      7  C   UNL     1     131.794 132.536 148.056  1.00  0.00     0.093 A 
ATOM      8  C   UNL     1     133.069 133.100 147.959  1.00  0.00     0.123 A 
ATOM      9  C   UNL     1     133.539 133.935 148.977  1.00  0.00     0.094 A 
ATOM     10  C   UNL     1     132.742 134.209 150.092  1.00  0.00     0.146 A 
ATOM     11  O   UNL     1     133.215 135.002 151.048  1.00  0.00    -0.452 OA
ENDROOT
BRANCH   1  12
ATOM     12  C   UNL     1     133.175 136.200 153.140  1.00  0.00     0.029 A 
ATOM     13  C   UNL     1     134.335 135.806 153.826  1.00  0.00     0.062 A 
ATOM     14  C   UNL     1     134.951 136.661 154.748  1.00  0.00     0.162 A 
ATOM     15  C   UNL     1     132.654 137.481 153.363  1.00  0.00     0.062 A 
ATOM     16  C   UNL     1     134.402 137.943 154.988  1.00  0.00     0.200 A 
ATOM     17  C   UNL     1     133.253 138.346 154.282  1.00  0.00     0.162 A 
BRANCH  14  18
ATOM     18  O   UNL     1     136.100 136.198 155.392  1.00  0.00    -0.504 OA
ATOM     19  H   UNL     1     136.208 135.262 155.755  1.00  0.00     0.293 HD
ENDBRANCH  14  18
BRANCH  16  20
ATOM     20  O   UNL     1     134.965 138.834 155.905  1.00  0.00    -0.502 OA
ATOM     21  H   UNL     1     135.363 138.561 156.791  1.00  0.00     0.293 HD
ENDBRANCH  16  20
BRANCH  17  22
ATOM     22  O   UNL     1     132.689 139.606 154.482  1.00  0.00    -0.504 OA
ATOM     23  H   UNL     1     133.234 140.458 154.421  1.00  0.00     0.293 HD
ENDBRANCH  17  22
ENDBRANCH   1  12
BRANCH   2  24
ATOM     24  O   UNL     1     130.471 135.188 153.435  1.00  0.00    -0.502 OA
ATOM     25  H   UNL     1     130.828 135.816 154.146  1.00  0.00     0.293 HD
ENDBRANCH   2  24
BRANCH   6  26
ATOM     26  O   UNL     1     129.709 132.223 149.231  1.00  0.00    -0.507 OA
ATOM     27  H   UNL     1     128.993 132.578 149.854  1.00  0.00     0.293 HD
ENDBRANCH   6  26
BRANCH   8  28
ATOM     28  O   UNL     1     133.860 132.823 146.846  1.00  0.00    -0.508 OA
ATOM     29  H   UNL     1     133.565 132.163 146.137  1.00  0.00     0.293 HD
ENDBRANCH   8  28
TORSDOF 7
ENDMDL
MODEL 4
REMARK VINA RESULT:    -7.272      2.170      3.029
REMARK INTER + INTRA:          -9.322
REMARK INTER:                  -8.955
REMARK INTRA:                  -0.367
REMARK UNBOUND:                -0.349
REMARK SMILES O=c1c(O)c(-c2cc(O)c(O)c(O)c2)oc2cc(O)cc(O)c12
REMARK SMILES IDX 5 1 3 2 2 3 1 4 23 5 21 6 20 7 18 8 17 9 16 10 15 11 6 12
REMARK SMILES IDX 7 13 8 14 14 15 10 16 12 17 9 18 11 20 13 22 4 24 22 26
REMARK SMILES IDX 19 28
REMARK H PARENT 9 19 11 21 13 23 4 25 22 27 19 29
REMARK Flexibility Score: inf
ROOT
ATOM      1  C   UNL     1     130.928 134.607 153.029  1.00  0.00     0.180 A 
ATOM      2  C   UNL     1     131.485 133.407 153.512  1.00  0.00     0.208 A 
ATOM      3  C   UNL     1     131.344 132.239 152.747  1.00  0.00     0.238 A 
ATOM      4  O   UNL     1     131.847 131.160 153.164  1.00  0.00    -0.285 OA
ATOM      5  C   UNL     1     130.636 132.285 151.528  1.00  0.00     0.111 A 
ATOM      6  C   UNL     1     130.447 131.152 150.699  1.00  0.00     0.134 A 
ATOM      7  C   UNL     1     129.723 131.278 149.505  1.00  0.00     0.093 A 
ATOM      8  C   UNL     1     129.185 132.509 149.123  1.00  0.00     0.123 A 
ATOM      9  C   UNL     1     129.370 133.631 149.937  1.00  0.00     0.094 A 
ATOM     10  C   UNL     1     130.091 133.528 151.130  1.00  0.00     0.146 A 
ATOM     11  O   UNL     1     130.256 134.610 151.883  1.00  0.00    -0.452 OA
ENDROOT
BRANCH   1  12
ATOM     12  C   UNL     1     131.051 135.884 153.770  1.00  0.00     0.029 A 
ATOM     13  C   UNL     1     132.149 136.738 153.578  1.00  0.00     0.062 A 
ATOM     14  C   UNL     1     132.243 137.955 154.264  1.00  0.00     0.162 A 
ATOM     15  C   UNL     1     130.023 136.281 154.635  1.00  0.00     0.062 A 
ATOM     16  C   UNL     1     131.214 138.335 155.158  1.00  0.00     0.200 A 
ATOM     17  C   UNL     1     130.102 137.490 155.332  1.00  0.00     0.162 A 
BRANCH  14  18
ATOM     18  O   UNL     1     133.366 138.749 154.023  1.00  0.00    -0.504 OA
ATOM     19  H   UNL     1     133.968 139.114 154.746  1.00  0.00     0.293 HD
ENDBRANCH  14  18
BRANCH  16  20
ATOM     20  O   UNL     1     131.258 139.531 155.880  1.00  0.00    -0.502 OA
ATOM     21  H   UNL     1     131.524 140.422 155.487  1.00  0.00     0.293 HD
ENDBRANCH  16  20
BRANCH  17  22
ATOM     22  O   UNL     1     129.062 137.834 156.195  1.00  0.00    -0.504 OA
ATOM     23  H   UNL     1     128.168 138.168 155.857  1.00  0.00     0.293 HD
ENDBRANCH  17  22
ENDBRANCH   1  12
BRANCH   2  24
ATOM     24  O   UNL     1     132.138 133.378 154.747  1.00  0.00    -0.502 OA
ATOM     25  H   UNL     1     132.700 132.589 155.045  1.00  0.00     0.293 HD
ENDBRANCH   2  24
BRANCH   6  26
ATOM     26  O   UNL     1     130.969 129.908 151.053  1.00  0.00    -0.507 OA
ATOM     27  H   UNL     1     130.643 129.051 150.622  1.00  0.00     0.293 HD
ENDBRANCH   6  26
BRANCH   8  28
ATOM     28  O   UNL     1     128.469 132.607 147.932  1.00  0.00    -0.508 OA
ATOM     29  H   UNL     1     128.002 131.805 147.527  1.00  0.00     0.293 HD
ENDBRANCH   8  28
TORSDOF 7
ENDMDL
MODEL 5
REMARK VINA RESULT:    -7.263      2.171      2.764
REMARK INTER + INTRA:          -9.311
REMARK INTER:                  -8.953
REMARK INTRA:                  -0.358
REMARK UNBOUND:                -0.349
REMARK SMILES O=c1c(O)c(-c2cc(O)c(O)c(O)c2)oc2cc(O)cc(O)c12
REMARK SMILES IDX 5 1 3 2 2 3 1 4 23 5 21 6 20 7 18 8 17 9 16 10 15 11 6 12
REMARK SMILES IDX 7 13 8 14 14 15 10 16 12 17 9 18 11 20 13 22 4 24 22 26
REMARK SMILES IDX 19 28
REMARK H PARENT 9 19 11 21 13 23 4 25 22 27 19 29
REMARK Flexibility Score: inf
ROOT
ATOM      1  C   UNL     1     130.892 134.625 152.994  1.00  0.00     0.180 A 
ATOM      2  C   UNL     1     131.458 133.433 153.487  1.00  0.00     0.208 A 
ATOM      3  C   UNL     1     131.345 132.263 152.722  1.00  0.00     0.238 A 
ATOM      4  O   UNL     1     131.856 131.191 153.148  1.00  0.00    -0.285 OA
ATOM      5  C   UNL     1     130.653 132.296 151.493  1.00  0.00     0.111 A 
ATOM      6  C   UNL     1     130.491 131.159 150.664  1.00  0.00     0.134 A 
ATOM      7  C   UNL     1     129.782 131.273 149.459  1.00  0.00     0.093 A 
ATOM      8  C   UNL     1     129.233 132.496 149.068  1.00  0.00     0.123 A 
ATOM      9  C   UNL     1     129.391 133.622 149.882  1.00  0.00     0.094 A 
ATOM     10  C   UNL     1     130.096 133.531 151.086  1.00  0.00     0.146 A 
ATOM     11  O   UNL     1     130.235 134.617 151.838  1.00  0.00    -0.452 OA
ENDROOT
BRANCH   1  12
ATOM     12  C   UNL     1     130.985 135.905 153.734  1.00  0.00     0.029 A 
ATOM     13  C   UNL     1     130.002 136.286 154.662  1.00  0.00     0.062 A 
ATOM     14  C   UNL     1     130.113 137.487 155.374  1.00  0.00     0.162 A 
ATOM     15  C   UNL     1     132.105 136.727 153.551  1.00  0.00     0.062 A 
ATOM     16  C   UNL     1     131.233 138.325 155.162  1.00  0.00     0.200 A 
ATOM     17  C   UNL     1     132.229 137.931 154.250  1.00  0.00     0.162 A 
BRANCH  14  18
ATOM     18  O   UNL     1     129.095 137.800 156.277  1.00  0.00    -0.504 OA
ATOM     19  H   UNL     1     128.117 137.849 156.034  1.00  0.00     0.293 HD
ENDBRANCH  14  18
BRANCH  16  20
ATOM     20  O   UNL     1     131.391 139.540 155.834  1.00  0.00    -0.502 OA
ATOM     21  H   UNL     1     131.606 139.622 156.817  1.00  0.00     0.293 HD
ENDBRANCH  16  20
BRANCH  17  22
ATOM     22  O   UNL     1     133.354 138.724 154.022  1.00  0.00    -0.504 OA
ATOM     23  H   UNL     1     133.290 139.725 153.881  1.00  0.00     0.293 HD
ENDBRANCH  17  22
ENDBRANCH   1  12
BRANCH   2  24
ATOM     24  O   UNL     1     132.095 133.416 154.730  1.00  0.00    -0.502 OA
ATOM     25  H   UNL     1     131.963 134.149 155.417  1.00  0.00     0.293 HD
ENDBRANCH   2  24
BRANCH   6  26
ATOM     26  O   UNL     1     131.026 129.923 151.027  1.00  0.00    -0.507 OA
ATOM     27  H   UNL     1     130.468 129.078 151.020  1.00  0.00     0.293 HD
ENDBRANCH   6  26
BRANCH   8  28
ATOM     28  O   UNL     1     128.532 132.582 147.867  1.00  0.00    -0.508 OA
ATOM     29  H   UNL     1     128.150 133.460 147.538  1.00  0.00     0.293 HD
ENDBRANCH   8  28
TORSDOF 7
ENDMDL
MODEL 6
REMARK VINA RESULT:    -7.255      2.207      4.313
REMARK INTER + INTRA:          -9.301
REMARK INTER:                  -9.128
REMARK INTRA:                  -0.173
REMARK UNBOUND:                -0.349
REMARK SMILES O=c1c(O)c(-c2cc(O)c(O)c(O)c2)oc2cc(O)cc(O)c12
REMARK SMILES IDX 5 1 3 2 2 3 1 4 23 5 21 6 20 7 18 8 17 9 16 10 15 11 6 12
REMARK SMILES IDX 7 13 8 14 14 15 10 16 12 17 9 18 11 20 13 22 4 24 22 26
REMARK SMILES IDX 19 28
REMARK H PARENT 9 19 11 21 13 23 4 25 22 27 19 29
REMARK Flexibility Score: inf
ROOT
ATOM      1  C   UNL     1     131.342 133.507 150.980  1.00  0.00     0.180 A 
ATOM      2  C   UNL     1     132.204 133.393 149.872  1.00  0.00     0.208 A 
ATOM      3  C   UNL     1     131.766 132.688 148.742  1.00  0.00     0.238 A 
ATOM      4  O   UNL     1     132.525 132.588 147.739  1.00  0.00    -0.285 OA
ATOM      5  C   UNL     1     130.487 132.092 148.744  1.00  0.00     0.111 A 
ATOM      6  C   UNL     1     129.971 131.361 147.646  1.00  0.00     0.134 A 
ATOM      7  C   UNL     1     128.692 130.791 147.729  1.00  0.00     0.093 A 
ATOM      8  C   UNL     1     127.921 130.936 148.885  1.00  0.00     0.123 A 
ATOM      9  C   UNL     1     128.425 131.658 149.972  1.00  0.00     0.094 A 
ATOM     10  C   UNL     1     129.696 132.236 149.908  1.00  0.00     0.146 A 
ATOM     11  O   UNL     1     130.149 132.921 150.952  1.00  0.00    -0.452 OA
ENDROOT
BRANCH   1  12
ATOM     12  C   UNL     1     131.726 134.251 152.202  1.00  0.00     0.029 A 
ATOM     13  C   UNL     1     132.040 135.619 152.156  1.00  0.00     0.062 A 
ATOM     14  C   UNL     1     132.377 136.319 153.321  1.00  0.00     0.162 A 
ATOM     15  C   UNL     1     131.718 133.595 153.440  1.00  0.00     0.062 A 
ATOM     16  C   UNL     1     132.394 135.642 154.564  1.00  0.00     0.200 A 
ATOM     17  C   UNL     1     132.056 134.277 154.612  1.00  0.00     0.162 A 
BRANCH  14  18
ATOM     18  O   UNL     1     132.680 137.676 153.195  1.00  0.00    -0.504 OA
ATOM     19  H   UNL     1     133.393 138.043 152.582  1.00  0.00     0.293 HD
ENDBRANCH  14  18
BRANCH  16  20
ATOM     20  O   UNL     1     132.735 136.285 155.757  1.00  0.00    -0.502 OA
ATOM     21  H   UNL     1     132.117 136.899 156.267  1.00  0.00     0.293 HD
ENDBRANCH  16  20
BRANCH  17  22
ATOM     22  O   UNL     1     132.049 133.578 155.819  1.00  0.00    -0.504 OA
ATOM     23  H   UNL     1     131.656 132.649 155.903  1.00  0.00     0.293 HD
ENDBRANCH  17  22
ENDBRANCH   1  12
BRANCH   2  24
ATOM     24  O   UNL     1     133.485 133.950 149.914  1.00  0.00    -0.502 OA
ATOM     25  H   UNL     1     134.323 133.392 149.806  1.00  0.00     0.293 HD
ENDBRANCH   2  24
BRANCH   6  26
ATOM     26  O   UNL     1     130.717 131.196 146.479  1.00  0.00    -0.507 OA
ATOM     27  H   UNL     1     130.335 130.731 145.663  1.00  0.00     0.293 HD
ENDBRANCH   6  26
BRANCH   8  28
ATOM     28  O   UNL     1     126.654 130.360 148.943  1.00  0.00    -0.508 OA
ATOM     29  H   UNL     1     126.069 130.282 148.120  1.00  0.00     0.293 HD
ENDBRANCH   8  28
TORSDOF 7
ENDMDL
MODEL 7
REMARK VINA RESULT:    -7.217      1.660      7.065
REMARK INTER + INTRA:          -9.254
REMARK INTER:                  -8.986
REMARK INTRA:                  -0.268
REMARK UNBOUND:                -0.349
REMARK SMILES O=c1c(O)c(-c2cc(O)c(O)c(O)c2)oc2cc(O)cc(O)c12
REMARK SMILES IDX 5 1 3 2 2 3 1 4 23 5 21 6 20 7 18 8 17 9 16 10 15 11 6 12
REMARK SMILES IDX 7 13 8 14 14 15 10 16 12 17 9 18 11 20 13 22 4 24 22 26
REMARK SMILES IDX 19 28
REMARK H PARENT 9 19 11 21 13 23 4 25 22 27 19 29
REMARK Flexibility Score: inf
ROOT
ATOM      1  C   UNL     1     131.977 134.900 154.140  1.00  0.00     0.180 A 
ATOM      2  C   UNL     1     130.935 135.840 154.253  1.00  0.00     0.208 A 
ATOM      3  C   UNL     1     131.252 137.170 154.564  1.00  0.00     0.238 A 
ATOM      4  O   UNL     1     130.327 138.023 154.659  1.00  0.00    -0.285 OA
ATOM      5  C   UNL     1     132.597 137.535 154.777  1.00  0.00     0.111 A 
ATOM      6  C   UNL     1     133.001 138.854 155.099  1.00  0.00     0.134 A 
ATOM      7  C   UNL     1     134.360 139.135 155.303  1.00  0.00     0.093 A 
ATOM      8  C   UNL     1     135.320 138.127 155.195  1.00  0.00     0.123 A 
ATOM      9  C   UNL     1     134.928 136.823 154.876  1.00  0.00     0.094 A 
ATOM     10  C   UNL     1     133.579 136.522 154.666  1.00  0.00     0.146 A 
ATOM     11  O   UNL     1     133.233 135.276 154.360  1.00  0.00    -0.452 OA
ENDROOT
BRANCH   1  12
ATOM     12  C   UNL     1     131.725 133.482 153.795  1.00  0.00     0.029 A 
ATOM     13  C   UNL     1     131.121 132.604 154.711  1.00  0.00     0.062 A 
ATOM     14  C   UNL     1     130.864 131.271 154.367  1.00  0.00     0.162 A 
ATOM     15  C   UNL     1     132.038 133.017 152.512  1.00  0.00     0.062 A 
ATOM     16  C   UNL     1     131.210 130.802 153.077  1.00  0.00     0.200 A 
ATOM     17  C   UNL     1     131.793 131.689 152.153  1.00  0.00     0.162 A 
BRANCH  14  18
ATOM     18  O   UNL     1     130.264 130.458 155.331  1.00  0.00    -0.504 OA
ATOM     19  H   UNL     1     130.460 130.512 156.319  1.00  0.00     0.293 HD
ENDBRANCH  14  18
BRANCH  16  20
ATOM     20  O   UNL     1     130.989 129.480 152.682  1.00  0.00    -0.502 OA
ATOM     21  H   UNL     1     131.708 128.772 152.644  1.00  0.00     0.293 HD
ENDBRANCH  16  20
BRANCH  17  22
ATOM     22  O   UNL     1     132.137 131.268 150.868  1.00  0.00    -0.504 OA
ATOM     23  H   UNL     1     132.319 130.296 150.648  1.00  0.00     0.293 HD
ENDBRANCH  17  22
ENDBRANCH   1  12
BRANCH   2  24
ATOM     24  O   UNL     1     129.605 135.442 154.086  1.00  0.00    -0.502 OA
ATOM     25  H   UNL     1     128.838 135.900 154.563  1.00  0.00     0.293 HD
ENDBRANCH   2  24
BRANCH   6  26
ATOM     26  O   UNL     1     132.066 139.883 155.216  1.00  0.00    -0.507 OA
ATOM     27  H   UNL     1     131.693 140.359 154.404  1.00  0.00     0.293 HD
ENDBRANCH   6  26
BRANCH   8  28
ATOM     28  O   UNL     1     136.664 138.432 155.404  1.00  0.00    -0.508 OA
ATOM     29  H   UNL     1     137.331 137.723 155.683  1.00  0.00     0.293 HD
ENDBRANCH   8  28
TORSDOF 7
ENDMDL
MODEL 8
REMARK VINA RESULT:    -7.167      2.695      7.156
REMARK INTER + INTRA:          -9.193
REMARK INTER:                  -8.852
REMARK INTRA:                  -0.340
REMARK UNBOUND:                -0.349
REMARK SMILES O=c1c(O)c(-c2cc(O)c(O)c(O)c2)oc2cc(O)cc(O)c12
REMARK SMILES IDX 5 1 3 2 2 3 1 4 23 5 21 6 20 7 18 8 17 9 16 10 15 11 6 12
REMARK SMILES IDX 7 13 8 14 14 15 10 16 12 17 9 18 11 20 13 22 4 24 22 26
REMARK SMILES IDX 19 28
REMARK H PARENT 9 19 11 21 13 23 4 25 22 27 19 29
REMARK Flexibility Score: inf
ROOT
ATOM      1  C   UNL     1     130.943 136.176 153.927  1.00  0.00     0.180 A 
ATOM      2  C   UNL     1     129.617 136.568 154.193  1.00  0.00     0.208 A 
ATOM      3  C   UNL     1     129.391 137.747 154.919  1.00  0.00     0.238 A 
ATOM      4  O   UNL     1     128.207 138.113 155.154  1.00  0.00    -0.285 OA
ATOM      5  C   UNL     1     130.489 138.501 155.384  1.00  0.00     0.111 A 
ATOM      6  C   UNL     1     130.347 139.699 156.126  1.00  0.00     0.134 A 
ATOM      7  C   UNL     1     131.489 140.387 156.561  1.00  0.00     0.093 A 
ATOM      8  C   UNL     1     132.766 139.903 156.270  1.00  0.00     0.123 A 
ATOM      9  C   UNL     1     132.913 138.721 155.536  1.00  0.00     0.094 A 
ATOM     10  C   UNL     1     131.787 138.021 155.092  1.00  0.00     0.146 A 
ATOM     11  O   UNL     1     131.954 136.904 154.393  1.00  0.00    -0.452 OA
ENDROOT
BRANCH   1  12
ATOM     12  C   UNL     1     131.263 134.955 153.152  1.00  0.00     0.029 A 
ATOM     13  C   UNL     1     131.597 135.022 151.789  1.00  0.00     0.062 A 
ATOM     14  C   UNL     1     131.921 133.865 151.071  1.00  0.00     0.162 A 
ATOM     15  C   UNL     1     131.291 133.714 153.800  1.00  0.00     0.062 A 
ATOM     16  C   UNL     1     131.920 132.611 151.726  1.00  0.00     0.200 A 
ATOM     17  C   UNL     1     131.608 132.548 153.097  1.00  0.00     0.162 A 
BRANCH  14  18
ATOM     18  O   UNL     1     132.241 134.010 149.719  1.00  0.00    -0.504 OA
ATOM     19  H   UNL     1     132.902 134.685 149.362  1.00  0.00     0.293 HD
ENDBRANCH  14  18
BRANCH  16  20
ATOM     20  O   UNL     1     132.223 131.421 151.059  1.00  0.00    -0.502 OA
ATOM     21  H   UNL     1     132.580 131.374 150.116  1.00  0.00     0.293 HD
ENDBRANCH  16  20
BRANCH  17  22
ATOM     22  O   UNL     1     131.608 131.333 153.782  1.00  0.00    -0.504 OA
ATOM     23  H   UNL     1     131.873 131.262 154.757  1.00  0.00     0.293 HD
ENDBRANCH  17  22
ENDBRANCH   1  12
BRANCH   2  24
ATOM     24  O   UNL     1     128.548 135.777 153.763  1.00  0.00    -0.502 OA
ATOM     25  H   UNL     1     128.683 134.912 153.254  1.00  0.00     0.293 HD
ENDBRANCH   2  24
BRANCH   6  26
ATOM     26  O   UNL     1     129.085 140.207 156.435  1.00  0.00    -0.507 OA
ATOM     27  H   UNL     1     128.894 141.202 156.424  1.00  0.00     0.293 HD
ENDBRANCH   6  26
BRANCH   8  28
ATOM     28  O   UNL     1     133.885 140.605 156.714  1.00  0.00    -0.508 OA
ATOM     29  H   UNL     1     134.632 140.867 156.081  1.00  0.00     0.293 HD
ENDBRANCH   8  28
TORSDOF 7
ENDMDL
MODEL 9
REMARK VINA RESULT:    -7.150      1.754      6.882
REMARK INTER + INTRA:          -9.172
REMARK INTER:                  -8.948
REMARK INTRA:                  -0.223
REMARK UNBOUND:                -0.349
REMARK SMILES O=c1c(O)c(-c2cc(O)c(O)c(O)c2)oc2cc(O)cc(O)c12
REMARK SMILES IDX 5 1 3 2 2 3 1 4 23 5 21 6 20 7 18 8 17 9 16 10 15 11 6 12
REMARK SMILES IDX 7 13 8 14 14 15 10 16 12 17 9 18 11 20 13 22 4 24 22 26
REMARK SMILES IDX 19 28
REMARK H PARENT 9 19 11 21 13 23 4 25 22 27 19 29
REMARK Flexibility Score: inf
ROOT
ATOM      1  C   UNL     1     131.403 134.055 152.440  1.00  0.00     0.180 A 
ATOM      2  C   UNL     1     131.343 133.429 153.700  1.00  0.00     0.208 A 
ATOM      3  C   UNL     1     131.673 134.173 154.842  1.00  0.00     0.238 A 
ATOM      4  O   UNL     1     131.614 133.626 155.977  1.00  0.00    -0.285 OA
ATOM      5  C   UNL     1     132.077 135.517 154.706  1.00  0.00     0.111 A 
ATOM      6  C   UNL     1     132.430 136.335 155.808  1.00  0.00     0.134 A 
ATOM      7  C   UNL     1     132.829 137.662 155.589  1.00  0.00     0.093 A 
ATOM      8  C   UNL     1     132.882 138.186 154.295  1.00  0.00     0.123 A 
ATOM      9  C   UNL     1     132.534 137.383 153.204  1.00  0.00     0.094 A 
ATOM     10  C   UNL     1     132.131 136.059 153.401  1.00  0.00     0.146 A 
ATOM     11  O   UNL     1     131.801 135.320 152.348  1.00  0.00    -0.452 OA
ENDROOT
BRANCH   1  12
ATOM     12  C   UNL     1     131.052 133.342 151.189  1.00  0.00     0.029 A 
ATOM     13  C   UNL     1     129.747 132.879 150.954  1.00  0.00     0.062 A 
ATOM     14  C   UNL     1     129.419 132.229 149.759  1.00  0.00     0.162 A 
ATOM     15  C   UNL     1     132.023 133.176 150.194  1.00  0.00     0.062 A 
ATOM     16  C   UNL     1     130.413 132.040 148.769  1.00  0.00     0.200 A 
ATOM     17  C   UNL     1     131.714 132.525 148.996  1.00  0.00     0.162 A 
BRANCH  14  18
ATOM     18  O   UNL     1     128.101 131.795 149.598  1.00  0.00    -0.504 OA
ATOM     19  H   UNL     1     127.614 131.207 150.258  1.00  0.00     0.293 HD
ENDBRANCH  14  18
BRANCH  16  20
ATOM     20  O   UNL     1     130.149 131.387 147.562  1.00  0.00    -0.502 OA
ATOM     21  H   UNL     1     129.324 130.832 147.386  1.00  0.00     0.293 HD
ENDBRANCH  16  20
BRANCH  17  22
ATOM     22  O   UNL     1     132.719 132.369 148.041  1.00  0.00    -0.504 OA
ATOM     23  H   UNL     1     132.695 132.847 147.148  1.00  0.00     0.293 HD
ENDBRANCH  17  22
ENDBRANCH   1  12
BRANCH   2  24
ATOM     24  O   UNL     1     130.988 132.081 153.802  1.00  0.00    -0.502 OA
ATOM     25  H   UNL     1     131.556 131.407 154.303  1.00  0.00     0.293 HD
ENDBRANCH   2  24
BRANCH   6  26
ATOM     26  O   UNL     1     132.388 135.841 157.112  1.00  0.00    -0.507 OA
ATOM     27  H   UNL     1     133.164 135.963 157.753  1.00  0.00     0.293 HD
ENDBRANCH   6  26
BRANCH   8  28
ATOM     28  O   UNL     1     133.283 139.507 154.105  1.00  0.00    -0.508 OA
ATOM     29  H   UNL     1     132.637 140.214 153.776  1.00  0.00     0.293 HD
ENDBRANCH   8  28
TORSDOF 7
ENDMDL
