MODEL 1
REMARK VINA RESULT:    -5.583      0.000      0.000
REMARK INTER + INTRA:          -9.358
REMARK INTER:                  -7.378
REMARK INTRA:                  -1.981
REMARK UNBOUND:                -1.981
REMARK SMILES CC[C@@H](C=C[C@@H](C)[C@H]1CC[C@@H]2[C@H]3CC=C4C[C@H](O)CC[C@@]4(C)[C@H]3CC[C@@]21C)C(C)C
REMARK SMILES IDX 6 1 7 2 5 3 4 4 3 5 2 6 1 7 28 8 29 9 30 10 8 11 9 12 26 13
REMARK SMILES IDX 10 14 11 15 25 16 27 17 12 18 24 19 23 20 13 21 21 22 14 23
REMARK SMILES IDX 15 24 20 25 22 26 16 27 19 28 17 29 18 30
REMARK H PARENT 18 31
REMARK Flexibility Score: inf
ROOT
ATOM      1  C   UNL     1      -6.212  27.222  44.775  1.00  0.00     0.012 C 
ATOM      2  C   UNL     1      -5.700  25.781  44.586  1.00  0.00     0.012 C 
ENDROOT
BRANCH   1   3
ATOM      3  C   UNL     1      -6.151  27.601  46.251  1.00  0.00    -0.028 C 
ATOM      4  C   UNL     1      -5.776  28.796  46.758  1.00  0.00    -0.027 C 
BRANCH   4   5
ATOM      5  C   UNL     1      -5.317  30.018  45.975  1.00  0.00     0.014 C 
BRANCH   5   6
ATOM      6  C   UNL     1      -3.904  30.424  46.475  1.00  0.00     0.004 C 
ATOM      7  C   UNL     1      -3.877  31.747  47.248  1.00  0.00     0.004 C 
ENDBRANCH   5   6
BRANCH   5   8
ATOM      8  C   UNL     1      -6.329  31.195  46.178  1.00  0.00    -0.011 C 
ATOM      9  C   UNL     1      -7.531  30.773  47.041  1.00  0.00     0.008 C 
ATOM     10  C   UNL     1      -6.856  31.750  44.840  1.00  0.00     0.008 C 
ENDBRANCH   5   8
ENDBRANCH   4   5
ENDBRANCH   1   3
BRANCH   1  11
ATOM     11  C   UNL     1      -7.651  27.352  44.151  1.00  0.00     0.002 C 
ATOM     12  C   UNL     1      -8.668  28.077  45.054  1.00  0.00     0.005 C 
ATOM     13  C   UNL     1      -7.787  27.979  42.711  1.00  0.00    -0.026 C 
ATOM     14  C   UNL     1      -9.215  29.236  44.247  1.00  0.00     0.005 C 
ATOM     15  C   UNL     1      -9.070  28.859  42.765  1.00  0.00    -0.001 C 
ATOM     16  C   UNL     1      -7.878  26.874  41.623  1.00  0.00     0.007 C 
ATOM     17  C   UNL     1      -6.599  28.896  42.326  1.00  0.00     0.012 C 
ATOM     18  C   UNL     1     -10.365  28.192  42.188  1.00  0.00     0.000 C 
ATOM     19  C   UNL     1      -9.155  26.008  41.659  1.00  0.00     0.005 C 
ATOM     20  C   UNL     1     -10.386  26.653  42.357  1.00  0.00     0.003 C 
ATOM     21  C   UNL     1     -10.599  28.580  40.710  1.00  0.00     0.031 C 
ATOM     22  C   UNL     1     -11.769  26.059  41.880  1.00  0.00    -0.008 C 
ATOM     23  C   UNL     1     -11.665  27.760  40.026  1.00  0.00    -0.027 C 
ATOM     24  C   UNL     1     -12.112  26.564  40.475  1.00  0.00    -0.065 C 
ATOM     25  C   UNL     1     -11.737  24.490  41.910  1.00  0.00     0.014 C 
ATOM     26  C   UNL     1     -12.895  26.530  42.845  1.00  0.00     0.016 C 
ATOM     27  C   UNL     1     -13.191  25.852  39.683  1.00  0.00     0.063 C 
ATOM     28  C   UNL     1     -12.919  23.831  41.179  1.00  0.00     0.033 C 
ATOM     29  C   UNL     1     -13.000  24.329  39.731  1.00  0.00     0.118 C 
BRANCH  29  30
ATOM     30  O   UNL     1     -14.034  23.674  39.039  1.00  0.00    -0.393 OA
ATOM     31  H   UNL     1     -13.792  22.711  38.972  1.00  0.00     0.210 HD
ENDBRANCH  29  30
ENDBRANCH   1  11
TORSDOF 6
ENDMDL
MODEL 2
REMARK VINA RESULT:    -5.233      8.499     11.437
REMARK INTER + INTRA:          -8.897
REMARK INTER:                  -6.749
REMARK INTRA:                  -2.147
REMARK UNBOUND:                -1.981
REMARK SMILES CC[C@@H](C=C[C@@H](C)[C@H]1CC[C@@H]2[C@H]3CC=C4C[C@H](O)CC[C@@]4(C)[C@H]3CC[C@@]21C)C(C)C
REMARK SMILES IDX 6 1 7 2 5 3 4 4 3 5 2 6 1 7 28 8 29 9 30 10 8 11 9 12 26 13
REMARK SMILES IDX 10 14 11 15 25 16 27 17 12 18 24 19 23 20 13 21 21 22 14 23
REMARK SMILES IDX 15 24 20 25 22 26 16 27 19 28 17 29 18 30
REMARK H PARENT 18 31
REMARK Flexibility Score: inf
ROOT
ATOM      1  C   UNL     1      -7.651  19.925  39.373  1.00  0.00     0.012 C 
ATOM      2  C   UNL     1      -8.220  21.087  40.207  1.00  0.00     0.012 C 
ENDROOT
BRANCH   1   3
ATOM      3  C   UNL     1      -6.152  19.795  39.626  1.00  0.00    -0.028 C 
ATOM      4  C   UNL     1      -5.454  18.643  39.741  1.00  0.00    -0.027 C 
BRANCH   4   5
ATOM      5  C   UNL     1      -6.007  17.227  39.663  1.00  0.00     0.014 C 
BRANCH   5   6
ATOM      6  C   UNL     1      -5.777  16.530  41.031  1.00  0.00     0.004 C 
ATOM      7  C   UNL     1      -4.534  17.026  41.777  1.00  0.00     0.004 C 
ENDBRANCH   5   6
BRANCH   5   8
ATOM      8  C   UNL     1      -5.292  16.436  38.517  1.00  0.00    -0.011 C 
ATOM      9  C   UNL     1      -4.307  17.324  37.737  1.00  0.00     0.008 C 
ATOM     10  C   UNL     1      -6.293  15.819  37.520  1.00  0.00     0.008 C 
ENDBRANCH   5   8
ENDBRANCH   4   5
ENDBRANCH   1   3
BRANCH   1  11
ATOM     11  C   UNL     1      -8.017  20.139  37.857  1.00  0.00     0.002 C 
ATOM     12  C   UNL     1      -6.797  20.219  36.917  1.00  0.00     0.005 C 
ATOM     13  C   UNL     1      -9.048  19.151  37.190  1.00  0.00    -0.026 C 
ATOM     14  C   UNL     1      -6.995  19.150  35.862  1.00  0.00     0.005 C 
ATOM     15  C   UNL     1      -8.506  18.902  35.752  1.00  0.00    -0.001 C 
ATOM     16  C   UNL     1     -10.479  19.754  37.182  1.00  0.00     0.007 C 
ATOM     17  C   UNL     1      -9.138  17.781  37.908  1.00  0.00     0.012 C 
ATOM     18  C   UNL     1      -9.174  19.762  34.625  1.00  0.00     0.000 C 
ATOM     19  C   UNL     1     -10.676  20.992  36.282  1.00  0.00     0.005 C 
ATOM     20  C   UNL     1      -9.654  21.149  35.120  1.00  0.00     0.003 C 
ATOM     21  C   UNL     1     -10.328  19.003  33.933  1.00  0.00     0.031 C 
ATOM     22  C   UNL     1     -10.192  22.015  33.915  1.00  0.00    -0.008 C 
ATOM     23  C   UNL     1     -11.179  19.870  33.038  1.00  0.00    -0.027 C 
ATOM     24  C   UNL     1     -11.220  21.221  33.103  1.00  0.00    -0.065 C 
ATOM     25  C   UNL     1     -10.815  23.358  34.434  1.00  0.00     0.014 C 
ATOM     26  C   UNL     1      -9.011  22.374  32.968  1.00  0.00     0.016 C 
ATOM     27  C   UNL     1     -12.122  21.964  32.137  1.00  0.00     0.063 C 
ATOM     28  C   UNL     1     -11.630  24.116  33.372  1.00  0.00     0.033 C 
ATOM     29  C   UNL     1     -12.727  23.214  32.793  1.00  0.00     0.118 C 
BRANCH  29  30
ATOM     30  O   UNL     1     -13.520  23.926  31.875  1.00  0.00    -0.393 OA
ATOM     31  H   UNL     1     -14.154  23.282  31.459  1.00  0.00     0.210 HD
ENDBRANCH  29  30
ENDBRANCH   1  11
TORSDOF 6
ENDMDL
MODEL 3
REMARK VINA RESULT:    -5.161      1.082      1.219
REMARK INTER + INTRA:          -8.801
REMARK INTER:                  -6.608
REMARK INTRA:                  -2.193
REMARK UNBOUND:                -1.981
REMARK SMILES CC[C@@H](C=C[C@@H](C)[C@H]1CC[C@@H]2[C@H]3CC=C4C[C@H](O)CC[C@@]4(C)[C@H]3CC[C@@]21C)C(C)C
REMARK SMILES IDX 6 1 7 2 5 3 4 4 3 5 2 6 1 7 28 8 29 9 30 10 8 11 9 12 26 13
REMARK SMILES IDX 10 14 11 15 25 16 27 17 12 18 24 19 23 20 13 21 21 22 14 23
REMARK SMILES IDX 15 24 20 25 22 26 16 27 19 28 17 29 18 30
REMARK H PARENT 18 31
REMARK Flexibility Score: inf
ROOT
ATOM      1  C   UNL     1      -6.477  28.246  45.683  1.00  0.00     0.012 C 
ATOM      2  C   UNL     1      -6.260  26.786  46.124  1.00  0.00     0.012 C 
ENDROOT
BRANCH   1   3
ATOM      3  C   UNL     1      -6.657  29.134  46.910  1.00  0.00    -0.028 C 
ATOM      4  C   UNL     1      -6.197  30.395  47.063  1.00  0.00    -0.027 C 
BRANCH   4   5
ATOM      5  C   UNL     1      -5.386  31.200  46.057  1.00  0.00     0.014 C 
BRANCH   5   6
ATOM      6  C   UNL     1      -3.983  31.479  46.664  1.00  0.00     0.004 C 
ATOM      7  C   UNL     1      -3.945  32.686  47.607  1.00  0.00     0.004 C 
ENDBRANCH   5   6
BRANCH   5   8
ATOM      8  C   UNL     1      -6.119  32.544  45.731  1.00  0.00    -0.011 C 
ATOM      9  C   UNL     1      -7.506  32.615  46.394  1.00  0.00     0.008 C 
ATOM     10  C   UNL     1      -6.287  32.765  44.215  1.00  0.00     0.008 C 
ENDBRANCH   5   8
ENDBRANCH   4   5
ENDBRANCH   1   3
BRANCH   1  11
ATOM     11  C   UNL     1      -7.683  28.314  44.674  1.00  0.00     0.002 C 
ATOM     12  C   UNL     1      -8.799  29.294  45.088  1.00  0.00     0.005 C 
ATOM     13  C   UNL     1      -7.370  28.591  43.154  1.00  0.00    -0.026 C 
ATOM     14  C   UNL     1      -8.975  30.261  43.936  1.00  0.00     0.005 C 
ATOM     15  C   UNL     1      -8.508  29.536  42.666  1.00  0.00    -0.001 C 
ATOM     16  C   UNL     1      -7.318  27.267  42.341  1.00  0.00     0.007 C 
ATOM     17  C   UNL     1      -6.020  29.315  42.926  1.00  0.00     0.012 C 
ATOM     18  C   UNL     1      -9.685  28.833  41.908  1.00  0.00     0.000 C 
ATOM     19  C   UNL     1      -8.659  26.515  42.206  1.00  0.00     0.005 C 
ATOM     20  C   UNL     1      -9.938  27.382  42.386  1.00  0.00     0.003 C 
ATOM     21  C   UNL     1      -9.487  28.875  40.377  1.00  0.00     0.031 C 
ATOM     22  C   UNL     1     -11.216  26.779  41.683  1.00  0.00    -0.008 C 
ATOM     23  C   UNL     1     -10.437  27.984  39.614  1.00  0.00    -0.027 C 
ATOM     24  C   UNL     1     -11.127  26.959  40.164  1.00  0.00    -0.065 C 
ATOM     25  C   UNL     1     -11.387  25.263  42.051  1.00  0.00     0.014 C 
ATOM     26  C   UNL     1     -12.484  27.534  42.179  1.00  0.00     0.016 C 
ATOM     27  C   UNL     1     -12.049  26.148  39.275  1.00  0.00     0.063 C 
ATOM     28  C   UNL     1     -12.417  24.524  41.179  1.00  0.00     0.033 C 
ATOM     29  C   UNL     1     -12.065  24.670  39.694  1.00  0.00     0.118 C 
BRANCH  29  30
ATOM     30  O   UNL     1     -12.962  23.936  38.898  1.00  0.00    -0.393 OA
ATOM     31  H   UNL     1     -13.549  24.585  38.423  1.00  0.00     0.210 HD
ENDBRANCH  29  30
ENDBRANCH   1  11
TORSDOF 6
ENDMDL
MODEL 4
REMARK VINA RESULT:    -5.143      1.691      4.370
REMARK INTER + INTRA:          -8.777
REMARK INTER:                  -6.898
REMARK INTRA:                  -1.879
REMARK UNBOUND:                -1.981
REMARK SMILES CC[C@@H](C=C[C@@H](C)[C@H]1CC[C@@H]2[C@H]3CC=C4C[C@H](O)CC[C@@]4(C)[C@H]3CC[C@@]21C)C(C)C
REMARK SMILES IDX 6 1 7 2 5 3 4 4 3 5 2 6 1 7 28 8 29 9 30 10 8 11 9 12 26 13
REMARK SMILES IDX 10 14 11 15 25 16 27 17 12 18 24 19 23 20 13 21 21 22 14 23
REMARK SMILES IDX 15 24 20 25 22 26 16 27 19 28 17 29 18 30
REMARK H PARENT 18 31
REMARK Flexibility Score: inf
ROOT
ATOM      1  C   UNL     1      -9.731  29.323  42.172  1.00  0.00     0.012 C 
ATOM      2  C   UNL     1     -10.290  30.540  41.412  1.00  0.00     0.012 C 
ENDROOT
BRANCH   1   3
ATOM      3  C   UNL     1      -8.206  29.364  42.160  1.00  0.00    -0.028 C 
ATOM      4  C   UNL     1      -7.387  29.093  43.200  1.00  0.00    -0.027 C 
BRANCH   4   5
ATOM      5  C   UNL     1      -7.801  28.706  44.613  1.00  0.00     0.014 C 
BRANCH   5   6
ATOM      6  C   UNL     1      -7.129  29.688  45.611  1.00  0.00     0.004 C 
ATOM      7  C   UNL     1      -8.120  30.417  46.524  1.00  0.00     0.004 C 
ENDBRANCH   5   6
BRANCH   5   8
ATOM      8  C   UNL     1      -7.364  27.234  44.914  1.00  0.00    -0.011 C 
ATOM      9  C   UNL     1      -6.475  27.146  46.166  1.00  0.00     0.008 C 
ATOM     10  C   UNL     1      -6.611  26.594  43.731  1.00  0.00     0.008 C 
ENDBRANCH   5   8
ENDBRANCH   4   5
ENDBRANCH   1   3
BRANCH   1  11
ATOM     11  C   UNL     1     -10.330  28.003  41.561  1.00  0.00     0.002 C 
ATOM     12  C   UNL     1      -9.286  27.085  40.893  1.00  0.00     0.005 C 
ATOM     13  C   UNL     1     -11.221  27.088  42.485  1.00  0.00    -0.026 C 
ATOM     14  C   UNL     1      -9.404  25.734  41.568  1.00  0.00     0.005 C 
ATOM     15  C   UNL     1     -10.836  25.627  42.111  1.00  0.00    -0.001 C 
ATOM     16  C   UNL     1     -12.733  27.372  42.265  1.00  0.00     0.007 C 
ATOM     17  C   UNL     1     -10.939  27.282  43.996  1.00  0.00     0.012 C 
ATOM     18  C   UNL     1     -11.806  24.914  41.108  1.00  0.00     0.000 C 
ATOM     19  C   UNL     1     -13.291  26.977  40.882  1.00  0.00     0.005 C 
ATOM     20  C   UNL     1     -12.484  25.890  40.116  1.00  0.00     0.003 C 
ATOM     21  C   UNL     1     -12.865  24.063  41.843  1.00  0.00     0.031 C 
ATOM     22  C   UNL     1     -13.339  25.098  39.051  1.00  0.00    -0.008 C 
ATOM     23  C   UNL     1     -13.984  23.578  40.953  1.00  0.00    -0.027 C 
ATOM     24  C   UNL     1     -14.286  24.116  39.749  1.00  0.00    -0.065 C 
ATOM     25  C   UNL     1     -14.144  26.090  38.140  1.00  0.00     0.014 C 
ATOM     26  C   UNL     1     -12.389  24.274  38.134  1.00  0.00     0.016 C 
ATOM     27  C   UNL     1     -15.438  23.525  38.962  1.00  0.00     0.063 C 
ATOM     28  C   UNL     1     -15.227  25.409  37.286  1.00  0.00     0.033 C 
ATOM     29  C   UNL     1     -16.189  24.611  38.176  1.00  0.00     0.118 C 
BRANCH  29  30
ATOM     30  O   UNL     1     -17.223  24.047  37.407  1.00  0.00    -0.393 OA
ATOM     31  H   UNL     1     -17.336  23.102  37.697  1.00  0.00     0.210 HD
ENDBRANCH  29  30
ENDBRANCH   1  11
TORSDOF 6
ENDMDL
MODEL 5
REMARK VINA RESULT:    -5.127     10.090     12.855
REMARK INTER + INTRA:          -8.755
REMARK INTER:                  -6.578
REMARK INTRA:                  -2.177
REMARK UNBOUND:                -1.981
REMARK SMILES CC[C@@H](C=C[C@@H](C)[C@H]1CC[C@@H]2[C@H]3CC=C4C[C@H](O)CC[C@@]4(C)[C@H]3CC[C@@]21C)C(C)C
REMARK SMILES IDX 6 1 7 2 5 3 4 4 3 5 2 6 1 7 28 8 29 9 30 10 8 11 9 12 26 13
REMARK SMILES IDX 10 14 11 15 25 16 27 17 12 18 24 19 23 20 13 21 21 22 14 23
REMARK SMILES IDX 15 24 20 25 22 26 16 27 19 28 17 29 18 30
REMARK H PARENT 18 31
REMARK Flexibility Score: inf
ROOT
ATOM      1  C   UNL     1     -13.291  26.606  34.305  1.00  0.00     0.012 C 
ATOM      2  C   UNL     1     -12.038  27.428  34.661  1.00  0.00     0.012 C 
ENDROOT
BRANCH   1   3
ATOM      3  C   UNL     1     -14.422  26.947  35.270  1.00  0.00    -0.028 C 
ATOM      4  C   UNL     1     -15.745  26.923  34.997  1.00  0.00    -0.027 C 
BRANCH   4   5
ATOM      5  C   UNL     1     -16.398  26.569  33.668  1.00  0.00     0.014 C 
BRANCH   5   6
ATOM      6  C   UNL     1     -16.959  27.870  33.031  1.00  0.00     0.004 C 
ATOM      7  C   UNL     1     -15.877  28.837  32.541  1.00  0.00     0.004 C 
ENDBRANCH   5   6
BRANCH   5   8
ATOM      8  C   UNL     1     -17.547  25.531  33.895  1.00  0.00    -0.011 C 
ATOM      9  C   UNL     1     -17.536  24.970  35.328  1.00  0.00     0.008 C 
ATOM     10  C   UNL     1     -17.473  24.351  32.906  1.00  0.00     0.008 C 
ENDBRANCH   5   8
ENDBRANCH   4   5
ENDBRANCH   1   3
BRANCH   1  11
ATOM     11  C   UNL     1     -12.924  25.076  34.281  1.00  0.00     0.002 C 
ATOM     12  C   UNL     1     -13.662  24.232  35.340  1.00  0.00     0.005 C 
ATOM     13  C   UNL     1     -13.039  24.301  32.913  1.00  0.00    -0.026 C 
ATOM     14  C   UNL     1     -14.380  23.129  34.589  1.00  0.00     0.005 C 
ATOM     15  C   UNL     1     -13.607  22.899  33.282  1.00  0.00    -0.001 C 
ATOM     16  C   UNL     1     -11.661  24.208  32.202  1.00  0.00     0.007 C 
ATOM     17  C   UNL     1     -14.020  24.963  31.914  1.00  0.00     0.012 C 
ATOM     18  C   UNL     1     -12.543  21.756  33.408  1.00  0.00     0.000 C 
ATOM     19  C   UNL     1     -10.602  23.338  32.913  1.00  0.00     0.005 C 
ATOM     20  C   UNL     1     -11.159  22.261  33.887  1.00  0.00     0.003 C 
ATOM     21  C   UNL     1     -12.405  20.955  32.095  1.00  0.00     0.031 C 
ATOM     22  C   UNL     1     -10.175  21.050  34.122  1.00  0.00    -0.008 C 
ATOM     23  C   UNL     1     -11.213  20.030  32.067  1.00  0.00    -0.027 C 
ATOM     24  C   UNL     1     -10.146  20.137  32.892  1.00  0.00    -0.065 C 
ATOM     25  C   UNL     1      -8.733  21.567  34.461  1.00  0.00     0.014 C 
ATOM     26  C   UNL     1     -10.674  20.205  35.330  1.00  0.00     0.016 C 
ATOM     27  C   UNL     1      -9.019  19.133  32.751  1.00  0.00     0.063 C 
ATOM     28  C   UNL     1      -7.652  20.474  34.405  1.00  0.00     0.033 C 
ATOM     29  C   UNL     1      -7.657  19.785  33.034  1.00  0.00     0.118 C 
BRANCH  29  30
ATOM     30  O   UNL     1      -6.623  18.836  32.953  1.00  0.00    -0.393 OA
ATOM     31  H   UNL     1      -5.766  19.329  32.835  1.00  0.00     0.210 HD
ENDBRANCH  29  30
ENDBRANCH   1  11
TORSDOF 6
ENDMDL
MODEL 6
REMARK VINA RESULT:    -5.099      1.588      3.327
REMARK INTER + INTRA:          -8.719
REMARK INTER:                  -7.460
REMARK INTRA:                  -1.260
REMARK UNBOUND:                -1.981
REMARK SMILES CC[C@@H](C=C[C@@H](C)[C@H]1CC[C@@H]2[C@H]3CC=C4C[C@H](O)CC[C@@]4(C)[C@H]3CC[C@@]21C)C(C)C
REMARK SMILES IDX 6 1 7 2 5 3 4 4 3 5 2 6 1 7 28 8 29 9 30 10 8 11 9 12 26 13
REMARK SMILES IDX 10 14 11 15 25 16 27 17 12 18 24 19 23 20 13 21 21 22 14 23
REMARK SMILES IDX 15 24 20 25 22 26 16 27 19 28 17 29 18 30
REMARK H PARENT 18 31
REMARK Flexibility Score: inf
ROOT
ATOM      1  C   UNL     1      -7.247  30.806  46.030  1.00  0.00     0.012 C 
ATOM      2  C   UNL     1      -8.000  30.308  47.278  1.00  0.00     0.012 C 
ENDROOT
BRANCH   1   3
ATOM      3  C   UNL     1      -7.354  32.325  45.935  1.00  0.00    -0.028 C 
ATOM      4  C   UNL     1      -6.616  33.226  46.620  1.00  0.00    -0.027 C 
BRANCH   4   5
ATOM      5  C   UNL     1      -5.531  32.929  47.645  1.00  0.00     0.014 C 
BRANCH   5   6
ATOM      6  C   UNL     1      -5.405  34.149  48.598  1.00  0.00     0.004 C 
ATOM      7  C   UNL     1      -6.216  34.012  49.890  1.00  0.00     0.004 C 
ENDBRANCH   5   6
BRANCH   5   8
ATOM      8  C   UNL     1      -4.170  32.657  46.921  1.00  0.00    -0.011 C 
ATOM      9  C   UNL     1      -4.127  33.300  45.524  1.00  0.00     0.008 C 
ATOM     10  C   UNL     1      -3.875  31.151  46.778  1.00  0.00     0.008 C 
ENDBRANCH   5   8
ENDBRANCH   4   5
ENDBRANCH   1   3
BRANCH   1  11
ATOM     11  C   UNL     1      -7.789  30.056  44.757  1.00  0.00     0.002 C 
ATOM     12  C   UNL     1      -7.762  30.900  43.467  1.00  0.00     0.005 C 
ATOM     13  C   UNL     1      -7.173  28.649  44.400  1.00  0.00    -0.026 C 
ATOM     14  C   UNL     1      -6.955  30.114  42.454  1.00  0.00     0.005 C 
ATOM     15  C   UNL     1      -7.061  28.633  42.847  1.00  0.00    -0.001 C 
ATOM     16  C   UNL     1      -8.063  27.494  44.936  1.00  0.00     0.007 C 
ATOM     17  C   UNL     1      -5.754  28.435  44.981  1.00  0.00     0.012 C 
ATOM     18  C   UNL     1      -8.223  27.896  42.098  1.00  0.00     0.000 C 
ATOM     19  C   UNL     1      -9.449  27.356  44.270  1.00  0.00     0.005 C 
ATOM     20  C   UNL     1      -9.576  27.970  42.847  1.00  0.00     0.003 C 
ATOM     21  C   UNL     1      -7.858  26.429  41.779  1.00  0.00     0.031 C 
ATOM     22  C   UNL     1     -10.729  27.329  41.981  1.00  0.00    -0.008 C 
ATOM     23  C   UNL     1      -9.028  25.598  41.310  1.00  0.00    -0.027 C 
ATOM     24  C   UNL     1     -10.325  25.930  41.504  1.00  0.00    -0.065 C 
ATOM     25  C   UNL     1     -12.067  27.268  42.798  1.00  0.00     0.014 C 
ATOM     26  C   UNL     1     -10.980  28.208  40.722  1.00  0.00     0.016 C 
ATOM     27  C   UNL     1     -11.397  24.998  40.975  1.00  0.00     0.063 C 
ATOM     28  C   UNL     1     -13.151  26.391  42.151  1.00  0.00     0.033 C 
ATOM     29  C   UNL     1     -12.618  24.973  41.906  1.00  0.00     0.118 C 
BRANCH  29  30
ATOM     30  O   UNL     1     -13.629  24.147  41.382  1.00  0.00    -0.393 OA
ATOM     31  H   UNL     1     -14.154  23.787  42.147  1.00  0.00     0.210 HD
ENDBRANCH  29  30
ENDBRANCH   1  11
TORSDOF 6
ENDMDL
MODEL 7
REMARK VINA RESULT:    -5.040     10.163     12.744
REMARK INTER + INTRA:          -8.641
REMARK INTER:                  -6.430
REMARK INTRA:                  -2.210
REMARK UNBOUND:                -1.981
REMARK SMILES CC[C@@H](C=C[C@@H](C)[C@H]1CC[C@@H]2[C@H]3CC=C4C[C@H](O)CC[C@@]4(C)[C@H]3CC[C@@]21C)C(C)C
REMARK SMILES IDX 6 1 7 2 5 3 4 4 3 5 2 6 1 7 28 8 29 9 30 10 8 11 9 12 26 13
REMARK SMILES IDX 10 14 11 15 25 16 27 17 12 18 24 19 23 20 13 21 21 22 14 23
REMARK SMILES IDX 15 24 20 25 22 26 16 27 19 28 17 29 18 30
REMARK H PARENT 18 31
REMARK Flexibility Score: inf
ROOT
ATOM      1  C   UNL     1     -15.710  24.644  36.232  1.00  0.00     0.012 C 
ATOM      2  C   UNL     1     -15.497  23.907  37.568  1.00  0.00     0.012 C 
ENDROOT
BRANCH   1   3
ATOM      3  C   UNL     1     -17.194  24.648  35.877  1.00  0.00    -0.028 C 
ATOM      4  C   UNL     1     -17.843  25.585  35.153  1.00  0.00    -0.027 C 
BRANCH   4   5
ATOM      5  C   UNL     1     -17.247  26.849  34.547  1.00  0.00     0.014 C 
BRANCH   5   6
ATOM      6  C   UNL     1     -17.684  28.064  35.410  1.00  0.00     0.004 C 
ATOM      7  C   UNL     1     -16.696  28.419  36.526  1.00  0.00     0.004 C 
ENDBRANCH   5   6
BRANCH   5   8
ATOM      8  C   UNL     1     -17.739  27.019  33.072  1.00  0.00    -0.011 C 
ATOM      9  C   UNL     1     -18.342  25.718  32.515  1.00  0.00     0.008 C 
ATOM     10  C   UNL     1     -16.610  27.480  32.129  1.00  0.00     0.008 C 
ENDBRANCH   5   8
ENDBRANCH   4   5
ENDBRANCH   1   3
BRANCH   1  11
ATOM     11  C   UNL     1     -14.799  23.996  35.125  1.00  0.00     0.002 C 
ATOM     12  C   UNL     1     -15.564  23.535  33.867  1.00  0.00     0.005 C 
ATOM     13  C   UNL     1     -13.539  24.802  34.628  1.00  0.00    -0.026 C 
ATOM     14  C   UNL     1     -14.916  24.234  32.689  1.00  0.00     0.005 C 
ATOM     15  C   UNL     1     -13.469  24.548  33.093  1.00  0.00    -0.001 C 
ATOM     16  C   UNL     1     -12.250  24.336  35.359  1.00  0.00     0.007 C 
ATOM     17  C   UNL     1     -13.660  26.329  34.852  1.00  0.00     0.012 C 
ATOM     18  C   UNL     1     -12.465  23.432  32.643  1.00  0.00     0.000 C 
ATOM     19  C   UNL     1     -11.788  22.897  35.044  1.00  0.00     0.005 C 
ATOM     20  C   UNL     1     -12.289  22.310  33.694  1.00  0.00     0.003 C 
ATOM     21  C   UNL     1     -11.095  24.023  32.243  1.00  0.00     0.031 C 
ATOM     22  C   UNL     1     -11.374  21.154  33.128  1.00  0.00    -0.008 C 
ATOM     23  C   UNL     1     -10.012  22.986  32.066  1.00  0.00    -0.027 C 
ATOM     24  C   UNL     1     -10.071  21.730  32.565  1.00  0.00    -0.065 C 
ATOM     25  C   UNL     1     -11.073  20.091  34.242  1.00  0.00     0.014 C 
ATOM     26  C   UNL     1     -12.116  20.430  31.967  1.00  0.00     0.016 C 
ATOM     27  C   UNL     1      -8.908  20.794  32.307  1.00  0.00     0.063 C 
ATOM     28  C   UNL     1      -9.954  19.103  33.872  1.00  0.00     0.033 C 
ATOM     29  C   UNL     1      -8.671  19.860  33.503  1.00  0.00     0.118 C 
BRANCH  29  30
ATOM     30  O   UNL     1      -7.625  18.960  33.235  1.00  0.00    -0.393 OA
ATOM     31  H   UNL     1      -7.858  18.088  33.655  1.00  0.00     0.210 HD
ENDBRANCH  29  30
ENDBRANCH   1  11
TORSDOF 6
ENDMDL
MODEL 8
REMARK VINA RESULT:    -5.026      1.393      2.832
REMARK INTER + INTRA:          -8.623
REMARK INTER:                  -6.597
REMARK INTRA:                  -2.026
REMARK UNBOUND:                -1.981
REMARK SMILES CC[C@@H](C=C[C@@H](C)[C@H]1CC[C@@H]2[C@H]3CC=C4C[C@H](O)CC[C@@]4(C)[C@H]3CC[C@@]21C)C(C)C
REMARK SMILES IDX 6 1 7 2 5 3 4 4 3 5 2 6 1 7 28 8 29 9 30 10 8 11 9 12 26 13
REMARK SMILES IDX 10 14 11 15 25 16 27 17 12 18 24 19 23 20 13 21 21 22 14 23
REMARK SMILES IDX 15 24 20 25 22 26 16 27 19 28 17 29 18 30
REMARK H PARENT 18 31
REMARK Flexibility Score: inf
ROOT
ATOM      1  C   UNL     1      -6.252  30.555  42.893  1.00  0.00     0.012 C 
ATOM      2  C   UNL     1      -6.198  31.226  41.509  1.00  0.00     0.012 C 
ENDROOT
BRANCH   1   3
ATOM      3  C   UNL     1      -4.845  30.159  43.330  1.00  0.00    -0.028 C 
ATOM      4  C   UNL     1      -4.281  30.398  44.535  1.00  0.00    -0.027 C 
BRANCH   4   5
ATOM      5  C   UNL     1      -4.915  31.125  45.712  1.00  0.00     0.014 C 
BRANCH   5   6
ATOM      6  C   UNL     1      -3.952  32.255  46.171  1.00  0.00     0.004 C 
ATOM      7  C   UNL     1      -4.401  32.971  47.449  1.00  0.00     0.004 C 
ENDBRANCH   5   6
BRANCH   5   8
ATOM      8  C   UNL     1      -5.178  30.121  46.884  1.00  0.00    -0.011 C 
ATOM      9  C   UNL     1      -4.664  28.709  46.553  1.00  0.00     0.008 C 
ATOM     10  C   UNL     1      -6.672  30.027  47.248  1.00  0.00     0.008 C 
ENDBRANCH   5   8
ENDBRANCH   4   5
ENDBRANCH   1   3
BRANCH   1  11
ATOM     11  C   UNL     1      -7.261  29.348  42.851  1.00  0.00     0.002 C 
ATOM     12  C   UNL     1      -6.694  28.031  43.419  1.00  0.00     0.005 C 
ATOM     13  C   UNL     1      -8.690  29.545  43.486  1.00  0.00    -0.026 C 
ATOM     14  C   UNL     1      -7.643  27.590  44.515  1.00  0.00     0.005 C 
ATOM     15  C   UNL     1      -9.016  28.196  44.192  1.00  0.00    -0.001 C 
ATOM     16  C   UNL     1      -9.741  29.910  42.402  1.00  0.00     0.007 C 
ATOM     17  C   UNL     1      -8.737  30.664  44.556  1.00  0.00     0.012 C 
ATOM     18  C   UNL     1      -9.926  27.215  43.376  1.00  0.00     0.000 C 
ATOM     19  C   UNL     1     -10.055  28.798  41.378  1.00  0.00     0.005 C 
ATOM     20  C   UNL     1      -9.746  27.347  41.844  1.00  0.00     0.003 C 
ATOM     21  C   UNL     1     -11.415  27.362  43.762  1.00  0.00     0.031 C 
ATOM     22  C   UNL     1     -10.586  26.246  41.087  1.00  0.00    -0.008 C 
ATOM     23  C   UNL     1     -12.361  26.649  42.827  1.00  0.00    -0.027 C 
ATOM     24  C   UNL     1     -12.038  26.252  41.575  1.00  0.00    -0.065 C 
ATOM     25  C   UNL     1     -10.523  26.471  39.536  1.00  0.00     0.014 C 
ATOM     26  C   UNL     1      -9.988  24.841  41.388  1.00  0.00     0.016 C 
ATOM     27  C   UNL     1     -13.092  25.543  40.747  1.00  0.00     0.063 C 
ATOM     28  C   UNL     1     -11.548  25.640  38.745  1.00  0.00     0.033 C 
ATOM     29  C   UNL     1     -12.967  25.909  39.260  1.00  0.00     0.118 C 
BRANCH  29  30
ATOM     30  O   UNL     1     -13.914  25.207  38.492  1.00  0.00    -0.393 OA
ATOM     31  H   UNL     1     -14.785  25.682  38.576  1.00  0.00     0.210 HD
ENDBRANCH  29  30
ENDBRANCH   1  11
TORSDOF 6
ENDMDL
MODEL 9
REMARK VINA RESULT:    -4.978      3.068      8.487
REMARK INTER + INTRA:          -8.560
REMARK INTER:                  -6.373
REMARK INTRA:                  -2.186
REMARK UNBOUND:                -1.981
REMARK SMILES CC[C@@H](C=C[C@@H](C)[C@H]1CC[C@@H]2[C@H]3CC=C4C[C@H](O)CC[C@@]4(C)[C@H]3CC[C@@]21C)C(C)C
REMARK SMILES IDX 6 1 7 2 5 3 4 4 3 5 2 6 1 7 28 8 29 9 30 10 8 11 9 12 26 13
REMARK SMILES IDX 10 14 11 15 25 16 27 17 12 18 24 19 23 20 13 21 21 22 14 23
REMARK SMILES IDX 15 24 20 25 22 26 16 27 19 28 17 29 18 30
REMARK H PARENT 18 31
REMARK Flexibility Score: inf
ROOT
ATOM      1  C   UNL     1      -9.822  27.682  39.680  1.00  0.00     0.012 C 
ATOM      2  C   UNL     1      -8.997  28.591  38.750  1.00  0.00     0.012 C 
ENDROOT
BRANCH   1   3
ATOM      3  C   UNL     1     -11.301  27.780  39.319  1.00  0.00    -0.028 C 
ATOM      4  C   UNL     1     -12.197  26.769  39.323  1.00  0.00    -0.027 C 
BRANCH   4   5
ATOM      5  C   UNL     1     -11.930  25.312  39.673  1.00  0.00     0.014 C 
BRANCH   5   6
ATOM      6  C   UNL     1     -12.157  24.450  38.401  1.00  0.00     0.004 C 
ATOM      7  C   UNL     1     -13.406  24.840  37.603  1.00  0.00     0.004 C 
ENDBRANCH   5   6
BRANCH   5   8
ATOM      8  C   UNL     1     -12.885  24.853  40.824  1.00  0.00    -0.011 C 
ATOM      9  C   UNL     1     -13.667  26.035  41.424  1.00  0.00     0.008 C 
ATOM     10  C   UNL     1     -12.129  24.137  41.961  1.00  0.00     0.008 C 
ENDBRANCH   5   8
ENDBRANCH   4   5
ENDBRANCH   1   3
BRANCH   1  11
ATOM     11  C   UNL     1      -9.515  28.050  41.179  1.00  0.00     0.002 C 
ATOM     12  C   UNL     1     -10.762  28.418  42.008  1.00  0.00     0.005 C 
ATOM     13  C   UNL     1      -8.674  27.033  42.041  1.00  0.00    -0.026 C 
ATOM     14  C   UNL     1     -10.778  27.486  43.202  1.00  0.00     0.005 C 
ATOM     15  C   UNL     1      -9.326  27.057  43.455  1.00  0.00    -0.001 C 
ATOM     16  C   UNL     1      -7.174  27.436  42.080  1.00  0.00     0.007 C 
ATOM     17  C   UNL     1      -8.739  25.579  41.512  1.00  0.00     0.012 C 
ATOM     18  C   UNL     1      -8.607  27.965  44.510  1.00  0.00     0.000 C 
ATOM     19  C   UNL     1      -6.854  28.747  42.828  1.00  0.00     0.005 C 
ATOM     20  C   UNL     1      -7.908  29.195  43.881  1.00  0.00     0.003 C 
ATOM     21  C   UNL     1      -7.613  27.160  45.377  1.00  0.00     0.031 C 
ATOM     22  C   UNL     1      -7.321  30.138  45.003  1.00  0.00    -0.008 C 
ATOM     23  C   UNL     1      -6.700  28.020  46.216  1.00  0.00    -0.027 C 
ATOM     24  C   UNL     1      -6.463  29.332  45.984  1.00  0.00    -0.065 C 
ATOM     25  C   UNL     1      -6.485  31.303  44.366  1.00  0.00     0.014 C 
ATOM     26  C   UNL     1      -8.491  30.776  45.806  1.00  0.00     0.016 C 
ATOM     27  C   UNL     1      -5.521  30.072  46.912  1.00  0.00     0.063 C 
ATOM     28  C   UNL     1      -5.633  32.083  45.380  1.00  0.00     0.033 C 
ATOM     29  C   UNL     1      -4.709  31.130  46.150  1.00  0.00     0.118 C 
BRANCH  29  30
ATOM     30  O   UNL     1      -3.876  31.848  47.027  1.00  0.00    -0.393 OA
ATOM     31  H   UNL     1      -3.068  32.127  46.517  1.00  0.00     0.210 HD
ENDBRANCH  29  30
ENDBRANCH   1  11
TORSDOF 6
ENDMDL
