MODEL 1
REMARK VINA RESULT:    -4.415      0.000      0.000
REMARK INTER + INTRA:          -5.237
REMARK INTER:                  -4.931
REMARK INTRA:                  -0.306
REMARK UNBOUND:                -0.306
REMARK SMILES CC(=O)c1ccc(O)cc1O
REMARK SMILES IDX 4 1 10 2 9 3 7 4 6 5 5 6 2 7 1 8 3 9 11 10 8 12
REMARK H PARENT 11 11 8 13
REMARK Flexibility Score: inf
ROOT
ATOM      1  C   UNL     1       2.287  -4.577  21.291  1.00  0.00     0.059 A 
ATOM      2  C   UNL     1       1.649  -3.490  20.647  1.00  0.00     0.130 A 
ATOM      3  C   UNL     1       1.428  -3.530  19.261  1.00  0.00     0.093 A 
ATOM      4  C   UNL     1       1.848  -4.626  18.505  1.00  0.00     0.119 A 
ATOM      5  C   UNL     1       2.495  -5.694  19.134  1.00  0.00     0.047 A 
ATOM      6  C   UNL     1       2.716  -5.668  20.512  1.00  0.00     0.019 A 
ENDROOT
BRANCH   1   7
ATOM      7  C   UNL     1       2.535  -4.603  22.758  1.00  0.00     0.163 C 
ATOM      8  C   UNL     1       2.111  -5.749  23.626  1.00  0.00     0.093 C 
ATOM      9  O   UNL     1       3.125  -3.630  23.302  1.00  0.00    -0.294 OA
ENDBRANCH   1   7
BRANCH   2  10
ATOM     10  O   UNL     1       1.253  -2.363  21.367  1.00  0.00    -0.507 OA
ATOM     11  H   UNL     1       1.765  -1.490  21.313  1.00  0.00     0.293 HD
ENDBRANCH   2  10
BRANCH   4  12
ATOM     12  O   UNL     1       1.620  -4.642  17.131  1.00  0.00    -0.508 OA
ATOM     13  H   UNL     1       1.977  -5.387  16.543  1.00  0.00     0.293 HD
ENDBRANCH   4  12
TORSDOF 3
ENDMDL
MODEL 2
REMARK VINA RESULT:    -4.338      2.598      4.559
REMARK INTER + INTRA:          -5.151
REMARK INTER:                  -4.850
REMARK INTRA:                  -0.301
REMARK UNBOUND:                -0.306
REMARK SMILES CC(=O)c1ccc(O)cc1O
REMARK SMILES IDX 4 1 10 2 9 3 7 4 6 5 5 6 2 7 1 8 3 9 11 10 8 12
REMARK H PARENT 11 11 8 13
REMARK Flexibility Score: inf
ROOT
ATOM      1  C   UNL     1       1.339  -4.183  22.547  1.00  0.00     0.059 A 
ATOM      2  C   UNL     1       0.629  -4.520  23.724  1.00  0.00     0.130 A 
ATOM      3  C   UNL     1      -0.292  -3.614  24.271  1.00  0.00     0.093 A 
ATOM      4  C   UNL     1      -0.504  -2.369  23.673  1.00  0.00     0.119 A 
ATOM      5  C   UNL     1       0.207  -2.023  22.521  1.00  0.00     0.047 A 
ATOM      6  C   UNL     1       1.123  -2.919  21.965  1.00  0.00     0.019 A 
ENDROOT
BRANCH   1   7
ATOM      7  C   UNL     1       2.315  -5.106  21.910  1.00  0.00     0.163 C 
ATOM      8  C   UNL     1       2.381  -5.310  20.427  1.00  0.00     0.093 C 
ATOM      9  O   UNL     1       3.125  -5.747  22.636  1.00  0.00    -0.294 OA
ENDBRANCH   1   7
BRANCH   2  10
ATOM     10  O   UNL     1       0.848  -5.738  24.367  1.00  0.00    -0.507 OA
ATOM     11  H   UNL     1       0.756  -6.622  23.881  1.00  0.00     0.293 HD
ENDBRANCH   2  10
BRANCH   4  12
ATOM     12  O   UNL     1      -1.422  -1.484  24.235  1.00  0.00    -0.508 OA
ATOM     13  H   UNL     1      -1.262  -0.483  24.233  1.00  0.00     0.293 HD
ENDBRANCH   4  12
TORSDOF 3
ENDMDL
MODEL 3
REMARK VINA RESULT:    -4.184      3.204      4.497
REMARK INTER + INTRA:          -4.979
REMARK INTER:                  -4.710
REMARK INTRA:                  -0.268
REMARK UNBOUND:                -0.306
REMARK SMILES CC(=O)c1ccc(O)cc1O
REMARK SMILES IDX 4 1 10 2 9 3 7 4 6 5 5 6 2 7 1 8 3 9 11 10 8 12
REMARK H PARENT 11 11 8 13
REMARK Flexibility Score: inf
ROOT
ATOM      1  C   UNL     1       0.648  -3.193  22.835  1.00  0.00     0.059 A 
ATOM      2  C   UNL     1       0.231  -4.205  23.732  1.00  0.00     0.130 A 
ATOM      3  C   UNL     1       1.070  -5.299  23.992  1.00  0.00     0.093 A 
ATOM      4  C   UNL     1       2.310  -5.411  23.359  1.00  0.00     0.119 A 
ATOM      5  C   UNL     1       2.719  -4.424  22.458  1.00  0.00     0.047 A 
ATOM      6  C   UNL     1       1.895  -3.327  22.195  1.00  0.00     0.019 A 
ENDROOT
BRANCH   1   7
ATOM      7  C   UNL     1      -0.187  -2.000  22.531  1.00  0.00     0.163 C 
ATOM      8  C   UNL     1      -0.056  -1.230  21.252  1.00  0.00     0.093 C 
ATOM      9  O   UNL     1      -1.043  -1.614  23.374  1.00  0.00    -0.294 OA
ENDBRANCH   1   7
BRANCH   2  10
ATOM     10  O   UNL     1      -1.018  -4.143  24.350  1.00  0.00    -0.507 OA
ATOM     11  H   UNL     1      -1.786  -3.618  23.948  1.00  0.00     0.293 HD
ENDBRANCH   2  10
BRANCH   4  12
ATOM     12  O   UNL     1       3.125  -6.507  23.631  1.00  0.00    -0.508 OA
ATOM     13  H   UNL     1       3.378  -6.756  24.581  1.00  0.00     0.293 HD
ENDBRANCH   4  12
TORSDOF 3
ENDMDL
MODEL 4
REMARK VINA RESULT:    -4.161      2.857      4.945
REMARK INTER + INTRA:          -4.953
REMARK INTER:                  -4.739
REMARK INTRA:                  -0.213
REMARK UNBOUND:                -0.306
REMARK SMILES CC(=O)c1ccc(O)cc1O
REMARK SMILES IDX 4 1 10 2 9 3 7 4 6 5 5 6 2 7 1 8 3 9 11 10 8 12
REMARK H PARENT 11 11 8 13
REMARK Flexibility Score: inf
ROOT
ATOM      1  C   UNL     1       1.891  -3.947  23.343  1.00  0.00     0.059 A 
ATOM      2  C   UNL     1       0.621  -3.972  23.966  1.00  0.00     0.130 A 
ATOM      3  C   UNL     1       0.141  -2.829  24.625  1.00  0.00     0.093 A 
ATOM      4  C   UNL     1       0.915  -1.668  24.688  1.00  0.00     0.119 A 
ATOM      5  C   UNL     1       2.178  -1.643  24.090  1.00  0.00     0.047 A 
ATOM      6  C   UNL     1       2.663  -2.773  23.427  1.00  0.00     0.019 A 
ENDROOT
BRANCH   1   7
ATOM      7  C   UNL     1       2.447  -5.119  22.615  1.00  0.00     0.163 C 
ATOM      8  C   UNL     1       2.486  -5.193  21.119  1.00  0.00     0.093 C 
ATOM      9  O   UNL     1       2.909  -6.092  23.272  1.00  0.00    -0.294 OA
ENDBRANCH   1   7
BRANCH   2  10
ATOM     10  O   UNL     1      -0.159  -5.128  23.956  1.00  0.00    -0.507 OA
ATOM     11  H   UNL     1      -0.207  -5.745  24.758  1.00  0.00     0.293 HD
ENDBRANCH   2  10
BRANCH   4  12
ATOM     12  O   UNL     1       0.420  -0.546  25.349  1.00  0.00    -0.508 OA
ATOM     13  H   UNL     1       0.874  -0.175  26.176  1.00  0.00     0.293 HD
ENDBRANCH   4  12
TORSDOF 3
ENDMDL
MODEL 5
REMARK VINA RESULT:    -4.137      1.093      3.937
REMARK INTER + INTRA:          -4.926
REMARK INTER:                  -4.630
REMARK INTRA:                  -0.296
REMARK UNBOUND:                -0.306
REMARK SMILES CC(=O)c1ccc(O)cc1O
REMARK SMILES IDX 4 1 10 2 9 3 7 4 6 5 5 6 2 7 1 8 3 9 11 10 8 12
REMARK H PARENT 11 11 8 13
REMARK Flexibility Score: inf
ROOT
ATOM      1  C   UNL     1       2.196  -4.788  20.062  1.00  0.00     0.059 A 
ATOM      2  C   UNL     1       1.632  -3.536  20.404  1.00  0.00     0.130 A 
ATOM      3  C   UNL     1       1.651  -3.099  21.737  1.00  0.00     0.093 A 
ATOM      4  C   UNL     1       2.209  -3.898  22.739  1.00  0.00     0.119 A 
ATOM      5  C   UNL     1       2.751  -5.143  22.410  1.00  0.00     0.047 A 
ATOM      6  C   UNL     1       2.742  -5.586  21.086  1.00  0.00     0.019 A 
ENDROOT
BRANCH   1   7
ATOM      7  C   UNL     1       2.222  -5.299  18.666  1.00  0.00     0.163 C 
ATOM      8  C   UNL     1       2.033  -6.748  18.335  1.00  0.00     0.093 C 
ATOM      9  O   UNL     1       2.409  -4.490  17.715  1.00  0.00    -0.294 OA
ENDBRANCH   1   7
BRANCH   2  10
ATOM     10  O   UNL     1       1.032  -2.733  19.434  1.00  0.00    -0.507 OA
ATOM     11  H   UNL     1       0.024  -2.651  19.359  1.00  0.00     0.293 HD
ENDBRANCH   2  10
BRANCH   4  12
ATOM     12  O   UNL     1       2.215  -3.444  24.056  1.00  0.00    -0.508 OA
ATOM     13  H   UNL     1       3.044  -3.510  24.635  1.00  0.00     0.293 HD
ENDBRANCH   4  12
TORSDOF 3
ENDMDL
MODEL 6
REMARK VINA RESULT:    -4.065      2.758      3.709
REMARK INTER + INTRA:          -4.846
REMARK INTER:                  -4.543
REMARK INTRA:                  -0.303
REMARK UNBOUND:                -0.306
REMARK SMILES CC(=O)c1ccc(O)cc1O
REMARK SMILES IDX 4 1 10 2 9 3 7 4 6 5 5 6 2 7 1 8 3 9 11 10 8 12
REMARK H PARENT 11 11 8 13
REMARK Flexibility Score: inf
ROOT
ATOM      1  C   UNL     1       0.816  -3.568  23.510  1.00  0.00     0.059 A 
ATOM      2  C   UNL     1       1.261  -4.911  23.493  1.00  0.00     0.130 A 
ATOM      3  C   UNL     1       1.935  -5.412  22.368  1.00  0.00     0.093 A 
ATOM      4  C   UNL     1       2.157  -4.600  21.253  1.00  0.00     0.119 A 
ATOM      5  C   UNL     1       1.704  -3.278  21.257  1.00  0.00     0.047 A 
ATOM      6  C   UNL     1       1.037  -2.768  22.373  1.00  0.00     0.019 A 
ENDROOT
BRANCH   1   7
ATOM      7  C   UNL     1       0.112  -2.974  24.678  1.00  0.00     0.163 C 
ATOM      8  C   UNL     1       0.580  -1.717  25.346  1.00  0.00     0.093 C 
ATOM      9  O   UNL     1      -0.921  -3.541  25.130  1.00  0.00    -0.294 OA
ENDBRANCH   1   7
BRANCH   2  10
ATOM     10  O   UNL     1       1.020  -5.759  24.574  1.00  0.00    -0.507 OA
ATOM     11  H   UNL     1       1.505  -6.643  24.677  1.00  0.00     0.293 HD
ENDBRANCH   2  10
BRANCH   4  12
ATOM     12  O   UNL     1       2.827  -5.119  20.147  1.00  0.00    -0.508 OA
ATOM     13  H   UNL     1       3.066  -4.537  19.352  1.00  0.00     0.293 HD
ENDBRANCH   4  12
TORSDOF 3
ENDMDL
MODEL 7
REMARK VINA RESULT:    -4.033      1.369      2.337
REMARK INTER + INTRA:          -4.810
REMARK INTER:                  -4.507
REMARK INTRA:                  -0.302
REMARK UNBOUND:                -0.306
REMARK SMILES CC(=O)c1ccc(O)cc1O
REMARK SMILES IDX 4 1 10 2 9 3 7 4 6 5 5 6 2 7 1 8 3 9 11 10 8 12
REMARK H PARENT 11 11 8 13
REMARK Flexibility Score: inf
ROOT
ATOM      1  C   UNL     1       1.997  -3.659  21.269  1.00  0.00     0.059 A 
ATOM      2  C   UNL     1       2.495  -4.982  21.201  1.00  0.00     0.130 A 
ATOM      3  C   UNL     1       2.514  -5.660  19.972  1.00  0.00     0.093 A 
ATOM      4  C   UNL     1       2.029  -5.048  18.814  1.00  0.00     0.119 A 
ATOM      5  C   UNL     1       1.519  -3.748  18.880  1.00  0.00     0.047 A 
ATOM      6  C   UNL     1       1.500  -3.061  20.096  1.00  0.00     0.019 A 
ENDROOT
BRANCH   1   7
ATOM      7  C   UNL     1       1.966  -2.881  22.537  1.00  0.00     0.163 C 
ATOM      8  C   UNL     1       0.804  -2.017  22.924  1.00  0.00     0.093 C 
ATOM      9  O   UNL     1       2.949  -2.946  23.325  1.00  0.00    -0.294 OA
ENDBRANCH   1   7
BRANCH   2  10
ATOM     10  O   UNL     1       2.949  -5.637  22.345  1.00  0.00    -0.507 OA
ATOM     11  H   UNL     1       3.592  -6.418  22.293  1.00  0.00     0.293 HD
ENDBRANCH   2  10
BRANCH   4  12
ATOM     12  O   UNL     1       2.056  -5.741  17.606  1.00  0.00    -0.508 OA
ATOM     13  H   UNL     1       2.927  -5.930  17.123  1.00  0.00     0.293 HD
ENDBRANCH   4  12
TORSDOF 3
ENDMDL
MODEL 8
REMARK VINA RESULT:    -3.919      4.345      6.087
REMARK INTER + INTRA:          -4.683
REMARK INTER:                  -4.383
REMARK INTRA:                  -0.300
REMARK UNBOUND:                -0.306
REMARK SMILES CC(=O)c1ccc(O)cc1O
REMARK SMILES IDX 4 1 10 2 9 3 7 4 6 5 5 6 2 7 1 8 3 9 11 10 8 12
REMARK H PARENT 11 11 8 13
REMARK Flexibility Score: inf
ROOT
ATOM      1  C   UNL     1       0.246  -2.668  24.389  1.00  0.00     0.059 A 
ATOM      2  C   UNL     1      -0.634  -3.776  24.360  1.00  0.00     0.130 A 
ATOM      3  C   UNL     1      -1.980  -3.611  24.723  1.00  0.00     0.093 A 
ATOM      4  C   UNL     1      -2.458  -2.363  25.129  1.00  0.00     0.119 A 
ATOM      5  C   UNL     1      -1.590  -1.269  25.176  1.00  0.00     0.047 A 
ATOM      6  C   UNL     1      -0.250  -1.421  24.813  1.00  0.00     0.019 A 
ENDROOT
BRANCH   1   7
ATOM      7  C   UNL     1       1.678  -2.775  24.000  1.00  0.00     0.163 C 
ATOM      8  C   UNL     1       2.283  -1.936  22.915  1.00  0.00     0.093 C 
ATOM      9  O   UNL     1       2.422  -3.597  24.602  1.00  0.00    -0.294 OA
ENDBRANCH   1   7
BRANCH   2  10
ATOM     10  O   UNL     1      -0.178  -5.043  23.998  1.00  0.00    -0.507 OA
ATOM     11  H   UNL     1       0.447  -5.181  23.213  1.00  0.00     0.293 HD
ENDBRANCH   2  10
BRANCH   4  12
ATOM     12  O   UNL     1      -3.798  -2.223  25.486  1.00  0.00    -0.508 OA
ATOM     13  H   UNL     1      -4.440  -1.673  24.927  1.00  0.00     0.293 HD
ENDBRANCH   4  12
TORSDOF 3
ENDMDL
