MODEL 1
REMARK VINA RESULT:    -5.232      0.000      0.000
REMARK INTER + INTRA:         -11.200
REMARK INTER:                 -10.125
REMARK INTRA:                  -1.075
REMARK UNBOUND:                -1.075
REMARK SMILES CCCCCCCCCCCCCCCCCC(=O)[O-]
REMARK SMILES IDX 10 1 11 2 12 3 13 4 14 5 15 6 16 7 17 8 18 9 19 10 20 11
REMARK SMILES IDX 9 12 8 13 7 14 6 15 5 16 4 17 3 18 2 19 1 20
REMARK H PARENT
REMARK Flexibility Score: inf
ROOT
ATOM      1  C   UNL     1      20.997 118.015 296.163  1.00  0.00     0.000 C 
ENDROOT
BRANCH   1   2
ATOM      2  C   UNL     1      21.264 119.327 295.408  1.00  0.00     0.000 C 
BRANCH   2   3
ATOM      3  C   UNL     1      22.580 119.292 294.611  1.00  0.00     0.000 C 
BRANCH   3   4
ATOM      4  C   UNL     1      23.280 117.927 294.688  1.00  0.00     0.000 C 
BRANCH   4   5
ATOM      5  C   UNL     1      24.544 117.857 293.811  1.00  0.00     0.000 C 
BRANCH   5   6
ATOM      6  C   UNL     1      24.349 118.529 292.441  1.00  0.00     0.000 C 
BRANCH   6   7
ATOM      7  C   UNL     1      24.820 117.644 291.278  1.00  0.00     0.006 C 
BRANCH   7   8
ATOM      8  C   UNL     1      24.866 118.439 289.969  1.00  0.00     0.053 C 
BRANCH   8   9
ATOM      9  C   UNL     1      23.780 117.987 289.044  1.00  0.00     0.041 C 
ATOM     10  O   UNL     1      23.106 116.958 289.314  1.00  0.00    -0.550 OA
ATOM     11  O   UNL     1      23.480 118.730 287.910  1.00  0.00    -0.550 OA
ENDBRANCH   8   9
ENDBRANCH   7   8
ENDBRANCH   6   7
ENDBRANCH   5   6
ENDBRANCH   4   5
ENDBRANCH   3   4
ENDBRANCH   2   3
ENDBRANCH   1   2
BRANCH   1  12
ATOM     12  C   UNL     1      19.594 117.970 296.795  1.00  0.00     0.000 C 
BRANCH  12  13
ATOM     13  C   UNL     1      18.683 116.919 296.137  1.00  0.00    -0.000 C 
BRANCH  13  14
ATOM     14  C   UNL     1      17.190 117.250 296.305  1.00  0.00    -0.000 C 
BRANCH  14  15
ATOM     15  C   UNL     1      16.490 117.527 294.963  1.00  0.00    -0.000 C 
BRANCH  15  16
ATOM     16  C   UNL     1      17.484 117.725 293.806  1.00  0.00    -0.000 C 
BRANCH  16  17
ATOM     17  C   UNL     1      17.255 116.731 292.656  1.00  0.00    -0.000 C 
BRANCH  17  18
ATOM     18  C   UNL     1      18.537 116.450 291.851  1.00  0.00    -0.000 C 
BRANCH  18  19
ATOM     19  C   UNL     1      18.270 115.601 290.598  1.00  0.00    -0.003 C 
ATOM     20  C   UNL     1      17.170 114.562 290.814  1.00  0.00     0.004 C 
ENDBRANCH  18  19
ENDBRANCH  17  18
ENDBRANCH  16  17
ENDBRANCH  15  16
ENDBRANCH  14  15
ENDBRANCH  13  14
ENDBRANCH  12  13
ENDBRANCH   1  12
TORSDOF 16
ENDMDL
MODEL 2
REMARK VINA RESULT:    -5.194      1.215      2.075
REMARK INTER + INTRA:         -11.127
REMARK INTER:                 -10.118
REMARK INTRA:                  -1.009
REMARK UNBOUND:                -1.075
REMARK SMILES CCCCCCCCCCCCCCCCCC(=O)[O-]
REMARK SMILES IDX 10 1 11 2 12 3 13 4 14 5 15 6 16 7 17 8 18 9 19 10 20 11
REMARK SMILES IDX 9 12 8 13 7 14 6 15 5 16 4 17 3 18 2 19 1 20
REMARK H PARENT
REMARK Flexibility Score: inf
ROOT
ATOM      1  C   UNL     1      22.236 118.426 294.675  1.00  0.00     0.000 C 
ENDROOT
BRANCH   1   2
ATOM      2  C   UNL     1      23.729 118.795 294.649  1.00  0.00     0.000 C 
BRANCH   2   3
ATOM      3  C   UNL     1      24.274 118.949 293.219  1.00  0.00     0.000 C 
BRANCH   3   4
ATOM      4  C   UNL     1      25.546 118.120 292.980  1.00  0.00     0.000 C 
BRANCH   4   5
ATOM      5  C   UNL     1      25.513 117.355 291.645  1.00  0.00     0.000 C 
BRANCH   5   6
ATOM      6  C   UNL     1      24.421 117.873 290.694  1.00  0.00     0.000 C 
BRANCH   6   7
ATOM      7  C   UNL     1      24.965 118.860 289.652  1.00  0.00     0.006 C 
BRANCH   7   8
ATOM      8  C   UNL     1      24.604 118.412 288.232  1.00  0.00     0.053 C 
BRANCH   8   9
ATOM      9  C   UNL     1      23.243 118.906 287.856  1.00  0.00     0.041 C 
ATOM     10  O   UNL     1      23.111 120.015 287.274  1.00  0.00    -0.550 OA
ATOM     11  O   UNL     1      22.126 118.120 288.104  1.00  0.00    -0.550 OA
ENDBRANCH   8   9
ENDBRANCH   7   8
ENDBRANCH   6   7
ENDBRANCH   5   6
ENDBRANCH   4   5
ENDBRANCH   3   4
ENDBRANCH   2   3
ENDBRANCH   1   2
BRANCH   1  12
ATOM     12  C   UNL     1      21.779 117.898 296.046  1.00  0.00     0.000 C 
BRANCH  12  13
ATOM     13  C   UNL     1      20.251 117.754 296.145  1.00  0.00    -0.000 C 
BRANCH  13  14
ATOM     14  C   UNL     1      19.520 119.090 295.924  1.00  0.00    -0.000 C 
BRANCH  14  15
ATOM     15  C   UNL     1      18.317 118.957 294.975  1.00  0.00    -0.000 C 
BRANCH  15  16
ATOM     16  C   UNL     1      18.097 117.512 294.496  1.00  0.00    -0.000 C 
BRANCH  16  17
ATOM     17  C   UNL     1      18.388 117.337 292.996  1.00  0.00    -0.000 C 
BRANCH  17  18
ATOM     18  C   UNL     1      17.406 116.370 292.310  1.00  0.00    -0.000 C 
BRANCH  18  19
ATOM     19  C   UNL     1      17.949 115.828 290.978  1.00  0.00    -0.003 C 
ATOM     20  C   UNL     1      17.256 114.538 290.541  1.00  0.00     0.004 C 
ENDBRANCH  18  19
ENDBRANCH  17  18
ENDBRANCH  16  17
ENDBRANCH  15  16
ENDBRANCH  14  15
ENDBRANCH  13  14
ENDBRANCH  12  13
ENDBRANCH   1  12
TORSDOF 16
ENDMDL
MODEL 3
REMARK VINA RESULT:    -5.070      4.806      6.335
REMARK INTER + INTRA:         -10.887
REMARK INTER:                  -8.772
REMARK INTRA:                  -2.115
REMARK UNBOUND:                -1.075
REMARK SMILES CCCCCCCCCCCCCCCCCC(=O)[O-]
REMARK SMILES IDX 10 1 11 2 12 3 13 4 14 5 15 6 16 7 17 8 18 9 19 10 20 11
REMARK SMILES IDX 9 12 8 13 7 14 6 15 5 16 4 17 3 18 2 19 1 20
REMARK H PARENT
REMARK Flexibility Score: inf
ROOT
ATOM      1  C   UNL     1      15.759 122.193 292.426  1.00  0.00     0.000 C 
ENDROOT
BRANCH   1   2
ATOM      2  C   UNL     1      16.991 122.986 292.891  1.00  0.00     0.000 C 
BRANCH   2   3
ATOM      3  C   UNL     1      16.935 123.340 294.387  1.00  0.00     0.000 C 
BRANCH   3   4
ATOM      4  C   UNL     1      18.145 122.800 295.166  1.00  0.00     0.000 C 
BRANCH   4   5
ATOM      5  C   UNL     1      19.214 122.181 294.248  1.00  0.00     0.000 C 
BRANCH   5   6
ATOM      6  C   UNL     1      19.481 120.701 294.567  1.00  0.00     0.000 C 
BRANCH   6   7
ATOM      7  C   UNL     1      20.394 120.516 295.788  1.00  0.00     0.006 C 
BRANCH   7   8
ATOM      8  C   UNL     1      19.915 119.351 296.659  1.00  0.00     0.053 C 
BRANCH   8   9
ATOM      9  C   UNL     1      18.814 119.795 297.569  1.00  0.00     0.041 C 
ATOM     10  O   UNL     1      17.796 119.073 297.730  1.00  0.00    -0.550 OA
ATOM     11  O   UNL     1      18.936 120.983 298.278  1.00  0.00    -0.550 OA
ENDBRANCH   8   9
ENDBRANCH   7   8
ENDBRANCH   6   7
ENDBRANCH   5   6
ENDBRANCH   4   5
ENDBRANCH   3   4
ENDBRANCH   2   3
ENDBRANCH   1   2
BRANCH   1  12
ATOM     12  C   UNL     1      15.288 121.164 293.468  1.00  0.00     0.000 C 
BRANCH  12  13
ATOM     13  C   UNL     1      16.081 119.848 293.401  1.00  0.00    -0.000 C 
BRANCH  13  14
ATOM     14  C   UNL     1      16.044 119.071 294.729  1.00  0.00    -0.000 C 
BRANCH  14  15
ATOM     15  C   UNL     1      16.724 117.695 294.629  1.00  0.00    -0.000 C 
BRANCH  15  16
ATOM     16  C   UNL     1      17.700 117.600 293.444  1.00  0.00    -0.000 C 
BRANCH  16  17
ATOM     17  C   UNL     1      17.449 116.359 292.571  1.00  0.00    -0.000 C 
BRANCH  17  18
ATOM     18  C   UNL     1      18.450 116.239 291.409  1.00  0.00    -0.000 C 
BRANCH  18  19
ATOM     19  C   UNL     1      17.791 115.733 290.115  1.00  0.00    -0.003 C 
ATOM     20  C   UNL     1      17.080 114.393 290.302  1.00  0.00     0.004 C 
ENDBRANCH  18  19
ENDBRANCH  17  18
ENDBRANCH  16  17
ENDBRANCH  15  16
ENDBRANCH  14  15
ENDBRANCH  13  14
ENDBRANCH  12  13
ENDBRANCH   1  12
TORSDOF 16
ENDMDL
MODEL 4
REMARK VINA RESULT:    -4.983      3.368      4.108
REMARK INTER + INTRA:         -10.718
REMARK INTER:                  -9.465
REMARK INTRA:                  -1.253
REMARK UNBOUND:                -1.075
REMARK SMILES CCCCCCCCCCCCCCCCCC(=O)[O-]
REMARK SMILES IDX 10 1 11 2 12 3 13 4 14 5 15 6 16 7 17 8 18 9 19 10 20 11
REMARK SMILES IDX 9 12 8 13 7 14 6 15 5 16 4 17 3 18 2 19 1 20
REMARK H PARENT
REMARK Flexibility Score: inf
ROOT
ATOM      1  C   UNL     1      21.586 117.980 297.481  1.00  0.00     0.000 C 
ENDROOT
BRANCH   1   2
ATOM      2  C   UNL     1      22.327 117.034 296.522  1.00  0.00     0.000 C 
BRANCH   2   3
ATOM      3  C   UNL     1      22.973 117.778 295.341  1.00  0.00     0.000 C 
BRANCH   3   4
ATOM      4  C   UNL     1      22.474 119.226 295.211  1.00  0.00     0.000 C 
BRANCH   4   5
ATOM      5  C   UNL     1      23.555 120.261 295.571  1.00  0.00     0.000 C 
BRANCH   5   6
ATOM      6  C   UNL     1      24.573 119.721 296.589  1.00  0.00     0.000 C 
BRANCH   6   7
ATOM      7  C   UNL     1      25.798 120.636 296.741  1.00  0.00     0.006 C 
BRANCH   7   8
ATOM      8  C   UNL     1      25.763 121.774 295.717  1.00  0.00     0.053 C 
BRANCH   8   9
ATOM      9  C   UNL     1      26.995 121.753 294.869  1.00  0.00     0.041 C 
ATOM     10  O   UNL     1      28.128 121.911 295.395  1.00  0.00    -0.550 OA
ATOM     11  O   UNL     1      26.896 121.508 293.506  1.00  0.00    -0.550 OA
ENDBRANCH   8   9
ENDBRANCH   7   8
ENDBRANCH   6   7
ENDBRANCH   5   6
ENDBRANCH   4   5
ENDBRANCH   3   4
ENDBRANCH   2   3
ENDBRANCH   1   2
BRANCH   1  12
ATOM     12  C   UNL     1      20.120 117.569 297.705  1.00  0.00     0.000 C 
BRANCH  12  13
ATOM     13  C   UNL     1      19.459 117.018 296.430  1.00  0.00    -0.000 C 
BRANCH  13  14
ATOM     14  C   UNL     1      18.556 118.057 295.741  1.00  0.00    -0.000 C 
BRANCH  14  15
ATOM     15  C   UNL     1      18.834 118.176 294.233  1.00  0.00    -0.000 C 
BRANCH  15  16
ATOM     16  C   UNL     1      17.568 117.986 293.380  1.00  0.00    -0.000 C 
BRANCH  16  17
ATOM     17  C   UNL     1      17.395 116.537 292.897  1.00  0.00    -0.000 C 
BRANCH  17  18
ATOM     18  C   UNL     1      18.258 116.215 291.664  1.00  0.00    -0.000 C 
BRANCH  18  19
ATOM     19  C   UNL     1      17.413 115.844 290.435  1.00  0.00    -0.003 C 
ATOM     20  C   UNL     1      17.302 114.334 290.231  1.00  0.00     0.004 C 
ENDBRANCH  18  19
ENDBRANCH  17  18
ENDBRANCH  16  17
ENDBRANCH  15  16
ENDBRANCH  14  15
ENDBRANCH  13  14
ENDBRANCH  12  13
ENDBRANCH   1  12
TORSDOF 16
ENDMDL
MODEL 5
REMARK VINA RESULT:    -4.972      5.312      6.542
REMARK INTER + INTRA:         -10.697
REMARK INTER:                  -9.036
REMARK INTRA:                  -1.662
REMARK UNBOUND:                -1.075
REMARK SMILES CCCCCCCCCCCCCCCCCC(=O)[O-]
REMARK SMILES IDX 10 1 11 2 12 3 13 4 14 5 15 6 16 7 17 8 18 9 19 10 20 11
REMARK SMILES IDX 9 12 8 13 7 14 6 15 5 16 4 17 3 18 2 19 1 20
REMARK H PARENT
REMARK Flexibility Score: inf
ROOT
ATOM      1  C   UNL     1      19.807 117.734 296.249  1.00  0.00     0.000 C 
ENDROOT
BRANCH   1   2
ATOM      2  C   UNL     1      20.537 116.780 297.208  1.00  0.00     0.000 C 
BRANCH   2   3
ATOM      3  C   UNL     1      22.022 116.603 296.849  1.00  0.00     0.000 C 
BRANCH   3   4
ATOM      4  C   UNL     1      22.722 117.939 296.557  1.00  0.00     0.000 C 
BRANCH   4   5
ATOM      5  C   UNL     1      23.317 118.586 297.822  1.00  0.00     0.000 C 
BRANCH   5   6
ATOM      6  C   UNL     1      22.558 119.854 298.248  1.00  0.00     0.000 C 
BRANCH   6   7
ATOM      7  C   UNL     1      22.274 119.893 299.756  1.00  0.00     0.006 C 
BRANCH   7   8
ATOM      8  C   UNL     1      21.829 118.519 300.267  1.00  0.00     0.053 C 
BRANCH   8   9
ATOM      9  C   UNL     1      21.509 118.582 301.727  1.00  0.00     0.041 C 
ATOM     10  O   UNL     1      20.365 118.944 302.109  1.00  0.00    -0.550 OA
ATOM     11  O   UNL     1      22.457 118.191 302.663  1.00  0.00    -0.550 OA
ENDBRANCH   8   9
ENDBRANCH   7   8
ENDBRANCH   6   7
ENDBRANCH   5   6
ENDBRANCH   4   5
ENDBRANCH   3   4
ENDBRANCH   2   3
ENDBRANCH   1   2
BRANCH   1  12
ATOM     12  C   UNL     1      19.189 118.945 296.971  1.00  0.00     0.000 C 
BRANCH  12  13
ATOM     13  C   UNL     1      17.678 119.077 296.716  1.00  0.00    -0.000 C 
BRANCH  13  14
ATOM     14  C   UNL     1      16.961 117.715 296.714  1.00  0.00    -0.000 C 
BRANCH  14  15
ATOM     15  C   UNL     1      16.201 117.447 295.404  1.00  0.00    -0.000 C 
BRANCH  15  16
ATOM     16  C   UNL     1      16.999 116.568 294.425  1.00  0.00    -0.000 C 
BRANCH  16  17
ATOM     17  C   UNL     1      17.249 117.265 293.078  1.00  0.00    -0.000 C 
BRANCH  17  18
ATOM     18  C   UNL     1      18.096 116.410 292.117  1.00  0.00    -0.000 C 
BRANCH  18  19
ATOM     19  C   UNL     1      17.290 115.917 290.904  1.00  0.00    -0.003 C 
ATOM     20  C   UNL     1      17.457 114.418 290.657  1.00  0.00     0.004 C 
ENDBRANCH  18  19
ENDBRANCH  17  18
ENDBRANCH  16  17
ENDBRANCH  15  16
ENDBRANCH  14  15
ENDBRANCH  13  14
ENDBRANCH  12  13
ENDBRANCH   1  12
TORSDOF 16
ENDMDL
MODEL 6
REMARK VINA RESULT:    -4.948      4.413      6.091
REMARK INTER + INTRA:         -10.650
REMARK INTER:                  -8.577
REMARK INTRA:                  -2.073
REMARK UNBOUND:                -1.075
REMARK SMILES CCCCCCCCCCCCCCCCCC(=O)[O-]
REMARK SMILES IDX 10 1 11 2 12 3 13 4 14 5 15 6 16 7 17 8 18 9 19 10 20 11
REMARK SMILES IDX 9 12 8 13 7 14 6 15 5 16 4 17 3 18 2 19 1 20
REMARK H PARENT
REMARK Flexibility Score: inf
ROOT
ATOM      1  C   UNL     1      17.143 122.216 293.439  1.00  0.00     0.000 C 
ENDROOT
BRANCH   1   2
ATOM      2  C   UNL     1      17.810 122.542 294.785  1.00  0.00     0.000 C 
BRANCH   2   3
ATOM      3  C   UNL     1      16.850 122.373 295.976  1.00  0.00     0.000 C 
BRANCH   3   4
ATOM      4  C   UNL     1      17.588 122.062 297.288  1.00  0.00     0.000 C 
BRANCH   4   5
ATOM      5  C   UNL     1      18.728 121.045 297.101  1.00  0.00     0.000 C 
BRANCH   5   6
ATOM      6  C   UNL     1      18.285 119.601 297.394  1.00  0.00     0.000 C 
BRANCH   6   7
ATOM      7  C   UNL     1      19.455 118.697 297.808  1.00  0.00     0.006 C 
BRANCH   7   8
ATOM      8  C   UNL     1      20.091 118.029 296.585  1.00  0.00     0.053 C 
BRANCH   8   9
ATOM      9  C   UNL     1      20.803 116.775 296.985  1.00  0.00     0.041 C 
ATOM     10  O   UNL     1      20.152 115.784 297.407  1.00  0.00    -0.550 OA
ATOM     11  O   UNL     1      22.182 116.684 296.843  1.00  0.00    -0.550 OA
ENDBRANCH   8   9
ENDBRANCH   7   8
ENDBRANCH   6   7
ENDBRANCH   5   6
ENDBRANCH   4   5
ENDBRANCH   3   4
ENDBRANCH   2   3
ENDBRANCH   1   2
BRANCH   1  12
ATOM     12  C   UNL     1      15.690 121.736 293.598  1.00  0.00     0.000 C 
BRANCH  12  13
ATOM     13  C   UNL     1      15.504 120.265 293.188  1.00  0.00    -0.000 C 
BRANCH  13  14
ATOM     14  C   UNL     1      15.215 119.351 294.392  1.00  0.00    -0.000 C 
BRANCH  14  15
ATOM     15  C   UNL     1      16.241 118.214 294.534  1.00  0.00    -0.000 C 
BRANCH  15  16
ATOM     16  C   UNL     1      17.629 118.597 293.992  1.00  0.00    -0.000 C 
BRANCH  16  17
ATOM     17  C   UNL     1      18.349 117.414 293.325  1.00  0.00    -0.000 C 
BRANCH  17  18
ATOM     18  C   UNL     1      17.383 116.478 292.576  1.00  0.00    -0.000 C 
BRANCH  18  19
ATOM     19  C   UNL     1      17.991 115.923 291.278  1.00  0.00    -0.003 C 
ATOM     20  C   UNL     1      17.246 114.694 290.758  1.00  0.00     0.004 C 
ENDBRANCH  18  19
ENDBRANCH  17  18
ENDBRANCH  16  17
ENDBRANCH  15  16
ENDBRANCH  14  15
ENDBRANCH  13  14
ENDBRANCH  12  13
ENDBRANCH   1  12
TORSDOF 16
ENDMDL
MODEL 7
REMARK VINA RESULT:    -4.937      4.189      5.908
REMARK INTER + INTRA:         -10.629
REMARK INTER:                  -8.435
REMARK INTRA:                  -2.193
REMARK UNBOUND:                -1.075
REMARK SMILES CCCCCCCCCCCCCCCCCC(=O)[O-]
REMARK SMILES IDX 10 1 11 2 12 3 13 4 14 5 15 6 16 7 17 8 18 9 19 10 20 11
REMARK SMILES IDX 9 12 8 13 7 14 6 15 5 16 4 17 3 18 2 19 1 20
REMARK H PARENT
REMARK Flexibility Score: inf
ROOT
ATOM      1  C   UNL     1      15.886 120.540 293.308  1.00  0.00     0.000 C 
ENDROOT
BRANCH   1   2
ATOM      2  C   UNL     1      15.173 121.751 292.684  1.00  0.00     0.000 C 
BRANCH   2   3
ATOM      3  C   UNL     1      16.044 123.019 292.694  1.00  0.00     0.000 C 
BRANCH   3   4
ATOM      4  C   UNL     1      17.063 123.025 293.844  1.00  0.00     0.000 C 
BRANCH   4   5
ATOM      5  C   UNL     1      18.462 123.486 293.394  1.00  0.00     0.000 C 
BRANCH   5   6
ATOM      6  C   UNL     1      19.552 122.444 293.694  1.00  0.00     0.000 C 
BRANCH   6   7
ATOM      7  C   UNL     1      19.223 121.583 294.923  1.00  0.00     0.006 C 
BRANCH   7   8
ATOM      8  C   UNL     1      19.549 120.109 294.663  1.00  0.00     0.053 C 
BRANCH   8   9
ATOM      9  C   UNL     1      20.392 119.557 295.768  1.00  0.00     0.041 C 
ATOM     10  O   UNL     1      20.997 120.334 296.552  1.00  0.00    -0.550 OA
ATOM     11  O   UNL     1      20.469 118.184 295.964  1.00  0.00    -0.550 OA
ENDBRANCH   8   9
ENDBRANCH   7   8
ENDBRANCH   6   7
ENDBRANCH   5   6
ENDBRANCH   4   5
ENDBRANCH   3   4
ENDBRANCH   2   3
ENDBRANCH   1   2
BRANCH   1  12
ATOM     12  C   UNL     1      15.043 119.851 294.396  1.00  0.00     0.000 C 
BRANCH  12  13
ATOM     13  C   UNL     1      15.638 120.026 295.803  1.00  0.00    -0.000 C 
BRANCH  13  14
ATOM     14  C   UNL     1      16.438 118.794 296.260  1.00  0.00    -0.000 C 
BRANCH  14  15
ATOM     15  C   UNL     1      16.215 117.572 295.352  1.00  0.00    -0.000 C 
BRANCH  15  16
ATOM     16  C   UNL     1      17.528 117.012 294.778  1.00  0.00    -0.000 C 
BRANCH  16  17
ATOM     17  C   UNL     1      17.666 117.265 293.268  1.00  0.00    -0.000 C 
BRANCH  17  18
ATOM     18  C   UNL     1      17.252 116.047 292.422  1.00  0.00    -0.000 C 
BRANCH  18  19
ATOM     19  C   UNL     1      18.175 115.830 291.213  1.00  0.00    -0.003 C 
ATOM     20  C   UNL     1      17.524 114.984 290.119  1.00  0.00     0.004 C 
ENDBRANCH  18  19
ENDBRANCH  17  18
ENDBRANCH  16  17
ENDBRANCH  15  16
ENDBRANCH  14  15
ENDBRANCH  13  14
ENDBRANCH  12  13
ENDBRANCH   1  12
TORSDOF 16
ENDMDL
MODEL 8
REMARK VINA RESULT:    -4.845      5.545      7.391
REMARK INTER + INTRA:         -10.451
REMARK INTER:                  -9.287
REMARK INTRA:                  -1.164
REMARK UNBOUND:                -1.075
REMARK SMILES CCCCCCCCCCCCCCCCCC(=O)[O-]
REMARK SMILES IDX 10 1 11 2 12 3 13 4 14 5 15 6 16 7 17 8 18 9 19 10 20 11
REMARK SMILES IDX 9 12 8 13 7 14 6 15 5 16 4 17 3 18 2 19 1 20
REMARK H PARENT
REMARK Flexibility Score: inf
ROOT
ATOM      1  C   UNL     1      21.671 117.343 296.880  1.00  0.00     0.000 C 
ENDROOT
BRANCH   1   2
ATOM      2  C   UNL     1      21.888 118.317 298.050  1.00  0.00     0.000 C 
BRANCH   2   3
ATOM      3  C   UNL     1      20.898 118.082 299.205  1.00  0.00     0.000 C 
BRANCH   3   4
ATOM      4  C   UNL     1      20.504 119.386 299.918  1.00  0.00     0.000 C 
BRANCH   4   5
ATOM      5  C   UNL     1      21.197 120.623 299.317  1.00  0.00     0.000 C 
BRANCH   5   6
ATOM      6  C   UNL     1      21.622 121.639 300.390  1.00  0.00     0.000 C 
BRANCH   6   7
ATOM      7  C   UNL     1      23.147 121.728 300.548  1.00  0.00     0.006 C 
BRANCH   7   8
ATOM      8  C   UNL     1      23.554 121.614 302.020  1.00  0.00     0.053 C 
BRANCH   8   9
ATOM      9  C   UNL     1      22.918 120.414 302.648  1.00  0.00     0.041 C 
ATOM     10  O   UNL     1      23.369 119.263 302.411  1.00  0.00    -0.550 OA
ATOM     11  O   UNL     1      21.861 120.571 303.534  1.00  0.00    -0.550 OA
ENDBRANCH   8   9
ENDBRANCH   7   8
ENDBRANCH   6   7
ENDBRANCH   5   6
ENDBRANCH   4   5
ENDBRANCH   3   4
ENDBRANCH   2   3
ENDBRANCH   1   2
BRANCH   1  12
ATOM     12  C   UNL     1      20.183 117.159 296.530  1.00  0.00     0.000 C 
BRANCH  12  13
ATOM     13  C   UNL     1      19.701 118.151 295.459  1.00  0.00    -0.000 C 
BRANCH  13  14
ATOM     14  C   UNL     1      18.236 118.576 295.668  1.00  0.00    -0.000 C 
BRANCH  14  15
ATOM     15  C   UNL     1      17.242 117.656 294.939  1.00  0.00    -0.000 C 
BRANCH  15  16
ATOM     16  C   UNL     1      17.387 117.721 293.409  1.00  0.00    -0.000 C 
BRANCH  16  17
ATOM     17  C   UNL     1      17.335 116.332 292.752  1.00  0.00    -0.000 C 
BRANCH  17  18
ATOM     18  C   UNL     1      18.337 116.186 291.593  1.00  0.00    -0.000 C 
BRANCH  18  19
ATOM     19  C   UNL     1      17.650 115.838 290.263  1.00  0.00    -0.003 C 
ATOM     20  C   UNL     1      17.272 114.360 290.165  1.00  0.00     0.004 C 
ENDBRANCH  18  19
ENDBRANCH  17  18
ENDBRANCH  16  17
ENDBRANCH  15  16
ENDBRANCH  14  15
ENDBRANCH  13  14
ENDBRANCH  12  13
ENDBRANCH   1  12
TORSDOF 16
ENDMDL
MODEL 9
REMARK VINA RESULT:    -4.823      3.924      5.422
REMARK INTER + INTRA:         -10.409
REMARK INTER:                  -8.103
REMARK INTRA:                  -2.307
REMARK UNBOUND:                -1.075
REMARK SMILES CCCCCCCCCCCCCCCCCC(=O)[O-]
REMARK SMILES IDX 10 1 11 2 12 3 13 4 14 5 15 6 16 7 17 8 18 9 19 10 20 11
REMARK SMILES IDX 9 12 8 13 7 14 6 15 5 16 4 17 3 18 2 19 1 20
REMARK H PARENT
REMARK Flexibility Score: inf
ROOT
ATOM      1  C   UNL     1      15.200 120.593 293.717  1.00  0.00     0.000 C 
ENDROOT
BRANCH   1   2
ATOM      2  C   UNL     1      16.503 121.396 293.852  1.00  0.00     0.000 C 
BRANCH   2   3
ATOM      3  C   UNL     1      16.793 121.813 295.304  1.00  0.00     0.000 C 
BRANCH   3   4
ATOM      4  C   UNL     1      18.293 121.791 295.637  1.00  0.00     0.000 C 
BRANCH   4   5
ATOM      5  C   UNL     1      18.863 120.362 295.711  1.00  0.00     0.000 C 
BRANCH   5   6
ATOM      6  C   UNL     1      19.995 120.126 294.698  1.00  0.00     0.000 C 
BRANCH   6   7
ATOM      7  C   UNL     1      20.486 118.671 294.689  1.00  0.00     0.006 C 
BRANCH   7   8
ATOM      8  C   UNL     1      20.346 118.037 296.077  1.00  0.00     0.053 C 
BRANCH   8   9
ATOM      9  C   UNL     1      21.677 117.959 296.754  1.00  0.00     0.041 C 
ATOM     10  O   UNL     1      22.239 116.844 296.919  1.00  0.00    -0.550 OA
ATOM     11  O   UNL     1      22.321 119.121 297.157  1.00  0.00    -0.550 OA
ENDBRANCH   8   9
ENDBRANCH   7   8
ENDBRANCH   6   7
ENDBRANCH   5   6
ENDBRANCH   4   5
ENDBRANCH   3   4
ENDBRANCH   2   3
ENDBRANCH   1   2
BRANCH   1  12
ATOM     12  C   UNL     1      14.642 120.134 295.076  1.00  0.00     0.000 C 
BRANCH  12  13
ATOM     13  C   UNL     1      14.643 118.603 295.229  1.00  0.00    -0.000 C 
BRANCH  13  14
ATOM     14  C   UNL     1      15.938 118.078 295.873  1.00  0.00    -0.000 C 
BRANCH  14  15
ATOM     15  C   UNL     1      16.722 117.135 294.943  1.00  0.00    -0.000 C 
BRANCH  15  16
ATOM     16  C   UNL     1      17.181 117.827 293.649  1.00  0.00    -0.000 C 
BRANCH  16  17
ATOM     17  C   UNL     1      17.969 116.884 292.725  1.00  0.00    -0.000 C 
BRANCH  17  18
ATOM     18  C   UNL     1      17.095 115.761 292.138  1.00  0.00    -0.000 C 
BRANCH  18  19
ATOM     19  C   UNL     1      17.750 115.081 290.925  1.00  0.00    -0.003 C 
ATOM     20  C   UNL     1      19.082 115.721 290.538  1.00  0.00     0.004 C 
ENDBRANCH  18  19
ENDBRANCH  17  18
ENDBRANCH  16  17
ENDBRANCH  15  16
ENDBRANCH  14  15
ENDBRANCH  13  14
ENDBRANCH  12  13
ENDBRANCH   1  12
TORSDOF 16
ENDMDL
