MODEL 1
REMARK VINA RESULT:    -3.364      0.000      0.000
REMARK INTER + INTRA:          -5.414
REMARK INTER:                  -5.134
REMARK INTRA:                  -0.279
REMARK UNBOUND:                -0.279
REMARK SMILES CC1=CCC[C@H](C)C(=O)C[C@@H](C(C)C)C(=O)C1
REMARK SMILES IDX 8 1 9 2 6 3 7 4 5 5 4 6 3 7 2 8 1 9 10 11 11 12 15 13 16 14
REMARK SMILES IDX 17 15 12 17 13 18 14 19
REMARK H PARENT
REMARK Flexibility Score: 70.00
ROOT
ATOM      1  C   UNL     1      -5.407  -4.036   5.960  1.00  0.00     0.136 C 
ATOM      2  O   UNL     1      -4.575  -3.169   6.192  1.00  0.00    -0.299 OA
ENDROOT
BRANCH   1   3
ATOM      3  C   UNL     1      -6.791  -3.930   6.567  1.00  0.00     0.053 C 
ATOM      4  C   UNL     1      -6.742  -2.930   7.728  1.00  0.00     0.016 C 
BRANCH   3   5
ATOM      5  C   UNL     1      -7.863  -3.499   5.535  1.00  0.00     0.015 C 
BRANCH   5   6
ATOM      6  C   UNL     1      -8.725  -4.652   4.997  1.00  0.00     0.028 C 
BRANCH   6   7
ATOM      7  C   UNL     1      -8.785  -4.688   3.487  1.00  0.00    -0.028 C 
ATOM      8  C   UNL     1      -8.120  -5.553   2.685  1.00  0.00    -0.070 CG0
ATOM      9  C   UNL     1      -8.439  -5.529   1.210  1.00  0.00     0.039 C 
ATOM     10  G   UNL     1      -7.150  -6.599   3.205  1.00  0.00     0.000 G0
ENDBRANCH   6   7
ENDBRANCH   5   6
ENDBRANCH   3   5
ENDBRANCH   1   3
BRANCH   1  11
ATOM     11  C   UNL     1      -4.987  -5.263   5.184  1.00  0.00     0.087 C 
BRANCH  11  12
ATOM     12  C   UNL     1      -5.037  -5.046   3.648  1.00  0.00     0.066 C 
BRANCH  12  13
ATOM     13  C   UNL     1      -5.693  -6.237   2.948  1.00  0.00     0.140 C 
ATOM     14  O   UNL     1      -5.034  -6.980   2.238  1.00  0.00    -0.299 OA
BRANCH  13  15
ATOM     15  C   UNL     1      -7.138  -6.598   3.193  1.00  0.00     0.106 CG0
ATOM     16  G   UNL     1      -8.106  -5.545   2.685  1.00  0.00     0.000 G0
ENDBRANCH  13  15
ENDBRANCH  12  13
BRANCH  12  17
ATOM     17  C   UNL     1      -3.634  -4.643   3.083  1.00  0.00    -0.006 C 
ATOM     18  C   UNL     1      -3.509  -3.160   2.686  1.00  0.00     0.008 C 
ATOM     19  C   UNL     1      -2.491  -5.053   4.027  1.00  0.00     0.008 C 
ENDBRANCH  12  17
ENDBRANCH  11  12
ENDBRANCH   1  11
TORSDOF 1
ENDMDL
MODEL 2
REMARK VINA RESULT:    -2.720      2.098      4.936
REMARK INTER + INTRA:          -4.431
REMARK INTER:                  -4.430
REMARK INTRA:                  -0.001
REMARK UNBOUND:                -0.279
REMARK SMILES CC1=CCC[C@H](C)C(=O)C[C@@H](C(C)C)C(=O)C1
REMARK SMILES IDX 8 1 9 2 6 3 7 4 5 5 4 6 3 7 2 8 1 9 10 11 11 12 15 13 16 14
REMARK SMILES IDX 17 15 12 17 13 18 14 19
REMARK H PARENT
REMARK Flexibility Score: 70.00
ROOT
ATOM      1  C   UNL     1      -4.656  -3.952   1.879  1.00  0.00     0.136 C 
ATOM      2  O   UNL     1      -5.325  -3.449   0.986  1.00  0.00    -0.299 OA
ENDROOT
BRANCH   1   3
ATOM      3  C   UNL     1      -3.241  -3.469   2.122  1.00  0.00     0.053 C 
ATOM      4  C   UNL     1      -2.823  -2.569   0.953  1.00  0.00     0.016 C 
BRANCH   3   5
ATOM      5  C   UNL     1      -3.093  -2.707   3.462  1.00  0.00     0.015 C 
BRANCH   5   6
ATOM      6  C   UNL     1      -3.081  -3.609   4.707  1.00  0.00     0.028 C 
BRANCH   6   7
ATOM      7  C   UNL     1      -4.030  -3.138   5.785  1.00  0.00    -0.028 C 
ATOM      8  C   UNL     1      -5.181  -3.750   6.154  1.00  0.00    -0.070 CG0
ATOM      9  C   UNL     1      -5.906  -3.210   7.363  1.00  0.00     0.039 C 
ATOM     10  G   UNL     1      -5.720  -4.998   5.478  1.00  0.00     0.000 G0
ENDBRANCH   6   7
ENDBRANCH   5   6
ENDBRANCH   3   5
ENDBRANCH   1   3
BRANCH   1  11
ATOM     11  C   UNL     1      -5.213  -5.141   2.629  1.00  0.00     0.087 C 
BRANCH  11  12
ATOM     12  C   UNL     1      -6.709  -4.963   3.007  1.00  0.00     0.066 C 
BRANCH  12  13
ATOM     13  C   UNL     1      -6.869  -4.737   4.511  1.00  0.00     0.140 C 
ATOM     14  O   UNL     1      -7.949  -4.411   4.978  1.00  0.00    -0.299 OA
BRANCH  13  15
ATOM     15  C   UNL     1      -5.741  -5.011   5.476  1.00  0.00     0.106 CG0
ATOM     16  G   UNL     1      -5.192  -3.750   6.118  1.00  0.00     0.000 G0
ENDBRANCH  13  15
ENDBRANCH  12  13
BRANCH  12  17
ATOM     17  C   UNL     1      -7.587  -6.116   2.417  1.00  0.00    -0.006 C 
ATOM     18  C   UNL     1      -8.349  -5.742   1.132  1.00  0.00     0.008 C 
ATOM     19  C   UNL     1      -6.784  -7.411   2.218  1.00  0.00     0.008 C 
ENDBRANCH  12  17
ENDBRANCH  11  12
ENDBRANCH   1  11
TORSDOF 1
ENDMDL
MODEL 3
REMARK VINA RESULT:    -2.663      2.103      4.568
REMARK INTER + INTRA:          -4.344
REMARK INTER:                  -4.646
REMARK INTRA:                   0.302
REMARK UNBOUND:                -0.279
REMARK SMILES CC1=CCC[C@H](C)C(=O)C[C@@H](C(C)C)C(=O)C1
REMARK SMILES IDX 8 1 9 2 6 3 7 4 5 5 4 6 3 7 2 8 1 9 10 11 11 12 15 13 16 14
REMARK SMILES IDX 17 15 12 17 13 18 14 19
REMARK H PARENT
REMARK Flexibility Score: 70.00
ROOT
ATOM      1  C   UNL     1      -4.767  -4.815   3.550  1.00  0.00     0.136 C 
ATOM      2  O   UNL     1      -4.629  -4.953   2.342  1.00  0.00    -0.299 OA
ENDROOT
BRANCH   1   3
ATOM      3  C   UNL     1      -3.659  -4.180   4.365  1.00  0.00     0.053 C 
ATOM      4  C   UNL     1      -2.652  -3.536   3.405  1.00  0.00     0.016 C 
BRANCH   3   5
ATOM      5  C   UNL     1      -4.188  -3.125   5.369  1.00  0.00     0.015 C 
BRANCH   5   6
ATOM      6  C   UNL     1      -4.886  -3.720   6.604  1.00  0.00     0.028 C 
BRANCH   6   7
ATOM      7  C   UNL     1      -6.059  -2.891   7.074  1.00  0.00    -0.028 C 
ATOM      8  C   UNL     1      -7.367  -3.212   6.932  1.00  0.00    -0.070 CG0
ATOM      9  C   UNL     1      -8.385  -2.329   7.612  1.00  0.00     0.039 C 
ATOM     10  G   UNL     1      -7.850  -4.458   6.210  1.00  0.00     0.000 G0
ENDBRANCH   6   7
ENDBRANCH   5   6
ENDBRANCH   3   5
ENDBRANCH   1   3
BRANCH   1  11
ATOM     11  C   UNL     1      -5.984  -5.410   4.220  1.00  0.00     0.087 C 
BRANCH  11  12
ATOM     12  C   UNL     1      -7.315  -4.859   3.642  1.00  0.00     0.066 C 
BRANCH  12  13
ATOM     13  C   UNL     1      -8.153  -4.195   4.736  1.00  0.00     0.140 C 
ATOM     14  O   UNL     1      -9.123  -3.513   4.446  1.00  0.00    -0.299 OA
BRANCH  13  15
ATOM     15  C   UNL     1      -7.881  -4.443   6.199  1.00  0.00     0.106 CG0
ATOM     16  G   UNL     1      -7.368  -3.211   6.923  1.00  0.00     0.000 G0
ENDBRANCH  13  15
ENDBRANCH  12  13
BRANCH  12  17
ATOM     17  C   UNL     1      -8.069  -5.947   2.806  1.00  0.00    -0.006 C 
ATOM     18  C   UNL     1      -8.731  -5.417   1.521  1.00  0.00     0.008 C 
ATOM     19  C   UNL     1      -7.176  -7.161   2.499  1.00  0.00     0.008 C 
ENDBRANCH  12  17
ENDBRANCH  11  12
ENDBRANCH   1  11
TORSDOF 1
ENDMDL
MODEL 4
REMARK VINA RESULT:    -2.625     12.125     13.835
REMARK INTER + INTRA:          -4.286
REMARK INTER:                  -4.389
REMARK INTRA:                   0.103
REMARK UNBOUND:                -0.279
REMARK SMILES CC1=CCC[C@H](C)C(=O)C[C@@H](C(C)C)C(=O)C1
REMARK SMILES IDX 8 1 9 2 6 3 7 4 5 5 4 6 3 7 2 8 1 9 10 11 11 12 15 13 16 14
REMARK SMILES IDX 17 15 12 17 13 18 14 19
REMARK H PARENT
REMARK Flexibility Score: 70.00
ROOT
ATOM      1  C   UNL     1       2.121  -5.573  -4.641  1.00  0.00     0.136 C 
ATOM      2  O   UNL     1       1.311  -5.760  -3.743  1.00  0.00    -0.299 OA
ENDROOT
BRANCH   1   3
ATOM      3  C   UNL     1       3.233  -4.562  -4.452  1.00  0.00     0.053 C 
ATOM      4  C   UNL     1       2.620  -3.245  -3.960  1.00  0.00     0.016 C 
BRANCH   3   5
ATOM      5  C   UNL     1       4.318  -5.049  -3.459  1.00  0.00     0.015 C 
BRANCH   5   6
ATOM      6  C   UNL     1       4.378  -6.575  -3.283  1.00  0.00     0.028 C 
BRANCH   6   7
ATOM      7  C   UNL     1       5.322  -7.243  -4.257  1.00  0.00    -0.028 C 
ATOM      8  C   UNL     1       5.037  -8.318  -5.030  1.00  0.00    -0.070 CG0
ATOM      9  C   UNL     1       6.063  -8.736  -6.055  1.00  0.00     0.039 C 
ATOM     10  G   UNL     1       3.711  -9.056  -4.981  1.00  0.00     0.000 G0
ENDBRANCH   6   7
ENDBRANCH   5   6
ENDBRANCH   3   5
ENDBRANCH   1   3
BRANCH   1  11
ATOM     11  C   UNL     1       1.908  -6.258  -5.971  1.00  0.00     0.087 C 
BRANCH  11  12
ATOM     12  C   UNL     1       1.534  -7.757  -5.820  1.00  0.00     0.066 C 
BRANCH  12  13
ATOM     13  C   UNL     1       2.746  -8.652  -6.082  1.00  0.00     0.140 C 
ATOM     14  O   UNL     1       3.029  -8.998  -7.218  1.00  0.00    -0.299 OA
BRANCH  13  15
ATOM     15  C   UNL     1       3.690  -9.048  -4.972  1.00  0.00     0.106 CG0
ATOM     16  G   UNL     1       5.019  -8.317  -5.038  1.00  0.00     0.000 G0
ENDBRANCH  13  15
ENDBRANCH  12  13
BRANCH  12  17
ATOM     17  C   UNL     1       0.260  -8.115  -6.656  1.00  0.00    -0.006 C 
ATOM     18  C   UNL     1      -0.841  -8.840  -5.860  1.00  0.00     0.008 C 
ATOM     19  C   UNL     1      -0.313  -6.890  -7.388  1.00  0.00     0.008 C 
ENDBRANCH  12  17
ENDBRANCH  11  12
ENDBRANCH   1  11
TORSDOF 1
ENDMDL
MODEL 5
REMARK VINA RESULT:    -2.547      2.185      5.115
REMARK INTER + INTRA:          -4.167
REMARK INTER:                  -4.214
REMARK INTRA:                   0.047
REMARK UNBOUND:                -0.279
REMARK SMILES CC1=CCC[C@H](C)C(=O)C[C@@H](C(C)C)C(=O)C1
REMARK SMILES IDX 8 1 9 2 6 3 7 4 5 5 4 6 3 7 2 8 1 9 10 11 11 12 15 13 16 14
REMARK SMILES IDX 17 15 12 17 13 18 14 19
REMARK H PARENT
REMARK Flexibility Score: 70.00
ROOT
ATOM      1  C   UNL     1      -8.331  -4.362   4.572  1.00  0.00     0.136 C 
ATOM      2  O   UNL     1      -9.086  -3.491   4.159  1.00  0.00    -0.299 OA
ENDROOT
BRANCH   1   3
ATOM      3  C   UNL     1      -7.889  -5.475   3.644  1.00  0.00     0.053 C 
ATOM      4  C   UNL     1      -9.125  -6.042   2.935  1.00  0.00     0.016 C 
BRANCH   3   5
ATOM      5  C   UNL     1      -6.846  -5.002   2.601  1.00  0.00     0.015 C 
BRANCH   5   6
ATOM      6  C   UNL     1      -5.427  -5.548   2.832  1.00  0.00     0.028 C 
BRANCH   6   7
ATOM      7  C   UNL     1      -4.450  -4.481   3.272  1.00  0.00    -0.028 C 
ATOM      8  C   UNL     1      -4.251  -4.063   4.545  1.00  0.00    -0.070 CG0
ATOM      9  C   UNL     1      -3.114  -3.101   4.797  1.00  0.00     0.039 C 
ATOM     10  G   UNL     1      -5.044  -4.581   5.731  1.00  0.00     0.000 G0
ENDBRANCH   6   7
ENDBRANCH   5   6
ENDBRANCH   3   5
ENDBRANCH   1   3
BRANCH   1  11
ATOM     11  C   UNL     1      -7.970  -4.380   6.039  1.00  0.00     0.087 C 
BRANCH  11  12
ATOM     12  C   UNL     1      -7.133  -3.144   6.466  1.00  0.00     0.066 C 
BRANCH  12  13
ATOM     13  C   UNL     1      -5.651  -3.502   6.585  1.00  0.00     0.140 C 
ATOM     14  O   UNL     1      -4.951  -2.970   7.432  1.00  0.00    -0.299 OA
BRANCH  13  15
ATOM     15  C   UNL     1      -5.031  -4.591   5.744  1.00  0.00     0.106 CG0
ATOM     16  G   UNL     1      -4.257  -4.052   4.555  1.00  0.00     0.000 G0
ENDBRANCH  13  15
ENDBRANCH  12  13
BRANCH  12  17
ATOM     17  C   UNL     1      -7.746  -2.448   7.727  1.00  0.00    -0.006 C 
ATOM     18  C   UNL     1      -7.847  -0.915   7.622  1.00  0.00     0.008 C 
ATOM     19  C   UNL     1      -9.100  -3.058   8.123  1.00  0.00     0.008 C 
ENDBRANCH  12  17
ENDBRANCH  11  12
ENDBRANCH   1  11
TORSDOF 1
ENDMDL
MODEL 6
REMARK VINA RESULT:    -2.432      1.718      4.035
REMARK INTER + INTRA:          -3.990
REMARK INTER:                  -4.135
REMARK INTRA:                   0.145
REMARK UNBOUND:                -0.279
REMARK SMILES CC1=CCC[C@H](C)C(=O)C[C@@H](C(C)C)C(=O)C1
REMARK SMILES IDX 8 1 9 2 6 3 7 4 5 5 4 6 3 7 2 8 1 9 10 11 11 12 15 13 16 14
REMARK SMILES IDX 17 15 12 17 13 18 14 19
REMARK H PARENT
REMARK Flexibility Score: 70.00
ROOT
ATOM      1  C   UNL     1      -6.447  -5.343   2.964  1.00  0.00     0.136 C 
ATOM      2  O   UNL     1      -6.005  -6.484   2.924  1.00  0.00    -0.299 OA
ENDROOT
BRANCH   1   3
ATOM      3  C   UNL     1      -7.926  -5.102   2.743  1.00  0.00     0.053 C 
ATOM      4  C   UNL     1      -8.641  -6.457   2.689  1.00  0.00     0.016 C 
BRANCH   3   5
ATOM      5  C   UNL     1      -8.555  -4.210   3.844  1.00  0.00     0.015 C 
BRANCH   5   6
ATOM      6  C   UNL     1      -8.391  -4.755   5.272  1.00  0.00     0.028 C 
BRANCH   6   7
ATOM      7  C   UNL     1      -7.968  -3.694   6.263  1.00  0.00    -0.028 C 
ATOM      8  C   UNL     1      -6.719  -3.520   6.755  1.00  0.00    -0.070 CG0
ATOM      9  C   UNL     1      -6.466  -2.303   7.612  1.00  0.00     0.039 C 
ATOM     10  G   UNL     1      -5.550  -4.427   6.415  1.00  0.00     0.000 G0
ENDBRANCH   6   7
ENDBRANCH   5   6
ENDBRANCH   3   5
ENDBRANCH   1   3
BRANCH   1  11
ATOM     11  C   UNL     1      -5.480  -4.190   3.095  1.00  0.00     0.087 C 
BRANCH  11  12
ATOM     12  C   UNL     1      -4.318  -4.491   4.080  1.00  0.00     0.066 C 
BRANCH  12  13
ATOM     13  C   UNL     1      -4.576  -3.846   5.442  1.00  0.00     0.140 C 
ATOM     14  O   UNL     1      -4.059  -2.778   5.731  1.00  0.00    -0.299 OA
BRANCH  13  15
ATOM     15  C   UNL     1      -5.552  -4.443   6.427  1.00  0.00     0.106 CG0
ATOM     16  G   UNL     1      -6.707  -3.513   6.753  1.00  0.00     0.000 G0
ENDBRANCH  13  15
ENDBRANCH  12  13
BRANCH  12  17
ATOM     17  C   UNL     1      -2.929  -4.152   3.444  1.00  0.00    -0.006 C 
ATOM     18  C   UNL     1      -1.888  -5.282   3.550  1.00  0.00     0.008 C 
ATOM     19  C   UNL     1      -3.061  -3.666   1.991  1.00  0.00     0.008 C 
ENDBRANCH  12  17
ENDBRANCH  11  12
ENDBRANCH   1  11
TORSDOF 1
ENDMDL
MODEL 7
REMARK VINA RESULT:    -2.427     16.290     18.587
REMARK INTER + INTRA:          -3.984
REMARK INTER:                  -3.691
REMARK INTRA:                  -0.293
REMARK UNBOUND:                -0.279
REMARK SMILES CC1=CCC[C@H](C)C(=O)C[C@@H](C(C)C)C(=O)C1
REMARK SMILES IDX 8 1 9 2 6 3 7 4 5 5 4 6 3 7 2 8 1 9 10 11 11 12 15 13 16 14
REMARK SMILES IDX 17 15 12 17 13 18 14 19
REMARK H PARENT
REMARK Flexibility Score: 70.00
ROOT
ATOM      1  C   UNL     1       6.356   5.121   6.734  1.00  0.00     0.136 C 
ATOM      2  O   UNL     1       6.409   4.010   6.224  1.00  0.00    -0.299 OA
ENDROOT
BRANCH   1   3
ATOM      3  C   UNL     1       5.064   5.598   7.365  1.00  0.00     0.053 C 
ATOM      4  C   UNL     1       3.906   4.767   6.800  1.00  0.00     0.016 C 
BRANCH   3   5
ATOM      5  C   UNL     1       5.086   5.500   8.911  1.00  0.00     0.015 C 
BRANCH   5   6
ATOM      6  C   UNL     1       5.149   6.857   9.631  1.00  0.00     0.028 C 
BRANCH   6   7
ATOM      7  C   UNL     1       6.275   6.938  10.637  1.00  0.00    -0.028 C 
ATOM      8  C   UNL     1       7.539   7.354  10.383  1.00  0.00    -0.070 CG0
ATOM      9  C   UNL     1       8.473   7.516  11.558  1.00  0.00     0.039 C 
ATOM     10  G   UNL     1       8.027   7.754   9.002  1.00  0.00     0.000 G0
ENDBRANCH   6   7
ENDBRANCH   5   6
ENDBRANCH   3   5
ENDBRANCH   1   3
BRANCH   1  11
ATOM     11  C   UNL     1       7.543   6.046   6.596  1.00  0.00     0.087 C 
BRANCH  11  12
ATOM     12  C   UNL     1       8.718   5.656   7.534  1.00  0.00     0.066 C 
BRANCH  12  13
ATOM     13  C   UNL     1       9.091   6.819   8.454  1.00  0.00     0.140 C 
ATOM     14  O   UNL     1      10.262   7.069   8.695  1.00  0.00    -0.299 OA
BRANCH  13  15
ATOM     15  C   UNL     1       8.045   7.758   9.005  1.00  0.00     0.106 CG0
ATOM     16  G   UNL     1       7.554   7.353  10.383  1.00  0.00     0.000 G0
ENDBRANCH  13  15
ENDBRANCH  12  13
BRANCH  12  17
ATOM     17  C   UNL     1       9.912   5.045   6.729  1.00  0.00    -0.006 C 
ATOM     18  C   UNL     1      10.204   3.566   7.047  1.00  0.00     0.008 C 
ATOM     19  C   UNL     1       9.757   5.257   5.214  1.00  0.00     0.008 C 
ENDBRANCH  12  17
ENDBRANCH  11  12
ENDBRANCH   1  11
TORSDOF 1
ENDMDL
MODEL 8
REMARK VINA RESULT:    -2.169     13.043     14.691
REMARK INTER + INTRA:          -3.589
REMARK INTER:                  -3.488
REMARK INTRA:                  -0.101
REMARK UNBOUND:                -0.279
REMARK SMILES CC1=CCC[C@H](C)C(=O)C[C@@H](C(C)C)C(=O)C1
REMARK SMILES IDX 8 1 9 2 6 3 7 4 5 5 4 6 3 7 2 8 1 9 10 11 11 12 15 13 16 14
REMARK SMILES IDX 17 15 12 17 13 18 14 19
REMARK H PARENT
REMARK Flexibility Score: 70.00
ROOT
ATOM      1  C   UNL     1       8.723  -4.068   6.865  1.00  0.00     0.136 C 
ATOM      2  O   UNL     1       9.748  -3.480   7.186  1.00  0.00    -0.299 OA
ENDROOT
BRANCH   1   3
ATOM      3  C   UNL     1       8.004  -3.682   5.590  1.00  0.00     0.053 C 
ATOM      4  C   UNL     1       8.033  -2.155   5.454  1.00  0.00     0.016 C 
BRANCH   3   5
ATOM      5  C   UNL     1       8.624  -4.341   4.332  1.00  0.00     0.015 C 
BRANCH   5   6
ATOM      6  C   UNL     1       7.626  -5.139   3.477  1.00  0.00     0.028 C 
BRANCH   6   7
ATOM      7  C   UNL     1       7.812  -6.635   3.597  1.00  0.00    -0.028 C 
ATOM      8  C   UNL     1       7.189  -7.444   4.486  1.00  0.00    -0.070 CG0
ATOM      9  C   UNL     1       7.389  -8.934   4.338  1.00  0.00     0.039 C 
ATOM     10  G   UNL     1       6.235  -6.939   5.553  1.00  0.00     0.000 G0
ENDBRANCH   6   7
ENDBRANCH   5   6
ENDBRANCH   3   5
ENDBRANCH   1   3
BRANCH   1  11
ATOM     11  C   UNL     1       8.126  -5.073   7.823  1.00  0.00     0.087 C 
BRANCH  11  12
ATOM     12  C   UNL     1       8.192  -6.527   7.284  1.00  0.00     0.066 C 
BRANCH  12  13
ATOM     13  C   UNL     1       6.794  -7.051   6.953  1.00  0.00     0.140 C 
ATOM     14  O   UNL     1       6.068  -7.484   7.835  1.00  0.00    -0.299 OA
BRANCH  13  15
ATOM     15  C   UNL     1       6.222  -6.953   5.559  1.00  0.00     0.106 CG0
ATOM     16  G   UNL     1       7.185  -7.437   4.490  1.00  0.00     0.000 G0
ENDBRANCH  13  15
ENDBRANCH  12  13
BRANCH  12  17
ATOM     17  C   UNL     1       9.033  -7.449   8.228  1.00  0.00    -0.006 C 
ATOM     18  C   UNL     1      10.315  -8.015   7.590  1.00  0.00     0.008 C 
ATOM     19  C   UNL     1       9.347  -6.768   9.571  1.00  0.00     0.008 C 
ENDBRANCH  12  17
ENDBRANCH  11  12
ENDBRANCH   1  11
TORSDOF 1
ENDMDL
MODEL 9
REMARK VINA RESULT:    -2.164     13.489     14.880
REMARK INTER + INTRA:          -3.582
REMARK INTER:                  -3.439
REMARK INTRA:                  -0.143
REMARK UNBOUND:                -0.279
REMARK SMILES CC1=CCC[C@H](C)C(=O)C[C@@H](C(C)C)C(=O)C1
REMARK SMILES IDX 8 1 9 2 6 3 7 4 5 5 4 6 3 7 2 8 1 9 10 11 11 12 15 13 16 14
REMARK SMILES IDX 17 15 12 17 13 18 14 19
REMARK H PARENT
REMARK Flexibility Score: 70.00
ROOT
ATOM      1  C   UNL     1       8.546  -4.775   7.237  1.00  0.00     0.136 C 
ATOM      2  O   UNL     1       8.798  -4.766   8.435  1.00  0.00    -0.299 OA
ENDROOT
BRANCH   1   3
ATOM      3  C   UNL     1       9.273  -3.823   6.310  1.00  0.00     0.053 C 
ATOM      4  C   UNL     1      10.439  -3.187   7.075  1.00  0.00     0.016 C 
BRANCH   3   5
ATOM      5  C   UNL     1       9.793  -4.522   5.028  1.00  0.00     0.015 C 
BRANCH   5   6
ATOM      6  C   UNL     1       9.043  -4.131   3.744  1.00  0.00     0.028 C 
BRANCH   6   7
ATOM      7  C   UNL     1       8.918  -5.275   2.764  1.00  0.00    -0.028 C 
ATOM      8  C   UNL     1       8.011  -6.278   2.824  1.00  0.00    -0.070 CG0
ATOM      9  C   UNL     1       7.947  -7.237   1.659  1.00  0.00     0.039 C 
ATOM     10  G   UNL     1       7.002  -6.428   3.948  1.00  0.00     0.000 G0
ENDBRANCH   6   7
ENDBRANCH   5   6
ENDBRANCH   3   5
ENDBRANCH   1   3
BRANCH   1  11
ATOM     11  C   UNL     1       7.414  -5.641   6.735  1.00  0.00     0.087 C 
BRANCH  11  12
ATOM     12  C   UNL     1       7.876  -7.078   6.371  1.00  0.00     0.066 C 
BRANCH  12  13
ATOM     13  C   UNL     1       7.375  -7.477   4.982  1.00  0.00     0.140 C 
ATOM     14  O   UNL     1       7.195  -8.652   4.701  1.00  0.00    -0.299 OA
BRANCH  13  15
ATOM     15  C   UNL     1       6.986  -6.442   3.955  1.00  0.00     0.106 CG0
ATOM     16  G   UNL     1       8.011  -6.296   2.844  1.00  0.00     0.000 G0
ENDBRANCH  13  15
ENDBRANCH  12  13
BRANCH  12  17
ATOM     17  C   UNL     1       7.532  -8.094   7.511  1.00  0.00    -0.006 C 
ATOM     18  C   UNL     1       8.588  -8.177   8.629  1.00  0.00     0.008 C 
ATOM     19  C   UNL     1       6.133  -7.852   8.099  1.00  0.00     0.008 C 
ENDBRANCH  12  17
ENDBRANCH  11  12
ENDBRANCH   1  11
TORSDOF 1
ENDMDL
