MODEL 1
REMARK VINA RESULT:    -4.825      0.000      0.000
REMARK INTER + INTRA:          -4.825
REMARK INTER:                  -4.825
REMARK INTRA:                   0.000
REMARK UNBOUND:                 0.000
REMARK SMILES CC1=CC(=O)[C@H]2C[C@@H]1C2(C)C
REMARK SMILES IDX 1 1 2 2 3 3 4 4 5 5 6 6 7 7 8 8 9 9 10 10 11 11
REMARK H PARENT
REMARK Flexibility Score: inf
ROOT
ATOM      1  C   UNL     1      -0.108   8.428  18.598  1.00  0.00     0.040 C 
ATOM      2  C   UNL     1       1.089   9.245  18.229  1.00  0.00    -0.066 C 
ATOM      3  C   UNL     1       1.777   9.982  19.146  1.00  0.00     0.047 C 
ATOM      4  C   UNL     1       2.955  10.752  18.628  1.00  0.00     0.159 C 
ATOM      5  O   UNL     1       3.645  11.502  19.367  1.00  0.00    -0.295 OA
ATOM      6  C   UNL     1       3.258  10.564  17.142  1.00  0.00     0.067 C 
ATOM      7  C   UNL     1       3.158   9.037  16.927  1.00  0.00     0.021 C 
ATOM      8  C   UNL     1       1.634   9.245  16.785  1.00  0.00     0.022 C 
ATOM      9  C   UNL     1       1.931  10.707  16.344  1.00  0.00    -0.019 C 
ATOM     10  C   UNL     1       0.932  11.820  16.767  1.00  0.00     0.012 C 
ATOM     11  C   UNL     1       2.170  10.824  14.817  1.00  0.00     0.012 C 
ENDROOT
TORSDOF 0
ENDMDL
MODEL 2
REMARK VINA RESULT:    -4.676      5.925      7.571
REMARK INTER + INTRA:          -4.676
REMARK INTER:                  -4.676
REMARK INTRA:                   0.000
REMARK UNBOUND:                 0.000
REMARK SMILES CC1=CC(=O)[C@H]2C[C@@H]1C2(C)C
REMARK SMILES IDX 1 1 2 2 3 3 4 4 5 5 6 6 7 7 8 8 9 9 10 10 11 11
REMARK H PARENT
REMARK Flexibility Score: inf
ROOT
ATOM      1  C   UNL     1       0.180  17.164  22.232  1.00  0.00     0.040 C 
ATOM      2  C   UNL     1       1.311  16.196  22.078  1.00  0.00    -0.066 C 
ATOM      3  C   UNL     1       1.671  15.685  20.867  1.00  0.00     0.047 C 
ATOM      4  C   UNL     1       2.823  14.725  20.869  1.00  0.00     0.159 C 
ATOM      5  O   UNL     1       3.223  14.153  19.821  1.00  0.00    -0.295 OA
ATOM      6  C   UNL     1       3.476  14.490  22.231  1.00  0.00     0.067 C 
ATOM      7  C   UNL     1       3.629  15.907  22.825  1.00  0.00     0.021 C 
ATOM      8  C   UNL     1       2.163  15.775  23.293  1.00  0.00     0.022 C 
ATOM      9  C   UNL     1       2.357  14.232  23.279  1.00  0.00    -0.019 C 
ATOM     10  C   UNL     1       1.150  13.343  22.866  1.00  0.00     0.012 C 
ATOM     11  C   UNL     1       2.918  13.696  24.621  1.00  0.00     0.012 C 
ENDROOT
TORSDOF 0
ENDMDL
MODEL 3
REMARK VINA RESULT:    -4.593      5.862      7.200
REMARK INTER + INTRA:          -4.593
REMARK INTER:                  -4.593
REMARK INTRA:                   0.000
REMARK UNBOUND:                 0.000
REMARK SMILES CC1=CC(=O)[C@H]2C[C@@H]1C2(C)C
REMARK SMILES IDX 1 1 2 2 3 3 4 4 5 5 6 6 7 7 8 8 9 9 10 10 11 11
REMARK H PARENT
REMARK Flexibility Score: inf
ROOT
ATOM      1  C   UNL     1       3.599  14.879  23.872  1.00  0.00     0.040 C 
ATOM      2  C   UNL     1       2.470  15.027  22.902  1.00  0.00    -0.066 C 
ATOM      3  C   UNL     1       1.477  14.099  22.794  1.00  0.00     0.047 C 
ATOM      4  C   UNL     1       0.414  14.381  21.775  1.00  0.00     0.159 C 
ATOM      5  O   UNL     1      -0.532  13.582  21.552  1.00  0.00    -0.295 OA
ATOM      6  C   UNL     1       0.560  15.707  21.027  1.00  0.00     0.067 C 
ATOM      7  C   UNL     1       0.882  16.732  22.136  1.00  0.00     0.021 C 
ATOM      8  C   UNL     1       2.353  16.279  22.008  1.00  0.00     0.022 C 
ATOM      9  C   UNL     1       2.033  15.845  20.549  1.00  0.00    -0.019 C 
ATOM     10  C   UNL     1       2.747  14.585  19.983  1.00  0.00     0.012 C 
ATOM     11  C   UNL     1       2.218  17.003  19.536  1.00  0.00     0.012 C 
ENDROOT
TORSDOF 0
ENDMDL
MODEL 4
REMARK VINA RESULT:    -4.513      5.789      7.189
REMARK INTER + INTRA:          -4.513
REMARK INTER:                  -4.513
REMARK INTRA:                   0.000
REMARK UNBOUND:                 0.000
REMARK SMILES CC1=CC(=O)[C@H]2C[C@@H]1C2(C)C
REMARK SMILES IDX 1 1 2 2 3 3 4 4 5 5 6 6 7 7 8 8 9 9 10 10 11 11
REMARK H PARENT
REMARK Flexibility Score: inf
ROOT
ATOM      1  C   UNL     1       3.248  13.732  19.655  1.00  0.00     0.040 C 
ATOM      2  C   UNL     1       2.916  14.298  21.000  1.00  0.00    -0.066 C 
ATOM      3  C   UNL     1       3.100  13.592  22.151  1.00  0.00     0.047 C 
ATOM      4  C   UNL     1       2.720  14.290  23.423  1.00  0.00     0.159 C 
ATOM      5  O   UNL     1       2.804  13.730  24.547  1.00  0.00    -0.295 OA
ATOM      6  C   UNL     1       2.224  15.727  23.259  1.00  0.00     0.067 C 
ATOM      7  C   UNL     1       3.235  16.365  22.281  1.00  0.00     0.021 C 
ATOM      8  C   UNL     1       2.395  15.743  21.143  1.00  0.00     0.022 C 
ATOM      9  C   UNL     1       1.176  15.760  22.110  1.00  0.00    -0.019 C 
ATOM     10  C   UNL     1       0.147  14.599  22.016  1.00  0.00     0.012 C 
ATOM     11  C   UNL     1       0.401  17.101  22.058  1.00  0.00     0.012 C 
ENDROOT
TORSDOF 0
ENDMDL
MODEL 5
REMARK VINA RESULT:    -4.459      1.964      3.946
REMARK INTER + INTRA:          -4.459
REMARK INTER:                  -4.459
REMARK INTRA:                   0.000
REMARK UNBOUND:                 0.000
REMARK SMILES CC1=CC(=O)[C@H]2C[C@@H]1C2(C)C
REMARK SMILES IDX 1 1 2 2 3 3 4 4 5 5 6 6 7 7 8 8 9 9 10 10 11 11
REMARK H PARENT
REMARK Flexibility Score: inf
ROOT
ATOM      1  C   UNL     1       2.985   8.849  16.896  1.00  0.00     0.040 C 
ATOM      2  C   UNL     1       1.853   9.256  17.786  1.00  0.00    -0.066 C 
ATOM      3  C   UNL     1       1.270  10.485  17.705  1.00  0.00     0.047 C 
ATOM      4  C   UNL     1       0.148  10.750  18.663  1.00  0.00     0.159 C 
ATOM      5  O   UNL     1      -0.443  11.860  18.715  1.00  0.00    -0.295 OA
ATOM      6  C   UNL     1      -0.228   9.579  19.571  1.00  0.00     0.067 C 
ATOM      7  C   UNL     1      -0.274   8.363  18.619  1.00  0.00     0.021 C 
ATOM      8  C   UNL     1       1.256   8.267  18.809  1.00  0.00     0.022 C 
ATOM      9  C   UNL     1       1.075   8.985  20.177  1.00  0.00    -0.019 C 
ATOM     10  C   UNL     1       2.186   9.967  20.645  1.00  0.00     0.012 C 
ATOM     11  C   UNL     1       0.789   7.990  21.331  1.00  0.00     0.012 C 
ENDROOT
TORSDOF 0
ENDMDL
MODEL 6
REMARK VINA RESULT:    -4.428      5.736      7.231
REMARK INTER + INTRA:          -4.428
REMARK INTER:                  -4.428
REMARK INTRA:                   0.000
REMARK UNBOUND:                 0.000
REMARK SMILES CC1=CC(=O)[C@H]2C[C@@H]1C2(C)C
REMARK SMILES IDX 1 1 2 2 3 3 4 4 5 5 6 6 7 7 8 8 9 9 10 10 11 11
REMARK H PARENT
REMARK Flexibility Score: inf
ROOT
ATOM      1  C   UNL     1       2.120  16.765  18.605  1.00  0.00     0.040 C 
ATOM      2  C   UNL     1       1.722  15.892  19.753  1.00  0.00    -0.066 C 
ATOM      3  C   UNL     1       0.613  15.100  19.714  1.00  0.00     0.047 C 
ATOM      4  C   UNL     1       0.341  14.282  20.940  1.00  0.00     0.159 C 
ATOM      5  O   UNL     1      -0.673  13.543  21.044  1.00  0.00    -0.295 OA
ATOM      6  C   UNL     1       1.380  14.407  22.055  1.00  0.00     0.067 C 
ATOM      7  C   UNL     1       2.735  14.302  21.321  1.00  0.00     0.021 C 
ATOM      8  C   UNL     1       2.592  15.811  21.024  1.00  0.00     0.022 C 
ATOM      9  C   UNL     1       1.683  15.916  22.281  1.00  0.00    -0.019 C 
ATOM     10  C   UNL     1       0.496  16.920  22.249  1.00  0.00     0.012 C 
ATOM     11  C   UNL     1       2.496  16.166  23.577  1.00  0.00     0.012 C 
ENDROOT
TORSDOF 0
ENDMDL
MODEL 7
REMARK VINA RESULT:    -4.359      5.783      7.201
REMARK INTER + INTRA:          -4.359
REMARK INTER:                  -4.359
REMARK INTRA:                   0.000
REMARK UNBOUND:                 0.000
REMARK SMILES CC1=CC(=O)[C@H]2C[C@@H]1C2(C)C
REMARK SMILES IDX 1 1 2 2 3 3 4 4 5 5 6 6 7 7 8 8 9 9 10 10 11 11
REMARK H PARENT
REMARK Flexibility Score: inf
ROOT
ATOM      1  C   UNL     1      -0.596  13.495  20.533  1.00  0.00     0.040 C 
ATOM      2  C   UNL     1       0.333  14.658  20.679  1.00  0.00    -0.066 C 
ATOM      3  C   UNL     1       0.872  15.297  19.602  1.00  0.00     0.047 C 
ATOM      4  C   UNL     1       1.788  16.445  19.904  1.00  0.00     0.159 C 
ATOM      5  O   UNL     1       2.380  17.088  18.998  1.00  0.00    -0.295 OA
ATOM      6  C   UNL     1       1.953  16.779  21.387  1.00  0.00     0.067 C 
ATOM      7  C   UNL     1       0.511  16.754  21.941  1.00  0.00     0.021 C 
ATOM      8  C   UNL     1       0.681  15.224  22.071  1.00  0.00     0.022 C 
ATOM      9  C   UNL     1       2.216  15.459  22.165  1.00  0.00    -0.019 C 
ATOM     10  C   UNL     1       3.163  14.403  21.528  1.00  0.00     0.012 C 
ATOM     11  C   UNL     1       2.685  15.716  23.620  1.00  0.00     0.012 C 
ENDROOT
TORSDOF 0
ENDMDL
MODEL 8
REMARK VINA RESULT:    -4.295      1.874      3.346
REMARK INTER + INTRA:          -4.295
REMARK INTER:                  -4.295
REMARK INTRA:                   0.000
REMARK UNBOUND:                 0.000
REMARK SMILES CC1=CC(=O)[C@H]2C[C@@H]1C2(C)C
REMARK SMILES IDX 1 1 2 2 3 3 4 4 5 5 6 6 7 7 8 8 9 9 10 10 11 11
REMARK H PARENT
REMARK Flexibility Score: inf
ROOT
ATOM      1  C   UNL     1       4.539  11.835  18.668  1.00  0.00     0.040 C 
ATOM      2  C   UNL     1       3.549  11.220  17.731  1.00  0.00    -0.066 C 
ATOM      3  C   UNL     1       3.192  11.815  16.557  1.00  0.00     0.047 C 
ATOM      4  C   UNL     1       2.187  11.080  15.721  1.00  0.00     0.159 C 
ATOM      5  O   UNL     1       1.746  11.545  14.638  1.00  0.00    -0.295 OA
ATOM      6  C   UNL     1       1.736   9.730  16.277  1.00  0.00     0.067 C 
ATOM      7  C   UNL     1       3.049   9.044  16.715  1.00  0.00     0.021 C 
ATOM      8  C   UNL     1       2.924   9.842  18.032  1.00  0.00     0.022 C 
ATOM      9  C   UNL     1       1.390   9.904  17.783  1.00  0.00    -0.019 C 
ATOM     10  C   UNL     1       0.625  11.185  18.220  1.00  0.00     0.012 C 
ATOM     11  C   UNL     1       0.648   8.674  18.364  1.00  0.00     0.012 C 
ENDROOT
TORSDOF 0
ENDMDL
MODEL 9
REMARK VINA RESULT:    -4.288      2.449      3.590
REMARK INTER + INTRA:          -4.288
REMARK INTER:                  -4.288
REMARK INTRA:                   0.000
REMARK UNBOUND:                 0.000
REMARK SMILES CC1=CC(=O)[C@H]2C[C@@H]1C2(C)C
REMARK SMILES IDX 1 1 2 2 3 3 4 4 5 5 6 6 7 7 8 8 9 9 10 10 11 11
REMARK H PARENT
REMARK Flexibility Score: inf
ROOT
ATOM      1  C   UNL     1      -1.654  10.089  21.393  1.00  0.00     0.040 C 
ATOM      2  C   UNL     1      -0.549   9.337  20.721  1.00  0.00    -0.066 C 
ATOM      3  C   UNL     1       0.214   8.421  21.381  1.00  0.00     0.047 C 
ATOM      4  C   UNL     1       1.286   7.749  20.577  1.00  0.00     0.159 C 
ATOM      5  O   UNL     1       2.083   6.916  21.082  1.00  0.00    -0.295 OA
ATOM      6  C   UNL     1       1.344   8.147  19.102  1.00  0.00     0.067 C 
ATOM      7  C   UNL     1      -0.130   8.105  18.642  1.00  0.00     0.021 C 
ATOM      8  C   UNL     1      -0.259   9.533  19.218  1.00  0.00     0.022 C 
ATOM      9  C   UNL     1       1.273   9.697  19.004  1.00  0.00    -0.019 C 
ATOM     10  C   UNL     1       2.074  10.539  20.037  1.00  0.00     0.012 C 
ATOM     11  C   UNL     1       1.618  10.215  17.585  1.00  0.00     0.012 C 
ENDROOT
TORSDOF 0
ENDMDL
