MODEL 1
REMARK VINA RESULT:    -4.696      0.000      0.000
REMARK INTER + INTRA:         -10.737
REMARK INTER:                  -8.540
REMARK INTRA:                  -2.197
REMARK UNBOUND:                -2.197
REMARK SMILES CCCCCCCCCCCCCC[C@@H](C)C(=O)[O-]
REMARK SMILES IDX 9 1 10 2 11 3 12 4 13 5 14 6 15 7 16 8 17 9 18 10 19 11 8 12
REMARK SMILES IDX 7 13 6 14 5 15 4 16 3 17 2 18 1 19
REMARK H PARENT
REMARK Flexibility Score: inf
ROOT
ATOM      1  C   UNL     1      85.256 125.351 127.885  1.00  0.00     0.000 C 
ENDROOT
BRANCH   1   2
ATOM      2  C   UNL     1      86.684 125.314 128.451  1.00  0.00     0.000 C 
BRANCH   2   3
ATOM      3  C   UNL     1      86.783 124.516 129.762  1.00  0.00     0.000 C 
BRANCH   3   4
ATOM      4  C   UNL     1      87.920 123.480 129.738  1.00  0.00     0.000 C 
BRANCH   4   5
ATOM      5  C   UNL     1      88.316 123.005 131.147  1.00  0.00     0.001 C 
BRANCH   5   6
ATOM      6  C   UNL     1      88.563 121.484 131.210  1.00  0.00     0.009 C 
BRANCH   6   7
ATOM      7  C   UNL     1      87.290 120.644 131.456  1.00  0.00     0.032 C 
ATOM      8  C   UNL     1      86.110 121.484 131.968  1.00  0.00     0.014 C 
BRANCH   7   9
ATOM      9  C   UNL     1      86.916 119.829 130.245  1.00  0.00     0.044 C 
ATOM     10  O   UNL     1      85.891 119.097 130.248  1.00  0.00    -0.550 OA
ATOM     11  O   UNL     1      87.683 119.924 129.090  1.00  0.00    -0.550 OA
ENDBRANCH   7   9
ENDBRANCH   6   7
ENDBRANCH   5   6
ENDBRANCH   4   5
ENDBRANCH   3   4
ENDBRANCH   2   3
ENDBRANCH   1   2
BRANCH   1  12
ATOM     12  C   UNL     1      84.255 124.753 128.881  1.00  0.00     0.000 C 
BRANCH  12  13
ATOM     13  C   UNL     1      83.092 124.068 128.147  1.00  0.00    -0.000 C 
BRANCH  13  14
ATOM     14  C   UNL     1      83.048 122.550 128.388  1.00  0.00    -0.000 C 
BRANCH  14  15
ATOM     15  C   UNL     1      84.452 121.923 128.461  1.00  0.00    -0.000 C 
BRANCH  15  16
ATOM     16  C   UNL     1      85.017 121.577 127.074  1.00  0.00    -0.000 C 
BRANCH  16  17
ATOM     17  C   UNL     1      83.922 121.159 126.077  1.00  0.00    -0.000 C 
BRANCH  17  18
ATOM     18  C   UNL     1      84.073 121.851 124.714  1.00  0.00    -0.003 C 
ATOM     19  C   UNL     1      84.567 123.293 124.831  1.00  0.00     0.004 C 
ENDBRANCH  17  18
ENDBRANCH  16  17
ENDBRANCH  15  16
ENDBRANCH  14  15
ENDBRANCH  13  14
ENDBRANCH  12  13
ENDBRANCH   1  12
TORSDOF 14
ENDMDL
MODEL 2
REMARK VINA RESULT:    -4.636      1.398      2.218
REMARK INTER + INTRA:         -10.628
REMARK INTER:                  -8.803
REMARK INTRA:                  -1.825
REMARK UNBOUND:                -2.197
REMARK SMILES CCCCCCCCCCCCCC[C@@H](C)C(=O)[O-]
REMARK SMILES IDX 9 1 10 2 11 3 12 4 13 5 14 6 15 7 16 8 17 9 18 10 19 11 8 12
REMARK SMILES IDX 7 13 6 14 5 15 4 16 3 17 2 18 1 19
REMARK H PARENT
REMARK Flexibility Score: inf
ROOT
ATOM      1  C   UNL     1      86.815 124.277 129.371  1.00  0.00     0.000 C 
ENDROOT
BRANCH   1   2
ATOM      2  C   UNL     1      85.918 125.193 130.218  1.00  0.00     0.000 C 
BRANCH   2   3
ATOM      3  C   UNL     1      85.869 124.775 131.697  1.00  0.00     0.000 C 
BRANCH   3   4
ATOM      4  C   UNL     1      86.946 123.736 132.053  1.00  0.00     0.000 C 
BRANCH   4   5
ATOM      5  C   UNL     1      86.346 122.390 132.492  1.00  0.00     0.001 C 
BRANCH   5   6
ATOM      6  C   UNL     1      87.172 121.185 131.997  1.00  0.00     0.009 C 
BRANCH   6   7
ATOM      7  C   UNL     1      86.582 120.476 130.758  1.00  0.00     0.032 C 
ATOM      8  C   UNL     1      85.220 121.049 130.334  1.00  0.00     0.014 C 
BRANCH   7   9
ATOM      9  C   UNL     1      87.560 120.447 129.613  1.00  0.00     0.044 C 
ATOM     10  O   UNL     1      88.615 121.136 129.644  1.00  0.00    -0.550 OA
ATOM     11  O   UNL     1      87.325 119.610 128.529  1.00  0.00    -0.550 OA
ENDBRANCH   7   9
ENDBRANCH   6   7
ENDBRANCH   5   6
ENDBRANCH   4   5
ENDBRANCH   3   4
ENDBRANCH   2   3
ENDBRANCH   1   2
BRANCH   1  12
ATOM     12  C   UNL     1      86.156 123.957 128.023  1.00  0.00     0.000 C 
BRANCH  12  13
ATOM     13  C   UNL     1      84.764 124.602 127.926  1.00  0.00    -0.000 C 
BRANCH  13  14
ATOM     14  C   UNL     1      83.649 123.573 127.676  1.00  0.00    -0.000 C 
BRANCH  14  15
ATOM     15  C   UNL     1      82.984 123.745 126.300  1.00  0.00    -0.000 C 
BRANCH  15  16
ATOM     16  C   UNL     1      83.995 124.095 125.195  1.00  0.00    -0.000 C 
BRANCH  16  17
ATOM     17  C   UNL     1      84.602 122.846 124.533  1.00  0.00    -0.000 C 
BRANCH  17  18
ATOM     18  C   UNL     1      83.586 121.700 124.396  1.00  0.00    -0.003 C 
ATOM     19  C   UNL     1      82.992 121.599 122.992  1.00  0.00     0.004 C 
ENDBRANCH  17  18
ENDBRANCH  16  17
ENDBRANCH  15  16
ENDBRANCH  14  15
ENDBRANCH  13  14
ENDBRANCH  12  13
ENDBRANCH   1  12
TORSDOF 14
ENDMDL
MODEL 3
REMARK VINA RESULT:    -4.581      1.464      2.939
REMARK INTER + INTRA:         -10.527
REMARK INTER:                  -8.208
REMARK INTRA:                  -2.319
REMARK UNBOUND:                -2.197
REMARK SMILES CCCCCCCCCCCCCC[C@@H](C)C(=O)[O-]
REMARK SMILES IDX 9 1 10 2 11 3 12 4 13 5 14 6 15 7 16 8 17 9 18 10 19 11 8 12
REMARK SMILES IDX 7 13 6 14 5 15 4 16 3 17 2 18 1 19
REMARK H PARENT
REMARK Flexibility Score: inf
ROOT
ATOM      1  C   UNL     1      83.693 124.416 127.978  1.00  0.00     0.000 C 
ENDROOT
BRANCH   1   2
ATOM      2  C   UNL     1      85.128 124.852 127.643  1.00  0.00     0.000 C 
BRANCH   2   3
ATOM      3  C   UNL     1      85.775 125.679 128.767  1.00  0.00     0.000 C 
BRANCH   3   4
ATOM      4  C   UNL     1      85.116 125.434 130.135  1.00  0.00     0.000 C 
BRANCH   4   5
ATOM      5  C   UNL     1      86.014 124.627 131.088  1.00  0.00     0.001 C 
BRANCH   5   6
ATOM      6  C   UNL     1      85.887 123.105 130.871  1.00  0.00     0.009 C 
BRANCH   6   7
ATOM      7  C   UNL     1      87.152 122.303 131.249  1.00  0.00     0.032 C 
ATOM      8  C   UNL     1      86.830 120.992 131.984  1.00  0.00     0.014 C 
BRANCH   7   9
ATOM      9  C   UNL     1      88.045 122.074 130.057  1.00  0.00     0.044 C 
ATOM     10  O   UNL     1      88.498 123.043 129.391  1.00  0.00    -0.550 OA
ATOM     11  O   UNL     1      88.417 120.780 129.716  1.00  0.00    -0.550 OA
ENDBRANCH   7   9
ENDBRANCH   6   7
ENDBRANCH   5   6
ENDBRANCH   4   5
ENDBRANCH   3   4
ENDBRANCH   2   3
ENDBRANCH   1   2
BRANCH   1  12
ATOM     12  C   UNL     1      82.914 124.068 126.703  1.00  0.00     0.000 C 
BRANCH  12  13
ATOM     13  C   UNL     1      83.829 124.115 125.470  1.00  0.00    -0.000 C 
BRANCH  13  14
ATOM     14  C   UNL     1      84.001 122.740 124.805  1.00  0.00    -0.000 C 
BRANCH  14  15
ATOM     15  C   UNL     1      85.104 121.897 125.469  1.00  0.00    -0.000 C 
BRANCH  15  16
ATOM     16  C   UNL     1      84.543 120.869 126.466  1.00  0.00    -0.000 C 
BRANCH  16  17
ATOM     17  C   UNL     1      85.316 120.854 127.796  1.00  0.00    -0.000 C 
BRANCH  17  18
ATOM     18  C   UNL     1      84.464 120.334 128.965  1.00  0.00    -0.003 C 
ATOM     19  C   UNL     1      83.130 121.069 129.100  1.00  0.00     0.004 C 
ENDBRANCH  17  18
ENDBRANCH  16  17
ENDBRANCH  15  16
ENDBRANCH  14  15
ENDBRANCH  13  14
ENDBRANCH  12  13
ENDBRANCH   1  12
TORSDOF 14
ENDMDL
MODEL 4
REMARK VINA RESULT:    -4.565      2.419      5.418
REMARK INTER + INTRA:         -10.499
REMARK INTER:                  -8.019
REMARK INTRA:                  -2.480
REMARK UNBOUND:                -2.197
REMARK SMILES CCCCCCCCCCCCCC[C@@H](C)C(=O)[O-]
REMARK SMILES IDX 9 1 10 2 11 3 12 4 13 5 14 6 15 7 16 8 17 9 18 10 19 11 8 12
REMARK SMILES IDX 7 13 6 14 5 15 4 16 3 17 2 18 1 19
REMARK H PARENT
REMARK Flexibility Score: inf
ROOT
ATOM      1  C   UNL     1      88.292 123.793 130.902  1.00  0.00     0.000 C 
ENDROOT
BRANCH   1   2
ATOM      2  C   UNL     1      86.992 124.518 130.518  1.00  0.00     0.000 C 
BRANCH   2   3
ATOM      3  C   UNL     1      86.798 124.625 128.996  1.00  0.00     0.000 C 
BRANCH   3   4
ATOM      4  C   UNL     1      85.695 125.624 128.610  1.00  0.00     0.000 C 
BRANCH   4   5
ATOM      5  C   UNL     1      84.795 125.103 127.477  1.00  0.00     0.001 C 
BRANCH   5   6
ATOM      6  C   UNL     1      85.154 123.664 127.053  1.00  0.00     0.009 C 
BRANCH   6   7
ATOM      7  C   UNL     1      84.012 122.909 126.338  1.00  0.00     0.032 C 
ATOM      8  C   UNL     1      82.669 123.653 126.409  1.00  0.00     0.014 C 
BRANCH   7   9
ATOM      9  C   UNL     1      84.381 122.549 124.922  1.00  0.00     0.044 C 
ATOM     10  O   UNL     1      85.586 122.497 124.560  1.00  0.00    -0.550 OA
ATOM     11  O   UNL     1      83.382 122.218 124.015  1.00  0.00    -0.550 OA
ENDBRANCH   7   9
ENDBRANCH   6   7
ENDBRANCH   5   6
ENDBRANCH   4   5
ENDBRANCH   3   4
ENDBRANCH   2   3
ENDBRANCH   1   2
BRANCH   1  12
ATOM     12  C   UNL     1      88.372 122.417 130.229  1.00  0.00     0.000 C 
BRANCH  12  13
ATOM     13  C   UNL     1      88.328 121.291 131.274  1.00  0.00    -0.000 C 
BRANCH  13  14
ATOM     14  C   UNL     1      86.913 120.726 131.478  1.00  0.00    -0.000 C 
BRANCH  14  15
ATOM     15  C   UNL     1      86.143 121.448 132.597  1.00  0.00    -0.000 C 
BRANCH  15  16
ATOM     16  C   UNL     1      84.831 122.077 132.101  1.00  0.00    -0.000 C 
BRANCH  16  17
ATOM     17  C   UNL     1      84.485 121.663 130.660  1.00  0.00    -0.000 C 
BRANCH  17  18
ATOM     18  C   UNL     1      83.384 122.541 130.044  1.00  0.00    -0.003 C 
ATOM     19  C   UNL     1      83.175 123.851 130.802  1.00  0.00     0.004 C 
ENDBRANCH  17  18
ENDBRANCH  16  17
ENDBRANCH  15  16
ENDBRANCH  14  15
ENDBRANCH  13  14
ENDBRANCH  12  13
ENDBRANCH   1  12
TORSDOF 14
ENDMDL
MODEL 5
REMARK VINA RESULT:    -4.512      1.867      5.485
REMARK INTER + INTRA:         -10.402
REMARK INTER:                  -8.595
REMARK INTRA:                  -1.807
REMARK UNBOUND:                -2.197
REMARK SMILES CCCCCCCCCCCCCC[C@@H](C)C(=O)[O-]
REMARK SMILES IDX 9 1 10 2 11 3 12 4 13 5 14 6 15 7 16 8 17 9 18 10 19 11 8 12
REMARK SMILES IDX 7 13 6 14 5 15 4 16 3 17 2 18 1 19
REMARK H PARENT
REMARK Flexibility Score: inf
ROOT
ATOM      1  C   UNL     1      86.650 124.535 129.331  1.00  0.00     0.000 C 
ENDROOT
BRANCH   1   2
ATOM      2  C   UNL     1      85.917 125.544 128.432  1.00  0.00     0.000 C 
BRANCH   2   3
ATOM      3  C   UNL     1      84.872 124.879 127.522  1.00  0.00     0.000 C 
BRANCH   3   4
ATOM      4  C   UNL     1      83.600 124.470 128.284  1.00  0.00     0.000 C 
BRANCH   4   5
ATOM      5  C   UNL     1      82.587 123.733 127.391  1.00  0.00     0.001 C 
BRANCH   5   6
ATOM      6  C   UNL     1      83.071 123.602 125.932  1.00  0.00     0.009 C 
BRANCH   6   7
ATOM      7  C   UNL     1      83.357 122.151 125.486  1.00  0.00     0.032 C 
ATOM      8  C   UNL     1      82.734 121.813 124.122  1.00  0.00     0.014 C 
BRANCH   7   9
ATOM      9  C   UNL     1      84.829 121.834 125.526  1.00  0.00     0.044 C 
ATOM     10  O   UNL     1      85.289 120.994 126.345  1.00  0.00    -0.550 OA
ATOM     11  O   UNL     1      85.686 122.436 124.614  1.00  0.00    -0.550 OA
ENDBRANCH   7   9
ENDBRANCH   6   7
ENDBRANCH   5   6
ENDBRANCH   4   5
ENDBRANCH   3   4
ENDBRANCH   2   3
ENDBRANCH   1   2
BRANCH   1  12
ATOM     12  C   UNL     1      86.353 124.804 130.812  1.00  0.00     0.000 C 
BRANCH  12  13
ATOM     13  C   UNL     1      87.348 124.060 131.716  1.00  0.00    -0.000 C 
BRANCH  13  14
ATOM     14  C   UNL     1      88.422 123.302 130.919  1.00  0.00    -0.000 C 
BRANCH  14  15
ATOM     15  C   UNL     1      88.526 121.822 131.325  1.00  0.00    -0.000 C 
BRANCH  15  16
ATOM     16  C   UNL     1      87.151 121.184 131.586  1.00  0.00    -0.000 C 
BRANCH  16  17
ATOM     17  C   UNL     1      86.834 120.043 130.604  1.00  0.00    -0.000 C 
BRANCH  17  18
ATOM     18  C   UNL     1      85.521 120.274 129.839  1.00  0.00    -0.003 C 
ATOM     19  C   UNL     1      84.756 121.503 130.329  1.00  0.00     0.004 C 
ENDBRANCH  17  18
ENDBRANCH  16  17
ENDBRANCH  15  16
ENDBRANCH  14  15
ENDBRANCH  13  14
ENDBRANCH  12  13
ENDBRANCH   1  12
TORSDOF 14
ENDMDL
MODEL 6
REMARK VINA RESULT:    -4.462      1.217      2.409
REMARK INTER + INTRA:         -10.311
REMARK INTER:                  -8.311
REMARK INTRA:                  -2.000
REMARK UNBOUND:                -2.197
REMARK SMILES CCCCCCCCCCCCCC[C@@H](C)C(=O)[O-]
REMARK SMILES IDX 9 1 10 2 11 3 12 4 13 5 14 6 15 7 16 8 17 9 18 10 19 11 8 12
REMARK SMILES IDX 7 13 6 14 5 15 4 16 3 17 2 18 1 19
REMARK H PARENT
REMARK Flexibility Score: inf
ROOT
ATOM      1  C   UNL     1      86.402 124.845 130.692  1.00  0.00     0.000 C 
ENDROOT
BRANCH   1   2
ATOM      2  C   UNL     1      87.322 124.088 131.663  1.00  0.00     0.000 C 
BRANCH   2   3
ATOM      3  C   UNL     1      88.500 123.401 130.951  1.00  0.00     0.000 C 
BRANCH   3   4
ATOM      4  C   UNL     1      88.575 121.894 131.254  1.00  0.00     0.000 C 
BRANCH   4   5
ATOM      5  C   UNL     1      87.270 121.347 131.858  1.00  0.00     0.001 C 
BRANCH   5   6
ATOM      6  C   UNL     1      86.843 120.007 131.224  1.00  0.00     0.009 C 
BRANCH   6   7
ATOM      7  C   UNL     1      85.826 120.146 130.070  1.00  0.00     0.032 C 
ATOM      8  C   UNL     1      84.995 121.435 130.158  1.00  0.00     0.014 C 
BRANCH   7   9
ATOM      9  C   UNL     1      86.485 119.992 128.724  1.00  0.00     0.044 C 
ATOM     10  O   UNL     1      87.636 119.489 128.620  1.00  0.00    -0.550 OA
ATOM     11  O   UNL     1      85.796 120.362 127.575  1.00  0.00    -0.550 OA
ENDBRANCH   7   9
ENDBRANCH   6   7
ENDBRANCH   5   6
ENDBRANCH   4   5
ENDBRANCH   3   4
ENDBRANCH   2   3
ENDBRANCH   1   2
BRANCH   1  12
ATOM     12  C   UNL     1      86.775 124.543 129.235  1.00  0.00     0.000 C 
BRANCH  12  13
ATOM     13  C   UNL     1      85.952 125.408 128.267  1.00  0.00    -0.000 C 
BRANCH  13  14
ATOM     14  C   UNL     1      84.488 125.564 128.709  1.00  0.00    -0.000 C 
BRANCH  14  15
ATOM     15  C   UNL     1      83.612 124.371 128.286  1.00  0.00    -0.000 C 
BRANCH  15  16
ATOM     16  C   UNL     1      83.885 123.920 126.841  1.00  0.00    -0.000 C 
BRANCH  16  17
ATOM     17  C   UNL     1      83.212 122.579 126.504  1.00  0.00    -0.000 C 
BRANCH  17  18
ATOM     18  C   UNL     1      83.739 121.969 125.196  1.00  0.00    -0.003 C 
ATOM     19  C   UNL     1      85.013 122.648 124.695  1.00  0.00     0.004 C 
ENDBRANCH  17  18
ENDBRANCH  16  17
ENDBRANCH  15  16
ENDBRANCH  14  15
ENDBRANCH  13  14
ENDBRANCH  12  13
ENDBRANCH   1  12
TORSDOF 14
ENDMDL
MODEL 7
REMARK VINA RESULT:    -4.460      2.413      5.777
REMARK INTER + INTRA:         -10.307
REMARK INTER:                  -7.929
REMARK INTRA:                  -2.377
REMARK UNBOUND:                -2.197
REMARK SMILES CCCCCCCCCCCCCC[C@@H](C)C(=O)[O-]
REMARK SMILES IDX 9 1 10 2 11 3 12 4 13 5 14 6 15 7 16 8 17 9 18 10 19 11 8 12
REMARK SMILES IDX 7 13 6 14 5 15 4 16 3 17 2 18 1 19
REMARK H PARENT
REMARK Flexibility Score: inf
ROOT
ATOM      1  C   UNL     1      88.020 121.149 129.771  1.00  0.00     0.000 C 
ENDROOT
BRANCH   1   2
ATOM      2  C   UNL     1      86.740 120.339 129.508  1.00  0.00     0.000 C 
BRANCH   2   3
ATOM      3  C   UNL     1      85.825 120.997 128.462  1.00  0.00     0.000 C 
BRANCH   3   4
ATOM      4  C   UNL     1      84.530 121.555 129.077  1.00  0.00     0.000 C 
BRANCH   4   5
ATOM      5  C   UNL     1      83.815 122.549 128.146  1.00  0.00     0.001 C 
BRANCH   5   6
ATOM      6  C   UNL     1      83.364 121.898 126.822  1.00  0.00     0.009 C 
BRANCH   6   7
ATOM      7  C   UNL     1      83.344 122.863 125.615  1.00  0.00     0.032 C 
ATOM      8  C   UNL     1      83.731 124.301 125.994  1.00  0.00     0.014 C 
BRANCH   7   9
ATOM      9  C   UNL     1      84.171 122.341 124.470  1.00  0.00     0.044 C 
ATOM     10  O   UNL     1      83.625 121.854 123.445  1.00  0.00    -0.550 OA
ATOM     11  O   UNL     1      85.556 122.446 124.519  1.00  0.00    -0.550 OA
ENDBRANCH   7   9
ENDBRANCH   6   7
ENDBRANCH   5   6
ENDBRANCH   4   5
ENDBRANCH   3   4
ENDBRANCH   2   3
ENDBRANCH   1   2
BRANCH   1  12
ATOM     12  C   UNL     1      88.263 121.318 131.276  1.00  0.00     0.000 C 
BRANCH  12  13
ATOM     13  C   UNL     1      86.937 121.521 132.027  1.00  0.00    -0.000 C 
BRANCH  13  14
ATOM     14  C   UNL     1      86.711 122.982 132.448  1.00  0.00    -0.000 C 
BRANCH  14  15
ATOM     15  C   UNL     1      85.411 123.569 131.869  1.00  0.00    -0.000 C 
BRANCH  15  16
ATOM     16  C   UNL     1      85.666 124.776 130.950  1.00  0.00    -0.000 C 
BRANCH  16  17
ATOM     17  C   UNL     1      86.918 124.596 130.074  1.00  0.00    -0.000 C 
BRANCH  17  18
ATOM     18  C   UNL     1      86.659 124.947 128.600  1.00  0.00    -0.003 C 
ATOM     19  C   UNL     1      85.667 126.096 128.428  1.00  0.00     0.004 C 
ENDBRANCH  17  18
ENDBRANCH  16  17
ENDBRANCH  15  16
ENDBRANCH  14  15
ENDBRANCH  13  14
ENDBRANCH  12  13
ENDBRANCH   1  12
TORSDOF 14
ENDMDL
MODEL 8
REMARK VINA RESULT:    -4.356      2.213      4.079
REMARK INTER + INTRA:         -10.119
REMARK INTER:                  -7.820
REMARK INTRA:                  -2.299
REMARK UNBOUND:                -2.197
REMARK SMILES CCCCCCCCCCCCCC[C@@H](C)C(=O)[O-]
REMARK SMILES IDX 9 1 10 2 11 3 12 4 13 5 14 6 15 7 16 8 17 9 18 10 19 11 8 12
REMARK SMILES IDX 7 13 6 14 5 15 4 16 3 17 2 18 1 19
REMARK H PARENT
REMARK Flexibility Score: inf
ROOT
ATOM      1  C   UNL     1      88.395 121.571 130.094  1.00  0.00     0.000 C 
ENDROOT
BRANCH   1   2
ATOM      2  C   UNL     1      88.493 122.609 131.223  1.00  0.00     0.000 C 
BRANCH   2   3
ATOM      3  C   UNL     1      87.162 122.804 131.968  1.00  0.00     0.000 C 
BRANCH   3   4
ATOM      4  C   UNL     1      86.805 124.288 132.163  1.00  0.00     0.000 C 
BRANCH   4   5
ATOM      5  C   UNL     1      85.739 124.774 131.168  1.00  0.00     0.001 C 
BRANCH   5   6
ATOM      6  C   UNL     1      85.090 123.615 130.383  1.00  0.00     0.009 C 
BRANCH   6   7
ATOM      7  C   UNL     1      84.878 123.906 128.880  1.00  0.00     0.032 C 
ATOM      8  C   UNL     1      83.500 124.514 128.579  1.00  0.00     0.014 C 
BRANCH   7   9
ATOM      9  C   UNL     1      85.998 124.737 128.310  1.00  0.00     0.044 C 
ATOM     10  O   UNL     1      87.162 124.270 128.203  1.00  0.00    -0.550 OA
ATOM     11  O   UNL     1      85.733 126.020 127.846  1.00  0.00    -0.550 OA
ENDBRANCH   7   9
ENDBRANCH   6   7
ENDBRANCH   5   6
ENDBRANCH   4   5
ENDBRANCH   3   4
ENDBRANCH   2   3
ENDBRANCH   1   2
BRANCH   1  12
ATOM     12  C   UNL     1      87.218 120.616 130.328  1.00  0.00     0.000 C 
BRANCH  12  13
ATOM     13  C   UNL     1      86.511 120.280 129.005  1.00  0.00    -0.000 C 
BRANCH  13  14
ATOM     14  C   UNL     1      85.019 119.963 129.193  1.00  0.00    -0.000 C 
BRANCH  14  15
ATOM     15  C   UNL     1      84.193 120.229 127.922  1.00  0.00    -0.000 C 
BRANCH  15  16
ATOM     16  C   UNL     1      84.988 120.996 126.852  1.00  0.00    -0.000 C 
BRANCH  16  17
ATOM     17  C   UNL     1      84.102 121.471 125.687  1.00  0.00    -0.000 C 
BRANCH  17  18
ATOM     18  C   UNL     1      84.757 122.598 124.872  1.00  0.00    -0.003 C 
ATOM     19  C   UNL     1      84.049 123.941 125.040  1.00  0.00     0.004 C 
ENDBRANCH  17  18
ENDBRANCH  16  17
ENDBRANCH  15  16
ENDBRANCH  14  15
ENDBRANCH  13  14
ENDBRANCH  12  13
ENDBRANCH   1  12
TORSDOF 14
ENDMDL
MODEL 9
REMARK VINA RESULT:    -4.339      1.946      3.647
REMARK INTER + INTRA:         -10.087
REMARK INTER:                  -7.487
REMARK INTRA:                  -2.600
REMARK UNBOUND:                -2.197
REMARK SMILES CCCCCCCCCCCCCC[C@@H](C)C(=O)[O-]
REMARK SMILES IDX 9 1 10 2 11 3 12 4 13 5 14 6 15 7 16 8 17 9 18 10 19 11 8 12
REMARK SMILES IDX 7 13 6 14 5 15 4 16 3 17 2 18 1 19
REMARK H PARENT
REMARK Flexibility Score: inf
ROOT
ATOM      1  C   UNL     1      87.060 124.439 131.841  1.00  0.00     0.000 C 
ENDROOT
BRANCH   1   2
ATOM      2  C   UNL     1      88.327 123.823 131.226  1.00  0.00     0.000 C 
BRANCH   2   3
ATOM      3  C   UNL     1      88.050 123.097 129.899  1.00  0.00     0.000 C 
BRANCH   3   4
ATOM      4  C   UNL     1      88.396 121.599 129.961  1.00  0.00     0.000 C 
BRANCH   4   5
ATOM      5  C   UNL     1      87.266 120.709 129.418  1.00  0.00     0.001 C 
BRANCH   5   6
ATOM      6  C   UNL     1      86.087 121.529 128.855  1.00  0.00     0.009 C 
BRANCH   6   7
ATOM      7  C   UNL     1      84.781 120.723 128.678  1.00  0.00     0.032 C 
ATOM      8  C   UNL     1      83.556 121.431 129.278  1.00  0.00     0.014 C 
BRANCH   7   9
ATOM      9  C   UNL     1      84.556 120.333 127.240  1.00  0.00     0.044 C 
ATOM     10  O   UNL     1      83.679 119.484 126.928  1.00  0.00    -0.550 OA
ATOM     11  O   UNL     1      85.290 120.955 126.237  1.00  0.00    -0.550 OA
ENDBRANCH   7   9
ENDBRANCH   6   7
ENDBRANCH   5   6
ENDBRANCH   4   5
ENDBRANCH   3   4
ENDBRANCH   2   3
ENDBRANCH   1   2
BRANCH   1  12
ATOM     12  C   UNL     1      85.990 123.367 132.082  1.00  0.00     0.000 C 
BRANCH  12  13
ATOM     13  C   UNL     1      84.595 123.887 131.700  1.00  0.00    -0.000 C 
BRANCH  13  14
ATOM     14  C   UNL     1      84.607 125.365 131.276  1.00  0.00    -0.000 C 
BRANCH  14  15
ATOM     15  C   UNL     1      84.129 125.568 129.828  1.00  0.00    -0.000 C 
BRANCH  15  16
ATOM     16  C   UNL     1      85.288 125.849 128.857  1.00  0.00    -0.000 C 
BRANCH  16  17
ATOM     17  C   UNL     1      85.363 124.821 127.714  1.00  0.00    -0.000 C 
BRANCH  17  18
ATOM     18  C   UNL     1      83.979 124.477 127.140  1.00  0.00    -0.003 C 
ATOM     19  C   UNL     1      84.017 124.168 125.644  1.00  0.00     0.004 C 
ENDBRANCH  17  18
ENDBRANCH  16  17
ENDBRANCH  15  16
ENDBRANCH  14  15
ENDBRANCH  13  14
ENDBRANCH  12  13
ENDBRANCH   1  12
TORSDOF 14
ENDMDL
