MODEL 1
REMARK VINA RESULT:    -6.255      0.000      0.000
REMARK INTER + INTRA:          -6.255
REMARK INTER:                  -6.255
REMARK INTRA:                   0.000
REMARK UNBOUND:                 0.000
REMARK SMILES CC(C)=C1CC[C@@H](C)CC1=O
REMARK SMILES IDX 8 1 7 2 6 3 5 4 4 5 2 6 1 7 3 8 10 9 11 10 9 11
REMARK H PARENT
REMARK Flexibility Score: inf
ROOT
ATOM      1  C   UNL     1      -5.543 -14.013  29.072  1.00  0.00     0.008 C 
ATOM      2  C   UNL     1      -4.859 -12.687  28.701  1.00  0.00    -0.006 C 
ATOM      3  C   UNL     1      -3.835 -12.858  27.564  1.00  0.00     0.008 C 
ATOM      4  C   UNL     1      -2.618 -13.702  27.973  1.00  0.00     0.039 C 
ATOM      5  C   UNL     1      -1.997 -13.253  29.288  1.00  0.00    -0.006 C 
ATOM      6  C   UNL     1      -0.663 -13.413  29.532  1.00  0.00    -0.070 C 
ATOM      7  C   UNL     1      -0.023 -12.922  30.810  1.00  0.00     0.039 C 
ATOM      8  C   UNL     1       0.247 -14.056  28.511  1.00  0.00     0.039 C 
ATOM      9  C   UNL     1      -2.944 -12.749  30.328  1.00  0.00     0.159 C 
ATOM     10  O   UNL     1      -2.722 -12.926  31.555  1.00  0.00    -0.295 OA
ATOM     11  C   UNL     1      -4.195 -12.027  29.919  1.00  0.00     0.084 C 
ENDROOT
TORSDOF 0
ENDMDL
MODEL 2
REMARK VINA RESULT:    -6.108      1.585      3.789
REMARK INTER + INTRA:          -6.108
REMARK INTER:                  -6.108
REMARK INTRA:                   0.000
REMARK UNBOUND:                 0.000
REMARK SMILES CC(C)=C1CC[C@@H](C)CC1=O
REMARK SMILES IDX 8 1 7 2 6 3 5 4 4 5 2 6 1 7 3 8 10 9 11 10 9 11
REMARK H PARENT
REMARK Flexibility Score: inf
ROOT
ATOM      1  C   UNL     1      -3.083 -10.934  28.188  1.00  0.00     0.008 C 
ATOM      2  C   UNL     1      -2.522 -12.364  28.254  1.00  0.00    -0.006 C 
ATOM      3  C   UNL     1      -3.368 -13.360  27.442  1.00  0.00     0.008 C 
ATOM      4  C   UNL     1      -4.772 -13.576  28.030  1.00  0.00     0.039 C 
ATOM      5  C   UNL     1      -4.752 -13.871  29.524  1.00  0.00    -0.006 C 
ATOM      6  C   UNL     1      -5.713 -14.648  30.104  1.00  0.00    -0.070 C 
ATOM      7  C   UNL     1      -5.676 -14.994  31.575  1.00  0.00     0.039 C 
ATOM      8  C   UNL     1      -6.844 -15.233  29.290  1.00  0.00     0.039 C 
ATOM      9  C   UNL     1      -3.704 -13.168  30.322  1.00  0.00     0.159 C 
ATOM     10  O   UNL     1      -3.914 -12.818  31.515  1.00  0.00    -0.295 OA
ATOM     11  C   UNL     1      -2.373 -12.852  29.704  1.00  0.00     0.084 C 
ENDROOT
TORSDOF 0
ENDMDL
MODEL 3
REMARK VINA RESULT:    -6.081      1.117      3.770
REMARK INTER + INTRA:          -6.081
REMARK INTER:                  -6.081
REMARK INTRA:                   0.000
REMARK UNBOUND:                 0.000
REMARK SMILES CC(C)=C1CC[C@@H](C)CC1=O
REMARK SMILES IDX 8 1 7 2 6 3 5 4 4 5 2 6 1 7 3 8 10 9 11 10 9 11
REMARK H PARENT
REMARK Flexibility Score: inf
ROOT
ATOM      1  C   UNL     1      -0.456 -11.746  31.384  1.00  0.00     0.008 C 
ATOM      2  C   UNL     1      -0.705 -13.254  31.221  1.00  0.00    -0.006 C 
ATOM      3  C   UNL     1      -0.423 -13.740  29.788  1.00  0.00     0.008 C 
ATOM      4  C   UNL     1      -1.412 -13.174  28.756  1.00  0.00     0.039 C 
ATOM      5  C   UNL     1      -2.867 -13.331  29.178  1.00  0.00    -0.006 C 
ATOM      6  C   UNL     1      -3.860 -13.472  28.251  1.00  0.00    -0.070 C 
ATOM      7  C   UNL     1      -5.301 -13.685  28.655  1.00  0.00     0.039 C 
ATOM      8  C   UNL     1      -3.557 -13.461  26.771  1.00  0.00     0.039 C 
ATOM      9  C   UNL     1      -3.149 -13.201  30.638  1.00  0.00     0.159 C 
ATOM     10  O   UNL     1      -4.233 -12.709  31.053  1.00  0.00    -0.295 OA
ATOM     11  C   UNL     1      -2.129 -13.646  31.645  1.00  0.00     0.084 C 
ENDROOT
TORSDOF 0
ENDMDL
MODEL 4
REMARK VINA RESULT:    -6.035      1.721      4.329
REMARK INTER + INTRA:          -6.035
REMARK INTER:                  -6.035
REMARK INTRA:                   0.000
REMARK UNBOUND:                 0.000
REMARK SMILES CC(C)=C1CC[C@@H](C)CC1=O
REMARK SMILES IDX 8 1 7 2 6 3 5 4 4 5 2 6 1 7 3 8 10 9 11 10 9 11
REMARK H PARENT
REMARK Flexibility Score: inf
ROOT
ATOM      1  C   UNL     1      -0.172 -13.254  30.246  1.00  0.00     0.008 C 
ATOM      2  C   UNL     1      -1.203 -12.122  30.385  1.00  0.00    -0.006 C 
ATOM      3  C   UNL     1      -2.170 -12.357  31.559  1.00  0.00     0.008 C 
ATOM      4  C   UNL     1      -3.097 -13.564  31.344  1.00  0.00     0.039 C 
ATOM      5  C   UNL     1      -3.782 -13.552  29.984  1.00  0.00    -0.006 C 
ATOM      6  C   UNL     1      -5.014 -14.114  29.808  1.00  0.00    -0.070 C 
ATOM      7  C   UNL     1      -5.730 -14.061  28.478  1.00  0.00     0.039 C 
ATOM      8  C   UNL     1      -5.739 -14.785  30.951  1.00  0.00     0.039 C 
ATOM      9  C   UNL     1      -2.983 -13.006  28.846  1.00  0.00     0.159 C 
ATOM     10  O   UNL     1      -3.115 -13.459  27.678  1.00  0.00    -0.295 OA
ATOM     11  C   UNL     1      -1.991 -11.906  29.083  1.00  0.00     0.084 C 
ENDROOT
TORSDOF 0
ENDMDL
MODEL 5
REMARK VINA RESULT:    -5.629      1.749      2.972
REMARK INTER + INTRA:          -5.629
REMARK INTER:                  -5.629
REMARK INTRA:                   0.000
REMARK UNBOUND:                 0.000
REMARK SMILES CC(C)=C1CC[C@@H](C)CC1=O
REMARK SMILES IDX 8 1 7 2 6 3 5 4 4 5 2 6 1 7 3 8 10 9 11 10 9 11
REMARK H PARENT
REMARK Flexibility Score: inf
ROOT
ATOM      1  C   UNL     1      -3.082 -12.134  26.223  1.00  0.00     0.008 C 
ATOM      2  C   UNL     1      -3.586 -13.038  27.359  1.00  0.00    -0.006 C 
ATOM      3  C   UNL     1      -4.350 -12.248  28.437  1.00  0.00     0.008 C 
ATOM      4  C   UNL     1      -3.452 -11.278  29.221  1.00  0.00     0.039 C 
ATOM      5  C   UNL     1      -2.177 -11.932  29.735  1.00  0.00    -0.006 C 
ATOM      6  C   UNL     1      -1.574 -11.501  30.882  1.00  0.00    -0.070 C 
ATOM      7  C   UNL     1      -0.339 -12.176  31.434  1.00  0.00     0.039 C 
ATOM      8  C   UNL     1      -2.140 -10.349  31.679  1.00  0.00     0.039 C 
ATOM      9  C   UNL     1      -1.567 -12.974  28.855  1.00  0.00     0.159 C 
ATOM     10  O   UNL     1      -0.319 -13.138  28.804  1.00  0.00    -0.295 OA
ATOM     11  C   UNL     1      -2.443 -13.841  27.999  1.00  0.00     0.084 C 
ENDROOT
TORSDOF 0
ENDMDL
MODEL 6
REMARK VINA RESULT:    -5.627      2.193      3.591
REMARK INTER + INTRA:          -5.627
REMARK INTER:                  -5.627
REMARK INTRA:                   0.000
REMARK UNBOUND:                 0.000
REMARK SMILES CC(C)=C1CC[C@@H](C)CC1=O
REMARK SMILES IDX 8 1 7 2 6 3 5 4 4 5 2 6 1 7 3 8 10 9 11 10 9 11
REMARK H PARENT
REMARK Flexibility Score: inf
ROOT
ATOM      1  C   UNL     1      -3.877 -10.983  31.850  1.00  0.00     0.008 C 
ATOM      2  C   UNL     1      -2.684 -11.854  31.424  1.00  0.00    -0.006 C 
ATOM      3  C   UNL     1      -1.824 -11.177  30.342  1.00  0.00     0.008 C 
ATOM      4  C   UNL     1      -2.558 -11.022  29.001  1.00  0.00     0.039 C 
ATOM      5  C   UNL     1      -3.221 -12.311  28.533  1.00  0.00    -0.006 C 
ATOM      6  C   UNL     1      -3.381 -12.582  27.205  1.00  0.00    -0.070 C 
ATOM      7  C   UNL     1      -3.987 -13.882  26.725  1.00  0.00     0.039 C 
ATOM      8  C   UNL     1      -2.922 -11.607  26.145  1.00  0.00     0.039 C 
ATOM      9  C   UNL     1      -3.786 -13.189  29.601  1.00  0.00     0.159 C 
ATOM     10  O   UNL     1      -4.818 -13.884  29.399  1.00  0.00    -0.295 OA
ATOM     11  C   UNL     1      -3.134 -13.246  30.952  1.00  0.00     0.084 C 
ENDROOT
TORSDOF 0
ENDMDL
MODEL 7
REMARK VINA RESULT:    -5.580      2.174      4.177
REMARK INTER + INTRA:          -5.580
REMARK INTER:                  -5.580
REMARK INTRA:                   0.000
REMARK UNBOUND:                 0.000
REMARK SMILES CC(C)=C1CC[C@@H](C)CC1=O
REMARK SMILES IDX 8 1 7 2 6 3 5 4 4 5 2 6 1 7 3 8 10 9 11 10 9 11
REMARK H PARENT
REMARK Flexibility Score: inf
ROOT
ATOM      1  C   UNL     1      -1.741 -12.567  28.196  1.00  0.00     0.008 C 
ATOM      2  C   UNL     1      -2.879 -11.726  28.798  1.00  0.00    -0.006 C 
ATOM      3  C   UNL     1      -2.870 -11.750  30.337  1.00  0.00     0.008 C 
ATOM      4  C   UNL     1      -3.200 -13.135  30.918  1.00  0.00     0.039 C 
ATOM      5  C   UNL     1      -4.449 -13.755  30.306  1.00  0.00    -0.006 C 
ATOM      6  C   UNL     1      -5.237 -14.609  31.022  1.00  0.00    -0.070 C 
ATOM      7  C   UNL     1      -6.509 -15.188  30.447  1.00  0.00     0.039 C 
ATOM      8  C   UNL     1      -4.894 -14.985  32.445  1.00  0.00     0.039 C 
ATOM      9  C   UNL     1      -4.686 -13.473  28.859  1.00  0.00     0.159 C 
ATOM     10  O   UNL     1      -5.236 -14.322  28.108  1.00  0.00    -0.295 OA
ATOM     11  C   UNL     1      -4.253 -12.163  28.267  1.00  0.00     0.084 C 
ENDROOT
TORSDOF 0
ENDMDL
MODEL 8
REMARK VINA RESULT:    -5.433      1.237      1.562
REMARK INTER + INTRA:          -5.433
REMARK INTER:                  -5.433
REMARK INTRA:                   0.000
REMARK UNBOUND:                 0.000
REMARK SMILES CC(C)=C1CC[C@@H](C)CC1=O
REMARK SMILES IDX 8 1 7 2 6 3 5 4 4 5 2 6 1 7 3 8 10 9 11 10 9 11
REMARK H PARENT
REMARK Flexibility Score: inf
ROOT
ATOM      1  C   UNL     1      -5.560 -14.074  28.796  1.00  0.00     0.008 C 
ATOM      2  C   UNL     1      -4.751 -12.977  28.084  1.00  0.00    -0.006 C 
ATOM      3  C   UNL     1      -3.326 -13.439  27.732  1.00  0.00     0.008 C 
ATOM      4  C   UNL     1      -2.450 -13.682  28.972  1.00  0.00     0.039 C 
ATOM      5  C   UNL     1      -2.488 -12.526  29.962  1.00  0.00    -0.006 C 
ATOM      6  C   UNL     1      -1.417 -12.242  30.760  1.00  0.00    -0.070 C 
ATOM      7  C   UNL     1      -1.419 -11.065  31.708  1.00  0.00     0.039 C 
ATOM      8  C   UNL     1      -0.156 -13.074  30.702  1.00  0.00     0.039 C 
ATOM      9  C   UNL     1      -3.792 -11.811  30.094  1.00  0.00     0.159 C 
ATOM     10  O   UNL     1      -4.160 -11.318  31.194  1.00  0.00    -0.295 OA
ATOM     11  C   UNL     1      -4.701 -11.680  28.907  1.00  0.00     0.084 C 
ENDROOT
TORSDOF 0
ENDMDL
MODEL 9
REMARK VINA RESULT:    -5.310      1.626      2.746
REMARK INTER + INTRA:          -5.310
REMARK INTER:                  -5.310
REMARK INTRA:                   0.000
REMARK UNBOUND:                 0.000
REMARK SMILES CC(C)=C1CC[C@@H](C)CC1=O
REMARK SMILES IDX 8 1 7 2 6 3 5 4 4 5 2 6 1 7 3 8 10 9 11 10 9 11
REMARK H PARENT
REMARK Flexibility Score: inf
ROOT
ATOM      1  C   UNL     1      -4.607 -10.224  29.354  1.00  0.00     0.008 C 
ATOM      2  C   UNL     1      -4.654 -11.673  29.867  1.00  0.00    -0.006 C 
ATOM      3  C   UNL     1      -3.948 -11.834  31.225  1.00  0.00     0.008 C 
ATOM      4  C   UNL     1      -2.430 -11.609  31.144  1.00  0.00     0.039 C 
ATOM      5  C   UNL     1      -1.771 -12.394  30.018  1.00  0.00    -0.006 C 
ATOM      6  C   UNL     1      -0.478 -12.822  30.118  1.00  0.00    -0.070 C 
ATOM      7  C   UNL     1       0.172 -13.650  29.033  1.00  0.00     0.039 C 
ATOM      8  C   UNL     1       0.355 -12.519  31.342  1.00  0.00     0.039 C 
ATOM      9  C   UNL     1      -2.573 -12.558  28.769  1.00  0.00     0.159 C 
ATOM     10  O   UNL     1      -2.019 -12.604  27.638  1.00  0.00    -0.295 OA
ATOM     11  C   UNL     1      -4.068 -12.659  28.843  1.00  0.00     0.084 C 
ENDROOT
TORSDOF 0
ENDMDL
