MODEL 1
REMARK VINA RESULT:    -6.571      0.000      0.000
REMARK INTER + INTRA:          -8.019
REMARK INTER:                  -7.724
REMARK INTRA:                  -0.295
REMARK UNBOUND:                -0.295
REMARK SMILES O=c1c(O)c(-c2ccc(O)c(O)c2)oc2cc(O)ccc12
REMARK SMILES IDX 5 1 3 2 2 3 1 4 21 5 15 6 14 7 16 8 17 9 19 10 20 11 6 12
REMARK SMILES IDX 7 13 8 14 9 15 13 16 11 17 10 18 12 20 4 22 18 24
REMARK H PARENT 10 19 12 21 4 23 18 25
REMARK Flexibility Score: inf
ROOT
ATOM      1  C   UNL     1       1.569  16.631  26.426  1.00  0.00     0.180 A 
ATOM      2  C   UNL     1       0.973  17.368  25.380  1.00  0.00     0.208 A 
ATOM      3  C   UNL     1       0.147  18.455  25.704  1.00  0.00     0.235 A 
ATOM      4  O   UNL     1      -0.389  19.135  24.785  1.00  0.00    -0.285 OA
ATOM      5  C   UNL     1      -0.084  18.770  27.052  1.00  0.00     0.069 A 
ATOM      6  C   UNL     1       0.529  17.970  28.040  1.00  0.00     0.142 A 
ATOM      7  O   UNL     1       1.312  16.955  27.692  1.00  0.00    -0.452 OA
ATOM      8  C   UNL     1       0.316  18.246  29.396  1.00  0.00     0.094 A 
ATOM      9  C   UNL     1      -0.503  19.316  29.777  1.00  0.00     0.119 A 
ATOM     10  C   UNL     1      -1.111  20.111  28.800  1.00  0.00     0.047 A 
ATOM     11  C   UNL     1      -0.905  19.843  27.443  1.00  0.00     0.020 A 
ENDROOT
BRANCH   1  12
ATOM     12  C   UNL     1       2.466  15.484  26.167  1.00  0.00     0.025 A 
ATOM     13  C   UNL     1       1.986  14.177  26.347  1.00  0.00     0.016 A 
ATOM     14  C   UNL     1       2.823  13.079  26.129  1.00  0.00     0.051 A 
ATOM     15  C   UNL     1       4.156  13.273  25.742  1.00  0.00     0.157 A 
ATOM     16  C   UNL     1       3.811  15.674  25.799  1.00  0.00     0.062 A 
ATOM     17  C   UNL     1       4.652  14.572  25.582  1.00  0.00     0.158 A 
BRANCH  15  18
ATOM     18  O   UNL     1       4.993  12.181  25.522  1.00  0.00    -0.504 OA
ATOM     19  H   UNL     1       5.691  11.903  26.202  1.00  0.00     0.293 HD
ENDBRANCH  15  18
BRANCH  17  20
ATOM     20  O   UNL     1       5.982  14.763  25.212  1.00  0.00    -0.504 OA
ATOM     21  H   UNL     1       6.356  15.688  25.035  1.00  0.00     0.293 HD
ENDBRANCH  17  20
ENDBRANCH   1  12
BRANCH   2  22
ATOM     22  O   UNL     1       1.182  17.000  24.048  1.00  0.00    -0.502 OA
ATOM     23  H   UNL     1       2.051  16.588  23.731  1.00  0.00     0.293 HD
ENDBRANCH   2  22
BRANCH   9  24
ATOM     24  O   UNL     1      -0.721  19.598  31.124  1.00  0.00    -0.508 OA
ATOM     25  H   UNL     1      -0.002  20.019  31.700  1.00  0.00     0.293 HD
ENDBRANCH   9  24
TORSDOF 5
ENDMDL
MODEL 2
REMARK VINA RESULT:    -5.916      0.795      1.543
REMARK INTER + INTRA:          -7.249
REMARK INTER:                  -6.989
REMARK INTRA:                  -0.260
REMARK UNBOUND:                -0.295
REMARK SMILES O=c1c(O)c(-c2ccc(O)c(O)c2)oc2cc(O)ccc12
REMARK SMILES IDX 5 1 3 2 2 3 1 4 21 5 15 6 14 7 16 8 17 9 19 10 20 11 6 12
REMARK SMILES IDX 7 13 8 14 9 15 13 16 11 17 10 18 12 20 4 22 18 24
REMARK H PARENT 10 19 12 21 4 23 18 25
REMARK Flexibility Score: inf
ROOT
ATOM      1  C   UNL     1       1.840  16.347  26.202  1.00  0.00     0.180 A 
ATOM      2  C   UNL     1       1.229  16.953  25.084  1.00  0.00     0.208 A 
ATOM      3  C   UNL     1       0.326  18.007  25.294  1.00  0.00     0.235 A 
ATOM      4  O   UNL     1      -0.224  18.571  24.308  1.00  0.00    -0.285 OA
ATOM      5  C   UNL     1       0.036  18.416  26.605  1.00  0.00     0.069 A 
ATOM      6  C   UNL     1       0.670  17.743  27.672  1.00  0.00     0.142 A 
ATOM      7  O   UNL     1       1.526  16.756  27.429  1.00  0.00    -0.452 OA
ATOM      8  C   UNL     1       0.399  18.116  28.993  1.00  0.00     0.094 A 
ATOM      9  C   UNL     1      -0.497  19.157  29.263  1.00  0.00     0.119 A 
ATOM     10  C   UNL     1      -1.125  19.827  28.207  1.00  0.00     0.047 A 
ATOM     11  C   UNL     1      -0.863  19.462  26.883  1.00  0.00     0.020 A 
ENDROOT
BRANCH   1  12
ATOM     12  C   UNL     1       2.816  15.244  26.063  1.00  0.00     0.025 A 
ATOM     13  C   UNL     1       4.124  15.528  25.641  1.00  0.00     0.016 A 
ATOM     14  C   UNL     1       5.057  14.499  25.483  1.00  0.00     0.051 A 
ATOM     15  C   UNL     1       4.689  13.170  25.728  1.00  0.00     0.157 A 
ATOM     16  C   UNL     1       2.446  13.905  26.288  1.00  0.00     0.062 A 
ATOM     17  C   UNL     1       3.381  12.871  26.127  1.00  0.00     0.158 A 
BRANCH  15  18
ATOM     18  O   UNL     1       5.617  12.141  25.573  1.00  0.00    -0.504 OA
ATOM     19  H   UNL     1       6.538  12.191  25.993  1.00  0.00     0.293 HD
ENDBRANCH  15  18
BRANCH  17  20
ATOM     20  O   UNL     1       3.015  11.547  26.357  1.00  0.00    -0.504 OA
ATOM     21  H   UNL     1       3.100  10.840  25.637  1.00  0.00     0.293 HD
ENDBRANCH  17  20
ENDBRANCH   1  12
BRANCH   2  22
ATOM     22  O   UNL     1       1.501  16.491  23.793  1.00  0.00    -0.502 OA
ATOM     23  H   UNL     1       0.769  16.326  23.113  1.00  0.00     0.293 HD
ENDBRANCH   2  22
BRANCH   9  24
ATOM     24  O   UNL     1      -0.772  19.535  30.575  1.00  0.00    -0.508 OA
ATOM     25  H   UNL     1      -1.517  19.101  31.107  1.00  0.00     0.293 HD
ENDBRANCH   9  24
TORSDOF 5
ENDMDL
MODEL 3
REMARK VINA RESULT:    -5.844      1.694      6.848
REMARK INTER + INTRA:          -7.163
REMARK INTER:                  -6.847
REMARK INTRA:                  -0.316
REMARK UNBOUND:                -0.295
REMARK SMILES O=c1c(O)c(-c2ccc(O)c(O)c2)oc2cc(O)ccc12
REMARK SMILES IDX 5 1 3 2 2 3 1 4 21 5 15 6 14 7 16 8 17 9 19 10 20 11 6 12
REMARK SMILES IDX 7 13 8 14 9 15 13 16 11 17 10 18 12 20 4 22 18 24
REMARK H PARENT 10 19 12 21 4 23 18 25
REMARK Flexibility Score: inf
ROOT
ATOM      1  C   UNL     1       1.058  17.145  26.661  1.00  0.00     0.180 A 
ATOM      2  C   UNL     1       0.241  15.995  26.676  1.00  0.00     0.208 A 
ATOM      3  C   UNL     1       0.821  14.750  26.385  1.00  0.00     0.235 A 
ATOM      4  O   UNL     1       0.112  13.705  26.403  1.00  0.00    -0.285 OA
ATOM      5  C   UNL     1       2.186  14.681  26.067  1.00  0.00     0.069 A 
ATOM      6  C   UNL     1       2.930  15.880  26.049  1.00  0.00     0.142 A 
ATOM      7  O   UNL     1       2.346  17.038  26.339  1.00  0.00    -0.452 OA
ATOM      8  C   UNL     1       4.292  15.854  25.727  1.00  0.00     0.094 A 
ATOM      9  C   UNL     1       4.922  14.641  25.424  1.00  0.00     0.119 A 
ATOM     10  C   UNL     1       4.187  13.450  25.442  1.00  0.00     0.047 A 
ATOM     11  C   UNL     1       2.825  13.466  25.762  1.00  0.00     0.020 A 
ENDROOT
BRANCH   1  12
ATOM     12  C   UNL     1       0.527  18.490  26.974  1.00  0.00     0.025 A 
ATOM     13  C   UNL     1       0.532  18.942  28.303  1.00  0.00     0.016 A 
ATOM     14  C   UNL     1       0.017  20.201  28.625  1.00  0.00     0.051 A 
ATOM     15  C   UNL     1      -0.526  21.018  27.624  1.00  0.00     0.157 A 
ATOM     16  C   UNL     1      -0.038  19.306  25.976  1.00  0.00     0.062 A 
ATOM     17  C   UNL     1      -0.558  20.568  26.299  1.00  0.00     0.158 A 
BRANCH  15  18
ATOM     18  O   UNL     1      -1.040  22.275  27.941  1.00  0.00    -0.504 OA
ATOM     19  H   UNL     1      -1.442  22.876  27.232  1.00  0.00     0.293 HD
ENDBRANCH  15  18
BRANCH  17  20
ATOM     20  O   UNL     1      -1.111  21.377  25.308  1.00  0.00    -0.504 OA
ATOM     21  H   UNL     1      -1.851  21.043  24.702  1.00  0.00     0.293 HD
ENDBRANCH  17  20
ENDBRANCH   1  12
BRANCH   2  22
ATOM     22  O   UNL     1      -1.125  16.101  26.948  1.00  0.00    -0.502 OA
ATOM     23  H   UNL     1      -1.603  16.994  26.975  1.00  0.00     0.293 HD
ENDBRANCH   2  22
BRANCH   9  24
ATOM     24  O   UNL     1       6.277  14.605  25.102  1.00  0.00    -0.508 OA
ATOM     25  H   UNL     1       6.712  15.343  24.561  1.00  0.00     0.293 HD
ENDBRANCH   9  24
TORSDOF 5
ENDMDL
MODEL 4
REMARK VINA RESULT:    -5.504      2.847      6.983
REMARK INTER + INTRA:          -6.765
REMARK INTER:                  -6.454
REMARK INTRA:                  -0.311
REMARK UNBOUND:                -0.295
REMARK SMILES O=c1c(O)c(-c2ccc(O)c(O)c2)oc2cc(O)ccc12
REMARK SMILES IDX 5 1 3 2 2 3 1 4 21 5 15 6 14 7 16 8 17 9 19 10 20 11 6 12
REMARK SMILES IDX 7 13 8 14 9 15 13 16 11 17 10 18 12 20 4 22 18 24
REMARK H PARENT 10 19 12 21 4 23 18 25
REMARK Flexibility Score: inf
ROOT
ATOM      1  C   UNL     1       3.182  13.785  26.167  1.00  0.00     0.180 A 
ATOM      2  C   UNL     1       4.182  13.208  25.356  1.00  0.00     0.208 A 
ATOM      3  C   UNL     1       4.839  12.054  25.811  1.00  0.00     0.235 A 
ATOM      4  O   UNL     1       5.730  11.514  25.098  1.00  0.00    -0.285 OA
ATOM      5  C   UNL     1       4.504  11.517  27.063  1.00  0.00     0.069 A 
ATOM      6  C   UNL     1       3.510  12.167  27.826  1.00  0.00     0.142 A 
ATOM      7  O   UNL     1       2.905  13.252  27.355  1.00  0.00    -0.452 OA
ATOM      8  C   UNL     1       3.155  11.668  29.084  1.00  0.00     0.094 A 
ATOM      9  C   UNL     1       3.781  10.522  29.591  1.00  0.00     0.119 A 
ATOM     10  C   UNL     1       4.766   9.875  28.836  1.00  0.00     0.047 A 
ATOM     11  C   UNL     1       5.128  10.367  27.578  1.00  0.00     0.020 A 
ENDROOT
BRANCH   1  12
ATOM     12  C   UNL     1       2.431  14.990  25.750  1.00  0.00     0.025 A 
ATOM     13  C   UNL     1       1.306  14.850  24.921  1.00  0.00     0.016 A 
ATOM     14  C   UNL     1       0.594  15.976  24.499  1.00  0.00     0.051 A 
ATOM     15  C   UNL     1       1.006  17.258  24.886  1.00  0.00     0.157 A 
ATOM     16  C   UNL     1       2.853  16.281  26.119  1.00  0.00     0.062 A 
ATOM     17  C   UNL     1       2.140  17.411  25.693  1.00  0.00     0.158 A 
BRANCH  15  18
ATOM     18  O   UNL     1       0.298  18.384  24.467  1.00  0.00    -0.504 OA
ATOM     19  H   UNL     1       0.711  19.309  24.492  1.00  0.00     0.293 HD
ENDBRANCH  15  18
BRANCH  17  20
ATOM     20  O   UNL     1       2.555  18.688  26.065  1.00  0.00    -0.504 OA
ATOM     21  H   UNL     1       3.046  19.296  25.419  1.00  0.00     0.293 HD
ENDBRANCH  17  20
ENDBRANCH   1  12
BRANCH   2  22
ATOM     22  O   UNL     1       4.528  13.794  24.135  1.00  0.00    -0.502 OA
ATOM     23  H   UNL     1       5.231  14.519  24.063  1.00  0.00     0.293 HD
ENDBRANCH   2  22
BRANCH   9  24
ATOM     24  O   UNL     1       3.433  10.018  30.842  1.00  0.00    -0.508 OA
ATOM     25  H   UNL     1       3.148   9.054  30.964  1.00  0.00     0.293 HD
ENDBRANCH   9  24
TORSDOF 5
ENDMDL
MODEL 5
REMARK VINA RESULT:    -5.335      2.381      3.392
REMARK INTER + INTRA:          -6.566
REMARK INTER:                  -6.411
REMARK INTRA:                  -0.155
REMARK UNBOUND:                -0.295
REMARK SMILES O=c1c(O)c(-c2ccc(O)c(O)c2)oc2cc(O)ccc12
REMARK SMILES IDX 5 1 3 2 2 3 1 4 21 5 15 6 14 7 16 8 17 9 19 10 20 11 6 12
REMARK SMILES IDX 7 13 8 14 9 15 13 16 11 17 10 18 12 20 4 22 18 24
REMARK H PARENT 10 19 12 21 4 23 18 25
REMARK Flexibility Score: inf
ROOT
ATOM      1  C   UNL     1       2.368  14.411  26.451  1.00  0.00     0.180 A 
ATOM      2  C   UNL     1       0.971  14.216  26.406  1.00  0.00     0.208 A 
ATOM      3  C   UNL     1       0.129  15.336  26.490  1.00  0.00     0.235 A 
ATOM      4  O   UNL     1      -1.124  15.187  26.441  1.00  0.00    -0.285 OA
ATOM      5  C   UNL     1       0.690  16.613  26.639  1.00  0.00     0.069 A 
ATOM      6  C   UNL     1       2.097  16.723  26.700  1.00  0.00     0.142 A 
ATOM      7  O   UNL     1       2.859  15.639  26.607  1.00  0.00    -0.452 OA
ATOM      8  C   UNL     1       2.695  17.978  26.858  1.00  0.00     0.094 A 
ATOM      9  C   UNL     1       1.903  19.130  26.952  1.00  0.00     0.119 A 
ATOM     10  C   UNL     1       0.509  19.024  26.889  1.00  0.00     0.047 A 
ATOM     11  C   UNL     1      -0.098  17.774  26.734  1.00  0.00     0.020 A 
ENDROOT
BRANCH   1  12
ATOM     12  C   UNL     1       3.322  13.285  26.350  1.00  0.00     0.025 A 
ATOM     13  C   UNL     1       4.151  13.182  25.221  1.00  0.00     0.016 A 
ATOM     14  C   UNL     1       5.045  12.115  25.095  1.00  0.00     0.051 A 
ATOM     15  C   UNL     1       5.111  11.128  26.087  1.00  0.00     0.157 A 
ATOM     16  C   UNL     1       3.378  12.281  27.333  1.00  0.00     0.062 A 
ATOM     17  C   UNL     1       4.273  11.208  27.206  1.00  0.00     0.158 A 
BRANCH  15  18
ATOM     18  O   UNL     1       6.003  10.063  25.966  1.00  0.00    -0.504 OA
ATOM     19  H   UNL     1       6.998  10.217  25.853  1.00  0.00     0.293 HD
ENDBRANCH  15  18
BRANCH  17  20
ATOM     20  O   UNL     1       4.332  10.218  28.184  1.00  0.00    -0.504 OA
ATOM     21  H   UNL     1       4.873   9.372  28.052  1.00  0.00     0.293 HD
ENDBRANCH  17  20
ENDBRANCH   1  12
BRANCH   2  22
ATOM     22  O   UNL     1       0.440  12.928  26.307  1.00  0.00    -0.502 OA
ATOM     23  H   UNL     1      -0.385  12.724  25.756  1.00  0.00     0.293 HD
ENDBRANCH   2  22
BRANCH   9  24
ATOM     24  O   UNL     1       2.490  20.383  27.108  1.00  0.00    -0.508 OA
ATOM     25  H   UNL     1       2.622  20.796  28.024  1.00  0.00     0.293 HD
ENDBRANCH   9  24
TORSDOF 5
ENDMDL
MODEL 6
REMARK VINA RESULT:    -5.316      1.527      2.254
REMARK INTER + INTRA:          -6.543
REMARK INTER:                  -6.220
REMARK INTRA:                  -0.322
REMARK UNBOUND:                -0.295
REMARK SMILES O=c1c(O)c(-c2ccc(O)c(O)c2)oc2cc(O)ccc12
REMARK SMILES IDX 5 1 3 2 2 3 1 4 21 5 15 6 14 7 16 8 17 9 19 10 20 11 6 12
REMARK SMILES IDX 7 13 8 14 9 15 13 16 11 17 10 18 12 20 4 22 18 24
REMARK H PARENT 10 19 12 21 4 23 18 25
REMARK Flexibility Score: inf
ROOT
ATOM      1  C   UNL     1       0.594  18.324  27.195  1.00  0.00     0.180 A 
ATOM      2  C   UNL     1       0.238  19.420  26.381  1.00  0.00     0.208 A 
ATOM      3  C   UNL     1      -0.278  20.575  26.990  1.00  0.00     0.235 A 
ATOM      4  O   UNL     1      -0.593  21.573  26.284  1.00  0.00    -0.285 OA
ATOM      5  C   UNL     1      -0.448  20.604  28.383  1.00  0.00     0.069 A 
ATOM      6  C   UNL     1      -0.092  19.457  29.125  1.00  0.00     0.142 A 
ATOM      7  O   UNL     1       0.403  18.387  28.511  1.00  0.00    -0.452 OA
ATOM      8  C   UNL     1      -0.256  19.443  30.514  1.00  0.00     0.094 A 
ATOM      9  C   UNL     1      -0.771  20.566  31.175  1.00  0.00     0.119 A 
ATOM     10  C   UNL     1      -1.123  21.704  30.442  1.00  0.00     0.047 A 
ATOM     11  C   UNL     1      -0.965  21.728  29.053  1.00  0.00     0.020 A 
ENDROOT
BRANCH   1  12
ATOM     12  C   UNL     1       1.161  17.079  26.631  1.00  0.00     0.025 A 
ATOM     13  C   UNL     1       0.311  15.998  26.348  1.00  0.00     0.016 A 
ATOM     14  C   UNL     1       0.829  14.806  25.835  1.00  0.00     0.051 A 
ATOM     15  C   UNL     1       2.206  14.671  25.614  1.00  0.00     0.157 A 
ATOM     16  C   UNL     1       2.546  16.932  26.427  1.00  0.00     0.062 A 
ATOM     17  C   UNL     1       3.066  15.734  25.915  1.00  0.00     0.158 A 
BRANCH  15  18
ATOM     18  O   UNL     1       2.726  13.484  25.101  1.00  0.00    -0.504 OA
ATOM     19  H   UNL     1       3.713  13.383  24.897  1.00  0.00     0.293 HD
ENDBRANCH  15  18
BRANCH  17  20
ATOM     20  O   UNL     1       4.437  15.593  25.707  1.00  0.00    -0.504 OA
ATOM     21  H   UNL     1       4.903  14.701  25.827  1.00  0.00     0.293 HD
ENDBRANCH  17  20
ENDBRANCH   1  12
BRANCH   2  22
ATOM     22  O   UNL     1       0.373  19.344  24.993  1.00  0.00    -0.502 OA
ATOM     23  H   UNL     1       1.053  19.895  24.484  1.00  0.00     0.293 HD
ENDBRANCH   2  22
BRANCH   9  24
ATOM     24  O   UNL     1      -0.937  20.561  32.558  1.00  0.00    -0.508 OA
ATOM     25  H   UNL     1      -0.550  19.824  33.135  1.00  0.00     0.293 HD
ENDBRANCH   9  24
TORSDOF 5
ENDMDL
MODEL 7
REMARK VINA RESULT:    -5.025      2.758      7.390
REMARK INTER + INTRA:          -6.202
REMARK INTER:                  -5.940
REMARK INTRA:                  -0.262
REMARK UNBOUND:                -0.295
REMARK SMILES O=c1c(O)c(-c2ccc(O)c(O)c2)oc2cc(O)ccc12
REMARK SMILES IDX 5 1 3 2 2 3 1 4 21 5 15 6 14 7 16 8 17 9 19 10 20 11 6 12
REMARK SMILES IDX 7 13 8 14 9 15 13 16 11 17 10 18 12 20 4 22 18 24
REMARK H PARENT 10 19 12 21 4 23 18 25
REMARK Flexibility Score: inf
ROOT
ATOM      1  C   UNL     1       2.196  13.919  26.261  1.00  0.00     0.180 A 
ATOM      2  C   UNL     1       1.493  13.112  27.180  1.00  0.00     0.208 A 
ATOM      3  C   UNL     1       2.046  11.879  27.558  1.00  0.00     0.235 A 
ATOM      4  O   UNL     1       1.440  11.145  28.388  1.00  0.00    -0.285 OA
ATOM      5  C   UNL     1       3.266  11.468  27.000  1.00  0.00     0.069 A 
ATOM      6  C   UNL     1       3.896  12.322  26.068  1.00  0.00     0.142 A 
ATOM      7  O   UNL     1       3.344  13.486  25.744  1.00  0.00    -0.452 OA
ATOM      8  C   UNL     1       5.109  11.944  25.482  1.00  0.00     0.094 A 
ATOM      9  C   UNL     1       5.705  10.722  25.818  1.00  0.00     0.119 A 
ATOM     10  C   UNL     1       5.083   9.875  26.742  1.00  0.00     0.047 A 
ATOM     11  C   UNL     1       3.870  10.243  27.333  1.00  0.00     0.020 A 
ENDROOT
BRANCH   1  12
ATOM     12  C   UNL     1       1.690  15.240  25.827  1.00  0.00     0.025 A 
ATOM     13  C   UNL     1       0.660  15.307  24.876  1.00  0.00     0.016 A 
ATOM     14  C   UNL     1       0.181  16.544  24.437  1.00  0.00     0.051 A 
ATOM     15  C   UNL     1       0.737  17.732  24.930  1.00  0.00     0.157 A 
ATOM     16  C   UNL     1       2.259  16.436  26.304  1.00  0.00     0.062 A 
ATOM     17  C   UNL     1       1.780  17.678  25.861  1.00  0.00     0.158 A 
BRANCH  15  18
ATOM     18  O   UNL     1       0.260  18.968  24.495  1.00  0.00    -0.504 OA
ATOM     19  H   UNL     1       0.465  19.822  25.001  1.00  0.00     0.293 HD
ENDBRANCH  15  18
BRANCH  17  20
ATOM     20  O   UNL     1       2.341  18.861  26.339  1.00  0.00    -0.504 OA
ATOM     21  H   UNL     1       3.176  18.858  26.913  1.00  0.00     0.293 HD
ENDBRANCH  17  20
ENDBRANCH   1  12
BRANCH   2  22
ATOM     22  O   UNL     1       0.256  13.526  27.682  1.00  0.00    -0.502 OA
ATOM     23  H   UNL     1      -0.011  14.502  27.727  1.00  0.00     0.293 HD
ENDBRANCH   2  22
BRANCH   9  24
ATOM     24  O   UNL     1       6.912  10.338  25.240  1.00  0.00    -0.508 OA
ATOM     25  H   UNL     1       7.565   9.735  25.726  1.00  0.00     0.293 HD
ENDBRANCH   9  24
TORSDOF 5
ENDMDL
MODEL 8
REMARK VINA RESULT:    -4.842      1.946      6.548
REMARK INTER + INTRA:          -5.986
REMARK INTER:                  -5.681
REMARK INTRA:                  -0.305
REMARK UNBOUND:                -0.295
REMARK SMILES O=c1c(O)c(-c2ccc(O)c(O)c2)oc2cc(O)ccc12
REMARK SMILES IDX 5 1 3 2 2 3 1 4 21 5 15 6 14 7 16 8 17 9 19 10 20 11 6 12
REMARK SMILES IDX 7 13 8 14 9 15 13 16 11 17 10 18 12 20 4 22 18 24
REMARK H PARENT 10 19 12 21 4 23 18 25
REMARK Flexibility Score: inf
ROOT
ATOM      1  C   UNL     1       1.781  16.246  26.240  1.00  0.00     0.180 A 
ATOM      2  C   UNL     1       3.101  16.150  25.751  1.00  0.00     0.208 A 
ATOM      3  C   UNL     1       3.756  14.910  25.811  1.00  0.00     0.235 A 
ATOM      4  O   UNL     1       4.933  14.798  25.370  1.00  0.00    -0.285 OA
ATOM      5  C   UNL     1       3.095  13.807  26.371  1.00  0.00     0.069 A 
ATOM      6  C   UNL     1       1.783  13.990  26.860  1.00  0.00     0.142 A 
ATOM      7  O   UNL     1       1.195  15.178  26.776  1.00  0.00    -0.452 OA
ATOM      8  C   UNL     1       1.094  12.916  27.435  1.00  0.00     0.094 A 
ATOM      9  C   UNL     1       1.700  11.656  27.525  1.00  0.00     0.119 A 
ATOM     10  C   UNL     1       2.999  11.472  27.040  1.00  0.00     0.047 A 
ATOM     11  C   UNL     1       3.697  12.539  26.465  1.00  0.00     0.020 A 
ENDROOT
BRANCH   1  12
ATOM     12  C   UNL     1       1.016  17.513  26.195  1.00  0.00     0.025 A 
ATOM     13  C   UNL     1       0.169  17.770  25.105  1.00  0.00     0.016 A 
ATOM     14  C   UNL     1      -0.546  18.968  25.033  1.00  0.00     0.051 A 
ATOM     15  C   UNL     1      -0.412  19.933  26.040  1.00  0.00     0.157 A 
ATOM     16  C   UNL     1       1.164  18.493  27.193  1.00  0.00     0.062 A 
ATOM     17  C   UNL     1       0.448  19.698  27.119  1.00  0.00     0.158 A 
BRANCH  15  18
ATOM     18  O   UNL     1      -1.125  21.129  25.972  1.00  0.00    -0.504 OA
ATOM     19  H   UNL     1      -0.878  21.926  26.547  1.00  0.00     0.293 HD
ENDBRANCH  15  18
BRANCH  17  20
ATOM     20  O   UNL     1       0.590  20.664  28.112  1.00  0.00    -0.504 OA
ATOM     21  H   UNL     1       0.080  20.607  28.986  1.00  0.00     0.293 HD
ENDBRANCH  17  20
ENDBRANCH   1  12
BRANCH   2  22
ATOM     22  O   UNL     1       3.751  17.279  25.244  1.00  0.00    -0.502 OA
ATOM     23  H   UNL     1       4.201  17.959  25.844  1.00  0.00     0.293 HD
ENDBRANCH   2  22
BRANCH   9  24
ATOM     24  O   UNL     1       1.022  10.582  28.095  1.00  0.00    -0.508 OA
ATOM     25  H   UNL     1       0.063  10.368  27.847  1.00  0.00     0.293 HD
ENDBRANCH   9  24
TORSDOF 5
ENDMDL
MODEL 9
REMARK VINA RESULT:    -3.590      1.813      6.809
REMARK INTER + INTRA:          -4.515
REMARK INTER:                  -4.283
REMARK INTRA:                  -0.231
REMARK UNBOUND:                -0.295
REMARK SMILES O=c1c(O)c(-c2ccc(O)c(O)c2)oc2cc(O)ccc12
REMARK SMILES IDX 5 1 3 2 2 3 1 4 21 5 15 6 14 7 16 8 17 9 19 10 20 11 6 12
REMARK SMILES IDX 7 13 8 14 9 15 13 16 11 17 10 18 12 20 4 22 18 24
REMARK H PARENT 10 19 12 21 4 23 18 25
REMARK Flexibility Score: inf
ROOT
ATOM      1  C   UNL     1       1.036  16.891  26.095  1.00  0.00     0.180 A 
ATOM      2  C   UNL     1       0.246  15.751  26.354  1.00  0.00     0.208 A 
ATOM      3  C   UNL     1       0.856  14.488  26.340  1.00  0.00     0.235 A 
ATOM      4  O   UNL     1       0.172  13.454  26.579  1.00  0.00    -0.285 OA
ATOM      5  C   UNL     1       2.226  14.385  26.049  1.00  0.00     0.069 A 
ATOM      6  C   UNL     1       2.942  15.571  25.777  1.00  0.00     0.142 A 
ATOM      7  O   UNL     1       2.329  16.749  25.810  1.00  0.00    -0.452 OA
ATOM      8  C   UNL     1       4.307  15.510  25.474  1.00  0.00     0.094 A 
ATOM      9  C   UNL     1       4.967  14.275  25.441  1.00  0.00     0.119 A 
ATOM     10  C   UNL     1       4.260  13.099  25.712  1.00  0.00     0.047 A 
ATOM     11  C   UNL     1       2.896  13.149  26.015  1.00  0.00     0.020 A 
ENDROOT
BRANCH   1  12
ATOM     12  C   UNL     1       0.471  18.259  26.110  1.00  0.00     0.025 A 
ATOM     13  C   UNL     1      -0.338  18.684  25.044  1.00  0.00     0.016 A 
ATOM     14  C   UNL     1      -0.864  19.978  25.027  1.00  0.00     0.051 A 
ATOM     15  C   UNL     1      -0.576  20.871  26.068  1.00  0.00     0.157 A 
ATOM     16  C   UNL     1       0.775  19.166  27.142  1.00  0.00     0.062 A 
ATOM     17  C   UNL     1       0.248  20.466  27.124  1.00  0.00     0.158 A 
BRANCH  15  18
ATOM     18  O   UNL     1      -1.101  22.162  26.056  1.00  0.00    -0.504 OA
ATOM     19  H   UNL     1      -1.071  22.738  25.223  1.00  0.00     0.293 HD
ENDBRANCH  15  18
BRANCH  17  20
ATOM     20  O   UNL     1       0.544  21.361  28.151  1.00  0.00    -0.504 OA
ATOM     21  H   UNL     1       0.393  22.357  28.047  1.00  0.00     0.293 HD
ENDBRANCH  17  20
ENDBRANCH   1  12
BRANCH   2  22
ATOM     22  O   UNL     1      -1.125  15.881  26.592  1.00  0.00    -0.502 OA
ATOM     23  H   UNL     1      -1.673  16.637  26.201  1.00  0.00     0.293 HD
ENDBRANCH   2  22
BRANCH   9  24
ATOM     24  O   UNL     1       6.326  14.205  25.140  1.00  0.00    -0.508 OA
ATOM     25  H   UNL     1       6.986  13.768  25.771  1.00  0.00     0.293 HD
ENDBRANCH   9  24
TORSDOF 5
ENDMDL
