MODEL 1
REMARK VINA RESULT:    -3.502      0.000      0.000
REMARK INTER + INTRA:          -5.869
REMARK INTER:                  -5.139
REMARK INTRA:                  -0.730
REMARK UNBOUND:                -0.730
REMARK SMILES O=C([O-])CCCCCCCC(=O)[O-]
REMARK SMILES IDX 7 1 6 2 5 3 4 4 2 5 1 6 3 7 8 8 9 9 10 10 11 11 12 12 13 13
REMARK H PARENT
REMARK Flexibility Score: inf
ROOT
ATOM      1  C   UNL     1       0.395   9.707  39.700  1.00  0.00     0.000 C 
ENDROOT
BRANCH   1   2
ATOM      2  C   UNL     1       1.848  10.125  39.392  1.00  0.00     0.000 C 
BRANCH   2   3
ATOM      3  C   UNL     1       2.424   9.373  38.181  1.00  0.00     0.006 C 
BRANCH   3   4
ATOM      4  C   UNL     1       2.269   7.859  38.350  1.00  0.00     0.053 C 
BRANCH   4   5
ATOM      5  C   UNL     1       1.963   7.213  37.036  1.00  0.00     0.041 C 
ATOM      6  O   UNL     1       0.926   7.536  36.397  1.00  0.00    -0.550 OA
ATOM      7  O   UNL     1       2.795   6.219  36.540  1.00  0.00    -0.550 OA
ENDBRANCH   4   5
ENDBRANCH   3   4
ENDBRANCH   2   3
ENDBRANCH   1   2
BRANCH   1   8
ATOM      8  C   UNL     1      -0.610  10.125  38.613  1.00  0.00     0.000 C 
BRANCH   8   9
ATOM      9  C   UNL     1      -1.834   9.201  38.543  1.00  0.00     0.006 C 
BRANCH   9  10
ATOM     10  C   UNL     1      -1.470   7.775  38.967  1.00  0.00     0.053 C 
BRANCH  10  11
ATOM     11  C   UNL     1      -2.509   7.222  39.890  1.00  0.00     0.041 C 
ATOM     12  O   UNL     1      -3.233   6.260  39.526  1.00  0.00    -0.550 OA
ATOM     13  O   UNL     1      -2.712   7.804  41.136  1.00  0.00    -0.550 OA
ENDBRANCH  10  11
ENDBRANCH   9  10
ENDBRANCH   8   9
ENDBRANCH   1   8
TORSDOF 8
ENDMDL
MODEL 2
REMARK VINA RESULT:    -3.341      2.362      4.813
REMARK INTER + INTRA:          -5.634
REMARK INTER:                  -4.796
REMARK INTRA:                  -0.838
REMARK UNBOUND:                -0.730
REMARK SMILES O=C([O-])CCCCCCCC(=O)[O-]
REMARK SMILES IDX 7 1 6 2 5 3 4 4 2 5 1 6 3 7 8 8 9 9 10 10 11 11 12 12 13 13
REMARK H PARENT
REMARK Flexibility Score: inf
ROOT
ATOM      1  C   UNL     1      -1.797   9.103  38.271  1.00  0.00     0.000 C 
ENDROOT
BRANCH   1   2
ATOM      2  C   UNL     1      -1.337   7.635  38.401  1.00  0.00     0.000 C 
BRANCH   2   3
ATOM      3  C   UNL     1      -2.166   6.857  39.434  1.00  0.00     0.006 C 
BRANCH   3   4
ATOM      4  C   UNL     1      -2.581   7.760  40.599  1.00  0.00     0.053 C 
BRANCH   4   5
ATOM      5  C   UNL     1      -2.205   7.137  41.906  1.00  0.00     0.041 C 
ATOM      6  O   UNL     1      -2.627   7.626  42.987  1.00  0.00    -0.550 OA
ATOM      7  O   UNL     1      -1.347   6.045  41.934  1.00  0.00    -0.550 OA
ENDBRANCH   4   5
ENDBRANCH   3   4
ENDBRANCH   2   3
ENDBRANCH   1   2
BRANCH   1   8
ATOM      8  C   UNL     1      -0.727  10.124  38.695  1.00  0.00     0.000 C 
BRANCH   8   9
ATOM      9  C   UNL     1       0.701   9.569  38.599  1.00  0.00     0.006 C 
BRANCH   9  10
ATOM     10  C   UNL     1       1.482   9.838  39.888  1.00  0.00     0.053 C 
BRANCH  10  11
ATOM     11  C   UNL     1       1.176   8.794  40.915  1.00  0.00     0.041 C 
ATOM     12  O   UNL     1       1.271   7.573  40.625  1.00  0.00    -0.550 OA
ATOM     13  O   UNL     1       0.735   9.170  42.177  1.00  0.00    -0.550 OA
ENDBRANCH  10  11
ENDBRANCH   9  10
ENDBRANCH   8   9
ENDBRANCH   1   8
TORSDOF 8
ENDMDL
MODEL 3
REMARK VINA RESULT:    -3.336      2.658      4.069
REMARK INTER + INTRA:          -5.626
REMARK INTER:                  -4.737
REMARK INTRA:                  -0.890
REMARK UNBOUND:                -0.730
REMARK SMILES O=C([O-])CCCCCCCC(=O)[O-]
REMARK SMILES IDX 7 1 6 2 5 3 4 4 2 5 1 6 3 7 8 8 9 9 10 10 11 11 12 12 13 13
REMARK H PARENT
REMARK Flexibility Score: inf
ROOT
ATOM      1  C   UNL     1      -2.649   7.434  39.757  1.00  0.00     0.000 C 
ENDROOT
BRANCH   1   2
ATOM      2  C   UNL     1      -2.735   5.896  39.860  1.00  0.00     0.000 C 
BRANCH   2   3
ATOM      3  C   UNL     1      -1.560   5.201  39.154  1.00  0.00     0.006 C 
BRANCH   3   4
ATOM      4  C   UNL     1      -1.456   5.646  37.692  1.00  0.00     0.053 C 
BRANCH   4   5
ATOM      5  C   UNL     1      -0.030   5.905  37.323  1.00  0.00     0.041 C 
ATOM      6  O   UNL     1       0.814   6.185  38.214  1.00  0.00    -0.550 OA
ATOM      7  O   UNL     1       0.357   5.887  35.989  1.00  0.00    -0.550 OA
ENDBRANCH   4   5
ENDBRANCH   3   4
ENDBRANCH   2   3
ENDBRANCH   1   2
BRANCH   1   8
ATOM      8  C   UNL     1      -1.378   8.024  40.392  1.00  0.00     0.000 C 
BRANCH   8   9
ATOM      9  C   UNL     1      -0.700   9.077  39.504  1.00  0.00     0.006 C 
BRANCH   9  10
ATOM     10  C   UNL     1      -1.647   9.557  38.400  1.00  0.00     0.053 C 
BRANCH  10  11
ATOM     11  C   UNL     1      -0.951   9.556  37.076  1.00  0.00     0.041 C 
ATOM     12  O   UNL     1       0.305   9.528  37.021  1.00  0.00    -0.550 OA
ATOM     13  O   UNL     1      -1.691   9.640  35.903  1.00  0.00    -0.550 OA
ENDBRANCH  10  11
ENDBRANCH   9  10
ENDBRANCH   8   9
ENDBRANCH   1   8
TORSDOF 8
ENDMDL
MODEL 4
REMARK VINA RESULT:    -3.319      2.110      4.537
REMARK INTER + INTRA:          -5.601
REMARK INTER:                  -4.813
REMARK INTRA:                  -0.788
REMARK UNBOUND:                -0.730
REMARK SMILES O=C([O-])CCCCCCCC(=O)[O-]
REMARK SMILES IDX 7 1 6 2 5 3 4 4 2 5 1 6 3 7 8 8 9 9 10 10 11 11 12 12 13 13
REMARK H PARENT
REMARK Flexibility Score: inf
ROOT
ATOM      1  C   UNL     1      -0.173   8.747  36.749  1.00  0.00     0.000 C 
ENDROOT
BRANCH   1   2
ATOM      2  C   UNL     1      -1.129   9.774  37.392  1.00  0.00     0.000 C 
BRANCH   2   3
ATOM      3  C   UNL     1      -1.827   9.216  38.642  1.00  0.00     0.006 C 
BRANCH   3   4
ATOM      4  C   UNL     1      -1.656   7.696  38.734  1.00  0.00     0.053 C 
BRANCH   4   5
ATOM      5  C   UNL     1      -2.537   7.134  39.804  1.00  0.00     0.041 C 
ATOM      6  O   UNL     1      -3.266   6.135  39.565  1.00  0.00    -0.550 OA
ATOM      7  O   UNL     1      -2.591   7.742  41.051  1.00  0.00    -0.550 OA
ENDBRANCH   4   5
ENDBRANCH   3   4
ENDBRANCH   2   3
ENDBRANCH   1   2
BRANCH   1   8
ATOM      8  C   UNL     1       1.282   9.237  36.651  1.00  0.00     0.000 C 
BRANCH   8   9
ATOM      9  C   UNL     1       1.859   9.672  38.005  1.00  0.00     0.006 C 
BRANCH   9  10
ATOM     10  C   UNL     1       2.123   8.461  38.904  1.00  0.00     0.053 C 
BRANCH  10  11
ATOM     11  C   UNL     1       1.440   8.629  40.224  1.00  0.00     0.041 C 
ATOM     12  O   UNL     1       1.199   9.781  40.671  1.00  0.00    -0.550 OA
ATOM     13  O   UNL     1       1.115   7.513  40.985  1.00  0.00    -0.550 OA
ENDBRANCH  10  11
ENDBRANCH   9  10
ENDBRANCH   8   9
ENDBRANCH   1   8
TORSDOF 8
ENDMDL
MODEL 5
REMARK VINA RESULT:    -3.297      0.543      4.754
REMARK INTER + INTRA:          -5.569
REMARK INTER:                  -4.866
REMARK INTRA:                  -0.702
REMARK UNBOUND:                -0.730
REMARK SMILES O=C([O-])CCCCCCCC(=O)[O-]
REMARK SMILES IDX 7 1 6 2 5 3 4 4 2 5 1 6 3 7 8 8 9 9 10 10 11 11 12 12 13 13
REMARK H PARENT
REMARK Flexibility Score: inf
ROOT
ATOM      1  C   UNL     1       0.475   9.452  39.671  1.00  0.00     0.000 C 
ENDROOT
BRANCH   1   2
ATOM      2  C   UNL     1      -0.685   9.959  38.788  1.00  0.00     0.000 C 
BRANCH   2   3
ATOM      3  C   UNL     1      -1.844   8.953  38.717  1.00  0.00     0.006 C 
BRANCH   3   4
ATOM      4  C   UNL     1      -1.361   7.535  39.034  1.00  0.00     0.053 C 
BRANCH   4   5
ATOM      5  C   UNL     1      -2.324   6.844  39.945  1.00  0.00     0.041 C 
ATOM      6  O   UNL     1      -2.247   7.009  41.192  1.00  0.00    -0.550 OA
ATOM      7  O   UNL     1      -3.276   5.978  39.424  1.00  0.00    -0.550 OA
ENDBRANCH   4   5
ENDBRANCH   3   4
ENDBRANCH   2   3
ENDBRANCH   1   2
BRANCH   1   8
ATOM      8  C   UNL     1       1.824  10.125  39.364  1.00  0.00     0.000 C 
BRANCH   8   9
ATOM      9  C   UNL     1       2.571   9.462  38.198  1.00  0.00     0.006 C 
BRANCH   9  10
ATOM     10  C   UNL     1       2.308   7.953  38.165  1.00  0.00     0.053 C 
BRANCH  10  11
ATOM     11  C   UNL     1       1.740   7.549  36.842  1.00  0.00     0.041 C 
ATOM     12  O   UNL     1       1.239   8.413  36.077  1.00  0.00    -0.550 OA
ATOM     13  O   UNL     1       1.718   6.209  36.476  1.00  0.00    -0.550 OA
ENDBRANCH  10  11
ENDBRANCH   9  10
ENDBRANCH   8   9
ENDBRANCH   1   8
TORSDOF 8
ENDMDL
MODEL 6
REMARK VINA RESULT:    -3.296      1.772      2.453
REMARK INTER + INTRA:          -5.568
REMARK INTER:                  -4.852
REMARK INTRA:                  -0.716
REMARK UNBOUND:                -0.730
REMARK SMILES O=C([O-])CCCCCCCC(=O)[O-]
REMARK SMILES IDX 7 1 6 2 5 3 4 4 2 5 1 6 3 7 8 8 9 9 10 10 11 11 12 12 13 13
REMARK H PARENT
REMARK Flexibility Score: inf
ROOT
ATOM      1  C   UNL     1      -1.903   9.956  37.894  1.00  0.00     0.000 C 
ENDROOT
BRANCH   1   2
ATOM      2  C   UNL     1      -1.507   9.631  36.439  1.00  0.00     0.000 C 
BRANCH   2   3
ATOM      3  C   UNL     1      -0.081  10.097  36.107  1.00  0.00     0.006 C 
BRANCH   3   4
ATOM      4  C   UNL     1       0.681   9.023  35.325  1.00  0.00     0.053 C 
BRANCH   4   5
ATOM      5  C   UNL     1       1.159   7.945  36.245  1.00  0.00     0.041 C 
ATOM      6  O   UNL     1       0.706   6.774  36.138  1.00  0.00    -0.550 OA
ATOM      7  O   UNL     1       2.066   8.242  37.253  1.00  0.00    -0.550 OA
ENDBRANCH   4   5
ENDBRANCH   3   4
ENDBRANCH   2   3
ENDBRANCH   1   2
BRANCH   1   8
ATOM      8  C   UNL     1      -0.757   9.764  38.903  1.00  0.00     0.000 C 
BRANCH   8   9
ATOM      9  C   UNL     1      -0.857   8.442  39.677  1.00  0.00     0.006 C 
BRANCH   9  10
ATOM     10  C   UNL     1      -2.295   7.915  39.680  1.00  0.00     0.053 C 
BRANCH  10  11
ATOM     11  C   UNL     1      -2.330   6.486  39.240  1.00  0.00     0.041 C 
ATOM     12  O   UNL     1      -1.321   5.964  38.700  1.00  0.00    -0.550 OA
ATOM     13  O   UNL     1      -3.498   5.746  39.379  1.00  0.00    -0.550 OA
ENDBRANCH  10  11
ENDBRANCH   9  10
ENDBRANCH   8   9
ENDBRANCH   1   8
TORSDOF 8
ENDMDL
MODEL 7
REMARK VINA RESULT:    -3.242      2.522      4.614
REMARK INTER + INTRA:          -5.487
REMARK INTER:                  -4.806
REMARK INTRA:                  -0.681
REMARK UNBOUND:                -0.730
REMARK SMILES O=C([O-])CCCCCCCC(=O)[O-]
REMARK SMILES IDX 7 1 6 2 5 3 4 4 2 5 1 6 3 7 8 8 9 9 10 10 11 11 12 12 13 13
REMARK H PARENT
REMARK Flexibility Score: inf
ROOT
ATOM      1  C   UNL     1      -0.745   8.902  39.299  1.00  0.00     0.000 C 
ENDROOT
BRANCH   1   2
ATOM      2  C   UNL     1      -1.318   7.922  40.345  1.00  0.00     0.000 C 
BRANCH   2   3
ATOM      3  C   UNL     1      -2.699   7.382  39.940  1.00  0.00     0.006 C 
BRANCH   3   4
ATOM      4  C   UNL     1      -2.696   5.852  39.887  1.00  0.00     0.053 C 
BRANCH   4   5
ATOM      5  C   UNL     1      -1.715   5.363  38.870  1.00  0.00     0.041 C 
ATOM      6  O   UNL     1      -1.882   5.627  37.650  1.00  0.00    -0.550 OA
ATOM      7  O   UNL     1      -0.642   4.574  39.262  1.00  0.00    -0.550 OA
ENDBRANCH   4   5
ENDBRANCH   3   4
ENDBRANCH   2   3
ENDBRANCH   1   2
BRANCH   1   8
ATOM      8  C   UNL     1      -1.821   9.562  38.419  1.00  0.00     0.000 C 
BRANCH   8   9
ATOM      9  C   UNL     1      -1.424   9.629  36.938  1.00  0.00     0.006 C 
BRANCH   9  10
ATOM     10  C   UNL     1      -0.332   8.605  36.616  1.00  0.00     0.053 C 
BRANCH  10  11
ATOM     11  C   UNL     1       0.770   9.243  35.832  1.00  0.00     0.041 C 
ATOM     12  O   UNL     1       0.729   9.254  34.574  1.00  0.00    -0.550 OA
ATOM     13  O   UNL     1       1.869   9.781  36.490  1.00  0.00    -0.550 OA
ENDBRANCH  10  11
ENDBRANCH   9  10
ENDBRANCH   8   9
ENDBRANCH   1   8
TORSDOF 8
ENDMDL
MODEL 8
REMARK VINA RESULT:    -3.238      1.433      1.721
REMARK INTER + INTRA:          -5.482
REMARK INTER:                  -4.981
REMARK INTRA:                  -0.501
REMARK UNBOUND:                -0.730
REMARK SMILES O=C([O-])CCCCCCCC(=O)[O-]
REMARK SMILES IDX 7 1 6 2 5 3 4 4 2 5 1 6 3 7 8 8 9 9 10 10 11 11 12 12 13 13
REMARK H PARENT
REMARK Flexibility Score: inf
ROOT
ATOM      1  C   UNL     1       0.350  10.106  38.963  1.00  0.00     0.000 C 
ENDROOT
BRANCH   1   2
ATOM      2  C   UNL     1       1.882   9.917  38.960  1.00  0.00     0.000 C 
BRANCH   2   3
ATOM      3  C   UNL     1       2.436   9.689  37.545  1.00  0.00     0.006 C 
BRANCH   3   4
ATOM      4  C   UNL     1       1.327   9.805  36.495  1.00  0.00     0.053 C 
BRANCH   4   5
ATOM      5  C   UNL     1       1.120   8.496  35.802  1.00  0.00     0.041 C 
ATOM      6  O   UNL     1       1.445   8.360  34.593  1.00  0.00    -0.550 OA
ATOM      7  O   UNL     1       0.523   7.439  36.476  1.00  0.00    -0.550 OA
ENDBRANCH   4   5
ENDBRANCH   3   4
ENDBRANCH   2   3
ENDBRANCH   1   2
BRANCH   1   8
ATOM      8  C   UNL     1      -0.403   9.025  39.757  1.00  0.00     0.000 C 
BRANCH   8   9
ATOM      9  C   UNL     1      -1.678   8.544  39.051  1.00  0.00     0.006 C 
BRANCH   9  10
ATOM     10  C   UNL     1      -2.599   7.804  40.026  1.00  0.00     0.053 C 
BRANCH  10  11
ATOM     11  C   UNL     1      -2.498   6.325  39.823  1.00  0.00     0.041 C 
ATOM     12  O   UNL     1      -3.462   5.686  39.329  1.00  0.00    -0.550 OA
ATOM     13  O   UNL     1      -1.356   5.646  40.229  1.00  0.00    -0.550 OA
ENDBRANCH  10  11
ENDBRANCH   9  10
ENDBRANCH   8   9
ENDBRANCH   1   8
TORSDOF 8
ENDMDL
MODEL 9
REMARK VINA RESULT:    -3.233      2.096      3.885
REMARK INTER + INTRA:          -5.474
REMARK INTER:                  -4.624
REMARK INTRA:                  -0.851
REMARK UNBOUND:                -0.730
REMARK SMILES O=C([O-])CCCCCCCC(=O)[O-]
REMARK SMILES IDX 7 1 6 2 5 3 4 4 2 5 1 6 3 7 8 8 9 9 10 10 11 11 12 12 13 13
REMARK H PARENT
REMARK Flexibility Score: inf
ROOT
ATOM      1  C   UNL     1       2.250   9.733  38.418  1.00  0.00     0.000 C 
ENDROOT
BRANCH   1   2
ATOM      2  C   UNL     1       1.449   9.927  39.724  1.00  0.00     0.000 C 
BRANCH   2   3
ATOM      3  C   UNL     1       1.155   8.593  40.428  1.00  0.00     0.006 C 
BRANCH   3   4
ATOM      4  C   UNL     1      -0.223   8.616  41.094  1.00  0.00     0.053 C 
BRANCH   4   5
ATOM      5  C   UNL     1      -1.115   7.579  40.489  1.00  0.00     0.041 C 
ATOM      6  O   UNL     1      -2.365   7.739  40.489  1.00  0.00    -0.550 OA
ATOM      7  O   UNL     1      -0.572   6.411  39.970  1.00  0.00    -0.550 OA
ENDBRANCH   4   5
ENDBRANCH   3   4
ENDBRANCH   2   3
ENDBRANCH   1   2
BRANCH   1   8
ATOM      8  C   UNL     1       1.952   8.403  37.705  1.00  0.00     0.000 C 
BRANCH   8   9
ATOM      9  C   UNL     1       0.973   8.559  36.534  1.00  0.00     0.006 C 
BRANCH   9  10
ATOM     10  C   UNL     1      -0.461   8.248  36.973  1.00  0.00     0.053 C 
BRANCH  10  11
ATOM     11  C   UNL     1      -1.300   9.486  36.937  1.00  0.00     0.041 C 
ATOM     12  O   UNL     1      -1.826   9.926  37.992  1.00  0.00    -0.550 OA
ATOM     13  O   UNL     1      -1.543  10.125  35.728  1.00  0.00    -0.550 OA
ENDBRANCH  10  11
ENDBRANCH   9  10
ENDBRANCH   8   9
ENDBRANCH   1   8
TORSDOF 8
ENDMDL
