MODEL 1
REMARK VINA RESULT:    -2.994      0.000      0.000
REMARK INTER + INTRA:         -12.188
REMARK INTER:                  -7.544
REMARK INTRA:                  -4.644
REMARK UNBOUND:                -4.644
REMARK SMILES CCCCCCCCCCCCCCCCCCCCCCCCCCCC(=O)[O-]
REMARK SMILES IDX 15 1 16 2 17 3 18 4 19 5 20 6 21 7 22 8 23 9 24 10 25 11
REMARK SMILES IDX 26 12 27 13 28 14 29 15 30 16 14 17 13 18 12 19 11 20 10 21
REMARK SMILES IDX 9 22 8 23 7 24 6 25 5 26 4 27 3 28 2 29 1 30
REMARK H PARENT
REMARK Flexibility Score: inf
ROOT
ATOM      1  C   UNL     1      22.394  32.311  47.426  1.00  0.00     0.000 C 
ENDROOT
BRANCH   1   2
ATOM      2  C   UNL     1      23.238  31.877  46.218  1.00  0.00     0.000 C 
BRANCH   2   3
ATOM      3  C   UNL     1      24.311  30.860  46.634  1.00  0.00     0.000 C 
BRANCH   3   4
ATOM      4  C   UNL     1      23.785  29.818  47.632  1.00  0.00     0.000 C 
BRANCH   4   5
ATOM      5  C   UNL     1      23.522  28.450  46.975  1.00  0.00     0.000 C 
BRANCH   5   6
ATOM      6  C   UNL     1      22.034  28.062  46.991  1.00  0.00     0.000 C 
BRANCH   6   7
ATOM      7  C   UNL     1      21.227  28.764  45.885  1.00  0.00     0.000 C 
BRANCH   7   8
ATOM      8  C   UNL     1      20.925  27.834  44.690  1.00  0.00     0.000 C 
BRANCH   8   9
ATOM      9  C   UNL     1      21.691  28.200  43.403  1.00  0.00     0.000 C 
BRANCH   9  10
ATOM     10  C   UNL     1      22.511  29.501  43.480  1.00  0.00     0.000 C 
BRANCH  10  11
ATOM     11  C   UNL     1      24.039  29.324  43.354  1.00  0.00     0.000 C 
BRANCH  11  12
ATOM     12  C   UNL     1      24.811  30.591  42.945  1.00  0.00     0.006 C 
BRANCH  12  13
ATOM     13  C   UNL     1      26.333  30.401  42.974  1.00  0.00     0.053 C 
BRANCH  13  14
ATOM     14  C   UNL     1      26.789  29.673  41.749  1.00  0.00     0.041 C 
ATOM     15  O   UNL     1      26.909  30.286  40.655  1.00  0.00    -0.550 OA
ATOM     16  O   UNL     1      27.152  28.335  41.833  1.00  0.00    -0.550 OA
ENDBRANCH  13  14
ENDBRANCH  12  13
ENDBRANCH  11  12
ENDBRANCH  10  11
ENDBRANCH   9  10
ENDBRANCH   8   9
ENDBRANCH   7   8
ENDBRANCH   6   7
ENDBRANCH   5   6
ENDBRANCH   4   5
ENDBRANCH   3   4
ENDBRANCH   2   3
ENDBRANCH   1   2
BRANCH   1  17
ATOM     17  C   UNL     1      20.883  32.157  47.186  1.00  0.00     0.000 C 
BRANCH  17  18
ATOM     18  C   UNL     1      20.118  31.764  48.462  1.00  0.00     0.000 C 
BRANCH  18  19
ATOM     19  C   UNL     1      20.587  32.540  49.708  1.00  0.00     0.000 C 
BRANCH  19  20
ATOM     20  C   UNL     1      20.846  31.675  50.955  1.00  0.00     0.000 C 
BRANCH  20  21
ATOM     21  C   UNL     1      21.965  30.640  50.744  1.00  0.00     0.000 C 
BRANCH  21  22
ATOM     22  C   UNL     1      21.441  29.195  50.709  1.00  0.00    -0.000 C 
BRANCH  22  23
ATOM     23  C   UNL     1      22.574  28.157  50.653  1.00  0.00    -0.000 C 
BRANCH  23  24
ATOM     24  C   UNL     1      22.076  26.749  50.276  1.00  0.00    -0.000 C 
BRANCH  24  25
ATOM     25  C   UNL     1      23.167  25.660  50.222  1.00  0.00    -0.000 C 
BRANCH  25  26
ATOM     26  C   UNL     1      23.414  25.049  48.828  1.00  0.00    -0.000 C 
BRANCH  26  27
ATOM     27  C   UNL     1      24.814  25.313  48.241  1.00  0.00    -0.000 C 
BRANCH  27  28
ATOM     28  C   UNL     1      25.827  25.924  49.225  1.00  0.00    -0.000 C 
BRANCH  28  29
ATOM     29  C   UNL     1      26.922  24.934  49.645  1.00  0.00    -0.003 C 
ATOM     30  C   UNL     1      27.988  24.799  48.561  1.00  0.00     0.004 C 
ENDBRANCH  28  29
ENDBRANCH  27  28
ENDBRANCH  26  27
ENDBRANCH  25  26
ENDBRANCH  24  25
ENDBRANCH  23  24
ENDBRANCH  22  23
ENDBRANCH  21  22
ENDBRANCH  20  21
ENDBRANCH  19  20
ENDBRANCH  18  19
ENDBRANCH  17  18
ENDBRANCH   1  17
TORSDOF 26
ENDMDL
MODEL 2
REMARK VINA RESULT:    -2.812      3.075      7.072
REMARK INTER + INTRA:         -11.731
REMARK INTER:                  -6.097
REMARK INTRA:                  -5.633
REMARK UNBOUND:                -4.644
REMARK SMILES CCCCCCCCCCCCCCCCCCCCCCCCCCCC(=O)[O-]
REMARK SMILES IDX 15 1 16 2 17 3 18 4 19 5 20 6 21 7 22 8 23 9 24 10 25 11
REMARK SMILES IDX 26 12 27 13 28 14 29 15 30 16 14 17 13 18 12 19 11 20 10 21
REMARK SMILES IDX 9 22 8 23 7 24 6 25 5 26 4 27 3 28 2 29 1 30
REMARK H PARENT
REMARK Flexibility Score: inf
ROOT
ATOM      1  C   UNL     1      23.908  29.566  47.587  1.00  0.00     0.000 C 
ENDROOT
BRANCH   1   2
ATOM      2  C   UNL     1      22.694  29.893  48.470  1.00  0.00     0.000 C 
BRANCH   2   3
ATOM      3  C   UNL     1      21.553  28.894  48.227  1.00  0.00     0.000 C 
BRANCH   3   4
ATOM      4  C   UNL     1      21.082  28.206  49.518  1.00  0.00     0.000 C 
BRANCH   4   5
ATOM      5  C   UNL     1      22.250  27.840  50.453  1.00  0.00     0.000 C 
BRANCH   5   6
ATOM      6  C   UNL     1      22.586  26.340  50.421  1.00  0.00     0.000 C 
BRANCH   6   7
ATOM      7  C   UNL     1      24.099  26.071  50.477  1.00  0.00     0.000 C 
BRANCH   7   8
ATOM      8  C   UNL     1      24.815  26.420  49.154  1.00  0.00     0.000 C 
BRANCH   8   9
ATOM      9  C   UNL     1      24.480  25.465  47.991  1.00  0.00     0.000 C 
BRANCH   9  10
ATOM     10  C   UNL     1      23.523  26.040  46.930  1.00  0.00     0.000 C 
BRANCH  10  11
ATOM     11  C   UNL     1      22.409  25.082  46.460  1.00  0.00     0.000 C 
BRANCH  11  12
ATOM     12  C   UNL     1      21.067  25.228  47.200  1.00  0.00     0.006 C 
BRANCH  12  13
ATOM     13  C   UNL     1      20.048  26.078  46.431  1.00  0.00     0.053 C 
BRANCH  13  14
ATOM     14  C   UNL     1      19.066  25.197  45.724  1.00  0.00     0.041 C 
ATOM     15  O   UNL     1      18.523  24.237  46.334  1.00  0.00    -0.550 OA
ATOM     16  O   UNL     1      18.694  25.482  44.417  1.00  0.00    -0.550 OA
ENDBRANCH  13  14
ENDBRANCH  12  13
ENDBRANCH  11  12
ENDBRANCH  10  11
ENDBRANCH   9  10
ENDBRANCH   8   9
ENDBRANCH   7   8
ENDBRANCH   6   7
ENDBRANCH   5   6
ENDBRANCH   4   5
ENDBRANCH   3   4
ENDBRANCH   2   3
ENDBRANCH   1   2
BRANCH   1  17
ATOM     17  C   UNL     1      24.259  30.701  46.610  1.00  0.00     0.000 C 
BRANCH  17  18
ATOM     18  C   UNL     1      23.215  31.832  46.617  1.00  0.00     0.000 C 
BRANCH  18  19
ATOM     19  C   UNL     1      22.426  31.931  45.298  1.00  0.00     0.000 C 
BRANCH  19  20
ATOM     20  C   UNL     1      21.215  30.987  45.191  1.00  0.00     0.000 C 
BRANCH  20  21
ATOM     21  C   UNL     1      21.355  29.959  44.053  1.00  0.00     0.000 C 
BRANCH  21  22
ATOM     22  C   UNL     1      21.922  28.614  44.532  1.00  0.00    -0.000 C 
BRANCH  22  23
ATOM     23  C   UNL     1      23.283  28.285  43.896  1.00  0.00    -0.000 C 
BRANCH  23  24
ATOM     24  C   UNL     1      23.798  29.405  42.973  1.00  0.00    -0.000 C 
BRANCH  24  25
ATOM     25  C   UNL     1      25.113  29.091  42.232  1.00  0.00    -0.000 C 
BRANCH  25  26
ATOM     26  C   UNL     1      26.172  30.211  42.274  1.00  0.00    -0.000 C 
BRANCH  26  27
ATOM     27  C   UNL     1      26.335  30.901  43.643  1.00  0.00    -0.000 C 
BRANCH  27  28
ATOM     28  C   UNL     1      25.959  32.393  43.666  1.00  0.00    -0.000 C 
BRANCH  28  29
ATOM     29  C   UNL     1      25.496  32.913  42.298  1.00  0.00    -0.003 C 
ATOM     30  C   UNL     1      24.003  33.231  42.306  1.00  0.00     0.004 C 
ENDBRANCH  28  29
ENDBRANCH  27  28
ENDBRANCH  26  27
ENDBRANCH  25  26
ENDBRANCH  24  25
ENDBRANCH  23  24
ENDBRANCH  22  23
ENDBRANCH  21  22
ENDBRANCH  20  21
ENDBRANCH  19  20
ENDBRANCH  18  19
ENDBRANCH  17  18
ENDBRANCH   1  17
TORSDOF 26
ENDMDL
MODEL 3
REMARK VINA RESULT:    -2.810      3.526      7.416
REMARK INTER + INTRA:         -11.726
REMARK INTER:                  -6.275
REMARK INTRA:                  -5.452
REMARK UNBOUND:                -4.644
REMARK SMILES CCCCCCCCCCCCCCCCCCCCCCCCCCCC(=O)[O-]
REMARK SMILES IDX 15 1 16 2 17 3 18 4 19 5 20 6 21 7 22 8 23 9 24 10 25 11
REMARK SMILES IDX 26 12 27 13 28 14 29 15 30 16 14 17 13 18 12 19 11 20 10 21
REMARK SMILES IDX 9 22 8 23 7 24 6 25 5 26 4 27 3 28 2 29 1 30
REMARK H PARENT
REMARK Flexibility Score: inf
ROOT
ATOM      1  C   UNL     1      23.414  31.794  45.598  1.00  0.00     0.000 C 
ENDROOT
BRANCH   1   2
ATOM      2  C   UNL     1      22.812  31.724  44.186  1.00  0.00     0.000 C 
BRANCH   2   3
ATOM      3  C   UNL     1      21.287  31.553  44.246  1.00  0.00     0.000 C 
BRANCH   3   4
ATOM      4  C   UNL     1      20.702  31.933  45.615  1.00  0.00     0.000 C 
BRANCH   4   5
ATOM      5  C   UNL     1      19.758  30.852  46.175  1.00  0.00     0.000 C 
BRANCH   5   6
ATOM      6  C   UNL     1      19.765  30.797  47.711  1.00  0.00     0.000 C 
BRANCH   6   7
ATOM      7  C   UNL     1      20.752  31.798  48.335  1.00  0.00     0.000 C 
BRANCH   7   8
ATOM      8  C   UNL     1      20.253  32.364  49.682  1.00  0.00     0.000 C 
BRANCH   8   9
ATOM      9  C   UNL     1      20.566  31.463  50.893  1.00  0.00     0.000 C 
BRANCH   9  10
ATOM     10  C   UNL     1      21.925  30.741  50.835  1.00  0.00     0.000 C 
BRANCH  10  11
ATOM     11  C   UNL     1      21.867  29.212  51.038  1.00  0.00     0.000 C 
BRANCH  11  12
ATOM     12  C   UNL     1      20.701  28.503  50.328  1.00  0.00     0.006 C 
BRANCH  12  13
ATOM     13  C   UNL     1      21.028  27.057  49.935  1.00  0.00     0.053 C 
BRANCH  13  14
ATOM     14  C   UNL     1      20.116  26.597  48.842  1.00  0.00     0.041 C 
ATOM     15  O   UNL     1      19.378  27.424  48.242  1.00  0.00    -0.550 OA
ATOM     16  O   UNL     1      20.135  25.269  48.436  1.00  0.00    -0.550 OA
ENDBRANCH  13  14
ENDBRANCH  12  13
ENDBRANCH  11  12
ENDBRANCH  10  11
ENDBRANCH   9  10
ENDBRANCH   8   9
ENDBRANCH   7   8
ENDBRANCH   6   7
ENDBRANCH   5   6
ENDBRANCH   4   5
ENDBRANCH   3   4
ENDBRANCH   2   3
ENDBRANCH   1   2
BRANCH   1  17
ATOM     17  C   UNL     1      24.181  30.518  45.984  1.00  0.00     0.000 C 
BRANCH  17  18
ATOM     18  C   UNL     1      23.893  30.068  47.427  1.00  0.00     0.000 C 
BRANCH  18  19
ATOM     19  C   UNL     1      22.955  28.848  47.501  1.00  0.00     0.000 C 
BRANCH  19  20
ATOM     20  C   UNL     1      23.038  27.889  46.300  1.00  0.00     0.000 C 
BRANCH  20  21
ATOM     21  C   UNL     1      21.736  27.843  45.480  1.00  0.00     0.000 C 
BRANCH  21  22
ATOM     22  C   UNL     1      21.977  28.002  43.971  1.00  0.00    -0.000 C 
BRANCH  22  23
ATOM     23  C   UNL     1      23.402  27.600  43.554  1.00  0.00    -0.000 C 
BRANCH  23  24
ATOM     24  C   UNL     1      24.089  28.661  42.674  1.00  0.00    -0.000 C 
BRANCH  24  25
ATOM     25  C   UNL     1      25.218  28.130  41.768  1.00  0.00    -0.000 C 
BRANCH  25  26
ATOM     26  C   UNL     1      26.505  28.978  41.760  1.00  0.00    -0.000 C 
BRANCH  26  27
ATOM     27  C   UNL     1      26.346  30.408  42.314  1.00  0.00    -0.000 C 
BRANCH  27  28
ATOM     28  C   UNL     1      25.923  31.464  41.277  1.00  0.00    -0.000 C 
BRANCH  28  29
ATOM     29  C   UNL     1      25.523  32.800  41.917  1.00  0.00    -0.003 C 
ATOM     30  C   UNL     1      26.078  32.922  43.333  1.00  0.00     0.004 C 
ENDBRANCH  28  29
ENDBRANCH  27  28
ENDBRANCH  26  27
ENDBRANCH  25  26
ENDBRANCH  24  25
ENDBRANCH  23  24
ENDBRANCH  22  23
ENDBRANCH  21  22
ENDBRANCH  20  21
ENDBRANCH  19  20
ENDBRANCH  18  19
ENDBRANCH  17  18
ENDBRANCH   1  17
TORSDOF 26
ENDMDL
MODEL 4
REMARK VINA RESULT:    -2.781      1.587      2.835
REMARK INTER + INTRA:         -11.653
REMARK INTER:                  -6.178
REMARK INTRA:                  -5.475
REMARK UNBOUND:                -4.644
REMARK SMILES CCCCCCCCCCCCCCCCCCCCCCCCCCCC(=O)[O-]
REMARK SMILES IDX 15 1 16 2 17 3 18 4 19 5 20 6 21 7 22 8 23 9 24 10 25 11
REMARK SMILES IDX 26 12 27 13 28 14 29 15 30 16 14 17 13 18 12 19 11 20 10 21
REMARK SMILES IDX 9 22 8 23 7 24 6 25 5 26 4 27 3 28 2 29 1 30
REMARK H PARENT
REMARK Flexibility Score: inf
ROOT
ATOM      1  C   UNL     1      20.189  30.934  47.233  1.00  0.00     0.000 C 
ENDROOT
BRANCH   1   2
ATOM      2  C   UNL     1      21.052  32.089  46.702  1.00  0.00     0.000 C 
BRANCH   2   3
ATOM      3  C   UNL     1      22.415  32.126  47.408  1.00  0.00     0.000 C 
BRANCH   3   4
ATOM      4  C   UNL     1      23.594  32.100  46.423  1.00  0.00     0.000 C 
BRANCH   4   5
ATOM      5  C   UNL     1      24.348  30.757  46.439  1.00  0.00     0.000 C 
BRANCH   5   6
ATOM      6  C   UNL     1      23.836  29.803  47.531  1.00  0.00     0.000 C 
BRANCH   6   7
ATOM      7  C   UNL     1      23.156  28.550  46.952  1.00  0.00     0.000 C 
BRANCH   7   8
ATOM      8  C   UNL     1      23.180  28.522  45.408  1.00  0.00     0.000 C 
BRANCH   8   9
ATOM      9  C   UNL     1      21.789  28.664  44.758  1.00  0.00     0.000 C 
BRANCH   9  10
ATOM     10  C   UNL     1      21.783  29.330  43.370  1.00  0.00     0.000 C 
BRANCH  10  11
ATOM     11  C   UNL     1      21.247  30.777  43.336  1.00  0.00     0.000 C 
BRANCH  11  12
ATOM     12  C   UNL     1      22.283  31.848  42.953  1.00  0.00     0.006 C 
BRANCH  12  13
ATOM     13  C   UNL     1      23.499  31.270  42.217  1.00  0.00     0.053 C 
BRANCH  13  14
ATOM     14  C   UNL     1      24.764  31.674  42.906  1.00  0.00     0.041 C 
ATOM     15  O   UNL     1      25.694  30.839  43.062  1.00  0.00    -0.550 OA
ATOM     16  O   UNL     1      24.944  32.991  43.309  1.00  0.00    -0.550 OA
ENDBRANCH  13  14
ENDBRANCH  12  13
ENDBRANCH  11  12
ENDBRANCH  10  11
ENDBRANCH   9  10
ENDBRANCH   8   9
ENDBRANCH   7   8
ENDBRANCH   6   7
ENDBRANCH   5   6
ENDBRANCH   4   5
ENDBRANCH   3   4
ENDBRANCH   2   3
ENDBRANCH   1   2
BRANCH   1  17
ATOM     17  C   UNL     1      19.002  31.417  48.083  1.00  0.00     0.000 C 
BRANCH  17  18
ATOM     18  C   UNL     1      19.119  30.992  49.558  1.00  0.00     0.000 C 
BRANCH  18  19
ATOM     19  C   UNL     1      20.236  31.739  50.313  1.00  0.00     0.000 C 
BRANCH  19  20
ATOM     20  C   UNL     1      21.429  30.867  50.743  1.00  0.00     0.000 C 
BRANCH  20  21
ATOM     21  C   UNL     1      21.015  29.434  51.125  1.00  0.00     0.000 C 
BRANCH  21  22
ATOM     22  C   UNL     1      21.647  28.369  50.214  1.00  0.00    -0.000 C 
BRANCH  22  23
ATOM     23  C   UNL     1      23.052  27.952  50.679  1.00  0.00    -0.000 C 
BRANCH  23  24
ATOM     24  C   UNL     1      23.351  26.463  50.417  1.00  0.00    -0.000 C 
BRANCH  24  25
ATOM     25  C   UNL     1      24.529  26.189  49.461  1.00  0.00    -0.000 C 
BRANCH  25  26
ATOM     26  C   UNL     1      24.406  24.902  48.622  1.00  0.00    -0.000 C 
BRANCH  26  27
ATOM     27  C   UNL     1      24.495  25.107  47.097  1.00  0.00    -0.000 C 
BRANCH  27  28
ATOM     28  C   UNL     1      23.181  24.872  46.332  1.00  0.00    -0.000 C 
BRANCH  28  29
ATOM     29  C   UNL     1      22.012  24.499  47.255  1.00  0.00    -0.003 C 
ATOM     30  C   UNL     1      21.046  25.669  47.420  1.00  0.00     0.004 C 
ENDBRANCH  28  29
ENDBRANCH  27  28
ENDBRANCH  26  27
ENDBRANCH  25  26
ENDBRANCH  24  25
ENDBRANCH  23  24
ENDBRANCH  22  23
ENDBRANCH  21  22
ENDBRANCH  20  21
ENDBRANCH  19  20
ENDBRANCH  18  19
ENDBRANCH  17  18
ENDBRANCH   1  17
TORSDOF 26
ENDMDL
MODEL 5
REMARK VINA RESULT:    -2.777      3.276      7.449
REMARK INTER + INTRA:         -11.642
REMARK INTER:                  -6.261
REMARK INTRA:                  -5.381
REMARK UNBOUND:                -4.644
REMARK SMILES CCCCCCCCCCCCCCCCCCCCCCCCCCCC(=O)[O-]
REMARK SMILES IDX 15 1 16 2 17 3 18 4 19 5 20 6 21 7 22 8 23 9 24 10 25 11
REMARK SMILES IDX 26 12 27 13 28 14 29 15 30 16 14 17 13 18 12 19 11 20 10 21
REMARK SMILES IDX 9 22 8 23 7 24 6 25 5 26 4 27 3 28 2 29 1 30
REMARK H PARENT
REMARK Flexibility Score: inf
ROOT
ATOM      1  C   UNL     1      22.912  29.238  50.141  1.00  0.00     0.000 C 
ENDROOT
BRANCH   1   2
ATOM      2  C   UNL     1      21.596  29.418  50.913  1.00  0.00     0.000 C 
BRANCH   2   3
ATOM      3  C   UNL     1      20.525  28.439  50.410  1.00  0.00     0.000 C 
BRANCH   3   4
ATOM      4  C   UNL     1      19.106  28.835  50.848  1.00  0.00     0.000 C 
BRANCH   4   5
ATOM      5  C   UNL     1      18.303  29.504  49.717  1.00  0.00     0.000 C 
BRANCH   5   6
ATOM      6  C   UNL     1      17.633  30.814  50.162  1.00  0.00     0.000 C 
BRANCH   6   7
ATOM      7  C   UNL     1      18.631  31.809  50.780  1.00  0.00     0.000 C 
BRANCH   7   8
ATOM      8  C   UNL     1      19.194  32.806  49.743  1.00  0.00     0.000 C 
BRANCH   8   9
ATOM      9  C   UNL     1      20.734  32.875  49.715  1.00  0.00     0.000 C 
BRANCH   9  10
ATOM     10  C   UNL     1      21.393  32.225  48.485  1.00  0.00     0.000 C 
BRANCH  10  11
ATOM     11  C   UNL     1      20.490  32.107  47.239  1.00  0.00     0.000 C 
BRANCH  11  12
ATOM     12  C   UNL     1      20.201  30.668  46.776  1.00  0.00     0.006 C 
BRANCH  12  13
ATOM     13  C   UNL     1      19.013  30.576  45.810  1.00  0.00     0.053 C 
BRANCH  13  14
ATOM     14  C   UNL     1      18.453  29.189  45.807  1.00  0.00     0.041 C 
ATOM     15  O   UNL     1      19.133  28.232  45.350  1.00  0.00    -0.550 OA
ATOM     16  O   UNL     1      17.211  28.942  46.377  1.00  0.00    -0.550 OA
ENDBRANCH  13  14
ENDBRANCH  12  13
ENDBRANCH  11  12
ENDBRANCH  10  11
ENDBRANCH   9  10
ENDBRANCH   8   9
ENDBRANCH   7   8
ENDBRANCH   6   7
ENDBRANCH   5   6
ENDBRANCH   4   5
ENDBRANCH   3   4
ENDBRANCH   2   3
ENDBRANCH   1   2
BRANCH   1  17
ATOM     17  C   UNL     1      22.699  28.705  48.714  1.00  0.00     0.000 C 
BRANCH  17  18
ATOM     18  C   UNL     1      23.960  28.830  47.841  1.00  0.00     0.000 C 
BRANCH  18  19
ATOM     19  C   UNL     1      23.747  29.714  46.598  1.00  0.00     0.000 C 
BRANCH  19  20
ATOM     20  C   UNL     1      24.215  31.173  46.747  1.00  0.00     0.000 C 
BRANCH  20  21
ATOM     21  C   UNL     1      24.425  31.876  45.394  1.00  0.00     0.000 C 
BRANCH  21  22
ATOM     22  C   UNL     1      25.886  31.831  44.919  1.00  0.00    -0.000 C 
BRANCH  22  23
ATOM     23  C   UNL     1      26.008  31.715  43.390  1.00  0.00    -0.000 C 
BRANCH  23  24
ATOM     24  C   UNL     1      26.463  30.318  42.931  1.00  0.00    -0.000 C 
BRANCH  24  25
ATOM     25  C   UNL     1      25.409  29.509  42.148  1.00  0.00    -0.000 C 
BRANCH  25  26
ATOM     26  C   UNL     1      24.193  29.047  42.975  1.00  0.00    -0.000 C 
BRANCH  26  27
ATOM     27  C   UNL     1      22.823  29.470  42.409  1.00  0.00    -0.000 C 
BRANCH  27  28
ATOM     28  C   UNL     1      21.870  30.116  43.430  1.00  0.00    -0.000 C 
BRANCH  28  29
ATOM     29  C   UNL     1      21.318  31.468  42.959  1.00  0.00    -0.003 C 
ATOM     30  C   UNL     1      22.418  32.324  42.336  1.00  0.00     0.004 C 
ENDBRANCH  28  29
ENDBRANCH  27  28
ENDBRANCH  26  27
ENDBRANCH  25  26
ENDBRANCH  24  25
ENDBRANCH  23  24
ENDBRANCH  22  23
ENDBRANCH  21  22
ENDBRANCH  20  21
ENDBRANCH  19  20
ENDBRANCH  18  19
ENDBRANCH  17  18
ENDBRANCH   1  17
TORSDOF 26
ENDMDL
MODEL 6
REMARK VINA RESULT:    -2.773      2.787      5.392
REMARK INTER + INTRA:         -11.633
REMARK INTER:                  -5.981
REMARK INTRA:                  -5.653
REMARK UNBOUND:                -4.644
REMARK SMILES CCCCCCCCCCCCCCCCCCCCCCCCCCCC(=O)[O-]
REMARK SMILES IDX 15 1 16 2 17 3 18 4 19 5 20 6 21 7 22 8 23 9 24 10 25 11
REMARK SMILES IDX 26 12 27 13 28 14 29 15 30 16 14 17 13 18 12 19 11 20 10 21
REMARK SMILES IDX 9 22 8 23 7 24 6 25 5 26 4 27 3 28 2 29 1 30
REMARK H PARENT
REMARK Flexibility Score: inf
ROOT
ATOM      1  C   UNL     1      23.621  29.068  46.637  1.00  0.00     0.000 C 
ENDROOT
BRANCH   1   2
ATOM      2  C   UNL     1      23.983  30.126  45.583  1.00  0.00     0.000 C 
BRANCH   2   3
ATOM      3  C   UNL     1      24.565  31.383  46.246  1.00  0.00     0.000 C 
BRANCH   3   4
ATOM      4  C   UNL     1      25.697  32.018  45.423  1.00  0.00     0.000 C 
BRANCH   4   5
ATOM      5  C   UNL     1      25.978  31.253  44.116  1.00  0.00     0.000 C 
BRANCH   5   6
ATOM      6  C   UNL     1      25.944  32.164  42.878  1.00  0.00     0.000 C 
BRANCH   6   7
ATOM      7  C   UNL     1      24.638  32.026  42.077  1.00  0.00     0.000 C 
BRANCH   7   8
ATOM      8  C   UNL     1      23.569  33.056  42.502  1.00  0.00     0.000 C 
BRANCH   8   9
ATOM      9  C   UNL     1      22.441  32.465  43.370  1.00  0.00     0.000 C 
BRANCH   9  10
ATOM     10  C   UNL     1      21.389  31.644  42.602  1.00  0.00     0.000 C 
BRANCH  10  11
ATOM     11  C   UNL     1      21.274  30.164  43.023  1.00  0.00     0.000 C 
BRANCH  11  12
ATOM     12  C   UNL     1      22.260  29.209  42.327  1.00  0.00     0.006 C 
BRANCH  12  13
ATOM     13  C   UNL     1      22.559  27.951  43.151  1.00  0.00     0.053 C 
BRANCH  13  14
ATOM     14  C   UNL     1      22.018  26.737  42.462  1.00  0.00     0.041 C 
ATOM     15  O   UNL     1      22.788  25.789  42.152  1.00  0.00    -0.550 OA
ATOM     16  O   UNL     1      20.654  26.622  42.230  1.00  0.00    -0.550 OA
ENDBRANCH  13  14
ENDBRANCH  12  13
ENDBRANCH  11  12
ENDBRANCH  10  11
ENDBRANCH   9  10
ENDBRANCH   8   9
ENDBRANCH   7   8
ENDBRANCH   6   7
ENDBRANCH   5   6
ENDBRANCH   4   5
ENDBRANCH   3   4
ENDBRANCH   2   3
ENDBRANCH   1   2
BRANCH   1  17
ATOM     17  C   UNL     1      23.723  29.598  48.076  1.00  0.00     0.000 C 
BRANCH  17  18
ATOM     18  C   UNL     1      23.017  28.685  49.095  1.00  0.00     0.000 C 
BRANCH  18  19
ATOM     19  C   UNL     1      22.605  29.425  50.382  1.00  0.00     0.000 C 
BRANCH  19  20
ATOM     20  C   UNL     1      21.145  29.211  50.818  1.00  0.00     0.000 C 
BRANCH  20  21
ATOM     21  C   UNL     1      20.274  30.466  50.632  1.00  0.00     0.000 C 
BRANCH  21  22
ATOM     22  C   UNL     1      20.982  31.754  51.083  1.00  0.00    -0.000 C 
BRANCH  22  23
ATOM     23  C   UNL     1      21.086  32.797  49.957  1.00  0.00    -0.000 C 
BRANCH  23  24
ATOM     24  C   UNL     1      20.276  32.410  48.706  1.00  0.00    -0.000 C 
BRANCH  24  25
ATOM     25  C   UNL     1      21.116  32.083  47.456  1.00  0.00    -0.000 C 
BRANCH  25  26
ATOM     26  C   UNL     1      20.324  31.499  46.268  1.00  0.00    -0.000 C 
BRANCH  26  27
ATOM     27  C   UNL     1      19.318  30.391  46.638  1.00  0.00    -0.000 C 
BRANCH  27  28
ATOM     28  C   UNL     1      19.950  29.094  47.175  1.00  0.00    -0.000 C 
BRANCH  28  29
ATOM     29  C   UNL     1      20.162  28.037  46.083  1.00  0.00    -0.003 C 
ATOM     30  C   UNL     1      19.045  28.087  45.044  1.00  0.00     0.004 C 
ENDBRANCH  28  29
ENDBRANCH  27  28
ENDBRANCH  26  27
ENDBRANCH  25  26
ENDBRANCH  24  25
ENDBRANCH  23  24
ENDBRANCH  22  23
ENDBRANCH  21  22
ENDBRANCH  20  21
ENDBRANCH  19  20
ENDBRANCH  18  19
ENDBRANCH  17  18
ENDBRANCH   1  17
TORSDOF 26
ENDMDL
MODEL 7
REMARK VINA RESULT:    -2.760      2.417      6.439
REMARK INTER + INTRA:         -11.599
REMARK INTER:                  -6.224
REMARK INTRA:                  -5.375
REMARK UNBOUND:                -4.644
REMARK SMILES CCCCCCCCCCCCCCCCCCCCCCCCCCCC(=O)[O-]
REMARK SMILES IDX 15 1 16 2 17 3 18 4 19 5 20 6 21 7 22 8 23 9 24 10 25 11
REMARK SMILES IDX 26 12 27 13 28 14 29 15 30 16 14 17 13 18 12 19 11 20 10 21
REMARK SMILES IDX 9 22 8 23 7 24 6 25 5 26 4 27 3 28 2 29 1 30
REMARK H PARENT
REMARK Flexibility Score: inf
ROOT
ATOM      1  C   UNL     1      21.854  30.424  47.196  1.00  0.00     0.000 C 
ENDROOT
BRANCH   1   2
ATOM      2  C   UNL     1      20.898  31.624  47.269  1.00  0.00     0.000 C 
BRANCH   2   3
ATOM      3  C   UNL     1      21.453  32.713  48.200  1.00  0.00     0.000 C 
BRANCH   3   4
ATOM      4  C   UNL     1      20.608  32.894  49.470  1.00  0.00     0.000 C 
BRANCH   4   5
ATOM      5  C   UNL     1      21.068  31.981  50.622  1.00  0.00     0.000 C 
BRANCH   5   6
ATOM      6  C   UNL     1      20.038  30.891  50.962  1.00  0.00     0.000 C 
BRANCH   6   7
ATOM      7  C   UNL     1      20.657  29.483  51.006  1.00  0.00     0.000 C 
BRANCH   7   8
ATOM      8  C   UNL     1      22.145  29.476  50.592  1.00  0.00     0.000 C 
BRANCH   8   9
ATOM      9  C   UNL     1      22.839  28.112  50.780  1.00  0.00     0.000 C 
BRANCH   9  10
ATOM     10  C   UNL     1      22.198  26.943  50.009  1.00  0.00     0.000 C 
BRANCH  10  11
ATOM     11  C   UNL     1      22.217  27.079  48.472  1.00  0.00     0.000 C 
BRANCH  11  12
ATOM     12  C   UNL     1      23.619  27.111  47.837  1.00  0.00     0.006 C 
BRANCH  12  13
ATOM     13  C   UNL     1      24.357  25.771  47.945  1.00  0.00     0.053 C 
BRANCH  13  14
ATOM     14  C   UNL     1      23.837  24.808  46.925  1.00  0.00     0.041 C 
ATOM     15  O   UNL     1      24.451  24.645  45.837  1.00  0.00    -0.550 OA
ATOM     16  O   UNL     1      22.716  24.038  47.207  1.00  0.00    -0.550 OA
ENDBRANCH  13  14
ENDBRANCH  12  13
ENDBRANCH  11  12
ENDBRANCH  10  11
ENDBRANCH   9  10
ENDBRANCH   8   9
ENDBRANCH   7   8
ENDBRANCH   6   7
ENDBRANCH   5   6
ENDBRANCH   4   5
ENDBRANCH   3   4
ENDBRANCH   2   3
ENDBRANCH   1   2
BRANCH   1  17
ATOM     17  C   UNL     1      23.331  30.827  47.343  1.00  0.00     0.000 C 
BRANCH  17  18
ATOM     18  C   UNL     1      24.169  30.466  46.103  1.00  0.00     0.000 C 
BRANCH  18  19
ATOM     19  C   UNL     1      25.043  31.634  45.607  1.00  0.00     0.000 C 
BRANCH  19  20
ATOM     20  C   UNL     1      24.866  31.995  44.121  1.00  0.00     0.000 C 
BRANCH  20  21
ATOM     21  C   UNL     1      23.450  32.504  43.794  1.00  0.00     0.000 C 
BRANCH  21  22
ATOM     22  C   UNL     1      22.665  31.539  42.892  1.00  0.00    -0.000 C 
BRANCH  22  23
ATOM     23  C   UNL     1      21.456  30.913  43.607  1.00  0.00    -0.000 C 
BRANCH  23  24
ATOM     24  C   UNL     1      21.195  29.457  43.179  1.00  0.00    -0.000 C 
BRANCH  24  25
ATOM     25  C   UNL     1      20.727  28.515  44.306  1.00  0.00    -0.000 C 
BRANCH  25  26
ATOM     26  C   UNL     1      21.677  27.341  44.616  1.00  0.00    -0.000 C 
BRANCH  26  27
ATOM     27  C   UNL     1      23.144  27.563  44.197  1.00  0.00    -0.000 C 
BRANCH  27  28
ATOM     28  C   UNL     1      23.645  26.638  43.074  1.00  0.00    -0.000 C 
BRANCH  28  29
ATOM     29  C   UNL     1      24.174  27.409  41.857  1.00  0.00    -0.003 C 
ATOM     30  C   UNL     1      24.808  28.733  42.276  1.00  0.00     0.004 C 
ENDBRANCH  28  29
ENDBRANCH  27  28
ENDBRANCH  26  27
ENDBRANCH  25  26
ENDBRANCH  24  25
ENDBRANCH  23  24
ENDBRANCH  22  23
ENDBRANCH  21  22
ENDBRANCH  20  21
ENDBRANCH  19  20
ENDBRANCH  18  19
ENDBRANCH  17  18
ENDBRANCH   1  17
TORSDOF 26
ENDMDL
MODEL 8
REMARK VINA RESULT:    -2.750      2.784      5.512
REMARK INTER + INTRA:         -11.574
REMARK INTER:                  -5.899
REMARK INTRA:                  -5.675
REMARK UNBOUND:                -4.644
REMARK SMILES CCCCCCCCCCCCCCCCCCCCCCCCCCCC(=O)[O-]
REMARK SMILES IDX 15 1 16 2 17 3 18 4 19 5 20 6 21 7 22 8 23 9 24 10 25 11
REMARK SMILES IDX 26 12 27 13 28 14 29 15 30 16 14 17 13 18 12 19 11 20 10 21
REMARK SMILES IDX 9 22 8 23 7 24 6 25 5 26 4 27 3 28 2 29 1 30
REMARK H PARENT
REMARK Flexibility Score: inf
ROOT
ATOM      1  C   UNL     1      24.151  30.925  46.898  1.00  0.00     0.000 C 
ENDROOT
BRANCH   1   2
ATOM      2  C   UNL     1      23.812  30.697  45.416  1.00  0.00     0.000 C 
BRANCH   2   3
ATOM      3  C   UNL     1      23.667  32.033  44.674  1.00  0.00     0.000 C 
BRANCH   3   4
ATOM      4  C   UNL     1      24.758  32.244  43.613  1.00  0.00     0.000 C 
BRANCH   4   5
ATOM      5  C   UNL     1      26.045  31.456  43.923  1.00  0.00     0.000 C 
BRANCH   5   6
ATOM      6  C   UNL     1      26.342  30.370  42.876  1.00  0.00     0.000 C 
BRANCH   6   7
ATOM      7  C   UNL     1      25.503  30.537  41.597  1.00  0.00     0.000 C 
BRANCH   7   8
ATOM      8  C   UNL     1      24.550  29.347  41.352  1.00  0.00     0.000 C 
BRANCH   8   9
ATOM      9  C   UNL     1      24.500  28.337  42.515  1.00  0.00     0.000 C 
BRANCH   9  10
ATOM     10  C   UNL     1      23.133  27.661  42.733  1.00  0.00     0.000 C 
BRANCH  10  11
ATOM     11  C   UNL     1      22.067  28.539  43.421  1.00  0.00     0.000 C 
BRANCH  11  12
ATOM     12  C   UNL     1      21.018  29.151  42.475  1.00  0.00     0.006 C 
BRANCH  12  13
ATOM     13  C   UNL     1      21.000  30.684  42.511  1.00  0.00     0.053 C 
BRANCH  13  14
ATOM     14  C   UNL     1      19.986  31.169  43.499  1.00  0.00     0.041 C 
ATOM     15  O   UNL     1      18.989  30.454  43.786  1.00  0.00    -0.550 OA
ATOM     16  O   UNL     1      20.182  32.375  44.158  1.00  0.00    -0.550 OA
ENDBRANCH  13  14
ENDBRANCH  12  13
ENDBRANCH  11  12
ENDBRANCH  10  11
ENDBRANCH   9  10
ENDBRANCH   8   9
ENDBRANCH   7   8
ENDBRANCH   6   7
ENDBRANCH   5   6
ENDBRANCH   4   5
ENDBRANCH   3   4
ENDBRANCH   2   3
ENDBRANCH   1   2
BRANCH   1  17
ATOM     17  C   UNL     1      23.888  29.685  47.769  1.00  0.00     0.000 C 
BRANCH  17  18
ATOM     18  C   UNL     1      23.476  28.456  46.939  1.00  0.00     0.000 C 
BRANCH  18  19
ATOM     19  C   UNL     1      23.303  27.184  47.792  1.00  0.00     0.000 C 
BRANCH  19  20
ATOM     20  C   UNL     1      23.415  27.399  49.312  1.00  0.00     0.000 C 
BRANCH  20  21
ATOM     21  C   UNL     1      22.122  27.036  50.065  1.00  0.00     0.000 C 
BRANCH  21  22
ATOM     22  C   UNL     1      21.186  28.240  50.257  1.00  0.00    -0.000 C 
BRANCH  22  23
ATOM     23  C   UNL     1      21.911  29.465  50.839  1.00  0.00    -0.000 C 
BRANCH  23  24
ATOM     24  C   UNL     1      21.107  30.769  50.676  1.00  0.00    -0.000 C 
BRANCH  24  25
ATOM     25  C   UNL     1      21.405  31.566  49.390  1.00  0.00    -0.000 C 
BRANCH  25  26
ATOM     26  C   UNL     1      20.258  31.603  48.361  1.00  0.00    -0.000 C 
BRANCH  26  27
ATOM     27  C   UNL     1      20.395  30.602  47.197  1.00  0.00    -0.000 C 
BRANCH  27  28
ATOM     28  C   UNL     1      19.427  29.407  47.250  1.00  0.00    -0.000 C 
BRANCH  28  29
ATOM     29  C   UNL     1      19.911  28.211  46.418  1.00  0.00    -0.003 C 
ATOM     30  C   UNL     1      19.597  26.891  47.118  1.00  0.00     0.004 C 
ENDBRANCH  28  29
ENDBRANCH  27  28
ENDBRANCH  26  27
ENDBRANCH  25  26
ENDBRANCH  24  25
ENDBRANCH  23  24
ENDBRANCH  22  23
ENDBRANCH  21  22
ENDBRANCH  20  21
ENDBRANCH  19  20
ENDBRANCH  18  19
ENDBRANCH  17  18
ENDBRANCH   1  17
TORSDOF 26
ENDMDL
MODEL 9
REMARK VINA RESULT:    -2.743      2.279      4.406
REMARK INTER + INTRA:         -11.557
REMARK INTER:                  -5.781
REMARK INTRA:                  -5.776
REMARK UNBOUND:                -4.644
REMARK SMILES CCCCCCCCCCCCCCCCCCCCCCCCCCCC(=O)[O-]
REMARK SMILES IDX 15 1 16 2 17 3 18 4 19 5 20 6 21 7 22 8 23 9 24 10 25 11
REMARK SMILES IDX 26 12 27 13 28 14 29 15 30 16 14 17 13 18 12 19 11 20 10 21
REMARK SMILES IDX 9 22 8 23 7 24 6 25 5 26 4 27 3 28 2 29 1 30
REMARK H PARENT
REMARK Flexibility Score: inf
ROOT
ATOM      1  C   UNL     1      20.520  31.623  49.432  1.00  0.00     0.000 C 
ENDROOT
BRANCH   1   2
ATOM      2  C   UNL     1      21.160  32.606  48.440  1.00  0.00     0.000 C 
BRANCH   2   3
ATOM      3  C   UNL     1      20.871  32.189  46.990  1.00  0.00     0.000 C 
BRANCH   3   4
ATOM      4  C   UNL     1      22.142  31.800  46.220  1.00  0.00     0.000 C 
BRANCH   4   5
ATOM      5  C   UNL     1      23.360  31.615  47.145  1.00  0.00     0.000 C 
BRANCH   5   6
ATOM      6  C   UNL     1      23.733  30.137  47.344  1.00  0.00     0.000 C 
BRANCH   6   7
ATOM      7  C   UNL     1      22.602  29.180  46.930  1.00  0.00     0.000 C 
BRANCH   7   8
ATOM      8  C   UNL     1      23.130  27.830  46.399  1.00  0.00     0.000 C 
BRANCH   8   9
ATOM      9  C   UNL     1      23.195  27.745  44.861  1.00  0.00     0.000 C 
BRANCH   9  10
ATOM     10  C   UNL     1      22.303  28.754  44.114  1.00  0.00     0.000 C 
BRANCH  10  11
ATOM     11  C   UNL     1      23.060  29.818  43.291  1.00  0.00     0.000 C 
BRANCH  11  12
ATOM     12  C   UNL     1      24.592  29.671  43.286  1.00  0.00     0.006 C 
BRANCH  12  13
ATOM     13  C   UNL     1      25.299  30.738  44.131  1.00  0.00     0.053 C 
BRANCH  13  14
ATOM     14  C   UNL     1      25.886  31.794  43.249  1.00  0.00     0.041 C 
ATOM     15  O   UNL     1      26.474  32.788  43.754  1.00  0.00    -0.550 OA
ATOM     16  O   UNL     1      25.850  31.643  41.869  1.00  0.00    -0.550 OA
ENDBRANCH  13  14
ENDBRANCH  12  13
ENDBRANCH  11  12
ENDBRANCH  10  11
ENDBRANCH   9  10
ENDBRANCH   8   9
ENDBRANCH   7   8
ENDBRANCH   6   7
ENDBRANCH   5   6
ENDBRANCH   4   5
ENDBRANCH   3   4
ENDBRANCH   2   3
ENDBRANCH   1   2
BRANCH   1  17
ATOM     17  C   UNL     1      21.397  31.367  50.669  1.00  0.00     0.000 C 
BRANCH  17  18
ATOM     18  C   UNL     1      21.377  29.894  51.114  1.00  0.00     0.000 C 
BRANCH  18  19
ATOM     19  C   UNL     1      22.663  29.133  50.735  1.00  0.00     0.000 C 
BRANCH  19  20
ATOM     20  C   UNL     1      22.446  27.691  50.244  1.00  0.00     0.000 C 
BRANCH  20  21
ATOM     21  C   UNL     1      20.990  27.412  49.829  1.00  0.00     0.000 C 
BRANCH  21  22
ATOM     22  C   UNL     1      20.615  25.925  49.935  1.00  0.00    -0.000 C 
BRANCH  22  23
ATOM     23  C   UNL     1      19.113  25.677  49.721  1.00  0.00    -0.000 C 
BRANCH  23  24
ATOM     24  C   UNL     1      18.809  24.939  48.404  1.00  0.00    -0.000 C 
BRANCH  24  25
ATOM     25  C   UNL     1      19.998  24.825  47.428  1.00  0.00    -0.000 C 
BRANCH  25  26
ATOM     26  C   UNL     1      20.068  25.925  46.350  1.00  0.00    -0.000 C 
BRANCH  26  27
ATOM     27  C   UNL     1      18.766  26.728  46.153  1.00  0.00    -0.000 C 
BRANCH  27  28
ATOM     28  C   UNL     1      18.964  28.234  45.908  1.00  0.00    -0.000 C 
BRANCH  28  29
ATOM     29  C   UNL     1      19.052  29.043  47.209  1.00  0.00    -0.003 C 
ATOM     30  C   UNL     1      17.877  28.732  48.132  1.00  0.00     0.004 C 
ENDBRANCH  28  29
ENDBRANCH  27  28
ENDBRANCH  26  27
ENDBRANCH  25  26
ENDBRANCH  24  25
ENDBRANCH  23  24
ENDBRANCH  22  23
ENDBRANCH  21  22
ENDBRANCH  20  21
ENDBRANCH  19  20
ENDBRANCH  18  19
ENDBRANCH  17  18
ENDBRANCH   1  17
TORSDOF 26
ENDMDL
