MODEL 1
REMARK VINA RESULT:    -4.546      0.000      0.000
REMARK INTER + INTRA:          -5.033
REMARK INTER:                  -4.812
REMARK INTRA:                  -0.222
REMARK UNBOUND:                -0.222
REMARK SMILES C=C(C)[C@@H]1CC=C(C)C(=O)C1
REMARK SMILES IDX 8 1 7 2 6 3 5 4 4 5 11 6 9 7 10 8 2 9 1 10 3 11
REMARK H PARENT
REMARK Flexibility Score: inf
ROOT
ATOM      1  C   UNL     1     -15.469  13.296 -33.273  1.00  0.00     0.048 C 
ATOM      2  C   UNL     1     -16.303  13.289 -32.021  1.00  0.00    -0.012 C 
ATOM      3  C   UNL     1     -17.400  12.518 -31.959  1.00  0.00    -0.019 C 
ATOM      4  C   UNL     1     -18.298  12.487 -30.752  1.00  0.00     0.036 C 
ATOM      5  C   UNL     1     -17.563  12.780 -29.428  1.00  0.00     0.025 C 
ATOM      6  C   UNL     1     -16.636  14.007 -29.547  1.00  0.00     0.089 C 
ATOM      7  C   UNL     1     -15.830  14.008 -30.816  1.00  0.00     0.158 C 
ATOM      8  O   UNL     1     -14.755  14.665 -30.855  1.00  0.00    -0.295 OA
ENDROOT
BRANCH   5   9
ATOM      9  C   UNL     1     -16.858  11.550 -28.855  1.00  0.00    -0.077 C 
ATOM     10  C   UNL     1     -15.745  11.643 -28.106  1.00  0.00     0.008 C 
ATOM     11  C   UNL     1     -17.413  10.173 -29.129  1.00  0.00     0.039 C 
ENDBRANCH   5   9
TORSDOF 1
ENDMDL
MODEL 2
REMARK VINA RESULT:    -4.478     10.235     11.908
REMARK INTER + INTRA:          -4.962
REMARK INTER:                  -5.162
REMARK INTRA:                   0.200
REMARK UNBOUND:                -0.222
REMARK SMILES C=C(C)[C@@H]1CC=C(C)C(=O)C1
REMARK SMILES IDX 8 1 7 2 6 3 5 4 4 5 11 6 9 7 10 8 2 9 1 10 3 11
REMARK H PARENT
REMARK Flexibility Score: inf
ROOT
ATOM      1  C   UNL     1     -25.215  10.991 -28.175  1.00  0.00     0.048 C 
ATOM      2  C   UNL     1     -26.649  11.106 -28.614  1.00  0.00    -0.012 C 
ATOM      3  C   UNL     1     -27.503  11.860 -27.903  1.00  0.00    -0.019 C 
ATOM      4  C   UNL     1     -28.957  11.994 -28.264  1.00  0.00     0.036 C 
ATOM      5  C   UNL     1     -29.234  11.844 -29.775  1.00  0.00     0.025 C 
ATOM      6  C   UNL     1     -28.499  10.628 -30.374  1.00  0.00     0.089 C 
ATOM      7  C   UNL     1     -27.075  10.517 -29.903  1.00  0.00     0.158 C 
ATOM      8  O   UNL     1     -26.248   9.877 -30.609  1.00  0.00    -0.295 OA
ENDROOT
BRANCH   5   9
ATOM      9  C   UNL     1     -28.987  13.137 -30.554  1.00  0.00    -0.077 C 
ATOM     10  C   UNL     1     -29.985  13.968 -30.901  1.00  0.00     0.008 C 
ATOM     11  C   UNL     1     -27.582  13.511 -30.960  1.00  0.00     0.039 C 
ENDBRANCH   5   9
TORSDOF 1
ENDMDL
MODEL 3
REMARK VINA RESULT:    -4.419      8.926     10.251
REMARK INTER + INTRA:          -4.899
REMARK INTER:                  -4.760
REMARK INTRA:                  -0.138
REMARK UNBOUND:                -0.222
REMARK SMILES C=C(C)[C@@H]1CC=C(C)C(=O)C1
REMARK SMILES IDX 8 1 7 2 6 3 5 4 4 5 11 6 9 7 10 8 2 9 1 10 3 11
REMARK H PARENT
REMARK Flexibility Score: inf
ROOT
ATOM      1  C   UNL     1     -23.647  13.271 -30.135  1.00  0.00     0.048 C 
ATOM      2  C   UNL     1     -25.006  12.685 -30.403  1.00  0.00    -0.012 C 
ATOM      3  C   UNL     1     -25.179  11.355 -30.348  1.00  0.00    -0.019 C 
ATOM      4  C   UNL     1     -26.502  10.700 -30.636  1.00  0.00     0.036 C 
ATOM      5  C   UNL     1     -27.718  11.587 -30.296  1.00  0.00     0.025 C 
ATOM      6  C   UNL     1     -27.546  13.023 -30.830  1.00  0.00     0.089 C 
ATOM      7  C   UNL     1     -26.173  13.580 -30.575  1.00  0.00     0.158 C 
ATOM      8  O   UNL     1     -26.018  14.832 -30.545  1.00  0.00    -0.295 OA
ENDROOT
BRANCH   5   9
ATOM      9  C   UNL     1     -28.091  11.539 -28.814  1.00  0.00    -0.077 C 
ATOM     10  C   UNL     1     -28.994  12.376 -28.273  1.00  0.00     0.008 C 
ATOM     11  C   UNL     1     -27.434  10.526 -27.908  1.00  0.00     0.039 C 
ENDBRANCH   5   9
TORSDOF 1
ENDMDL
MODEL 4
REMARK VINA RESULT:    -4.408      8.760     10.053
REMARK INTER + INTRA:          -4.888
REMARK INTER:                  -4.818
REMARK INTRA:                  -0.070
REMARK UNBOUND:                -0.222
REMARK SMILES C=C(C)[C@@H]1CC=C(C)C(=O)C1
REMARK SMILES IDX 8 1 7 2 6 3 5 4 4 5 11 6 9 7 10 8 2 9 1 10 3 11
REMARK H PARENT
REMARK Flexibility Score: inf
ROOT
ATOM      1  C   UNL     1     -25.623  15.727 -30.507  1.00  0.00     0.048 C 
ATOM      2  C   UNL     1     -25.705  14.226 -30.513  1.00  0.00    -0.012 C 
ATOM      3  C   UNL     1     -24.681  13.503 -30.031  1.00  0.00    -0.019 C 
ATOM      4  C   UNL     1     -24.682  11.998 -30.035  1.00  0.00     0.036 C 
ATOM      5  C   UNL     1     -26.093  11.381 -29.937  1.00  0.00     0.025 C 
ATOM      6  C   UNL     1     -27.083  12.059 -30.906  1.00  0.00     0.089 C 
ATOM      7  C   UNL     1     -26.967  13.558 -30.904  1.00  0.00     0.158 C 
ATOM      8  O   UNL     1     -27.955  14.247 -31.279  1.00  0.00    -0.295 OA
ENDROOT
BRANCH   5   9
ATOM      9  C   UNL     1     -26.612  11.313 -28.500  1.00  0.00    -0.077 C 
ATOM     10  C   UNL     1     -25.999  10.589 -27.548  1.00  0.00     0.008 C 
ATOM     11  C   UNL     1     -27.857  12.077 -28.116  1.00  0.00     0.039 C 
ENDBRANCH   5   9
TORSDOF 1
ENDMDL
MODEL 5
REMARK VINA RESULT:    -4.397      1.895      4.151
REMARK INTER + INTRA:          -4.875
REMARK INTER:                  -4.656
REMARK INTRA:                  -0.220
REMARK UNBOUND:                -0.222
REMARK SMILES C=C(C)[C@@H]1CC=C(C)C(=O)C1
REMARK SMILES IDX 8 1 7 2 6 3 5 4 4 5 11 6 9 7 10 8 2 9 1 10 3 11
REMARK H PARENT
REMARK Flexibility Score: inf
ROOT
ATOM      1  C   UNL     1     -17.152  10.859 -28.646  1.00  0.00     0.048 C 
ATOM      2  C   UNL     1     -16.987  11.961 -29.655  1.00  0.00    -0.012 C 
ATOM      3  C   UNL     1     -16.132  12.966 -29.407  1.00  0.00    -0.019 C 
ATOM      4  C   UNL     1     -15.941  14.118 -30.356  1.00  0.00     0.036 C 
ATOM      5  C   UNL     1     -16.189  13.748 -31.833  1.00  0.00     0.025 C 
ATOM      6  C   UNL     1     -17.488  12.936 -32.010  1.00  0.00     0.089 C 
ATOM      7  C   UNL     1     -17.647  11.856 -30.977  1.00  0.00     0.158 C 
ATOM      8  O   UNL     1     -18.385  10.867 -31.236  1.00  0.00    -0.295 OA
ENDROOT
BRANCH   5   9
ATOM      9  C   UNL     1     -14.976  13.088 -32.492  1.00  0.00    -0.077 C 
ATOM     10  C   UNL     1     -15.098  12.178 -33.473  1.00  0.00     0.008 C 
ATOM     11  C   UNL     1     -13.584  13.457 -32.038  1.00  0.00     0.039 C 
ENDBRANCH   5   9
TORSDOF 1
ENDMDL
MODEL 6
REMARK VINA RESULT:    -4.393      9.050     10.711
REMARK INTER + INTRA:          -4.871
REMARK INTER:                  -4.691
REMARK INTRA:                  -0.180
REMARK UNBOUND:                -0.222
REMARK SMILES C=C(C)[C@@H]1CC=C(C)C(=O)C1
REMARK SMILES IDX 8 1 7 2 6 3 5 4 4 5 11 6 9 7 10 8 2 9 1 10 3 11
REMARK H PARENT
REMARK Flexibility Score: inf
ROOT
ATOM      1  C   UNL     1     -24.632  10.172 -27.148  1.00  0.00     0.048 C 
ATOM      2  C   UNL     1     -25.560  10.223 -28.330  1.00  0.00    -0.012 C 
ATOM      3  C   UNL     1     -26.849   9.880 -28.178  1.00  0.00    -0.019 C 
ATOM      4  C   UNL     1     -27.825   9.876 -29.323  1.00  0.00     0.036 C 
ATOM      5  C   UNL     1     -27.492  10.907 -30.421  1.00  0.00     0.025 C 
ATOM      6  C   UNL     1     -25.999  10.870 -30.807  1.00  0.00     0.089 C 
ATOM      7  C   UNL     1     -25.090  10.794 -29.613  1.00  0.00     0.158 C 
ATOM      8  O   UNL     1     -23.898  11.191 -29.727  1.00  0.00    -0.295 OA
ENDROOT
BRANCH   5   9
ATOM      9  C   UNL     1     -27.990  12.314 -30.086  1.00  0.00    -0.077 C 
ATOM     10  C   UNL     1     -27.545  13.406 -30.731  1.00  0.00     0.008 C 
ATOM     11  C   UNL     1     -29.016  12.506 -28.995  1.00  0.00     0.039 C 
ENDBRANCH   5   9
TORSDOF 1
ENDMDL
MODEL 7
REMARK VINA RESULT:    -4.332      9.339     11.007
REMARK INTER + INTRA:          -4.807
REMARK INTER:                  -4.594
REMARK INTRA:                  -0.214
REMARK UNBOUND:                -0.222
REMARK SMILES C=C(C)[C@@H]1CC=C(C)C(=O)C1
REMARK SMILES IDX 8 1 7 2 6 3 5 4 4 5 11 6 9 7 10 8 2 9 1 10 3 11
REMARK H PARENT
REMARK Flexibility Score: inf
ROOT
ATOM      1  C   UNL     1     -29.294  11.828 -28.341  1.00  0.00     0.048 C 
ATOM      2  C   UNL     1     -28.381  12.134 -29.496  1.00  0.00    -0.012 C 
ATOM      3  C   UNL     1     -28.537  13.279 -30.180  1.00  0.00    -0.019 C 
ATOM      4  C   UNL     1     -27.682  13.635 -31.366  1.00  0.00     0.036 C 
ATOM      5  C   UNL     1     -26.262  13.034 -31.306  1.00  0.00     0.025 C 
ATOM      6  C   UNL     1     -26.288  11.542 -30.916  1.00  0.00     0.089 C 
ATOM      7  C   UNL     1     -27.225  11.253 -29.777  1.00  0.00     0.158 C 
ATOM      8  O   UNL     1     -27.035  10.220 -29.078  1.00  0.00    -0.295 OA
ENDROOT
BRANCH   5   9
ATOM      9  C   UNL     1     -25.303  13.861 -30.448  1.00  0.00    -0.077 C 
ATOM     10  C   UNL     1     -24.322  13.298 -29.722  1.00  0.00     0.008 C 
ATOM     11  C   UNL     1     -25.446  15.363 -30.400  1.00  0.00     0.039 C 
ENDBRANCH   5   9
TORSDOF 1
ENDMDL
MODEL 8
REMARK VINA RESULT:    -4.253      9.805     11.145
REMARK INTER + INTRA:          -4.724
REMARK INTER:                  -4.625
REMARK INTRA:                  -0.099
REMARK UNBOUND:                -0.222
REMARK SMILES C=C(C)[C@@H]1CC=C(C)C(=O)C1
REMARK SMILES IDX 8 1 7 2 6 3 5 4 4 5 11 6 9 7 10 8 2 9 1 10 3 11
REMARK H PARENT
REMARK Flexibility Score: inf
ROOT
ATOM      1  C   UNL     1     -29.263  13.373 -30.166  1.00  0.00     0.048 C 
ATOM      2  C   UNL     1     -28.162  12.357 -30.305  1.00  0.00    -0.012 C 
ATOM      3  C   UNL     1     -26.884  12.765 -30.352  1.00  0.00    -0.019 C 
ATOM      4  C   UNL     1     -25.736  11.808 -30.522  1.00  0.00     0.036 C 
ATOM      5  C   UNL     1     -26.010  10.405 -29.942  1.00  0.00     0.025 C 
ATOM      6  C   UNL     1     -27.398   9.875 -30.357  1.00  0.00     0.089 C 
ATOM      7  C   UNL     1     -28.479  10.912 -30.236  1.00  0.00     0.158 C 
ATOM      8  O   UNL     1     -29.676  10.535 -30.110  1.00  0.00    -0.295 OA
ENDROOT
BRANCH   5   9
ATOM      9  C   UNL     1     -25.767  10.328 -28.434  1.00  0.00    -0.077 C 
ATOM     10  C   UNL     1     -24.585  10.648 -27.879  1.00  0.00     0.008 C 
ATOM     11  C   UNL     1     -26.879   9.878 -27.517  1.00  0.00     0.039 C 
ENDBRANCH   5   9
TORSDOF 1
ENDMDL
MODEL 9
REMARK VINA RESULT:    -4.171      2.194      4.289
REMARK INTER + INTRA:          -4.637
REMARK INTER:                  -4.422
REMARK INTRA:                  -0.215
REMARK UNBOUND:                -0.222
REMARK SMILES C=C(C)[C@@H]1CC=C(C)C(=O)C1
REMARK SMILES IDX 8 1 7 2 6 3 5 4 4 5 11 6 9 7 10 8 2 9 1 10 3 11
REMARK H PARENT
REMARK Flexibility Score: inf
ROOT
ATOM      1  C   UNL     1     -16.121  11.175 -28.941  1.00  0.00     0.048 C 
ATOM      2  C   UNL     1     -16.003  11.942 -30.229  1.00  0.00    -0.012 C 
ATOM      3  C   UNL     1     -16.485  13.192 -30.303  1.00  0.00    -0.019 C 
ATOM      4  C   UNL     1     -16.430  14.005 -31.569  1.00  0.00     0.036 C 
ATOM      5  C   UNL     1     -15.236  13.651 -32.479  1.00  0.00     0.025 C 
ATOM      6  C   UNL     1     -15.079  12.126 -32.649  1.00  0.00     0.089 C 
ATOM      7  C   UNL     1     -15.226  11.376 -31.355  1.00  0.00     0.158 C 
ATOM      8  O   UNL     1     -14.705  10.232 -31.250  1.00  0.00    -0.295 OA
ENDROOT
BRANCH   5   9
ATOM      9  C   UNL     1     -13.940  14.343 -32.055  1.00  0.00    -0.077 C 
ATOM     10  C   UNL     1     -12.728  13.856 -32.372  1.00  0.00     0.008 C 
ATOM     11  C   UNL     1     -14.000  15.618 -31.250  1.00  0.00     0.039 C 
ENDBRANCH   5   9
TORSDOF 1
ENDMDL
