MODEL 1
REMARK VINA RESULT:    -3.472      0.000      0.000
REMARK INTER + INTRA:          -7.566
REMARK INTER:                  -6.111
REMARK INTRA:                  -1.455
REMARK UNBOUND:                -1.455
REMARK SMILES CCCCCCCCCCCCCCC(=O)[O-]
REMARK SMILES IDX 9 1 10 2 11 3 12 4 13 5 14 6 15 7 16 8 17 9 8 10 7 11 6 12
REMARK SMILES IDX 5 13 4 14 3 15 2 16 1 17
REMARK H PARENT
REMARK Flexibility Score: inf
ROOT
ATOM      1  C   UNL     1       5.151  25.016   8.492  1.00  0.00     0.000 C 
ENDROOT
BRANCH   1   2
ATOM      2  C   UNL     1       4.103  24.216   9.287  1.00  0.00     0.000 C 
BRANCH   2   3
ATOM      3  C   UNL     1       3.578  24.977  10.516  1.00  0.00     0.000 C 
BRANCH   3   4
ATOM      4  C   UNL     1       3.775  24.199  11.831  1.00  0.00     0.000 C 
BRANCH   4   5
ATOM      5  C   UNL     1       4.168  25.058  13.050  1.00  0.00     0.006 C 
BRANCH   5   6
ATOM      6  C   UNL     1       3.177  26.183  13.387  1.00  0.00     0.053 C 
BRANCH   6   7
ATOM      7  C   UNL     1       1.952  25.666  14.077  1.00  0.00     0.041 C 
ATOM      8  O   UNL     1       0.917  25.398  13.412  1.00  0.00    -0.550 OA
ATOM      9  O   UNL     1       1.965  25.447  15.449  1.00  0.00    -0.550 OA
ENDBRANCH   6   7
ENDBRANCH   5   6
ENDBRANCH   4   5
ENDBRANCH   3   4
ENDBRANCH   2   3
ENDBRANCH   1   2
BRANCH   1  10
ATOM     10  C   UNL     1       4.855  25.185   6.988  1.00  0.00     0.000 C 
BRANCH  10  11
ATOM     11  C   UNL     1       4.265  23.945   6.291  1.00  0.00    -0.000 C 
BRANCH  11  12
ATOM     12  C   UNL     1       2.828  24.169   5.791  1.00  0.00    -0.000 C 
BRANCH  12  13
ATOM     13  C   UNL     1       2.365  25.625   5.964  1.00  0.00    -0.000 C 
BRANCH  13  14
ATOM     14  C   UNL     1       0.881  25.730   6.356  1.00  0.00    -0.000 C 
BRANCH  14  15
ATOM     15  C   UNL     1       0.540  24.895   7.601  1.00  0.00    -0.000 C 
BRANCH  15  16
ATOM     16  C   UNL     1       0.513  25.733   8.888  1.00  0.00    -0.003 C 
ATOM     17  C   UNL     1      -0.082  24.939  10.048  1.00  0.00     0.004 C 
ENDBRANCH  15  16
ENDBRANCH  14  15
ENDBRANCH  13  14
ENDBRANCH  12  13
ENDBRANCH  11  12
ENDBRANCH  10  11
ENDBRANCH   1  10
TORSDOF 13
ENDMDL
MODEL 2
REMARK VINA RESULT:    -3.379      1.118      2.307
REMARK INTER + INTRA:          -7.402
REMARK INTER:                  -6.022
REMARK INTRA:                  -1.380
REMARK UNBOUND:                -1.455
REMARK SMILES CCCCCCCCCCCCCCC(=O)[O-]
REMARK SMILES IDX 9 1 10 2 11 3 12 4 13 5 14 6 15 7 16 8 17 9 8 10 7 11 6 12
REMARK SMILES IDX 5 13 4 14 3 15 2 16 1 17
REMARK H PARENT
REMARK Flexibility Score: inf
ROOT
ATOM      1  C   UNL     1       4.068  24.240  10.348  1.00  0.00     0.000 C 
ENDROOT
BRANCH   1   2
ATOM      2  C   UNL     1       5.012  23.877  11.509  1.00  0.00     0.000 C 
BRANCH   2   3
ATOM      3  C   UNL     1       4.340  24.005  12.887  1.00  0.00     0.000 C 
BRANCH   3   4
ATOM      4  C   UNL     1       4.119  25.469  13.312  1.00  0.00     0.000 C 
BRANCH   4   5
ATOM      5  C   UNL     1       2.894  25.714  14.216  1.00  0.00     0.006 C 
BRANCH   5   6
ATOM      6  C   UNL     1       1.893  24.549  14.266  1.00  0.00     0.053 C 
BRANCH   6   7
ATOM      7  C   UNL     1       0.732  24.766  13.345  1.00  0.00     0.041 C 
ATOM      8  O   UNL     1      -0.301  25.358  13.757  1.00  0.00    -0.550 OA
ATOM      9  O   UNL     1       0.804  24.347  12.022  1.00  0.00    -0.550 OA
ENDBRANCH   6   7
ENDBRANCH   5   6
ENDBRANCH   4   5
ENDBRANCH   3   4
ENDBRANCH   2   3
ENDBRANCH   1   2
BRANCH   1  10
ATOM     10  C   UNL     1       4.628  23.981   8.934  1.00  0.00     0.000 C 
BRANCH  10  11
ATOM     11  C   UNL     1       5.250  25.207   8.239  1.00  0.00    -0.000 C 
BRANCH  11  12
ATOM     12  C   UNL     1       4.818  25.340   6.769  1.00  0.00    -0.000 C 
BRANCH  12  13
ATOM     13  C   UNL     1       4.106  24.081   6.247  1.00  0.00    -0.000 C 
BRANCH  13  14
ATOM     14  C   UNL     1       2.665  24.365   5.789  1.00  0.00    -0.000 C 
BRANCH  14  15
ATOM     15  C   UNL     1       2.134  25.709   6.314  1.00  0.00    -0.000 C 
BRANCH  15  16
ATOM     16  C   UNL     1       0.879  25.550   7.186  1.00  0.00    -0.003 C 
ATOM     17  C   UNL     1       1.198  25.802   8.657  1.00  0.00     0.004 C 
ENDBRANCH  15  16
ENDBRANCH  14  15
ENDBRANCH  13  14
ENDBRANCH  12  13
ENDBRANCH  11  12
ENDBRANCH  10  11
ENDBRANCH   1  10
TORSDOF 13
ENDMDL
MODEL 3
REMARK VINA RESULT:    -3.367      3.062      5.873
REMARK INTER + INTRA:          -7.380
REMARK INTER:                  -5.829
REMARK INTRA:                  -1.552
REMARK UNBOUND:                -1.455
REMARK SMILES CCCCCCCCCCCCCCC(=O)[O-]
REMARK SMILES IDX 9 1 10 2 11 3 12 4 13 5 14 6 15 7 16 8 17 9 8 10 7 11 6 12
REMARK SMILES IDX 5 13 4 14 3 15 2 16 1 17
REMARK H PARENT
REMARK Flexibility Score: inf
ROOT
ATOM      1  C   UNL     1       5.266  25.283   8.223  1.00  0.00     0.000 C 
ENDROOT
BRANCH   1   2
ATOM      2  C   UNL     1       4.793  25.227   6.759  1.00  0.00     0.000 C 
BRANCH   2   3
ATOM      3  C   UNL     1       3.921  23.996   6.460  1.00  0.00     0.000 C 
BRANCH   3   4
ATOM      4  C   UNL     1       2.591  24.356   5.771  1.00  0.00     0.000 C 
BRANCH   4   5
ATOM      5  C   UNL     1       2.063  25.776   6.061  1.00  0.00     0.006 C 
BRANCH   5   6
ATOM      6  C   UNL     1       1.018  25.852   7.185  1.00  0.00     0.053 C 
BRANCH   6   7
ATOM      7  C   UNL     1      -0.369  26.037   6.651  1.00  0.00     0.041 C 
ATOM      8  O   UNL     1      -0.845  27.195   6.512  1.00  0.00    -0.550 OA
ATOM      9  O   UNL     1      -1.124  24.933   6.273  1.00  0.00    -0.550 OA
ENDBRANCH   6   7
ENDBRANCH   5   6
ENDBRANCH   4   5
ENDBRANCH   3   4
ENDBRANCH   2   3
ENDBRANCH   1   2
BRANCH   1  10
ATOM     10  C   UNL     1       4.488  24.383   9.205  1.00  0.00     0.000 C 
BRANCH  10  11
ATOM     11  C   UNL     1       3.296  25.055   9.910  1.00  0.00    -0.000 C 
BRANCH  11  12
ATOM     12  C   UNL     1       2.270  24.040  10.443  1.00  0.00    -0.000 C 
BRANCH  12  13
ATOM     13  C   UNL     1       1.250  24.680  11.400  1.00  0.00    -0.000 C 
BRANCH  13  14
ATOM     14  C   UNL     1       1.550  24.367  12.877  1.00  0.00    -0.000 C 
BRANCH  14  15
ATOM     15  C   UNL     1       1.792  25.636  13.711  1.00  0.00    -0.000 C 
BRANCH  15  16
ATOM     16  C   UNL     1       3.126  26.321  13.375  1.00  0.00    -0.003 C 
ATOM     17  C   UNL     1       4.283  25.327  13.439  1.00  0.00     0.004 C 
ENDBRANCH  15  16
ENDBRANCH  14  15
ENDBRANCH  13  14
ENDBRANCH  12  13
ENDBRANCH  11  12
ENDBRANCH  10  11
ENDBRANCH   1  10
TORSDOF 13
ENDMDL
MODEL 4
REMARK VINA RESULT:    -3.311      2.528      6.237
REMARK INTER + INTRA:          -7.282
REMARK INTER:                  -5.809
REMARK INTRA:                  -1.473
REMARK UNBOUND:                -1.455
REMARK SMILES CCCCCCCCCCCCCCC(=O)[O-]
REMARK SMILES IDX 9 1 10 2 11 3 12 4 13 5 14 6 15 7 16 8 17 9 8 10 7 11 6 12
REMARK SMILES IDX 5 13 4 14 3 15 2 16 1 17
REMARK H PARENT
REMARK Flexibility Score: inf
ROOT
ATOM      1  C   UNL     1       3.392  25.002   9.963  1.00  0.00     0.000 C 
ENDROOT
BRANCH   1   2
ATOM      2  C   UNL     1       4.478  24.320   9.111  1.00  0.00     0.000 C 
BRANCH   2   3
ATOM      3  C   UNL     1       5.171  25.290   8.139  1.00  0.00     0.000 C 
BRANCH   3   4
ATOM      4  C   UNL     1       4.803  25.027   6.667  1.00  0.00     0.000 C 
BRANCH   4   5
ATOM      5  C   UNL     1       3.391  24.452   6.434  1.00  0.00     0.006 C 
BRANCH   5   6
ATOM      6  C   UNL     1       2.342  25.488   6.001  1.00  0.00     0.053 C 
BRANCH   6   7
ATOM      7  C   UNL     1       1.102  25.416   6.837  1.00  0.00     0.041 C 
ATOM      8  O   UNL     1       0.936  26.220   7.793  1.00  0.00    -0.550 OA
ATOM      9  O   UNL     1       0.114  24.485   6.541  1.00  0.00    -0.550 OA
ENDBRANCH   6   7
ENDBRANCH   5   6
ENDBRANCH   4   5
ENDBRANCH   3   4
ENDBRANCH   2   3
ENDBRANCH   1   2
BRANCH   1  10
ATOM     10  C   UNL     1       2.302  24.064  10.521  1.00  0.00     0.000 C 
BRANCH  10  11
ATOM     11  C   UNL     1       1.007  24.760  10.980  1.00  0.00    -0.000 C 
BRANCH  11  12
ATOM     12  C   UNL     1       0.399  24.115  12.237  1.00  0.00    -0.000 C 
BRANCH  12  13
ATOM     13  C   UNL     1       0.385  25.071  13.442  1.00  0.00    -0.000 C 
BRANCH  13  14
ATOM     14  C   UNL     1       1.358  24.635  14.551  1.00  0.00    -0.000 C 
BRANCH  14  15
ATOM     15  C   UNL     1       2.395  25.720  14.885  1.00  0.00    -0.000 C 
BRANCH  15  16
ATOM     16  C   UNL     1       3.215  26.154  13.660  1.00  0.00    -0.003 C 
ATOM     17  C   UNL     1       4.443  25.266  13.479  1.00  0.00     0.004 C 
ENDBRANCH  15  16
ENDBRANCH  14  15
ENDBRANCH  13  14
ENDBRANCH  12  13
ENDBRANCH  11  12
ENDBRANCH  10  11
ENDBRANCH   1  10
TORSDOF 13
ENDMDL
MODEL 5
REMARK VINA RESULT:    -3.286      1.673      3.756
REMARK INTER + INTRA:          -7.239
REMARK INTER:                  -5.888
REMARK INTRA:                  -1.352
REMARK UNBOUND:                -1.455
REMARK SMILES CCCCCCCCCCCCCCC(=O)[O-]
REMARK SMILES IDX 9 1 10 2 11 3 12 4 13 5 14 6 15 7 16 8 17 9 8 10 7 11 6 12
REMARK SMILES IDX 5 13 4 14 3 15 2 16 1 17
REMARK H PARENT
REMARK Flexibility Score: inf
ROOT
ATOM      1  C   UNL     1       1.333  24.655  10.701  1.00  0.00     0.000 C 
ENDROOT
BRANCH   1   2
ATOM      2  C   UNL     1      -0.013  24.566  11.443  1.00  0.00     0.000 C 
BRANCH   2   3
ATOM      3  C   UNL     1       0.145  24.164  12.919  1.00  0.00     0.000 C 
BRANCH   3   4
ATOM      4  C   UNL     1       0.297  25.376  13.858  1.00  0.00     0.000 C 
BRANCH   4   5
ATOM      5  C   UNL     1       1.592  25.402  14.694  1.00  0.00     0.006 C 
BRANCH   5   6
ATOM      6  C   UNL     1       2.718  24.502  14.159  1.00  0.00     0.053 C 
BRANCH   6   7
ATOM      7  C   UNL     1       3.714  25.272  13.347  1.00  0.00     0.041 C 
ATOM      8  O   UNL     1       3.599  26.520  13.222  1.00  0.00    -0.550 OA
ATOM      9  O   UNL     1       4.789  24.617  12.759  1.00  0.00    -0.550 OA
ENDBRANCH   6   7
ENDBRANCH   5   6
ENDBRANCH   4   5
ENDBRANCH   3   4
ENDBRANCH   2   3
ENDBRANCH   1   2
BRANCH   1  10
ATOM     10  C   UNL     1       1.432  25.772   9.641  1.00  0.00     0.000 C 
BRANCH  10  11
ATOM     11  C   UNL     1       0.333  25.754   8.563  1.00  0.00    -0.000 C 
BRANCH  11  12
ATOM     12  C   UNL     1       0.894  25.908   7.139  1.00  0.00    -0.000 C 
BRANCH  12  13
ATOM     13  C   UNL     1       1.861  24.774   6.760  1.00  0.00    -0.000 C 
BRANCH  13  14
ATOM     14  C   UNL     1       3.195  25.297   6.201  1.00  0.00    -0.000 C 
BRANCH  14  15
ATOM     15  C   UNL     1       4.401  24.480   6.693  1.00  0.00    -0.000 C 
BRANCH  15  16
ATOM     16  C   UNL     1       5.126  25.146   7.873  1.00  0.00    -0.003 C 
ATOM     17  C   UNL     1       4.736  24.491   9.195  1.00  0.00     0.004 C 
ENDBRANCH  15  16
ENDBRANCH  14  15
ENDBRANCH  13  14
ENDBRANCH  12  13
ENDBRANCH  11  12
ENDBRANCH  10  11
ENDBRANCH   1  10
TORSDOF 13
ENDMDL
MODEL 6
REMARK VINA RESULT:    -3.256      1.254      3.258
REMARK INTER + INTRA:          -7.186
REMARK INTER:                  -5.876
REMARK INTRA:                  -1.310
REMARK UNBOUND:                -1.455
REMARK SMILES CCCCCCCCCCCCCCC(=O)[O-]
REMARK SMILES IDX 9 1 10 2 11 3 12 4 13 5 14 6 15 7 16 8 17 9 8 10 7 11 6 12
REMARK SMILES IDX 5 13 4 14 3 15 2 16 1 17
REMARK H PARENT
REMARK Flexibility Score: inf
ROOT
ATOM      1  C   UNL     1       1.877  24.354  11.093  1.00  0.00     0.000 C 
ENDROOT
BRANCH   1   2
ATOM      2  C   UNL     1       3.286  24.957  11.232  1.00  0.00     0.000 C 
BRANCH   2   3
ATOM      3  C   UNL     1       3.783  24.983  12.687  1.00  0.00     0.000 C 
BRANCH   3   4
ATOM      4  C   UNL     1       3.266  26.200  13.476  1.00  0.00     0.000 C 
BRANCH   4   5
ATOM      5  C   UNL     1       2.605  25.874  14.831  1.00  0.00     0.006 C 
BRANCH   5   6
ATOM      6  C   UNL     1       1.890  24.514  14.883  1.00  0.00     0.053 C 
BRANCH   6   7
ATOM      7  C   UNL     1       0.400  24.663  14.890  1.00  0.00     0.041 C 
ATOM      8  O   UNL     1      -0.190  25.174  13.901  1.00  0.00    -0.550 OA
ATOM      9  O   UNL     1      -0.342  24.205  15.972  1.00  0.00    -0.550 OA
ENDBRANCH   6   7
ENDBRANCH   5   6
ENDBRANCH   4   5
ENDBRANCH   3   4
ENDBRANCH   2   3
ENDBRANCH   1   2
BRANCH   1  10
ATOM     10  C   UNL     1       1.444  24.008   9.653  1.00  0.00     0.000 C 
BRANCH  10  11
ATOM     11  C   UNL     1       0.400  24.957   9.034  1.00  0.00    -0.000 C 
BRANCH  11  12
ATOM     12  C   UNL     1       1.032  26.033   8.135  1.00  0.00    -0.000 C 
BRANCH  12  13
ATOM     13  C   UNL     1       0.832  25.743   6.639  1.00  0.00    -0.000 C 
BRANCH  13  14
ATOM     14  C   UNL     1       2.163  25.635   5.875  1.00  0.00    -0.000 C 
BRANCH  14  15
ATOM     15  C   UNL     1       2.984  24.403   6.293  1.00  0.00    -0.000 C 
BRANCH  15  16
ATOM     16  C   UNL     1       4.481  24.712   6.442  1.00  0.00    -0.003 C 
ATOM     17  C   UNL     1       4.846  24.967   7.902  1.00  0.00     0.004 C 
ENDBRANCH  15  16
ENDBRANCH  14  15
ENDBRANCH  13  14
ENDBRANCH  12  13
ENDBRANCH  11  12
ENDBRANCH  10  11
ENDBRANCH   1  10
TORSDOF 13
ENDMDL
MODEL 7
REMARK VINA RESULT:    -3.251      1.588      2.025
REMARK INTER + INTRA:          -7.176
REMARK INTER:                  -5.372
REMARK INTRA:                  -1.804
REMARK UNBOUND:                -1.455
REMARK SMILES CCCCCCCCCCCCCCC(=O)[O-]
REMARK SMILES IDX 9 1 10 2 11 3 12 4 13 5 14 6 15 7 16 8 17 9 8 10 7 11 6 12
REMARK SMILES IDX 5 13 4 14 3 15 2 16 1 17
REMARK H PARENT
REMARK Flexibility Score: inf
ROOT
ATOM      1  C   UNL     1       4.212  24.467   9.744  1.00  0.00     0.000 C 
ENDROOT
BRANCH   1   2
ATOM      2  C   UNL     1       2.800  25.056   9.921  1.00  0.00     0.000 C 
BRANCH   2   3
ATOM      3  C   UNL     1       1.806  24.052  10.527  1.00  0.00     0.000 C 
BRANCH   3   4
ATOM      4  C   UNL     1       1.083  24.600  11.772  1.00  0.00     0.000 C 
BRANCH   4   5
ATOM      5  C   UNL     1       1.588  24.051  13.121  1.00  0.00     0.006 C 
BRANCH   5   6
ATOM      6  C   UNL     1       2.232  25.103  14.039  1.00  0.00     0.053 C 
BRANCH   6   7
ATOM      7  C   UNL     1       3.508  25.641  13.469  1.00  0.00     0.041 C 
ATOM      8  O   UNL     1       3.569  26.834  13.069  1.00  0.00    -0.550 OA
ATOM      9  O   UNL     1       4.639  24.837  13.411  1.00  0.00    -0.550 OA
ENDBRANCH   6   7
ENDBRANCH   5   6
ENDBRANCH   4   5
ENDBRANCH   3   4
ENDBRANCH   2   3
ENDBRANCH   1   2
BRANCH   1  10
ATOM     10  C   UNL     1       5.011  25.014   8.544  1.00  0.00     0.000 C 
BRANCH  10  11
ATOM     11  C   UNL     1       4.783  24.276   7.211  1.00  0.00    -0.000 C 
BRANCH  11  12
ATOM     12  C   UNL     1       3.813  25.020   6.278  1.00  0.00    -0.000 C 
BRANCH  12  13
ATOM     13  C   UNL     1       2.708  24.104   5.726  1.00  0.00    -0.000 C 
BRANCH  13  14
ATOM     14  C   UNL     1       1.321  24.440   6.301  1.00  0.00    -0.000 C 
BRANCH  14  15
ATOM     15  C   UNL     1       1.179  25.927   6.666  1.00  0.00    -0.000 C 
BRANCH  15  16
ATOM     16  C   UNL     1       0.137  26.170   7.768  1.00  0.00    -0.003 C 
ATOM     17  C   UNL     1      -0.786  24.965   7.925  1.00  0.00     0.004 C 
ENDBRANCH  15  16
ENDBRANCH  14  15
ENDBRANCH  13  14
ENDBRANCH  12  13
ENDBRANCH  11  12
ENDBRANCH  10  11
ENDBRANCH   1  10
TORSDOF 13
ENDMDL
MODEL 8
REMARK VINA RESULT:    -3.238      2.539      6.272
REMARK INTER + INTRA:          -7.154
REMARK INTER:                  -6.222
REMARK INTRA:                  -0.932
REMARK UNBOUND:                -1.455
REMARK SMILES CCCCCCCCCCCCCCC(=O)[O-]
REMARK SMILES IDX 9 1 10 2 11 3 12 4 13 5 14 6 15 7 16 8 17 9 8 10 7 11 6 12
REMARK SMILES IDX 5 13 4 14 3 15 2 16 1 17
REMARK H PARENT
REMARK Flexibility Score: inf
ROOT
ATOM      1  C   UNL     1       4.346  24.306   9.302  1.00  0.00     0.000 C 
ENDROOT
BRANCH   1   2
ATOM      2  C   UNL     1       5.258  25.231   8.475  1.00  0.00     0.000 C 
BRANCH   2   3
ATOM      3  C   UNL     1       4.885  25.257   6.983  1.00  0.00     0.000 C 
BRANCH   3   4
ATOM      4  C   UNL     1       4.261  23.935   6.498  1.00  0.00     0.000 C 
BRANCH   4   5
ATOM      5  C   UNL     1       2.826  24.050   5.944  1.00  0.00     0.006 C 
BRANCH   5   6
ATOM      6  C   UNL     1       2.305  25.489   5.810  1.00  0.00     0.053 C 
BRANCH   6   7
ATOM      7  C   UNL     1       1.195  25.777   6.774  1.00  0.00     0.041 C 
ATOM      8  O   UNL     1       1.452  26.010   7.984  1.00  0.00    -0.550 OA
ATOM      9  O   UNL     1      -0.120  25.821   6.328  1.00  0.00    -0.550 OA
ENDBRANCH   6   7
ENDBRANCH   5   6
ENDBRANCH   4   5
ENDBRANCH   3   4
ENDBRANCH   2   3
ENDBRANCH   1   2
BRANCH   1  10
ATOM     10  C   UNL     1       4.854  23.971  10.720  1.00  0.00     0.000 C 
BRANCH  10  11
ATOM     11  C   UNL     1       3.819  24.141  11.847  1.00  0.00    -0.000 C 
BRANCH  11  12
ATOM     12  C   UNL     1       4.344  24.999  13.012  1.00  0.00    -0.000 C 
BRANCH  12  13
ATOM     13  C   UNL     1       3.432  26.199  13.316  1.00  0.00    -0.000 C 
BRANCH  13  14
ATOM     14  C   UNL     1       2.013  25.773  13.730  1.00  0.00    -0.000 C 
BRANCH  14  15
ATOM     15  C   UNL     1       1.927  25.371  15.212  1.00  0.00    -0.000 C 
BRANCH  15  16
ATOM     16  C   UNL     1       0.640  24.601  15.544  1.00  0.00    -0.003 C 
ATOM     17  C   UNL     1      -0.298  24.558  14.341  1.00  0.00     0.004 C 
ENDBRANCH  15  16
ENDBRANCH  14  15
ENDBRANCH  13  14
ENDBRANCH  12  13
ENDBRANCH  11  12
ENDBRANCH  10  11
ENDBRANCH   1  10
TORSDOF 13
ENDMDL
MODEL 9
REMARK VINA RESULT:    -3.148      1.028      3.104
REMARK INTER + INTRA:          -6.995
REMARK INTER:                  -5.568
REMARK INTRA:                  -1.427
REMARK UNBOUND:                -1.455
REMARK SMILES CCCCCCCCCCCCCCC(=O)[O-]
REMARK SMILES IDX 9 1 10 2 11 3 12 4 13 5 14 6 15 7 16 8 17 9 8 10 7 11 6 12
REMARK SMILES IDX 5 13 4 14 3 15 2 16 1 17
REMARK H PARENT
REMARK Flexibility Score: inf
ROOT
ATOM      1  C   UNL     1       0.897  24.848  10.303  1.00  0.00     0.000 C 
ENDROOT
BRANCH   1   2
ATOM      2  C   UNL     1       1.921  23.986  11.064  1.00  0.00     0.000 C 
BRANCH   2   3
ATOM      3  C   UNL     1       3.355  24.532  10.961  1.00  0.00     0.000 C 
BRANCH   3   4
ATOM      4  C   UNL     1       4.102  24.514  12.308  1.00  0.00     0.000 C 
BRANCH   4   5
ATOM      5  C   UNL     1       3.214  24.293  13.549  1.00  0.00     0.006 C 
BRANCH   5   6
ATOM      6  C   UNL     1       2.638  25.580  14.161  1.00  0.00     0.053 C 
BRANCH   6   7
ATOM      7  C   UNL     1       1.215  25.410  14.594  1.00  0.00     0.041 C 
ATOM      8  O   UNL     1       0.277  25.599  13.773  1.00  0.00    -0.550 OA
ATOM      9  O   UNL     1       0.924  25.008  15.891  1.00  0.00    -0.550 OA
ENDBRANCH   6   7
ENDBRANCH   5   6
ENDBRANCH   4   5
ENDBRANCH   3   4
ENDBRANCH   2   3
ENDBRANCH   1   2
BRANCH   1  10
ATOM     10  C   UNL     1       1.486  25.771   9.217  1.00  0.00     0.000 C 
BRANCH  10  11
ATOM     11  C   UNL     1       0.530  26.121   8.062  1.00  0.00    -0.000 C 
BRANCH  11  12
ATOM     12  C   UNL     1       0.800  25.292   6.794  1.00  0.00    -0.000 C 
BRANCH  12  13
ATOM     13  C   UNL     1       1.996  24.341   6.955  1.00  0.00    -0.000 C 
BRANCH  13  14
ATOM     14  C   UNL     1       2.974  24.415   5.770  1.00  0.00    -0.000 C 
BRANCH  14  15
ATOM     15  C   UNL     1       4.382  24.865   6.194  1.00  0.00    -0.000 C 
BRANCH  15  16
ATOM     16  C   UNL     1       4.658  24.619   7.685  1.00  0.00    -0.003 C 
ATOM     17  C   UNL     1       5.678  25.618   8.226  1.00  0.00     0.004 C 
ENDBRANCH  15  16
ENDBRANCH  14  15
ENDBRANCH  13  14
ENDBRANCH  12  13
ENDBRANCH  11  12
ENDBRANCH  10  11
ENDBRANCH   1  10
TORSDOF 13
ENDMDL
