MODEL 1
REMARK VINA RESULT:    -3.737      0.000      0.000
REMARK INTER + INTRA:          -4.344
REMARK INTER:                  -4.283
REMARK INTRA:                  -0.061
REMARK UNBOUND:                -0.061
REMARK SMILES CC(C)[C@H]([NH3+])C(=O)[O-]
REMARK SMILES IDX 4 1 5 2 6 6 7 7 8 8 2 9 1 10 3 11
REMARK H PARENT 5 3 5 4 5 5
REMARK Flexibility Score: inf
ROOT
ATOM      1  C   UNL     1      -9.129  -6.127 -14.613  1.00  0.00     0.230 C 
ENDROOT
BRANCH   1   2
ATOM      2  N   UNL     1     -10.506  -6.225 -14.104  1.00  0.00    -0.350 N 
ATOM      3  H   UNL     1     -11.177  -5.994 -14.873  1.00  0.00     0.345 HD
ATOM      4  H   UNL     1     -10.660  -5.537 -13.335  1.00  0.00     0.345 HD
ATOM      5  H   UNL     1     -10.718  -7.188 -13.757  1.00  0.00     0.345 HD
ENDBRANCH   1   2
BRANCH   1   6
ATOM      6  C   UNL     1      -8.147  -6.676 -13.607  1.00  0.00     0.099 C 
ATOM      7  O   UNL     1      -8.191  -6.286 -12.410  1.00  0.00    -0.544 OA
ATOM      8  O   UNL     1      -7.221  -7.646 -13.973  1.00  0.00    -0.544 OA
ENDBRANCH   1   6
BRANCH   1   9
ATOM      9  C   UNL     1      -8.738  -4.679 -15.038  1.00  0.00     0.047 C 
ATOM     10  C   UNL     1      -7.372  -4.637 -15.739  1.00  0.00     0.014 C 
ATOM     11  C   UNL     1      -9.801  -3.982 -15.904  1.00  0.00     0.014 C 
ENDBRANCH   1   9
TORSDOF 3
ENDMDL
MODEL 2
REMARK VINA RESULT:    -3.660      1.959      2.371
REMARK INTER + INTRA:          -4.256
REMARK INTER:                  -4.209
REMARK INTRA:                  -0.048
REMARK UNBOUND:                -0.061
REMARK SMILES CC(C)[C@H]([NH3+])C(=O)[O-]
REMARK SMILES IDX 4 1 5 2 6 6 7 7 8 8 2 9 1 10 3 11
REMARK H PARENT 5 3 5 4 5 5
REMARK Flexibility Score: inf
ROOT
ATOM      1  C   UNL     1      -8.871  -5.675 -14.146  1.00  0.00     0.230 C 
ENDROOT
BRANCH   1   2
ATOM      2  N   UNL     1      -7.646  -6.234 -13.551  1.00  0.00    -0.350 N 
ATOM      3  H   UNL     1      -6.865  -6.175 -14.245  1.00  0.00     0.345 HD
ATOM      4  H   UNL     1      -7.782  -7.242 -13.317  1.00  0.00     0.345 HD
ATOM      5  H   UNL     1      -7.365  -5.712 -12.690  1.00  0.00     0.345 HD
ENDBRANCH   1   2
BRANCH   1   6
ATOM      6  C   UNL     1      -9.852  -6.772 -14.479  1.00  0.00     0.099 C 
ATOM      7  O   UNL     1     -11.036  -6.481 -14.792  1.00  0.00    -0.544 OA
ATOM      8  O   UNL     1      -9.452  -8.104 -14.491  1.00  0.00    -0.544 OA
ENDBRANCH   1   6
BRANCH   1   9
ATOM      9  C   UNL     1      -8.589  -4.784 -15.393  1.00  0.00     0.047 C 
ATOM     10  C   UNL     1      -9.153  -3.366 -15.223  1.00  0.00     0.014 C 
ATOM     11  C   UNL     1      -7.103  -4.720 -15.783  1.00  0.00     0.014 C 
ENDBRANCH   1   9
TORSDOF 3
ENDMDL
MODEL 3
REMARK VINA RESULT:    -3.600      2.960      3.824
REMARK INTER + INTRA:          -4.188
REMARK INTER:                  -4.123
REMARK INTRA:                  -0.064
REMARK UNBOUND:                -0.061
REMARK SMILES CC(C)[C@H]([NH3+])C(=O)[O-]
REMARK SMILES IDX 4 1 5 2 6 6 7 7 8 8 2 9 1 10 3 11
REMARK H PARENT 5 3 5 4 5 5
REMARK Flexibility Score: inf
ROOT
ATOM      1  C   UNL     1      -8.405  -4.978 -15.556  1.00  0.00     0.230 C 
ENDROOT
BRANCH   1   2
ATOM      2  N   UNL     1      -7.077  -4.350 -15.471  1.00  0.00    -0.350 N 
ATOM      3  H   UNL     1      -6.875  -3.844 -16.365  1.00  0.00     0.345 HD
ATOM      4  H   UNL     1      -6.337  -5.075 -15.346  1.00  0.00     0.345 HD
ATOM      5  H   UNL     1      -7.027  -3.664 -14.684  1.00  0.00     0.345 HD
ENDBRANCH   1   2
BRANCH   1   6
ATOM      6  C   UNL     1      -9.466  -3.945 -15.851  1.00  0.00     0.099 C 
ATOM      7  O   UNL     1      -9.569  -2.926 -15.120  1.00  0.00    -0.544 OA
ATOM      8  O   UNL     1     -10.302  -4.081 -16.953  1.00  0.00    -0.544 OA
ENDBRANCH   1   6
BRANCH   1   9
ATOM      9  C   UNL     1      -8.771  -5.803 -14.285  1.00  0.00     0.047 C 
ATOM     10  C   UNL     1     -10.159  -6.451 -14.403  1.00  0.00     0.014 C 
ATOM     11  C   UNL     1      -7.721  -6.863 -13.915  1.00  0.00     0.014 C 
ENDBRANCH   1   9
TORSDOF 3
ENDMDL
MODEL 4
REMARK VINA RESULT:    -3.531      2.169      3.357
REMARK INTER + INTRA:          -4.108
REMARK INTER:                  -4.070
REMARK INTRA:                  -0.038
REMARK UNBOUND:                -0.061
REMARK SMILES CC(C)[C@H]([NH3+])C(=O)[O-]
REMARK SMILES IDX 4 1 5 2 6 6 7 7 8 8 2 9 1 10 3 11
REMARK H PARENT 5 3 5 4 5 5
REMARK Flexibility Score: inf
ROOT
ATOM      1  C   UNL     1      -9.238  -5.725 -14.039  1.00  0.00     0.230 C 
ENDROOT
BRANCH   1   2
ATOM      2  N   UNL     1     -10.191  -6.762 -14.465  1.00  0.00    -0.350 N 
ATOM      3  H   UNL     1      -9.951  -7.077 -15.434  1.00  0.00     0.345 HD
ATOM      4  H   UNL     1     -11.161  -6.376 -14.492  1.00  0.00     0.345 HD
ATOM      5  H   UNL     1     -10.164  -7.592 -13.830  1.00  0.00     0.345 HD
ENDBRANCH   1   2
BRANCH   1   6
ATOM      6  C   UNL     1      -8.939  -4.775 -15.174  1.00  0.00     0.099 C 
ATOM      7  O   UNL     1      -7.747  -4.577 -15.529  1.00  0.00    -0.544 OA
ATOM      8  O   UNL     1      -9.969  -4.152 -15.868  1.00  0.00    -0.544 OA
ENDBRANCH   1   6
BRANCH   1   9
ATOM      9  C   UNL     1      -7.922  -6.314 -13.447  1.00  0.00     0.047 C 
ATOM     10  C   UNL     1      -7.965  -6.382 -11.913  1.00  0.00     0.014 C 
ATOM     11  C   UNL     1      -7.545  -7.687 -14.028  1.00  0.00     0.014 C 
ENDBRANCH   1   9
TORSDOF 3
ENDMDL
MODEL 5
REMARK VINA RESULT:    -3.467      2.282      3.138
REMARK INTER + INTRA:          -4.036
REMARK INTER:                  -3.989
REMARK INTRA:                  -0.047
REMARK UNBOUND:                -0.061
REMARK SMILES CC(C)[C@H]([NH3+])C(=O)[O-]
REMARK SMILES IDX 4 1 5 2 6 6 7 7 8 8 2 9 1 10 3 11
REMARK H PARENT 5 3 5 4 5 5
REMARK Flexibility Score: inf
ROOT
ATOM      1  C   UNL     1      -8.875  -4.688 -14.874  1.00  0.00     0.230 C 
ENDROOT
BRANCH   1   2
ATOM      2  N   UNL     1     -10.116  -4.131 -15.437  1.00  0.00    -0.350 N 
ATOM      3  H   UNL     1     -10.837  -4.059 -14.682  1.00  0.00     0.345 HD
ATOM      4  H   UNL     1     -10.496  -4.763 -16.175  1.00  0.00     0.345 HD
ATOM      5  H   UNL     1      -9.961  -3.179 -15.839  1.00  0.00     0.345 HD
ENDBRANCH   1   2
BRANCH   1   6
ATOM      6  C   UNL     1      -7.755  -4.625 -15.884  1.00  0.00     0.099 C 
ATOM      7  O   UNL     1      -7.969  -4.146 -17.029  1.00  0.00    -0.544 OA
ATOM      8  O   UNL     1      -6.472  -5.045 -15.551  1.00  0.00    -0.544 OA
ENDBRANCH   1   6
BRANCH   1   9
ATOM      9  C   UNL     1      -9.050  -6.137 -14.329  1.00  0.00     0.047 C 
ATOM     10  C   UNL     1      -8.611  -6.253 -12.861  1.00  0.00     0.014 C 
ATOM     11  C   UNL     1     -10.472  -6.694 -14.502  1.00  0.00     0.014 C 
ENDBRANCH   1   9
TORSDOF 3
ENDMDL
MODEL 6
REMARK VINA RESULT:    -3.416      1.628      2.199
REMARK INTER + INTRA:          -3.977
REMARK INTER:                  -4.006
REMARK INTRA:                   0.029
REMARK UNBOUND:                -0.061
REMARK SMILES CC(C)[C@H]([NH3+])C(=O)[O-]
REMARK SMILES IDX 4 1 5 2 6 6 7 7 8 8 2 9 1 10 3 11
REMARK H PARENT 5 3 5 4 5 5
REMARK Flexibility Score: inf
ROOT
ATOM      1  C   UNL     1      -8.800  -6.394 -13.895  1.00  0.00     0.230 C 
ENDROOT
BRANCH   1   2
ATOM      2  N   UNL     1      -8.712  -5.573 -12.676  1.00  0.00    -0.350 N 
ATOM      3  H   UNL     1      -8.046  -4.783 -12.838  1.00  0.00     0.345 HD
ATOM      4  H   UNL     1      -8.341  -6.139 -11.881  1.00  0.00     0.345 HD
ATOM      5  H   UNL     1      -9.642  -5.174 -12.415  1.00  0.00     0.345 HD
ENDBRANCH   1   2
BRANCH   1   6
ATOM      6  C   UNL     1      -7.424  -6.795 -14.369  1.00  0.00     0.099 C 
ATOM      7  O   UNL     1      -7.027  -7.979 -14.214  1.00  0.00    -0.544 OA
ATOM      8  O   UNL     1      -6.603  -5.881 -15.020  1.00  0.00    -0.544 OA
ENDBRANCH   1   6
BRANCH   1   9
ATOM      9  C   UNL     1      -9.602  -5.703 -15.038  1.00  0.00     0.047 C 
ATOM     10  C   UNL     1     -11.088  -6.091 -15.011  1.00  0.00     0.014 C 
ATOM     11  C   UNL     1      -9.454  -4.173 -15.057  1.00  0.00     0.014 C 
ENDBRANCH   1   9
TORSDOF 3
ENDMDL
MODEL 7
REMARK VINA RESULT:    -3.234      2.158      2.895
REMARK INTER + INTRA:          -3.768
REMARK INTER:                  -3.881
REMARK INTRA:                   0.113
REMARK UNBOUND:                -0.061
REMARK SMILES CC(C)[C@H]([NH3+])C(=O)[O-]
REMARK SMILES IDX 4 1 5 2 6 6 7 7 8 8 2 9 1 10 3 11
REMARK H PARENT 5 3 5 4 5 5
REMARK Flexibility Score: inf
ROOT
ATOM      1  C   UNL     1      -8.601  -5.766 -13.571  1.00  0.00     0.230 C 
ENDROOT
BRANCH   1   2
ATOM      2  N   UNL     1      -8.955  -6.496 -12.343  1.00  0.00    -0.350 N 
ATOM      3  H   UNL     1      -8.192  -7.175 -12.112  1.00  0.00     0.345 HD
ATOM      4  H   UNL     1      -9.831  -7.044 -12.484  1.00  0.00     0.345 HD
ATOM      5  H   UNL     1      -9.076  -5.847 -11.533  1.00  0.00     0.345 HD
ENDBRANCH   1   2
BRANCH   1   6
ATOM      6  C   UNL     1      -9.704  -5.879 -14.596  1.00  0.00     0.099 C 
ATOM      7  O   UNL     1     -10.389  -6.932 -14.666  1.00  0.00    -0.544 OA
ATOM      8  O   UNL     1     -10.007  -4.813 -15.434  1.00  0.00    -0.544 OA
ENDBRANCH   1   6
BRANCH   1   9
ATOM      9  C   UNL     1      -7.235  -6.212 -14.173  1.00  0.00     0.047 C 
ATOM     10  C   UNL     1      -7.205  -7.719 -14.468  1.00  0.00     0.014 C 
ATOM     11  C   UNL     1      -6.824  -5.419 -15.425  1.00  0.00     0.014 C 
ENDBRANCH   1   9
TORSDOF 3
ENDMDL
MODEL 8
REMARK VINA RESULT:    -3.184      1.590      2.332
REMARK INTER + INTRA:          -3.711
REMARK INTER:                  -3.849
REMARK INTRA:                   0.138
REMARK UNBOUND:                -0.061
REMARK SMILES CC(C)[C@H]([NH3+])C(=O)[O-]
REMARK SMILES IDX 4 1 5 2 6 6 7 7 8 8 2 9 1 10 3 11
REMARK H PARENT 5 3 5 4 5 5
REMARK Flexibility Score: inf
ROOT
ATOM      1  C   UNL     1      -8.534  -4.812 -14.619  1.00  0.00     0.230 C 
ENDROOT
BRANCH   1   2
ATOM      2  N   UNL     1      -7.519  -4.630 -15.670  1.00  0.00    -0.350 N 
ATOM      3  H   UNL     1      -6.873  -5.453 -15.674  1.00  0.00     0.345 HD
ATOM      4  H   UNL     1      -6.944  -3.780 -15.479  1.00  0.00     0.345 HD
ATOM      5  H   UNL     1      -7.957  -4.549 -16.615  1.00  0.00     0.345 HD
ENDBRANCH   1   2
BRANCH   1   6
ATOM      6  C   UNL     1      -8.261  -6.066 -13.825  1.00  0.00     0.099 C 
ATOM      7  O   UNL     1      -7.665  -7.034 -14.366  1.00  0.00    -0.544 OA
ATOM      8  O   UNL     1      -8.616  -6.150 -12.484  1.00  0.00    -0.544 OA
ENDBRANCH   1   6
BRANCH   1   9
ATOM      9  C   UNL     1      -9.990  -4.811 -15.172  1.00  0.00     0.047 C 
ATOM     10  C   UNL     1     -10.049  -4.329 -16.630  1.00  0.00     0.014 C 
ATOM     11  C   UNL     1     -10.704  -6.165 -15.033  1.00  0.00     0.014 C 
ENDBRANCH   1   9
TORSDOF 3
ENDMDL
MODEL 9
REMARK VINA RESULT:    -3.184      2.123      3.047
REMARK INTER + INTRA:          -3.710
REMARK INTER:                  -3.787
REMARK INTRA:                   0.077
REMARK UNBOUND:                -0.061
REMARK SMILES CC(C)[C@H]([NH3+])C(=O)[O-]
REMARK SMILES IDX 4 1 5 2 6 6 7 7 8 8 2 9 1 10 3 11
REMARK H PARENT 5 3 5 4 5 5
REMARK Flexibility Score: inf
ROOT
ATOM      1  C   UNL     1      -8.631  -6.843 -14.053  1.00  0.00     0.230 C 
ENDROOT
BRANCH   1   2
ATOM      2  N   UNL     1      -9.015  -6.516 -12.670  1.00  0.00    -0.350 N 
ATOM      3  H   UNL     1      -8.176  -6.166 -12.151  1.00  0.00     0.345 HD
ATOM      4  H   UNL     1      -9.356  -7.369 -12.176  1.00  0.00     0.345 HD
ATOM      5  H   UNL     1      -9.754  -5.777 -12.642  1.00  0.00     0.345 HD
ENDBRANCH   1   2
BRANCH   1   6
ATOM      6  C   UNL     1      -7.947  -5.667 -14.709  1.00  0.00     0.099 C 
ATOM      7  O   UNL     1      -6.737  -5.752 -15.044  1.00  0.00    -0.544 OA
ATOM      8  O   UNL     1      -8.653  -4.504 -14.995  1.00  0.00    -0.544 OA
ENDBRANCH   1   6
BRANCH   1   9
ATOM      9  C   UNL     1      -9.829  -7.341 -14.916  1.00  0.00     0.047 C 
ATOM     10  C   UNL     1     -10.068  -8.849 -14.748  1.00  0.00     0.014 C 
ATOM     11  C   UNL     1     -11.134  -6.567 -14.665  1.00  0.00     0.014 C 
ENDBRANCH   1   9
TORSDOF 3
ENDMDL
