MODEL 1
REMARK VINA RESULT:    -3.583      0.000      0.000
REMARK INTER + INTRA:          -5.911
REMARK INTER:                  -5.468
REMARK INTRA:                  -0.443
REMARK UNBOUND:                -0.443
REMARK SMILES CCCCCCCCCCC(=O)[O-]
REMARK SMILES IDX 7 1 8 2 9 3 10 4 11 5 12 6 13 7 6 8 5 9 4 10 3 11 2 12 1 13
REMARK H PARENT
REMARK Flexibility Score: inf
ROOT
ATOM      1  C   UNL     1      -5.720 -51.625  -0.206  1.00  0.00     0.000 C 
ENDROOT
BRANCH   1   2
ATOM      2  C   UNL     1      -7.027 -52.048   0.481  1.00  0.00     0.000 C 
BRANCH   2   3
ATOM      3  C   UNL     1      -7.028 -51.745   1.990  1.00  0.00     0.006 C 
BRANCH   3   4
ATOM      4  C   UNL     1      -8.436 -51.446   2.521  1.00  0.00     0.053 C 
BRANCH   4   5
ATOM      5  C   UNL     1      -8.400 -50.530   3.705  1.00  0.00     0.041 C 
ATOM      6  O   UNL     1      -9.118 -49.496   3.727  1.00  0.00    -0.550 OA
ATOM      7  O   UNL     1      -7.548 -50.800   4.769  1.00  0.00    -0.550 OA
ENDBRANCH   4   5
ENDBRANCH   3   4
ENDBRANCH   2   3
ENDBRANCH   1   2
BRANCH   1   8
ATOM      8  C   UNL     1      -4.516 -51.648   0.746  1.00  0.00     0.000 C 
BRANCH   8   9
ATOM      9  C   UNL     1      -3.391 -50.741   0.234  1.00  0.00    -0.000 C 
BRANCH   9  10
ATOM     10  C   UNL     1      -2.037 -51.152   0.825  1.00  0.00    -0.000 C 
BRANCH  10  11
ATOM     11  C   UNL     1      -1.896 -50.656   2.272  1.00  0.00    -0.000 C 
BRANCH  11  12
ATOM     12  C   UNL     1      -1.270 -51.710   3.198  1.00  0.00    -0.003 C 
ATOM     13  C   UNL     1      -2.196 -52.115   4.345  1.00  0.00     0.004 C 
ENDBRANCH  11  12
ENDBRANCH  10  11
ENDBRANCH   9  10
ENDBRANCH   8   9
ENDBRANCH   1   8
TORSDOF 9
ENDMDL
MODEL 2
REMARK VINA RESULT:    -3.532      2.318      5.082
REMARK INTER + INTRA:          -5.833
REMARK INTER:                  -5.106
REMARK INTRA:                  -0.727
REMARK UNBOUND:                -0.443
REMARK SMILES CCCCCCCCCCC(=O)[O-]
REMARK SMILES IDX 7 1 8 2 9 3 10 4 11 5 12 6 13 7 6 8 5 9 4 10 3 11 2 12 1 13
REMARK H PARENT
REMARK Flexibility Score: inf
ROOT
ATOM      1  C   UNL     1      -2.591 -50.625   1.860  1.00  0.00     0.000 C 
ENDROOT
BRANCH   1   2
ATOM      2  C   UNL     1      -2.841 -51.949   2.598  1.00  0.00     0.000 C 
BRANCH   2   3
ATOM      3  C   UNL     1      -3.328 -51.739   4.042  1.00  0.00     0.006 C 
BRANCH   3   4
ATOM      4  C   UNL     1      -2.172 -51.752   5.052  1.00  0.00     0.053 C 
BRANCH   4   5
ATOM      5  C   UNL     1      -2.623 -51.331   6.417  1.00  0.00     0.041 C 
ATOM      6  O   UNL     1      -1.778 -50.979   7.281  1.00  0.00    -0.550 OA
ATOM      7  O   UNL     1      -3.973 -51.360   6.744  1.00  0.00    -0.550 OA
ENDBRANCH   4   5
ENDBRANCH   3   4
ENDBRANCH   2   3
ENDBRANCH   1   2
BRANCH   1   8
ATOM      8  C   UNL     1      -2.836 -50.735   0.348  1.00  0.00     0.000 C 
BRANCH   8   9
ATOM      9  C   UNL     1      -3.968 -51.723   0.045  1.00  0.00    -0.000 C 
BRANCH   9  10
ATOM     10  C   UNL     1      -5.321 -51.004  -0.034  1.00  0.00    -0.000 C 
BRANCH  10  11
ATOM     11  C   UNL     1      -6.460 -51.924   0.430  1.00  0.00    -0.000 C 
BRANCH  11  12
ATOM     12  C   UNL     1      -6.553 -52.020   1.962  1.00  0.00    -0.003 C 
ATOM     13  C   UNL     1      -7.864 -51.459   2.511  1.00  0.00     0.004 C 
ENDBRANCH  11  12
ENDBRANCH  10  11
ENDBRANCH   9  10
ENDBRANCH   8   9
ENDBRANCH   1   8
TORSDOF 9
ENDMDL
MODEL 3
REMARK VINA RESULT:    -3.495      2.740      5.623
REMARK INTER + INTRA:          -5.777
REMARK INTER:                  -5.494
REMARK INTRA:                  -0.283
REMARK UNBOUND:                -0.443
REMARK SMILES CCCCCCCCCCC(=O)[O-]
REMARK SMILES IDX 7 1 8 2 9 3 10 4 11 5 12 6 13 7 6 8 5 9 4 10 3 11 2 12 1 13
REMARK H PARENT
REMARK Flexibility Score: inf
ROOT
ATOM      1  C   UNL     1      -1.978 -51.974   3.008  1.00  0.00     0.000 C 
ENDROOT
BRANCH   1   2
ATOM      2  C   UNL     1      -1.304 -51.821   4.381  1.00  0.00     0.000 C 
BRANCH   2   3
ATOM      3  C   UNL     1      -2.291 -51.999   5.548  1.00  0.00     0.006 C 
BRANCH   3   4
ATOM      4  C   UNL     1      -1.613 -51.821   6.913  1.00  0.00     0.053 C 
BRANCH   4   5
ATOM      5  C   UNL     1      -2.566 -51.295   7.941  1.00  0.00     0.041 C 
ATOM      6  O   UNL     1      -3.407 -50.410   7.631  1.00  0.00    -0.550 OA
ATOM      7  O   UNL     1      -2.503 -51.756   9.250  1.00  0.00    -0.550 OA
ENDBRANCH   4   5
ENDBRANCH   3   4
ENDBRANCH   2   3
ENDBRANCH   1   2
BRANCH   1   8
ATOM      8  C   UNL     1      -1.601 -50.847   2.036  1.00  0.00     0.000 C 
BRANCH   8   9
ATOM      9  C   UNL     1      -1.765 -51.299   0.580  1.00  0.00    -0.000 C 
BRANCH   9  10
ATOM     10  C   UNL     1      -3.085 -50.787  -0.012  1.00  0.00    -0.000 C 
BRANCH  10  11
ATOM     11  C   UNL     1      -4.198 -51.834   0.142  1.00  0.00    -0.000 C 
BRANCH  11  12
ATOM     12  C   UNL     1      -5.590 -51.266  -0.179  1.00  0.00    -0.003 C 
ATOM     13  C   UNL     1      -6.657 -51.719   0.817  1.00  0.00     0.004 C 
ENDBRANCH  11  12
ENDBRANCH  10  11
ENDBRANCH   9  10
ENDBRANCH   8   9
ENDBRANCH   1   8
TORSDOF 9
ENDMDL
MODEL 4
REMARK VINA RESULT:    -3.400      1.758      2.431
REMARK INTER + INTRA:          -5.632
REMARK INTER:                  -5.244
REMARK INTRA:                  -0.388
REMARK UNBOUND:                -0.443
REMARK SMILES CCCCCCCCCCC(=O)[O-]
REMARK SMILES IDX 7 1 8 2 9 3 10 4 11 5 12 6 13 7 6 8 5 9 4 10 3 11 2 12 1 13
REMARK H PARENT
REMARK Flexibility Score: inf
ROOT
ATOM      1  C   UNL     1      -6.358 -51.955   1.035  1.00  0.00     0.000 C 
ENDROOT
BRANCH   1   2
ATOM      2  C   UNL     1      -7.854 -51.628   0.912  1.00  0.00     0.000 C 
BRANCH   2   3
ATOM      3  C   UNL     1      -8.632 -51.923   2.206  1.00  0.00     0.006 C 
BRANCH   3   4
ATOM      4  C   UNL     1      -8.416 -50.841   3.272  1.00  0.00     0.053 C 
BRANCH   4   5
ATOM      5  C   UNL     1      -7.695 -51.378   4.470  1.00  0.00     0.041 C 
ATOM      6  O   UNL     1      -8.339 -51.919   5.407  1.00  0.00    -0.550 OA
ATOM      7  O   UNL     1      -6.315 -51.250   4.568  1.00  0.00    -0.550 OA
ENDBRANCH   4   5
ENDBRANCH   3   4
ENDBRANCH   2   3
ENDBRANCH   1   2
BRANCH   1   8
ATOM      8  C   UNL     1      -5.495 -51.156   0.046  1.00  0.00     0.000 C 
BRANCH   8   9
ATOM      9  C   UNL     1      -4.054 -51.678   0.028  1.00  0.00    -0.000 C 
BRANCH   9  10
ATOM     10  C   UNL     1      -3.117 -50.738   0.796  1.00  0.00    -0.000 C 
BRANCH  10  11
ATOM     11  C   UNL     1      -1.654 -51.183   0.651  1.00  0.00    -0.000 C 
BRANCH  11  12
ATOM     12  C   UNL     1      -1.396 -51.943  -0.660  1.00  0.00    -0.003 C 
ATOM     13  C   UNL     1       0.060 -51.858  -1.116  1.00  0.00     0.004 C 
ENDBRANCH  11  12
ENDBRANCH  10  11
ENDBRANCH   9  10
ENDBRANCH   8   9
ENDBRANCH   1   8
TORSDOF 9
ENDMDL
MODEL 5
REMARK VINA RESULT:    -3.382      2.593      4.684
REMARK INTER + INTRA:          -5.605
REMARK INTER:                  -4.999
REMARK INTRA:                  -0.607
REMARK UNBOUND:                -0.443
REMARK SMILES CCCCCCCCCCC(=O)[O-]
REMARK SMILES IDX 7 1 8 2 9 3 10 4 11 5 12 6 13 7 6 8 5 9 4 10 3 11 2 12 1 13
REMARK H PARENT
REMARK Flexibility Score: inf
ROOT
ATOM      1  C   UNL     1      -1.630 -50.844   2.149  1.00  0.00     0.000 C 
ENDROOT
BRANCH   1   2
ATOM      2  C   UNL     1      -1.444 -51.667   0.866  1.00  0.00     0.000 C 
BRANCH   2   3
ATOM      3  C   UNL     1      -2.662 -51.588  -0.070  1.00  0.00     0.006 C 
BRANCH   3   4
ATOM      4  C   UNL     1      -3.826 -50.810   0.558  1.00  0.00     0.053 C 
BRANCH   4   5
ATOM      5  C   UNL     1      -5.126 -51.540   0.412  1.00  0.00     0.041 C 
ATOM      6  O   UNL     1      -5.482 -51.979  -0.713  1.00  0.00    -0.550 OA
ATOM      7  O   UNL     1      -5.959 -51.706   1.511  1.00  0.00    -0.550 OA
ENDBRANCH   4   5
ENDBRANCH   3   4
ENDBRANCH   2   3
ENDBRANCH   1   2
BRANCH   1   8
ATOM      8  C   UNL     1      -1.527 -51.699   3.421  1.00  0.00     0.000 C 
BRANCH   8   9
ATOM      9  C   UNL     1      -2.918 -52.062   3.953  1.00  0.00    -0.000 C 
BRANCH   9  10
ATOM     10  C   UNL     1      -3.112 -51.547   5.385  1.00  0.00    -0.000 C 
BRANCH  10  11
ATOM     11  C   UNL     1      -1.775 -51.502   6.139  1.00  0.00    -0.000 C 
BRANCH  11  12
ATOM     12  C   UNL     1      -1.950 -51.180   7.632  1.00  0.00    -0.003 C 
ATOM     13  C   UNL     1      -3.414 -50.982   8.026  1.00  0.00     0.004 C 
ENDBRANCH  11  12
ENDBRANCH  10  11
ENDBRANCH   9  10
ENDBRANCH   8   9
ENDBRANCH   1   8
TORSDOF 9
ENDMDL
MODEL 6
REMARK VINA RESULT:    -3.382      3.006      5.554
REMARK INTER + INTRA:          -5.605
REMARK INTER:                  -5.224
REMARK INTRA:                  -0.382
REMARK UNBOUND:                -0.443
REMARK SMILES CCCCCCCCCCC(=O)[O-]
REMARK SMILES IDX 7 1 8 2 9 3 10 4 11 5 12 6 13 7 6 8 5 9 4 10 3 11 2 12 1 13
REMARK H PARENT
REMARK Flexibility Score: inf
ROOT
ATOM      1  C   UNL     1      -2.624 -51.723   5.559  1.00  0.00     0.000 C 
ENDROOT
BRANCH   1   2
ATOM      2  C   UNL     1      -1.868 -51.087   6.736  1.00  0.00     0.000 C 
BRANCH   2   3
ATOM      3  C   UNL     1      -2.515 -51.404   8.095  1.00  0.00     0.006 C 
BRANCH   3   4
ATOM      4  C   UNL     1      -3.877 -52.094   7.943  1.00  0.00     0.053 C 
BRANCH   4   5
ATOM      5  C   UNL     1      -4.959 -51.350   8.662  1.00  0.00     0.041 C 
ATOM      6  O   UNL     1      -6.131 -51.337   8.203  1.00  0.00    -0.550 OA
ATOM      7  O   UNL     1      -4.667 -50.643   9.822  1.00  0.00    -0.550 OA
ENDBRANCH   4   5
ENDBRANCH   3   4
ENDBRANCH   2   3
ENDBRANCH   1   2
BRANCH   1   8
ATOM      8  C   UNL     1      -1.788 -51.763   4.271  1.00  0.00     0.000 C 
BRANCH   8   9
ATOM      9  C   UNL     1      -2.686 -51.700   3.031  1.00  0.00    -0.000 C 
BRANCH   9  10
ATOM     10  C   UNL     1      -2.040 -50.856   1.924  1.00  0.00    -0.000 C 
BRANCH  10  11
ATOM     11  C   UNL     1      -3.040 -50.578   0.792  1.00  0.00    -0.000 C 
BRANCH  11  12
ATOM     12  C   UNL     1      -4.324 -51.413   0.920  1.00  0.00    -0.003 C 
ATOM     13  C   UNL     1      -5.354 -51.082  -0.159  1.00  0.00     0.004 C 
ENDBRANCH  11  12
ENDBRANCH  10  11
ENDBRANCH   9  10
ENDBRANCH   8   9
ENDBRANCH   1   8
TORSDOF 9
ENDMDL
MODEL 7
REMARK VINA RESULT:    -3.341      3.809      5.552
REMARK INTER + INTRA:          -5.542
REMARK INTER:                  -5.266
REMARK INTRA:                  -0.276
REMARK UNBOUND:                -0.443
REMARK SMILES CCCCCCCCCCC(=O)[O-]
REMARK SMILES IDX 7 1 8 2 9 3 10 4 11 5 12 6 13 7 6 8 5 9 4 10 3 11 2 12 1 13
REMARK H PARENT
REMARK Flexibility Score: inf
ROOT
ATOM      1  C   UNL     1      -3.227 -51.484   5.706  1.00  0.00     0.000 C 
ENDROOT
BRANCH   1   2
ATOM      2  C   UNL     1      -2.484 -51.041   6.976  1.00  0.00     0.000 C 
BRANCH   2   3
ATOM      3  C   UNL     1      -3.076 -51.661   8.254  1.00  0.00     0.006 C 
BRANCH   3   4
ATOM      4  C   UNL     1      -4.588 -51.897   8.138  1.00  0.00     0.053 C 
BRANCH   4   5
ATOM      5  C   UNL     1      -5.362 -50.995   9.050  1.00  0.00     0.041 C 
ATOM      6  O   UNL     1      -4.813 -50.506  10.072  1.00  0.00    -0.550 OA
ATOM      7  O   UNL     1      -6.699 -50.721   8.789  1.00  0.00    -0.550 OA
ENDBRANCH   4   5
ENDBRANCH   3   4
ENDBRANCH   2   3
ENDBRANCH   1   2
BRANCH   1   8
ATOM      8  C   UNL     1      -2.272 -51.867   4.566  1.00  0.00     0.000 C 
BRANCH   8   9
ATOM      9  C   UNL     1      -2.902 -51.573   3.199  1.00  0.00    -0.000 C 
BRANCH   9  10
ATOM     10  C   UNL     1      -1.875 -50.960   2.239  1.00  0.00    -0.000 C 
BRANCH  10  11
ATOM     11  C   UNL     1      -1.363 -52.008   1.241  1.00  0.00    -0.000 C 
BRANCH  11  12
ATOM     12  C   UNL     1      -1.619 -51.606  -0.221  1.00  0.00    -0.003 C 
ATOM     13  C   UNL     1      -0.409 -51.850  -1.122  1.00  0.00     0.004 C 
ENDBRANCH  11  12
ENDBRANCH  10  11
ENDBRANCH   9  10
ENDBRANCH   8   9
ENDBRANCH   1   8
TORSDOF 9
ENDMDL
MODEL 8
REMARK VINA RESULT:    -3.299      3.187      5.217
REMARK INTER + INTRA:          -5.478
REMARK INTER:                  -4.957
REMARK INTRA:                  -0.521
REMARK UNBOUND:                -0.443
REMARK SMILES CCCCCCCCCCC(=O)[O-]
REMARK SMILES IDX 7 1 8 2 9 3 10 4 11 5 12 6 13 7 6 8 5 9 4 10 3 11 2 12 1 13
REMARK H PARENT
REMARK Flexibility Score: inf
ROOT
ATOM      1  C   UNL     1      -2.837 -51.120   3.550  1.00  0.00     0.000 C 
ENDROOT
BRANCH   1   2
ATOM      2  C   UNL     1      -1.819 -52.124   4.111  1.00  0.00     0.000 C 
BRANCH   2   3
ATOM      3  C   UNL     1      -1.677 -52.033   5.640  1.00  0.00     0.006 C 
BRANCH   3   4
ATOM      4  C   UNL     1      -2.504 -50.883   6.231  1.00  0.00     0.053 C 
BRANCH   4   5
ATOM      5  C   UNL     1      -2.962 -51.188   7.624  1.00  0.00     0.041 C 
ATOM      6  O   UNL     1      -4.138 -50.911   7.979  1.00  0.00    -0.550 OA
ATOM      7  O   UNL     1      -2.079 -51.747   8.541  1.00  0.00    -0.550 OA
ENDBRANCH   4   5
ENDBRANCH   3   4
ENDBRANCH   2   3
ENDBRANCH   1   2
BRANCH   1   8
ATOM      8  C   UNL     1      -4.176 -51.776   3.183  1.00  0.00     0.000 C 
BRANCH   8   9
ATOM      9  C   UNL     1      -4.368 -51.820   1.663  1.00  0.00    -0.000 C 
BRANCH   9  10
ATOM     10  C   UNL     1      -3.292 -50.995   0.946  1.00  0.00    -0.000 C 
BRANCH  10  11
ATOM     11  C   UNL     1      -2.456 -51.879   0.009  1.00  0.00    -0.000 C 
BRANCH  11  12
ATOM     12  C   UNL     1      -0.961 -51.524   0.041  1.00  0.00    -0.003 C 
ATOM     13  C   UNL     1      -0.248 -51.850  -1.271  1.00  0.00     0.004 C 
ENDBRANCH  11  12
ENDBRANCH  10  11
ENDBRANCH   9  10
ENDBRANCH   8   9
ENDBRANCH   1   8
TORSDOF 9
ENDMDL
MODEL 9
REMARK VINA RESULT:    -3.268      4.366      7.142
REMARK INTER + INTRA:          -5.431
REMARK INTER:                  -5.037
REMARK INTRA:                  -0.394
REMARK UNBOUND:                -0.443
REMARK SMILES CCCCCCCCCCC(=O)[O-]
REMARK SMILES IDX 7 1 8 2 9 3 10 4 11 5 12 6 13 7 6 8 5 9 4 10 3 11 2 12 1 13
REMARK H PARENT
REMARK Flexibility Score: inf
ROOT
ATOM      1  C   UNL     1      -2.688 -51.756   5.523  1.00  0.00     0.000 C 
ENDROOT
BRANCH   1   2
ATOM      2  C   UNL     1      -1.264 -51.873   4.958  1.00  0.00     0.000 C 
BRANCH   2   3
ATOM      3  C   UNL     1      -1.246 -52.033   3.428  1.00  0.00     0.006 C 
BRANCH   3   4
ATOM      4  C   UNL     1      -2.457 -51.368   2.761  1.00  0.00     0.053 C 
BRANCH   4   5
ATOM      5  C   UNL     1      -2.169 -50.988   1.341  1.00  0.00     0.041 C 
ATOM      6  O   UNL     1      -1.036 -51.216   0.842  1.00  0.00    -0.550 OA
ATOM      7  O   UNL     1      -3.142 -50.351   0.580  1.00  0.00    -0.550 OA
ENDBRANCH   4   5
ENDBRANCH   3   4
ENDBRANCH   2   3
ENDBRANCH   1   2
BRANCH   1   8
ATOM      8  C   UNL     1      -2.739 -50.960   6.836  1.00  0.00     0.000 C 
BRANCH   8   9
ATOM      9  C   UNL     1      -2.331 -51.835   8.026  1.00  0.00    -0.000 C 
BRANCH   9  10
ATOM     10  C   UNL     1      -3.329 -51.694   9.182  1.00  0.00    -0.000 C 
BRANCH  10  11
ATOM     11  C   UNL     1      -4.725 -51.326   8.661  1.00  0.00    -0.000 C 
BRANCH  11  12
ATOM     12  C   UNL     1      -5.560 -50.559   9.700  1.00  0.00    -0.003 C 
ATOM     13  C   UNL     1      -7.046 -50.511   9.346  1.00  0.00     0.004 C 
ENDBRANCH  11  12
ENDBRANCH  10  11
ENDBRANCH   9  10
ENDBRANCH   8   9
ENDBRANCH   1   8
TORSDOF 9
ENDMDL
