MODEL 1
REMARK VINA RESULT:    -2.765      0.000      0.000
REMARK INTER + INTRA:          -2.950
REMARK INTER:                  -2.927
REMARK INTRA:                  -0.023
REMARK UNBOUND:                -0.023
REMARK SMILES O=C([O-])c1cccnc1
REMARK SMILES IDX 4 1 5 2 9 3 6 4 8 5 7 6 2 7 1 8 3 9
REMARK H PARENT
REMARK Flexibility Score: inf
ROOT
ATOM      1  C   UNL     1       9.371 -19.177  19.555  1.00  0.00     0.016 A 
ATOM      2  C   UNL     1      10.425 -19.218  18.627  1.00  0.00     0.013 A 
ATOM      3  C   UNL     1       9.683 -18.985  20.913  1.00  0.00     0.120 A 
ATOM      4  C   UNL     1      11.744 -19.071  19.058  1.00  0.00     0.021 A 
ATOM      5  N   UNL     1      10.978 -18.845  21.306  1.00  0.00    -0.264 NA
ATOM      6  C   UNL     1      12.004 -18.883  20.415  1.00  0.00     0.111 A 
ENDROOT
BRANCH   1   7
ATOM      7  C   UNL     1       7.966 -19.332  19.120  1.00  0.00     0.073 C 
ATOM      8  O   UNL     1       7.656 -19.214  17.905  1.00  0.00    -0.545 OA
ATOM      9  O   UNL     1       6.968 -19.607  20.047  1.00  0.00    -0.545 OA
ENDBRANCH   1   7
TORSDOF 1
ENDMDL
MODEL 2
REMARK VINA RESULT:    -2.728      9.026     10.753
REMARK INTER + INTRA:          -2.911
REMARK INTER:                  -2.887
REMARK INTRA:                  -0.024
REMARK UNBOUND:                -0.023
REMARK SMILES O=C([O-])c1cccnc1
REMARK SMILES IDX 4 1 5 2 9 3 6 4 8 5 7 6 2 7 1 8 3 9
REMARK H PARENT
REMARK Flexibility Score: inf
ROOT
ATOM      1  C   UNL     1      -0.124 -20.445  20.267  1.00  0.00     0.016 A 
ATOM      2  C   UNL     1      -1.033 -20.212  19.222  1.00  0.00     0.013 A 
ATOM      3  C   UNL     1      -0.623 -20.910  21.496  1.00  0.00     0.120 A 
ATOM      4  C   UNL     1      -2.397 -20.441  19.415  1.00  0.00     0.021 A 
ATOM      5  N   UNL     1      -1.957 -21.125  21.658  1.00  0.00    -0.264 NA
ATOM      6  C   UNL     1      -2.845 -20.902  20.653  1.00  0.00     0.111 A 
ENDROOT
BRANCH   1   7
ATOM      7  C   UNL     1       1.324 -20.208  20.084  1.00  0.00     0.073 C 
ATOM      8  O   UNL     1       1.789 -19.934  18.945  1.00  0.00    -0.545 OA
ATOM      9  O   UNL     1       2.194 -20.288  21.165  1.00  0.00    -0.545 OA
ENDBRANCH   1   7
TORSDOF 1
ENDMDL
MODEL 3
REMARK VINA RESULT:    -2.688      2.910      3.848
REMARK INTER + INTRA:          -2.869
REMARK INTER:                  -2.850
REMARK INTRA:                  -0.019
REMARK UNBOUND:                -0.023
REMARK SMILES O=C([O-])c1cccnc1
REMARK SMILES IDX 4 1 5 2 9 3 6 4 8 5 7 6 2 7 1 8 3 9
REMARK H PARENT
REMARK Flexibility Score: inf
ROOT
ATOM      1  C   UNL     1       9.698 -18.350  19.116  1.00  0.00     0.016 A 
ATOM      2  C   UNL     1       8.902 -19.449  18.753  1.00  0.00     0.013 A 
ATOM      3  C   UNL     1       9.155 -17.060  18.985  1.00  0.00     0.120 A 
ATOM      4  C   UNL     1       7.606 -19.249  18.274  1.00  0.00     0.021 A 
ATOM      5  N   UNL     1       7.889 -16.892  18.516  1.00  0.00    -0.264 NA
ATOM      6  C   UNL     1       7.111 -17.949  18.161  1.00  0.00     0.111 A 
ENDROOT
BRANCH   1   7
ATOM      7  C   UNL     1      11.073 -18.540  19.625  1.00  0.00     0.073 C 
ATOM      8  O   UNL     1      11.899 -19.249  18.989  1.00  0.00    -0.545 OA
ATOM      9  O   UNL     1      11.474 -17.942  20.813  1.00  0.00    -0.545 OA
ENDBRANCH   1   7
TORSDOF 1
ENDMDL
MODEL 4
REMARK VINA RESULT:    -2.675      2.996      3.887
REMARK INTER + INTRA:          -2.855
REMARK INTER:                  -2.837
REMARK INTRA:                  -0.018
REMARK UNBOUND:                -0.023
REMARK SMILES O=C([O-])c1cccnc1
REMARK SMILES IDX 4 1 5 2 9 3 6 4 8 5 7 6 2 7 1 8 3 9
REMARK H PARENT
REMARK Flexibility Score: inf
ROOT
ATOM      1  C   UNL     1       9.667 -18.363  19.062  1.00  0.00     0.016 A 
ATOM      2  C   UNL     1       9.181 -17.062  18.852  1.00  0.00     0.013 A 
ATOM      3  C   UNL     1       8.839 -19.448  18.722  1.00  0.00     0.120 A 
ATOM      4  C   UNL     1       7.905 -16.867  18.319  1.00  0.00     0.021 A 
ATOM      5  N   UNL     1       7.600 -19.231  18.205  1.00  0.00    -0.264 NA
ATOM      6  C   UNL     1       7.121 -17.975  17.999  1.00  0.00     0.111 A 
ENDROOT
BRANCH   1   7
ATOM      7  C   UNL     1      11.015 -18.591  19.625  1.00  0.00     0.073 C 
ATOM      8  O   UNL     1      11.885 -19.224  18.969  1.00  0.00    -0.545 OA
ATOM      9  O   UNL     1      11.340 -18.112  20.889  1.00  0.00    -0.545 OA
ENDBRANCH   1   7
TORSDOF 1
ENDMDL
MODEL 5
REMARK VINA RESULT:    -2.629      3.339      4.045
REMARK INTER + INTRA:          -2.806
REMARK INTER:                  -2.789
REMARK INTRA:                  -0.017
REMARK UNBOUND:                -0.023
REMARK SMILES O=C([O-])c1cccnc1
REMARK SMILES IDX 4 1 5 2 9 3 6 4 8 5 7 6 2 7 1 8 3 9
REMARK H PARENT
REMARK Flexibility Score: inf
ROOT
ATOM      1  C   UNL     1      11.673 -18.897  20.522  1.00  0.00     0.016 A 
ATOM      2  C   UNL     1      11.685 -19.051  19.125  1.00  0.00     0.013 A 
ATOM      3  C   UNL     1      10.438 -18.960  21.191  1.00  0.00     0.120 A 
ATOM      4  C   UNL     1      10.491 -19.259  18.433  1.00  0.00     0.021 A 
ATOM      5  N   UNL     1       9.289 -19.163  20.492  1.00  0.00    -0.264 NA
ATOM      6  C   UNL     1       9.290 -19.313  19.140  1.00  0.00     0.111 A 
ENDROOT
BRANCH   1   7
ATOM      7  C   UNL     1      12.927 -18.675  21.274  1.00  0.00     0.073 C 
ATOM      8  O   UNL     1      13.576 -17.604  21.136  1.00  0.00    -0.545 OA
ATOM      9  O   UNL     1      13.409 -19.647  22.143  1.00  0.00    -0.545 OA
ENDBRANCH   1   7
TORSDOF 1
ENDMDL
MODEL 6
REMARK VINA RESULT:    -2.574      1.831      1.982
REMARK INTER + INTRA:          -2.748
REMARK INTER:                  -2.725
REMARK INTRA:                  -0.022
REMARK UNBOUND:                -0.023
REMARK SMILES O=C([O-])c1cccnc1
REMARK SMILES IDX 4 1 5 2 9 3 6 4 8 5 7 6 2 7 1 8 3 9
REMARK H PARENT
REMARK Flexibility Score: inf
ROOT
ATOM      1  C   UNL     1       9.497 -18.327  19.133  1.00  0.00     0.016 A 
ATOM      2  C   UNL     1       9.277 -16.942  19.217  1.00  0.00     0.013 A 
ATOM      3  C   UNL     1      10.752 -18.829  19.520  1.00  0.00     0.120 A 
ATOM      4  C   UNL     1      10.290 -16.098  19.675  1.00  0.00     0.021 A 
ATOM      5  N   UNL     1      11.722 -17.984  19.963  1.00  0.00    -0.264 NA
ATOM      6  C   UNL     1      11.519 -16.643  20.048  1.00  0.00     0.111 A 
ENDROOT
BRANCH   1   7
ATOM      7  C   UNL     1       8.438 -19.238  18.649  1.00  0.00     0.073 C 
ATOM      8  O   UNL     1       7.537 -18.819  17.875  1.00  0.00    -0.545 OA
ATOM      9  O   UNL     1       8.420 -20.571  19.045  1.00  0.00    -0.545 OA
ENDBRANCH   1   7
TORSDOF 1
ENDMDL
MODEL 7
REMARK VINA RESULT:    -2.529      2.191      2.885
REMARK INTER + INTRA:          -2.700
REMARK INTER:                  -2.678
REMARK INTRA:                  -0.022
REMARK UNBOUND:                -0.023
REMARK SMILES O=C([O-])c1cccnc1
REMARK SMILES IDX 4 1 5 2 9 3 6 4 8 5 7 6 2 7 1 8 3 9
REMARK H PARENT
REMARK Flexibility Score: inf
ROOT
ATOM      1  C   UNL     1       7.508 -19.364  20.141  1.00  0.00     0.016 A 
ATOM      2  C   UNL     1       7.197 -19.126  18.791  1.00  0.00     0.013 A 
ATOM      3  C   UNL     1       8.857 -19.318  20.533  1.00  0.00     0.120 A 
ATOM      4  C   UNL     1       8.214 -18.853  17.875  1.00  0.00     0.021 A 
ATOM      5  N   UNL     1       9.829 -19.050  19.620  1.00  0.00    -0.264 NA
ATOM      6  C   UNL     1       9.538 -18.818  18.312  1.00  0.00     0.111 A 
ENDROOT
BRANCH   1   7
ATOM      7  C   UNL     1       6.446 -19.656  21.127  1.00  0.00     0.073 C 
ATOM      8  O   UNL     1       6.714 -20.268  22.195  1.00  0.00    -0.545 OA
ATOM      9  O   UNL     1       5.135 -19.261  20.888  1.00  0.00    -0.545 OA
ENDBRANCH   1   7
TORSDOF 1
ENDMDL
MODEL 8
REMARK VINA RESULT:    -2.513      9.364     10.217
REMARK INTER + INTRA:          -2.683
REMARK INTER:                  -2.663
REMARK INTRA:                  -0.020
REMARK UNBOUND:                -0.023
REMARK SMILES O=C([O-])c1cccnc1
REMARK SMILES IDX 4 1 5 2 9 3 6 4 8 5 7 6 2 7 1 8 3 9
REMARK H PARENT
REMARK Flexibility Score: inf
ROOT
ATOM      1  C   UNL     1      -0.108 -20.739  20.697  1.00  0.00     0.016 A 
ATOM      2  C   UNL     1       1.166 -20.737  21.289  1.00  0.00     0.013 A 
ATOM      3  C   UNL     1      -1.228 -20.938  21.522  1.00  0.00     0.120 A 
ATOM      4  C   UNL     1       1.300 -20.930  22.665  1.00  0.00     0.021 A 
ATOM      5  N   UNL     1      -1.070 -21.125  22.860  1.00  0.00    -0.264 NA
ATOM      6  C   UNL     1       0.158 -21.124  23.443  1.00  0.00     0.111 A 
ENDROOT
BRANCH   1   7
ATOM      7  C   UNL     1      -0.271 -20.537  19.241  1.00  0.00     0.073 C 
ATOM      8  O   UNL     1      -1.225 -19.846  18.793  1.00  0.00    -0.545 OA
ATOM      9  O   UNL     1       0.626 -21.108  18.346  1.00  0.00    -0.545 OA
ENDBRANCH   1   7
TORSDOF 1
ENDMDL
MODEL 9
REMARK VINA RESULT:    -2.476     19.464     19.936
REMARK INTER + INTRA:          -2.644
REMARK INTER:                  -2.627
REMARK INTRA:                  -0.017
REMARK UNBOUND:                -0.023
REMARK SMILES O=C([O-])c1cccnc1
REMARK SMILES IDX 4 1 5 2 9 3 6 4 8 5 7 6 2 7 1 8 3 9
REMARK H PARENT
REMARK Flexibility Score: inf
ROOT
ATOM      1  C   UNL     1      -1.669 -19.994  35.880  1.00  0.00     0.016 A 
ATOM      2  C   UNL     1      -0.879 -21.125  36.149  1.00  0.00     0.013 A 
ATOM      3  C   UNL     1      -1.530 -18.869  36.711  1.00  0.00     0.120 A 
ATOM      4  C   UNL     1       0.017 -21.116  37.220  1.00  0.00     0.021 A 
ATOM      5  N   UNL     1      -0.650 -18.887  37.748  1.00  0.00    -0.264 NA
ATOM      6  C   UNL     1       0.119 -19.976  38.017  1.00  0.00     0.111 A 
ENDROOT
BRANCH   1   7
ATOM      7  C   UNL     1      -2.625 -19.984  34.752  1.00  0.00     0.073 C 
ATOM      8  O   UNL     1      -3.624 -20.751  34.751  1.00  0.00    -0.545 OA
ATOM      9  O   UNL     1      -2.431 -19.129  33.673  1.00  0.00    -0.545 OA
ENDBRANCH   1   7
TORSDOF 1
ENDMDL
