MODEL 1
REMARK VINA RESULT:    11.932      0.000      0.000
REMARK INTER + INTRA:          14.201
REMARK INTER:                  14.723
REMARK INTRA:                  -0.521
REMARK UNBOUND:                -0.521
REMARK SMILES COc1ccc(-c2cc3cc(O)c(OC)cc3o2)c(O)c1
REMARK SMILES IDX 7 1 8 2 9 3 10 4 11 5 13 6 16 7 17 8 18 9 6 10 3 11 21 12
REMARK SMILES IDX 4 13 19 14 5 15 2 16 1 17 20 18 12 20 14 22 15 23
REMARK H PARENT 20 19 12 21
REMARK Flexibility Score: inf
ROOT
ATOM      1  C   UNL     1     124.209 132.448 126.265  1.00  0.00     0.139 A 
ATOM      2  C   UNL     1     124.394 132.295 127.643  1.00  0.00     0.060 A 
ATOM      3  C   UNL     1     123.575 131.246 127.988  1.00  0.00     0.025 A 
ATOM      4  C   UNL     1     123.337 130.642 129.218  1.00  0.00     0.062 A 
ATOM      5  C   UNL     1     122.424 129.567 129.260  1.00  0.00     0.158 A 
ATOM      6  C   UNL     1     121.776 129.127 128.078  1.00  0.00     0.164 A 
ATOM      7  C   UNL     1     122.049 129.773 126.846  1.00  0.00     0.098 A 
ATOM      8  C   UNL     1     122.955 130.828 126.846  1.00  0.00     0.138 A 
ATOM      9  O   UNL     1     123.340 131.552 125.825  1.00  0.00    -0.456 OA
ENDROOT
BRANCH   1  10
ATOM     10  C   UNL     1     124.869 133.454 125.391  1.00  0.00     0.059 A 
ATOM     11  C   UNL     1     126.136 135.369 123.740  1.00  0.00     0.122 A 
ATOM     12  C   UNL     1     125.491 134.265 123.177  1.00  0.00     0.093 A 
ATOM     13  C   UNL     1     126.147 135.515 125.136  1.00  0.00     0.047 A 
ATOM     14  C   UNL     1     124.859 133.309 123.986  1.00  0.00     0.130 A 
ATOM     15  C   UNL     1     125.522 134.569 125.951  1.00  0.00     0.020 A 
BRANCH  11  16
ATOM     16  O   UNL     1     126.750 136.293 122.880  1.00  0.00    -0.497 OA
ATOM     17  C   UNL     1     126.476 137.690 122.875  1.00  0.00     0.278 C 
ENDBRANCH  11  16
BRANCH  14  18
ATOM     18  O   UNL     1     124.220 132.223 123.388  1.00  0.00    -0.507 OA
ATOM     19  H   UNL     1     124.622 131.737 122.596  1.00  0.00     0.293 HD
ENDBRANCH  14  18
ENDBRANCH   1  10
BRANCH   5  20
ATOM     20  O   UNL     1     122.153 128.929 130.469  1.00  0.00    -0.504 OA
ATOM     21  H   UNL     1     122.879 128.450 130.989  1.00  0.00     0.293 HD
ENDBRANCH   5  20
BRANCH   6  22
ATOM     22  O   UNL     1     120.876 128.054 128.172  1.00  0.00    -0.493 OA
ATOM     23  C   UNL     1     121.245 126.684 128.052  1.00  0.00     0.278 C 
ENDBRANCH   6  22
TORSDOF 5
ENDMDL
MODEL 2
REMARK VINA RESULT:    12.455      0.902      1.492
REMARK INTER + INTRA:          14.846
REMARK INTER:                  14.598
REMARK INTRA:                   0.248
REMARK UNBOUND:                -0.521
REMARK SMILES COc1ccc(-c2cc3cc(O)c(OC)cc3o2)c(O)c1
REMARK SMILES IDX 7 1 8 2 9 3 10 4 11 5 13 6 16 7 17 8 18 9 6 10 3 11 21 12
REMARK SMILES IDX 4 13 19 14 5 15 2 16 1 17 20 18 12 20 14 22 15 23
REMARK H PARENT 20 19 12 21
REMARK Flexibility Score: inf
ROOT
ATOM      1  C   UNL     1     124.153 132.376 126.244  1.00  0.00     0.139 A 
ATOM      2  C   UNL     1     124.318 132.253 127.628  1.00  0.00     0.060 A 
ATOM      3  C   UNL     1     123.518 131.191 127.978  1.00  0.00     0.025 A 
ATOM      4  C   UNL     1     123.273 130.605 129.216  1.00  0.00     0.062 A 
ATOM      5  C   UNL     1     122.385 129.509 129.263  1.00  0.00     0.158 A 
ATOM      6  C   UNL     1     121.769 129.031 128.079  1.00  0.00     0.164 A 
ATOM      7  C   UNL     1     122.048 129.660 126.839  1.00  0.00     0.098 A 
ATOM      8  C   UNL     1     122.928 130.737 126.834  1.00  0.00     0.138 A 
ATOM      9  O   UNL     1     123.314 131.451 125.807  1.00  0.00    -0.456 OA
ENDROOT
BRANCH   1  10
ATOM     10  C   UNL     1     124.804 133.380 125.362  1.00  0.00     0.059 A 
ATOM     11  C   UNL     1     126.029 135.291 123.674  1.00  0.00     0.122 A 
ATOM     12  C   UNL     1     126.092 135.430 125.063  1.00  0.00     0.093 A 
ATOM     13  C   UNL     1     125.349 134.190 123.127  1.00  0.00     0.047 A 
ATOM     14  C   UNL     1     125.488 134.489 125.910  1.00  0.00     0.130 A 
ATOM     15  C   UNL     1     124.744 133.249 123.961  1.00  0.00     0.020 A 
BRANCH  11  16
ATOM     16  O   UNL     1     126.653 136.263 122.878  1.00  0.00    -0.497 OA
ATOM     17  C   UNL     1     126.514 137.667 123.068  1.00  0.00     0.278 C 
ENDBRANCH  11  16
BRANCH  14  18
ATOM     18  O   UNL     1     125.577 134.657 127.292  1.00  0.00    -0.507 OA
ATOM     19  H   UNL     1     126.094 135.423 127.704  1.00  0.00     0.293 HD
ENDBRANCH  14  18
ENDBRANCH   1  10
BRANCH   5  20
ATOM     20  O   UNL     1     122.108 128.888 130.479  1.00  0.00    -0.504 OA
ATOM     21  H   UNL     1     121.560 128.037 130.527  1.00  0.00     0.293 HD
ENDBRANCH   5  20
BRANCH   6  22
ATOM     22  O   UNL     1     120.894 127.938 128.177  1.00  0.00    -0.493 OA
ATOM     23  C   UNL     1     121.239 126.600 127.838  1.00  0.00     0.278 C 
ENDBRANCH   6  22
TORSDOF 5
ENDMDL
MODEL 3
REMARK VINA RESULT:    12.648     16.200     17.226
REMARK INTER + INTRA:          15.084
REMARK INTER:                  15.661
REMARK INTRA:                  -0.577
REMARK UNBOUND:                -0.521
REMARK SMILES COc1ccc(-c2cc3cc(O)c(OC)cc3o2)c(O)c1
REMARK SMILES IDX 7 1 8 2 9 3 10 4 11 5 13 6 16 7 17 8 18 9 6 10 3 11 21 12
REMARK SMILES IDX 4 13 19 14 5 15 2 16 1 17 20 18 12 20 14 22 15 23
REMARK H PARENT 20 19 12 21
REMARK Flexibility Score: inf
ROOT
ATOM      1  C   UNL     1     137.808 124.979 127.988  1.00  0.00     0.139 A 
ATOM      2  C   UNL     1     136.834 124.177 127.385  1.00  0.00     0.060 A 
ATOM      3  C   UNL     1     137.409 123.757 126.210  1.00  0.00     0.025 A 
ATOM      4  C   UNL     1     136.919 122.942 125.195  1.00  0.00     0.062 A 
ATOM      5  C   UNL     1     137.758 122.687 124.089  1.00  0.00     0.158 A 
ATOM      6  C   UNL     1     139.058 123.249 124.028  1.00  0.00     0.164 A 
ATOM      7  C   UNL     1     139.516 124.075 125.085  1.00  0.00     0.098 A 
ATOM      8  C   UNL     1     138.659 124.303 126.157  1.00  0.00     0.138 A 
ATOM      9  O   UNL     1     138.886 125.029 127.222  1.00  0.00    -0.456 OA
ENDROOT
BRANCH   1  10
ATOM     10  C   UNL     1     137.690 125.685 129.291  1.00  0.00     0.059 A 
ATOM     11  C   UNL     1     137.451 127.018 131.774  1.00  0.00     0.122 A 
ATOM     12  C   UNL     1     138.711 126.757 131.229  1.00  0.00     0.093 A 
ATOM     13  C   UNL     1     136.305 126.610 131.073  1.00  0.00     0.047 A 
ATOM     14  C   UNL     1     138.842 126.096 129.999  1.00  0.00     0.130 A 
ATOM     15  C   UNL     1     136.424 125.950 129.848  1.00  0.00     0.020 A 
BRANCH  11  16
ATOM     16  O   UNL     1     137.383 127.683 133.008  1.00  0.00    -0.497 OA
ATOM     17  C   UNL     1     137.943 127.188 134.220  1.00  0.00     0.278 C 
ENDBRANCH  11  16
BRANCH  14  18
ATOM     18  O   UNL     1     140.115 125.858 129.483  1.00  0.00    -0.507 OA
ATOM     19  H   UNL     1     140.696 125.100 129.823  1.00  0.00     0.293 HD
ENDBRANCH  14  18
ENDBRANCH   1  10
BRANCH   5  20
ATOM     20  O   UNL     1     137.311 121.875 123.048  1.00  0.00    -0.504 OA
ATOM     21  H   UNL     1     137.904 121.160 122.642  1.00  0.00     0.293 HD
ENDBRANCH   5  20
BRANCH   6  22
ATOM     22  O   UNL     1     139.855 122.965 122.908  1.00  0.00    -0.493 OA
ATOM     23  C   UNL     1     140.868 121.966 122.875  1.00  0.00     0.278 C 
ENDBRANCH   6  22
TORSDOF 5
ENDMDL
MODEL 4
REMARK VINA RESULT:    14.194      1.077      7.719
REMARK INTER + INTRA:          16.992
REMARK INTER:                  17.107
REMARK INTRA:                  -0.116
REMARK UNBOUND:                -0.521
REMARK SMILES COc1ccc(-c2cc3cc(O)c(OC)cc3o2)c(O)c1
REMARK SMILES IDX 7 1 8 2 9 3 10 4 11 5 13 6 16 7 17 8 18 9 6 10 3 11 21 12
REMARK SMILES IDX 4 13 19 14 5 15 2 16 1 17 20 18 12 20 14 22 15 23
REMARK H PARENT 20 19 12 21
REMARK Flexibility Score: inf
ROOT
ATOM      1  C   UNL     1     124.183 132.382 127.032  1.00  0.00     0.139 A 
ATOM      2  C   UNL     1     124.835 133.413 127.717  1.00  0.00     0.060 A 
ATOM      3  C   UNL     1     125.387 134.191 126.727  1.00  0.00     0.025 A 
ATOM      4  C   UNL     1     126.152 135.351 126.800  1.00  0.00     0.062 A 
ATOM      5  C   UNL     1     126.585 135.933 125.590  1.00  0.00     0.158 A 
ATOM      6  C   UNL     1     126.244 135.345 124.346  1.00  0.00     0.164 A 
ATOM      7  C   UNL     1     125.464 134.162 124.319  1.00  0.00     0.098 A 
ATOM      8  C   UNL     1     125.056 133.618 125.533  1.00  0.00     0.138 A 
ATOM      9  O   UNL     1     124.338 132.540 125.727  1.00  0.00    -0.456 OA
ENDROOT
BRANCH   1  10
ATOM     10  C   UNL     1     123.420 131.261 127.641  1.00  0.00     0.059 A 
ATOM     11  C   UNL     1     121.972 129.134 128.814  1.00  0.00     0.122 A 
ATOM     12  C   UNL     1     121.580 129.662 127.582  1.00  0.00     0.093 A 
ATOM     13  C   UNL     1     123.095 129.672 129.462  1.00  0.00     0.047 A 
ATOM     14  C   UNL     1     122.290 130.717 126.990  1.00  0.00     0.130 A 
ATOM     15  C   UNL     1     123.808 130.723 128.883  1.00  0.00     0.020 A 
BRANCH  11  16
ATOM     16  O   UNL     1     121.223 128.078 129.356  1.00  0.00    -0.497 OA
ATOM     17  C   UNL     1     121.174 126.764 128.809  1.00  0.00     0.278 C 
ENDBRANCH  11  16
BRANCH  14  18
ATOM     18  O   UNL     1     121.872 131.215 125.756  1.00  0.00    -0.507 OA
ATOM     19  H   UNL     1     122.392 131.037 124.905  1.00  0.00     0.293 HD
ENDBRANCH  14  18
ENDBRANCH   1  10
BRANCH   5  20
ATOM     20  O   UNL     1     127.353 137.096 125.611  1.00  0.00    -0.504 OA
ATOM     21  H   UNL     1     128.086 137.234 126.297  1.00  0.00     0.293 HD
ENDBRANCH   5  20
BRANCH   6  22
ATOM     22  O   UNL     1     126.699 135.961 123.170  1.00  0.00    -0.493 OA
ATOM     23  C   UNL     1     126.539 137.345 122.875  1.00  0.00     0.278 C 
ENDBRANCH   6  22
TORSDOF 5
ENDMDL
MODEL 5
REMARK VINA RESULT:    14.257     15.514     16.138
REMARK INTER + INTRA:          17.070
REMARK INTER:                  17.366
REMARK INTRA:                  -0.296
REMARK UNBOUND:                -0.521
REMARK SMILES COc1ccc(-c2cc3cc(O)c(OC)cc3o2)c(O)c1
REMARK SMILES IDX 7 1 8 2 9 3 10 4 11 5 13 6 16 7 17 8 18 9 6 10 3 11 21 12
REMARK SMILES IDX 4 13 19 14 5 15 2 16 1 17 20 18 12 20 14 22 15 23
REMARK H PARENT 20 19 12 21
REMARK Flexibility Score: inf
ROOT
ATOM      1  C   UNL     1     137.518 125.226 127.574  1.00  0.00     0.139 A 
ATOM      2  C   UNL     1     136.268 125.841 127.692  1.00  0.00     0.060 A 
ATOM      3  C   UNL     1     136.230 126.303 128.986  1.00  0.00     0.025 A 
ATOM      4  C   UNL     1     135.240 126.993 129.679  1.00  0.00     0.062 A 
ATOM      5  C   UNL     1     135.494 127.337 131.024  1.00  0.00     0.158 A 
ATOM      6  C   UNL     1     136.722 126.984 131.637  1.00  0.00     0.164 A 
ATOM      7  C   UNL     1     137.702 126.280 130.893  1.00  0.00     0.098 A 
ATOM      8  C   UNL     1     137.415 125.959 129.571  1.00  0.00     0.138 A 
ATOM      9  O   UNL     1     138.175 125.317 128.720  1.00  0.00    -0.456 OA
ENDROOT
BRANCH   1  10
ATOM     10  C   UNL     1     138.064 124.558 126.363  1.00  0.00     0.059 A 
ATOM     11  C   UNL     1     139.118 123.292 124.064  1.00  0.00     0.122 A 
ATOM     12  C   UNL     1     138.037 122.730 124.748  1.00  0.00     0.093 A 
ATOM     13  C   UNL     1     139.674 124.493 124.532  1.00  0.00     0.047 A 
ATOM     14  C   UNL     1     137.506 123.349 125.890  1.00  0.00     0.130 A 
ATOM     15  C   UNL     1     139.154 125.116 125.668  1.00  0.00     0.020 A 
BRANCH  11  16
ATOM     16  O   UNL     1     139.605 122.628 122.928  1.00  0.00    -0.497 OA
ATOM     17  C   UNL     1     140.838 121.917 122.879  1.00  0.00     0.278 C 
ENDBRANCH  11  16
BRANCH  14  18
ATOM     18  O   UNL     1     136.423 122.763 126.544  1.00  0.00    -0.507 OA
ATOM     19  H   UNL     1     136.264 121.763 126.522  1.00  0.00     0.293 HD
ENDBRANCH  14  18
ENDBRANCH   1  10
BRANCH   5  20
ATOM     20  O   UNL     1     134.533 128.029 131.759  1.00  0.00    -0.504 OA
ATOM     21  H   UNL     1     134.606 129.027 131.918  1.00  0.00     0.293 HD
ENDBRANCH   5  20
BRANCH   6  22
ATOM     22  O   UNL     1     136.927 127.349 132.977  1.00  0.00    -0.493 OA
ATOM     23  C   UNL     1     138.140 127.137 133.691  1.00  0.00     0.278 C 
ENDBRANCH   6  22
TORSDOF 5
ENDMDL
