MODEL 1
REMARK VINA RESULT:    -6.207      0.000      0.000
REMARK INTER + INTRA:          -7.783
REMARK INTER:                  -7.477
REMARK INTRA:                  -0.307
REMARK UNBOUND:                -0.307
REMARK SMILES O=c1c(O)c(-c2ccc(O)cc2O)oc2cc(O)cc(O)c12
REMARK SMILES IDX 5 1 3 2 2 3 1 4 22 5 20 6 19 7 17 8 16 9 15 10 14 11 6 12
REMARK SMILES IDX 8 13 7 14 9 15 11 16 12 17 10 18 13 20 4 22 21 24 18 26
REMARK H PARENT 10 19 13 21 4 23 21 25 18 27
REMARK Flexibility Score: inf
ROOT
ATOM      1  C   UNL     1      88.638  46.926  32.709  1.00  0.00     0.184 A 
ATOM      2  C   UNL     1      88.937  45.563  32.883  1.00  0.00     0.208 A 
ATOM      3  C   UNL     1      89.002  44.734  31.754  1.00  0.00     0.238 A 
ATOM      4  O   UNL     1      89.258  43.507  31.899  1.00  0.00    -0.285 OA
ATOM      5  C   UNL     1      88.786  45.283  30.473  1.00  0.00     0.111 A 
ATOM      6  C   UNL     1      88.836  44.518  29.283  1.00  0.00     0.134 A 
ATOM      7  C   UNL     1      88.619  45.140  28.045  1.00  0.00     0.093 A 
ATOM      8  C   UNL     1      88.354  46.513  27.974  1.00  0.00     0.123 A 
ATOM      9  C   UNL     1      88.303  47.272  29.145  1.00  0.00     0.094 A 
ATOM     10  C   UNL     1      88.514  46.670  30.388  1.00  0.00     0.146 A 
ATOM     11  O   UNL     1      88.456  47.415  31.487  1.00  0.00    -0.451 OA
ENDROOT
BRANCH   1  12
ATOM     12  C   UNL     1      88.543  47.853  33.857  1.00  0.00     0.063 A 
ATOM     13  C   UNL     1      87.159  49.237  35.298  1.00  0.00     0.047 A 
ATOM     14  C   UNL     1      87.285  48.363  34.216  1.00  0.00     0.020 A 
ATOM     15  C   UNL     1      88.283  49.602  36.043  1.00  0.00     0.119 A 
ATOM     16  C   UNL     1      89.539  49.080  35.707  1.00  0.00     0.093 A 
ATOM     17  C   UNL     1      89.673  48.197  34.625  1.00  0.00     0.130 A 
BRANCH  15  18
ATOM     18  O   UNL     1      88.143  50.478  37.117  1.00  0.00    -0.508 OA
ATOM     19  H   UNL     1      87.429  51.197  37.125  1.00  0.00     0.293 HD
ENDBRANCH  15  18
BRANCH  17  20
ATOM     20  O   UNL     1      90.921  47.645  34.330  1.00  0.00    -0.507 OA
ATOM     21  H   UNL     1      91.011  46.805  33.770  1.00  0.00     0.293 HD
ENDBRANCH  17  20
ENDBRANCH   1  12
BRANCH   2  22
ATOM     22  O   UNL     1      89.190  45.058  34.162  1.00  0.00    -0.502 OA
ATOM     23  H   UNL     1      89.196  44.066  34.361  1.00  0.00     0.293 HD
ENDBRANCH   2  22
BRANCH   6  24
ATOM     24  O   UNL     1      89.100  43.148  29.322  1.00  0.00    -0.507 OA
ATOM     25  H   UNL     1      89.178  42.596  28.475  1.00  0.00     0.293 HD
ENDBRANCH   6  24
BRANCH   8  26
ATOM     26  O   UNL     1      88.140  47.132  26.745  1.00  0.00    -0.508 OA
ATOM     27  H   UNL     1      88.679  47.941  26.458  1.00  0.00     0.293 HD
ENDBRANCH   8  26
TORSDOF 6
ENDMDL
MODEL 2
REMARK VINA RESULT:    -6.200      9.428     10.664
REMARK INTER + INTRA:          -7.775
REMARK INTER:                  -7.359
REMARK INTRA:                  -0.417
REMARK UNBOUND:                -0.307
REMARK SMILES O=c1c(O)c(-c2ccc(O)cc2O)oc2cc(O)cc(O)c12
REMARK SMILES IDX 5 1 3 2 2 3 1 4 22 5 20 6 19 7 17 8 16 9 15 10 14 11 6 12
REMARK SMILES IDX 8 13 7 14 9 15 11 16 12 17 10 18 13 20 4 22 21 24 18 26
REMARK H PARENT 10 19 13 21 4 23 21 25 18 27
REMARK Flexibility Score: inf
ROOT
ATOM      1  C   UNL     1      83.559  49.800  40.435  1.00  0.00     0.184 A 
ATOM      2  C   UNL     1      82.621  49.137  41.247  1.00  0.00     0.208 A 
ATOM      3  C   UNL     1      81.403  48.732  40.681  1.00  0.00     0.238 A 
ATOM      4  O   UNL     1      80.549  48.146  41.402  1.00  0.00    -0.285 OA
ATOM      5  C   UNL     1      81.152  48.978  39.316  1.00  0.00     0.111 A 
ATOM      6  C   UNL     1      79.952  48.599  38.667  1.00  0.00     0.134 A 
ATOM      7  C   UNL     1      79.782  48.871  37.302  1.00  0.00     0.093 A 
ATOM      8  C   UNL     1      80.789  49.514  36.573  1.00  0.00     0.123 A 
ATOM      9  C   UNL     1      81.975  49.891  37.208  1.00  0.00     0.094 A 
ATOM     10  C   UNL     1      82.162  49.630  38.568  1.00  0.00     0.146 A 
ATOM     11  O   UNL     1      83.298  50.002  39.148  1.00  0.00    -0.451 OA
ENDROOT
BRANCH   1  12
ATOM     12  C   UNL     1      84.856  50.265  40.969  1.00  0.00     0.063 A 
ATOM     13  C   UNL     1      87.214  49.828  41.366  1.00  0.00     0.047 A 
ATOM     14  C   UNL     1      85.972  49.418  40.876  1.00  0.00     0.020 A 
ATOM     15  C   UNL     1      87.361  51.091  41.942  1.00  0.00     0.119 A 
ATOM     16  C   UNL     1      86.260  51.953  42.019  1.00  0.00     0.093 A 
ATOM     17  C   UNL     1      85.010  51.552  41.524  1.00  0.00     0.130 A 
BRANCH  15  18
ATOM     18  O   UNL     1      88.605  51.485  42.431  1.00  0.00    -0.508 OA
ATOM     19  H   UNL     1      88.993  52.397  42.220  1.00  0.00     0.293 HD
ENDBRANCH  15  18
BRANCH  17  20
ATOM     20  O   UNL     1      83.932  52.437  41.561  1.00  0.00    -0.507 OA
ATOM     21  H   UNL     1      83.389  52.580  42.405  1.00  0.00     0.293 HD
ENDBRANCH  17  20
ENDBRANCH   1  12
BRANCH   2  22
ATOM     22  O   UNL     1      82.918  48.868  42.586  1.00  0.00    -0.502 OA
ATOM     23  H   UNL     1      83.230  49.587  43.226  1.00  0.00     0.293 HD
ENDBRANCH   2  22
BRANCH   6  24
ATOM     24  O   UNL     1      78.931  47.955  39.367  1.00  0.00    -0.507 OA
ATOM     25  H   UNL     1      79.129  47.268  40.087  1.00  0.00     0.293 HD
ENDBRANCH   6  24
BRANCH   8  26
ATOM     26  O   UNL     1      80.622  49.784  35.216  1.00  0.00    -0.508 OA
ATOM     27  H   UNL     1      81.326  49.527  34.535  1.00  0.00     0.293 HD
ENDBRANCH   8  26
TORSDOF 6
ENDMDL
MODEL 3
REMARK VINA RESULT:    -6.061      2.065      2.771
REMARK INTER + INTRA:          -7.608
REMARK INTER:                  -7.229
REMARK INTRA:                  -0.379
REMARK UNBOUND:                -0.307
REMARK SMILES O=c1c(O)c(-c2ccc(O)cc2O)oc2cc(O)cc(O)c12
REMARK SMILES IDX 5 1 3 2 2 3 1 4 22 5 20 6 19 7 17 8 16 9 15 10 14 11 6 12
REMARK SMILES IDX 8 13 7 14 9 15 11 16 12 17 10 18 13 20 4 22 21 24 18 26
REMARK H PARENT 10 19 13 21 4 23 21 25 18 27
REMARK Flexibility Score: inf
ROOT
ATOM      1  C   UNL     1      88.767  47.165  32.430  1.00  0.00     0.184 A 
ATOM      2  C   UNL     1      90.126  46.934  32.713  1.00  0.00     0.208 A 
ATOM      3  C   UNL     1      90.777  45.865  32.080  1.00  0.00     0.238 A 
ATOM      4  O   UNL     1      91.992  45.641  32.334  1.00  0.00    -0.285 OA
ATOM      5  C   UNL     1      90.068  45.061  31.164  1.00  0.00     0.111 A 
ATOM      6  C   UNL     1      90.650  43.966  30.480  1.00  0.00     0.134 A 
ATOM      7  C   UNL     1      89.880  43.220  29.576  1.00  0.00     0.093 A 
ATOM      8  C   UNL     1      88.539  43.548  29.342  1.00  0.00     0.123 A 
ATOM      9  C   UNL     1      87.960  44.626  30.014  1.00  0.00     0.094 A 
ATOM     10  C   UNL     1      88.710  45.381  30.920  1.00  0.00     0.146 A 
ATOM     11  O   UNL     1      88.133  46.399  31.549  1.00  0.00    -0.451 OA
ENDROOT
BRANCH   1  12
ATOM     12  C   UNL     1      88.018  48.266  33.070  1.00  0.00     0.063 A 
ATOM     13  C   UNL     1      87.112  49.258  35.096  1.00  0.00     0.047 A 
ATOM     14  C   UNL     1      87.812  48.231  34.458  1.00  0.00     0.020 A 
ATOM     15  C   UNL     1      86.621  50.338  34.360  1.00  0.00     0.119 A 
ATOM     16  C   UNL     1      86.841  50.395  32.977  1.00  0.00     0.093 A 
ATOM     17  C   UNL     1      87.548  49.371  32.330  1.00  0.00     0.130 A 
BRANCH  15  18
ATOM     18  O   UNL     1      85.921  51.353  35.008  1.00  0.00    -0.508 OA
ATOM     19  H   UNL     1      85.708  51.302  35.997  1.00  0.00     0.293 HD
ENDBRANCH  15  18
BRANCH  17  20
ATOM     20  O   UNL     1      87.804  49.462  30.961  1.00  0.00    -0.507 OA
ATOM     21  H   UNL     1      88.586  49.997  30.601  1.00  0.00     0.293 HD
ENDBRANCH  17  20
ENDBRANCH   1  12
BRANCH   2  22
ATOM     22  O   UNL     1      90.812  47.776  33.591  1.00  0.00    -0.502 OA
ATOM     23  H   UNL     1      90.491  47.952  34.535  1.00  0.00     0.293 HD
ENDBRANCH   2  22
BRANCH   6  24
ATOM     24  O   UNL     1      91.984  43.617  30.691  1.00  0.00    -0.507 OA
ATOM     25  H   UNL     1      92.689  43.744  29.973  1.00  0.00     0.293 HD
ENDBRANCH   6  24
BRANCH   8  26
ATOM     26  O   UNL     1      87.774  42.808  28.444  1.00  0.00    -0.508 OA
ATOM     27  H   UNL     1      86.778  42.968  28.340  1.00  0.00     0.293 HD
ENDBRANCH   8  26
TORSDOF 6
ENDMDL
MODEL 4
REMARK VINA RESULT:    -6.051      8.780     10.321
REMARK INTER + INTRA:          -7.596
REMARK INTER:                  -7.188
REMARK INTRA:                  -0.409
REMARK UNBOUND:                -0.307
REMARK SMILES O=c1c(O)c(-c2ccc(O)cc2O)oc2cc(O)cc(O)c12
REMARK SMILES IDX 5 1 3 2 2 3 1 4 22 5 20 6 19 7 17 8 16 9 15 10 14 11 6 12
REMARK SMILES IDX 8 13 7 14 9 15 11 16 12 17 10 18 13 20 4 22 21 24 18 26
REMARK H PARENT 10 19 13 21 4 23 21 25 18 27
REMARK Flexibility Score: inf
ROOT
ATOM      1  C   UNL     1      83.996  50.330  39.421  1.00  0.00     0.184 A 
ATOM      2  C   UNL     1      84.100  50.700  38.068  1.00  0.00     0.208 A 
ATOM      3  C   UNL     1      83.051  50.378  37.195  1.00  0.00     0.238 A 
ATOM      4  O   UNL     1      83.138  50.694  35.977  1.00  0.00    -0.285 OA
ATOM      5  C   UNL     1      81.912  49.711  37.691  1.00  0.00     0.111 A 
ATOM      6  C   UNL     1      80.808  49.352  36.879  1.00  0.00     0.134 A 
ATOM      7  C   UNL     1      79.707  48.698  37.450  1.00  0.00     0.093 A 
ATOM      8  C   UNL     1      79.687  48.397  38.817  1.00  0.00     0.123 A 
ATOM      9  C   UNL     1      80.773  48.748  39.622  1.00  0.00     0.094 A 
ATOM     10  C   UNL     1      81.881  49.398  39.071  1.00  0.00     0.146 A 
ATOM     11  O   UNL     1      82.902  49.717  39.859  1.00  0.00    -0.451 OA
ENDROOT
BRANCH   1  12
ATOM     12  C   UNL     1      85.070  50.629  40.392  1.00  0.00     0.063 A 
ATOM     13  C   UNL     1      87.120  49.935  41.497  1.00  0.00     0.047 A 
ATOM     14  C   UNL     1      86.088  49.683  40.591  1.00  0.00     0.020 A 
ATOM     15  C   UNL     1      87.157  51.139  42.205  1.00  0.00     0.119 A 
ATOM     16  C   UNL     1      86.158  52.099  41.997  1.00  0.00     0.093 A 
ATOM     17  C   UNL     1      85.121  51.856  41.084  1.00  0.00     0.130 A 
BRANCH  15  18
ATOM     18  O   UNL     1      88.190  51.375  43.109  1.00  0.00    -0.508 OA
ATOM     19  H   UNL     1      88.132  51.069  44.073  1.00  0.00     0.293 HD
ENDBRANCH  15  18
BRANCH  17  20
ATOM     20  O   UNL     1      84.159  52.839  40.848  1.00  0.00    -0.507 OA
ATOM     21  H   UNL     1      84.317  53.808  41.101  1.00  0.00     0.293 HD
ENDBRANCH  17  20
ENDBRANCH   1  12
BRANCH   2  22
ATOM     22  O   UNL     1      85.222  51.400  37.616  1.00  0.00    -0.502 OA
ATOM     23  H   UNL     1      85.552  52.244  38.068  1.00  0.00     0.293 HD
ENDBRANCH   2  22
BRANCH   6  24
ATOM     24  O   UNL     1      80.799  49.641  35.514  1.00  0.00    -0.507 OA
ATOM     25  H   UNL     1      80.870  50.592  35.169  1.00  0.00     0.293 HD
ENDBRANCH   6  24
BRANCH   8  26
ATOM     26  O   UNL     1      78.593  47.748  39.386  1.00  0.00    -0.508 OA
ATOM     27  H   UNL     1      77.651  48.106  39.278  1.00  0.00     0.293 HD
ENDBRANCH   8  26
TORSDOF 6
ENDMDL
MODEL 5
REMARK VINA RESULT:    -6.004      1.674      6.914
REMARK INTER + INTRA:          -7.539
REMARK INTER:                  -7.194
REMARK INTRA:                  -0.345
REMARK UNBOUND:                -0.307
REMARK SMILES O=c1c(O)c(-c2ccc(O)cc2O)oc2cc(O)cc(O)c12
REMARK SMILES IDX 5 1 3 2 2 3 1 4 22 5 20 6 19 7 17 8 16 9 15 10 14 11 6 12
REMARK SMILES IDX 8 13 7 14 9 15 11 16 12 17 10 18 13 20 4 22 21 24 18 26
REMARK H PARENT 10 19 13 21 4 23 21 25 18 27
REMARK Flexibility Score: inf
ROOT
ATOM      1  C   UNL     1      88.862  47.420  33.389  1.00  0.00     0.184 A 
ATOM      2  C   UNL     1      90.112  47.779  33.927  1.00  0.00     0.208 A 
ATOM      3  C   UNL     1      90.160  48.747  34.941  1.00  0.00     0.238 A 
ATOM      4  O   UNL     1      91.276  49.084  35.423  1.00  0.00    -0.285 OA
ATOM      5  C   UNL     1      88.963  49.324  35.411  1.00  0.00     0.111 A 
ATOM      6  C   UNL     1      88.924  50.304  36.432  1.00  0.00     0.134 A 
ATOM      7  C   UNL     1      87.691  50.823  36.852  1.00  0.00     0.093 A 
ATOM      8  C   UNL     1      86.496  50.381  36.272  1.00  0.00     0.123 A 
ATOM      9  C   UNL     1      86.529  49.415  35.264  1.00  0.00     0.094 A 
ATOM     10  C   UNL     1      87.749  48.887  34.830  1.00  0.00     0.146 A 
ATOM     11  O   UNL     1      87.751  47.972  33.867  1.00  0.00    -0.451 OA
ENDROOT
BRANCH   1  12
ATOM     12  C   UNL     1      88.740  46.416  32.312  1.00  0.00     0.063 A 
ATOM     13  C   UNL     1      89.044  44.123  31.567  1.00  0.00     0.047 A 
ATOM     14  C   UNL     1      89.150  45.097  32.562  1.00  0.00     0.020 A 
ATOM     15  C   UNL     1      88.514  44.448  30.317  1.00  0.00     0.119 A 
ATOM     16  C   UNL     1      88.080  45.756  30.064  1.00  0.00     0.093 A 
ATOM     17  C   UNL     1      88.178  46.740  31.059  1.00  0.00     0.130 A 
BRANCH  15  18
ATOM     18  O   UNL     1      88.418  43.467  29.333  1.00  0.00    -0.508 OA
ATOM     19  H   UNL     1      87.934  42.593  29.501  1.00  0.00     0.293 HD
ENDBRANCH  15  18
BRANCH  17  20
ATOM     20  O   UNL     1      87.698  48.027  30.814  1.00  0.00    -0.507 OA
ATOM     21  H   UNL     1      87.055  48.485  31.451  1.00  0.00     0.293 HD
ENDBRANCH  17  20
ENDBRANCH   1  12
BRANCH   2  22
ATOM     22  O   UNL     1      91.276  47.156  33.470  1.00  0.00    -0.502 OA
ATOM     23  H   UNL     1      91.467  46.175  33.636  1.00  0.00     0.293 HD
ENDBRANCH   2  22
BRANCH   6  24
ATOM     24  O   UNL     1      90.098  50.763  37.031  1.00  0.00    -0.507 OA
ATOM     25  H   UNL     1      90.739  51.380  36.544  1.00  0.00     0.293 HD
ENDBRANCH   6  24
BRANCH   8  26
ATOM     26  O   UNL     1      85.271  50.895  36.689  1.00  0.00    -0.508 OA
ATOM     27  H   UNL     1      85.081  51.891  36.672  1.00  0.00     0.293 HD
ENDBRANCH   8  26
TORSDOF 6
ENDMDL
MODEL 6
REMARK VINA RESULT:    -5.855      3.681      6.725
REMARK INTER + INTRA:          -7.360
REMARK INTER:                  -6.944
REMARK INTRA:                  -0.416
REMARK UNBOUND:                -0.307
REMARK SMILES O=c1c(O)c(-c2ccc(O)cc2O)oc2cc(O)cc(O)c12
REMARK SMILES IDX 5 1 3 2 2 3 1 4 22 5 20 6 19 7 17 8 16 9 15 10 14 11 6 12
REMARK SMILES IDX 8 13 7 14 9 15 11 16 12 17 10 18 13 20 4 22 21 24 18 26
REMARK H PARENT 10 19 13 21 4 23 21 25 18 27
REMARK Flexibility Score: inf
ROOT
ATOM      1  C   UNL     1      87.360  50.461  37.560  1.00  0.00     0.184 A 
ATOM      2  C   UNL     1      86.370  50.944  36.684  1.00  0.00     0.208 A 
ATOM      3  C   UNL     1      86.445  50.604  35.325  1.00  0.00     0.238 A 
ATOM      4  O   UNL     1      85.569  51.040  34.529  1.00  0.00    -0.285 OA
ATOM      5  C   UNL     1      87.491  49.776  34.870  1.00  0.00     0.111 A 
ATOM      6  C   UNL     1      87.637  49.384  33.517  1.00  0.00     0.134 A 
ATOM      7  C   UNL     1      88.700  48.549  33.144  1.00  0.00     0.093 A 
ATOM      8  C   UNL     1      89.620  48.098  34.099  1.00  0.00     0.123 A 
ATOM      9  C   UNL     1      89.482  48.482  35.434  1.00  0.00     0.094 A 
ATOM     10  C   UNL     1      88.429  49.315  35.824  1.00  0.00     0.146 A 
ATOM     11  O   UNL     1      88.323  49.669  37.101  1.00  0.00    -0.451 OA
ENDROOT
BRANCH   1  12
ATOM     12  C   UNL     1      87.349  50.789  39.001  1.00  0.00     0.063 A 
ATOM     13  C   UNL     1      86.712  50.176  41.265  1.00  0.00     0.047 A 
ATOM     14  C   UNL     1      86.736  49.899  39.896  1.00  0.00     0.020 A 
ATOM     15  C   UNL     1      87.310  51.338  41.758  1.00  0.00     0.119 A 
ATOM     16  C   UNL     1      87.945  52.222  40.875  1.00  0.00     0.093 A 
ATOM     17  C   UNL     1      87.979  51.948  39.500  1.00  0.00     0.130 A 
BRANCH  15  18
ATOM     18  O   UNL     1      87.275  51.604  43.125  1.00  0.00    -0.508 OA
ATOM     19  H   UNL     1      87.609  52.482  43.503  1.00  0.00     0.293 HD
ENDBRANCH  15  18
BRANCH  17  20
ATOM     20  O   UNL     1      88.656  52.810  38.637  1.00  0.00    -0.507 OA
ATOM     21  H   UNL     1      88.702  53.808  38.810  1.00  0.00     0.293 HD
ENDBRANCH  17  20
ENDBRANCH   1  12
BRANCH   2  22
ATOM     22  O   UNL     1      85.321  51.726  37.174  1.00  0.00    -0.502 OA
ATOM     23  H   UNL     1      84.837  52.403  36.599  1.00  0.00     0.293 HD
ENDBRANCH   2  22
BRANCH   6  24
ATOM     24  O   UNL     1      86.734  49.816  32.544  1.00  0.00    -0.507 OA
ATOM     25  H   UNL     1      86.976  50.540  31.877  1.00  0.00     0.293 HD
ENDBRANCH   6  24
BRANCH   8  26
ATOM     26  O   UNL     1      90.676  47.268  33.730  1.00  0.00    -0.508 OA
ATOM     27  H   UNL     1      90.748  46.887  32.793  1.00  0.00     0.293 HD
ENDBRANCH   8  26
TORSDOF 6
ENDMDL
MODEL 7
REMARK VINA RESULT:    -5.842      1.890      3.109
REMARK INTER + INTRA:          -7.344
REMARK INTER:                  -7.130
REMARK INTRA:                  -0.214
REMARK UNBOUND:                -0.307
REMARK SMILES O=c1c(O)c(-c2ccc(O)cc2O)oc2cc(O)cc(O)c12
REMARK SMILES IDX 5 1 3 2 2 3 1 4 22 5 20 6 19 7 17 8 16 9 15 10 14 11 6 12
REMARK SMILES IDX 8 13 7 14 9 15 11 16 12 17 10 18 13 20 4 22 21 24 18 26
REMARK H PARENT 10 19 13 21 4 23 21 25 18 27
REMARK Flexibility Score: inf
ROOT
ATOM      1  C   UNL     1      89.355  47.960  33.181  1.00  0.00     0.184 A 
ATOM      2  C   UNL     1      88.474  48.086  32.092  1.00  0.00     0.208 A 
ATOM      3  C   UNL     1      88.698  47.309  30.946  1.00  0.00     0.238 A 
ATOM      4  O   UNL     1      87.921  47.422  29.959  1.00  0.00    -0.285 OA
ATOM      5  C   UNL     1      89.783  46.409  30.915  1.00  0.00     0.111 A 
ATOM      6  C   UNL     1      90.077  45.586  29.801  1.00  0.00     0.134 A 
ATOM      7  C   UNL     1      91.170  44.709  29.852  1.00  0.00     0.093 A 
ATOM      8  C   UNL     1      91.973  44.637  30.996  1.00  0.00     0.123 A 
ATOM      9  C   UNL     1      91.688  45.446  32.098  1.00  0.00     0.094 A 
ATOM     10  C   UNL     1      90.604  46.329  32.065  1.00  0.00     0.146 A 
ATOM     11  O   UNL     1      90.358  47.090  33.126  1.00  0.00    -0.451 OA
ENDROOT
BRANCH   1  12
ATOM     12  C   UNL     1      89.184  48.756  34.414  1.00  0.00     0.063 A 
ATOM     13  C   UNL     1      87.743  49.490  36.229  1.00  0.00     0.047 A 
ATOM     14  C   UNL     1      87.937  48.752  35.059  1.00  0.00     0.020 A 
ATOM     15  C   UNL     1      88.793  50.229  36.777  1.00  0.00     0.119 A 
ATOM     16  C   UNL     1      90.048  50.222  36.154  1.00  0.00     0.093 A 
ATOM     17  C   UNL     1      90.253  49.479  34.982  1.00  0.00     0.130 A 
BRANCH  15  18
ATOM     18  O   UNL     1      88.584  50.964  37.942  1.00  0.00    -0.508 OA
ATOM     19  H   UNL     1      87.735  50.865  38.486  1.00  0.00     0.293 HD
ENDBRANCH  15  18
BRANCH  17  20
ATOM     20  O   UNL     1      91.520  49.440  34.398  1.00  0.00    -0.507 OA
ATOM     21  H   UNL     1      92.171  48.686  34.590  1.00  0.00     0.293 HD
ENDBRANCH  17  20
ENDBRANCH   1  12
BRANCH   2  22
ATOM     22  O   UNL     1      87.382  48.954  32.170  1.00  0.00    -0.502 OA
ATOM     23  H   UNL     1      86.774  48.988  32.979  1.00  0.00     0.293 HD
ENDBRANCH   2  22
BRANCH   6  24
ATOM     24  O   UNL     1      89.293  45.635  28.648  1.00  0.00    -0.507 OA
ATOM     25  H   UNL     1      89.530  46.237  27.867  1.00  0.00     0.293 HD
ENDBRANCH   6  24
BRANCH   8  26
ATOM     26  O   UNL     1      93.058  43.765  31.048  1.00  0.00    -0.508 OA
ATOM     27  H   UNL     1      92.959  42.782  30.823  1.00  0.00     0.293 HD
ENDBRANCH   8  26
TORSDOF 6
ENDMDL
MODEL 8
REMARK VINA RESULT:    -5.790      2.258      6.857
REMARK INTER + INTRA:          -7.281
REMARK INTER:                  -6.875
REMARK INTRA:                  -0.406
REMARK UNBOUND:                -0.307
REMARK SMILES O=c1c(O)c(-c2ccc(O)cc2O)oc2cc(O)cc(O)c12
REMARK SMILES IDX 5 1 3 2 2 3 1 4 22 5 20 6 19 7 17 8 16 9 15 10 14 11 6 12
REMARK SMILES IDX 8 13 7 14 9 15 11 16 12 17 10 18 13 20 4 22 21 24 18 26
REMARK H PARENT 10 19 13 21 4 23 21 25 18 27
REMARK Flexibility Score: inf
ROOT
ATOM      1  C   UNL     1      88.960  47.749  32.919  1.00  0.00     0.184 A 
ATOM      2  C   UNL     1      88.129  48.552  32.117  1.00  0.00     0.208 A 
ATOM      3  C   UNL     1      87.413  49.597  32.719  1.00  0.00     0.238 A 
ATOM      4  O   UNL     1      86.656  50.317  32.013  1.00  0.00    -0.285 OA
ATOM      5  C   UNL     1      87.553  49.832  34.103  1.00  0.00     0.111 A 
ATOM      6  C   UNL     1      86.870  50.867  34.787  1.00  0.00     0.134 A 
ATOM      7  C   UNL     1      87.071  51.042  36.163  1.00  0.00     0.093 A 
ATOM      8  C   UNL     1      87.943  50.204  36.869  1.00  0.00     0.123 A 
ATOM      9  C   UNL     1      88.619  49.182  36.199  1.00  0.00     0.094 A 
ATOM     10  C   UNL     1      88.430  48.990  34.828  1.00  0.00     0.146 A 
ATOM     11  O   UNL     1      89.083  48.007  34.216  1.00  0.00    -0.451 OA
ENDROOT
BRANCH   1  12
ATOM     12  C   UNL     1      89.733  46.624  32.351  1.00  0.00     0.063 A 
ATOM     13  C   UNL     1      89.746  44.410  31.349  1.00  0.00     0.047 A 
ATOM     14  C   UNL     1      89.046  45.489  31.895  1.00  0.00     0.020 A 
ATOM     15  C   UNL     1      91.137  44.457  31.239  1.00  0.00     0.119 A 
ATOM     16  C   UNL     1      91.831  45.595  31.670  1.00  0.00     0.093 A 
ATOM     17  C   UNL     1      91.135  46.685  32.215  1.00  0.00     0.130 A 
BRANCH  15  18
ATOM     18  O   UNL     1      91.822  43.372  30.696  1.00  0.00    -0.508 OA
ATOM     19  H   UNL     1      91.425  42.441  30.695  1.00  0.00     0.293 HD
ENDBRANCH  15  18
BRANCH  17  20
ATOM     20  O   UNL     1      91.832  47.833  32.595  1.00  0.00    -0.507 OA
ATOM     21  H   UNL     1      91.349  48.670  32.902  1.00  0.00     0.293 HD
ENDBRANCH  17  20
ENDBRANCH   1  12
BRANCH   2  22
ATOM     22  O   UNL     1      88.045  48.322  30.741  1.00  0.00    -0.502 OA
ATOM     23  H   UNL     1      87.420  48.845  30.142  1.00  0.00     0.293 HD
ENDBRANCH   2  22
BRANCH   6  24
ATOM     24  O   UNL     1      85.996  51.719  34.110  1.00  0.00    -0.507 OA
ATOM     25  H   UNL     1      86.091  52.727  34.157  1.00  0.00     0.293 HD
ENDBRANCH   6  24
BRANCH   8  26
ATOM     26  O   UNL     1      88.144  50.379  38.236  1.00  0.00    -0.508 OA
ATOM     27  H   UNL     1      87.610  49.855  38.921  1.00  0.00     0.293 HD
ENDBRANCH   8  26
TORSDOF 6
ENDMDL
MODEL 9
REMARK VINA RESULT:    -5.667      2.067      4.136
REMARK INTER + INTRA:          -7.133
REMARK INTER:                  -6.746
REMARK INTRA:                  -0.387
REMARK UNBOUND:                -0.307
REMARK SMILES O=c1c(O)c(-c2ccc(O)cc2O)oc2cc(O)cc(O)c12
REMARK SMILES IDX 5 1 3 2 2 3 1 4 22 5 20 6 19 7 17 8 16 9 15 10 14 11 6 12
REMARK SMILES IDX 8 13 7 14 9 15 11 16 12 17 10 18 13 20 4 22 21 24 18 26
REMARK H PARENT 10 19 13 21 4 23 21 25 18 27
REMARK Flexibility Score: inf
ROOT
ATOM      1  C   UNL     1      87.458  49.159  34.391  1.00  0.00     0.184 A 
ATOM      2  C   UNL     1      87.449  49.843  33.161  1.00  0.00     0.208 A 
ATOM      3  C   UNL     1      87.865  49.164  32.007  1.00  0.00     0.238 A 
ATOM      4  O   UNL     1      87.872  49.770  30.900  1.00  0.00    -0.285 OA
ATOM      5  C   UNL     1      88.264  47.814  32.097  1.00  0.00     0.111 A 
ATOM      6  C   UNL     1      88.694  47.056  30.981  1.00  0.00     0.134 A 
ATOM      7  C   UNL     1      89.065  45.715  31.151  1.00  0.00     0.093 A 
ATOM      8  C   UNL     1      89.013  45.116  32.415  1.00  0.00     0.123 A 
ATOM      9  C   UNL     1      88.591  45.859  33.520  1.00  0.00     0.094 A 
ATOM     10  C   UNL     1      88.218  47.198  33.370  1.00  0.00     0.146 A 
ATOM     11  O   UNL     1      87.824  47.883  34.439  1.00  0.00    -0.451 OA
ENDROOT
BRANCH   1  12
ATOM     12  C   UNL     1      87.043  49.818  35.648  1.00  0.00     0.063 A 
ATOM     13  C   UNL     1      85.272  50.805  36.987  1.00  0.00     0.047 A 
ATOM     14  C   UNL     1      85.698  50.186  35.810  1.00  0.00     0.020 A 
ATOM     15  C   UNL     1      86.178  51.052  38.021  1.00  0.00     0.119 A 
ATOM     16  C   UNL     1      87.517  50.667  37.879  1.00  0.00     0.093 A 
ATOM     17  C   UNL     1      87.953  50.039  36.702  1.00  0.00     0.130 A 
BRANCH  15  18
ATOM     18  O   UNL     1      85.739  51.674  39.188  1.00  0.00    -0.508 OA
ATOM     19  H   UNL     1      86.137  52.550  39.503  1.00  0.00     0.293 HD
ENDBRANCH  15  18
BRANCH  17  20
ATOM     20  O   UNL     1      89.278  49.615  36.591  1.00  0.00    -0.507 OA
ATOM     21  H   UNL     1      89.660  49.293  35.709  1.00  0.00     0.293 HD
ENDBRANCH  17  20
ENDBRANCH   1  12
BRANCH   2  22
ATOM     22  O   UNL     1      87.006  51.167  33.098  1.00  0.00    -0.502 OA
ATOM     23  H   UNL     1      87.617  51.930  32.837  1.00  0.00     0.293 HD
ENDBRANCH   2  22
BRANCH   6  24
ATOM     24  O   UNL     1      88.754  47.626  29.708  1.00  0.00    -0.507 OA
ATOM     25  H   UNL     1      89.394  47.283  29.000  1.00  0.00     0.293 HD
ENDBRANCH   6  24
BRANCH   8  26
ATOM     26  O   UNL     1      89.381  43.783  32.585  1.00  0.00    -0.508 OA
ATOM     27  H   UNL     1      90.297  43.448  32.310  1.00  0.00     0.293 HD
ENDBRANCH   8  26
TORSDOF 6
ENDMDL
