MODEL 1
REMARK VINA RESULT:    -4.306      0.000      0.000
REMARK INTER + INTRA:          -6.499
REMARK INTER:                  -6.572
REMARK INTRA:                   0.073
REMARK UNBOUND:                 0.073
REMARK SMILES CC1=CCC[C@@H](C)C(=O)C[C@@H](C(C)C)C(=O)C1
REMARK SMILES IDX 8 1 9 2 6 3 7 4 5 5 4 6 3 7 2 8 1 9 10 11 11 12 15 13 16 14
REMARK SMILES IDX 17 15 12 17 13 18 14 19
REMARK H PARENT
REMARK Flexibility Score: 70.00
ROOT
ATOM      1  C   UNL     1       4.260  19.455   6.748  1.00  0.00     0.136 C 
ATOM      2  O   UNL     1       3.529  18.484   6.642  1.00  0.00    -0.299 OA
ENDROOT
BRANCH   1   3
ATOM      3  C   UNL     1       5.694  19.339   6.257  1.00  0.00     0.053 C 
ATOM      4  C   UNL     1       6.426  18.267   7.078  1.00  0.00     0.016 C 
BRANCH   3   5
ATOM      5  C   UNL     1       6.425  20.710   6.356  1.00  0.00     0.015 C 
BRANCH   5   6
ATOM      6  C   UNL     1       6.739  21.428   5.019  1.00  0.00     0.028 C 
BRANCH   6   7
ATOM      7  C   UNL     1       6.156  20.818   3.765  1.00  0.00    -0.028 C 
ATOM      8  C   UNL     1       4.928  21.073   3.267  1.00  0.00    -0.070 CG0
ATOM      9  C   UNL     1       4.590  20.486   1.915  1.00  0.00     0.039 C 
ATOM     10  G   UNL     1       3.954  22.016   3.947  1.00  0.00     0.000 G0
ENDBRANCH   6   7
ENDBRANCH   5   6
ENDBRANCH   3   5
ENDBRANCH   1   3
BRANCH   1  11
ATOM     11  C   UNL     1       3.683  20.780   7.195  1.00  0.00     0.087 C 
BRANCH  11  12
ATOM     12  C   UNL     1       2.687  21.514   6.239  1.00  0.00     0.066 C 
BRANCH  12  13
ATOM     13  C   UNL     1       2.906  21.290   4.749  1.00  0.00     0.140 C 
ATOM     14  O   UNL     1       2.182  20.487   4.175  1.00  0.00    -0.299 OA
BRANCH  13  15
ATOM     15  C   UNL     1       3.947  22.013   3.932  1.00  0.00     0.106 CG0
ATOM     16  G   UNL     1       4.934  21.061   3.287  1.00  0.00     0.000 G0
ENDBRANCH  13  15
ENDBRANCH  12  13
BRANCH  12  17
ATOM     17  C   UNL     1       2.329  23.007   6.547  1.00  0.00    -0.006 C 
ATOM     18  C   UNL     1       3.538  23.960   6.629  1.00  0.00     0.008 C 
ATOM     19  C   UNL     1       1.392  23.177   7.753  1.00  0.00     0.008 C 
ENDBRANCH  12  17
ENDBRANCH  11  12
ENDBRANCH   1  11
TORSDOF 1
ENDMDL
MODEL 2
REMARK VINA RESULT:    -4.295      1.771      3.922
REMARK INTER + INTRA:          -6.483
REMARK INTER:                  -6.556
REMARK INTRA:                   0.073
REMARK UNBOUND:                 0.073
REMARK SMILES CC1=CCC[C@@H](C)C(=O)C[C@@H](C(C)C)C(=O)C1
REMARK SMILES IDX 8 1 9 2 6 3 7 4 5 5 4 6 3 7 2 8 1 9 10 11 11 12 15 13 16 14
REMARK SMILES IDX 17 15 12 17 13 18 14 19
REMARK H PARENT
REMARK Flexibility Score: 70.00
ROOT
ATOM      1  C   UNL     1       6.375  20.662   4.851  1.00  0.00     0.136 C 
ATOM      2  O   UNL     1       7.039  21.594   4.426  1.00  0.00    -0.299 OA
ENDROOT
BRANCH   1   3
ATOM      3  C   UNL     1       6.769  20.039   6.179  1.00  0.00     0.053 C 
ATOM      4  C   UNL     1       6.044  18.695   6.344  1.00  0.00     0.016 C 
BRANCH   3   5
ATOM      5  C   UNL     1       6.437  20.997   7.361  1.00  0.00     0.015 C 
BRANCH   5   6
ATOM      6  C   UNL     1       5.373  22.091   7.091  1.00  0.00     0.028 C 
BRANCH   6   7
ATOM      7  C   UNL     1       3.942  21.749   7.436  1.00  0.00    -0.028 C 
ATOM      8  C   UNL     1       2.864  22.022   6.670  1.00  0.00    -0.070 CG0
ATOM      9  C   UNL     1       1.535  21.456   7.114  1.00  0.00     0.039 C 
ATOM     10  G   UNL     1       2.973  22.746   5.342  1.00  0.00     0.000 G0
ENDBRANCH   6   7
ENDBRANCH   5   6
ENDBRANCH   3   5
ENDBRANCH   1   3
BRANCH   1  11
ATOM     11  C   UNL     1       5.094  20.273   4.144  1.00  0.00     0.087 C 
BRANCH  11  12
ATOM     12  C   UNL     1       4.268  21.398   3.439  1.00  0.00     0.066 C 
BRANCH  12  13
ATOM     13  C   UNL     1       2.998  21.839   4.152  1.00  0.00     0.140 C 
ATOM     14  O   UNL     1       1.929  21.400   3.749  1.00  0.00    -0.299 OA
BRANCH  13  15
ATOM     15  C   UNL     1       2.978  22.768   5.340  1.00  0.00     0.106 CG0
ATOM     16  G   UNL     1       2.858  22.019   6.652  1.00  0.00     0.000 G0
ENDBRANCH  13  15
ENDBRANCH  12  13
BRANCH  12  17
ATOM     17  C   UNL     1       4.049  21.294   1.891  1.00  0.00    -0.006 C 
ATOM     18  C   UNL     1       4.816  20.148   1.203  1.00  0.00     0.008 C 
ATOM     19  C   UNL     1       4.246  22.628   1.153  1.00  0.00     0.008 C 
ENDBRANCH  12  17
ENDBRANCH  11  12
ENDBRANCH   1  11
TORSDOF 1
ENDMDL
MODEL 3
REMARK VINA RESULT:    -4.201      1.526      3.742
REMARK INTER + INTRA:          -6.339
REMARK INTER:                  -6.070
REMARK INTRA:                  -0.269
REMARK UNBOUND:                 0.073
REMARK SMILES CC1=CCC[C@@H](C)C(=O)C[C@@H](C(C)C)C(=O)C1
REMARK SMILES IDX 8 1 9 2 6 3 7 4 5 5 4 6 3 7 2 8 1 9 10 11 11 12 15 13 16 14
REMARK SMILES IDX 17 15 12 17 13 18 14 19
REMARK H PARENT
REMARK Flexibility Score: 70.00
ROOT
ATOM      1  C   UNL     1       2.814  20.942   6.364  1.00  0.00     0.136 C 
ATOM      2  O   UNL     1       2.242  20.542   7.365  1.00  0.00    -0.299 OA
ENDROOT
BRANCH   1   3
ATOM      3  C   UNL     1       2.592  22.380   5.929  1.00  0.00     0.053 C 
ATOM      4  C   UNL     1       1.572  23.043   6.866  1.00  0.00     0.016 C 
BRANCH   3   5
ATOM      5  C   UNL     1       2.109  22.442   4.449  1.00  0.00     0.015 C 
BRANCH   5   6
ATOM      6  C   UNL     1       3.165  22.849   3.390  1.00  0.00     0.028 C 
BRANCH   6   7
ATOM      7  C   UNL     1       3.440  21.855   2.285  1.00  0.00    -0.028 C 
ATOM      8  C   UNL     1       4.602  21.196   2.095  1.00  0.00    -0.070 CG0
ATOM      9  C   UNL     1       4.627  20.123   1.031  1.00  0.00     0.039 C 
ATOM     10  G   UNL     1       5.810  21.404   2.988  1.00  0.00     0.000 G0
ENDBRANCH   6   7
ENDBRANCH   5   6
ENDBRANCH   3   5
ENDBRANCH   1   3
BRANCH   1  11
ATOM     11  C   UNL     1       3.849  20.064   5.695  1.00  0.00     0.087 C 
BRANCH  11  12
ATOM     12  C   UNL     1       5.288  20.641   5.491  1.00  0.00     0.066 C 
BRANCH  12  13
ATOM     13  C   UNL     1       5.909  20.416   4.120  1.00  0.00     0.140 C 
ATOM     14  O   UNL     1       6.496  19.360   3.920  1.00  0.00    -0.299 OA
BRANCH  13  15
ATOM     15  C   UNL     1       5.827  21.405   2.985  1.00  0.00     0.106 CG0
ATOM     16  G   UNL     1       4.595  21.195   2.127  1.00  0.00     0.000 G0
ENDBRANCH  13  15
ENDBRANCH  12  13
BRANCH  12  17
ATOM     17  C   UNL     1       6.337  20.433   6.636  1.00  0.00    -0.006 C 
ATOM     18  C   UNL     1       6.248  19.074   7.357  1.00  0.00     0.008 C 
ATOM     19  C   UNL     1       6.395  21.600   7.634  1.00  0.00     0.008 C 
ENDBRANCH  12  17
ENDBRANCH  11  12
ENDBRANCH   1  11
TORSDOF 1
ENDMDL
MODEL 4
REMARK VINA RESULT:    -4.096      1.430      1.588
REMARK INTER + INTRA:          -6.178
REMARK INTER:                  -6.259
REMARK INTRA:                   0.081
REMARK UNBOUND:                 0.073
REMARK SMILES CC1=CCC[C@@H](C)C(=O)C[C@@H](C(C)C)C(=O)C1
REMARK SMILES IDX 8 1 9 2 6 3 7 4 5 5 4 6 3 7 2 8 1 9 10 11 11 12 15 13 16 14
REMARK SMILES IDX 17 15 12 17 13 18 14 19
REMARK H PARENT
REMARK Flexibility Score: 70.00
ROOT
ATOM      1  C   UNL     1       5.581  21.460   6.929  1.00  0.00     0.136 C 
ATOM      2  O   UNL     1       6.495  21.811   7.657  1.00  0.00    -0.299 OA
ENDROOT
BRANCH   1   3
ATOM      3  C   UNL     1       5.535  20.012   6.472  1.00  0.00     0.053 C 
ATOM      4  C   UNL     1       6.041  19.106   7.604  1.00  0.00     0.016 C 
BRANCH   3   5
ATOM      5  C   UNL     1       6.382  19.812   5.180  1.00  0.00     0.015 C 
BRANCH   5   6
ATOM      6  C   UNL     1       6.299  20.934   4.114  1.00  0.00     0.028 C 
BRANCH   6   7
ATOM      7  C   UNL     1       5.407  20.676   2.922  1.00  0.00    -0.028 C 
ATOM      8  C   UNL     1       4.205  21.250   2.704  1.00  0.00    -0.070 CG0
ATOM      9  C   UNL     1       3.539  20.983   1.373  1.00  0.00     0.039 C 
ATOM     10  G   UNL     1       3.586  22.235   3.675  1.00  0.00     0.000 G0
ENDBRANCH   6   7
ENDBRANCH   5   6
ENDBRANCH   3   5
ENDBRANCH   1   3
BRANCH   1  11
ATOM     11  C   UNL     1       4.440  22.413   6.648  1.00  0.00     0.087 C 
BRANCH  11  12
ATOM     12  C   UNL     1       3.048  21.810   6.270  1.00  0.00     0.066 C 
BRANCH  12  13
ATOM     13  C   UNL     1       2.818  21.538   4.790  1.00  0.00     0.140 C 
ATOM     14  O   UNL     1       1.958  20.724   4.481  1.00  0.00    -0.299 OA
BRANCH  13  15
ATOM     15  C   UNL     1       3.571  22.228   3.681  1.00  0.00     0.106 CG0
ATOM     16  G   UNL     1       4.188  21.243   2.707  1.00  0.00     0.000 G0
ENDBRANCH  13  15
ENDBRANCH  12  13
BRANCH  12  17
ATOM     17  C   UNL     1       1.771  22.416   6.946  1.00  0.00    -0.006 C 
ATOM     18  C   UNL     1       1.899  23.893   7.366  1.00  0.00     0.008 C 
ATOM     19  C   UNL     1       1.211  21.551   8.087  1.00  0.00     0.008 C 
ENDBRANCH  12  17
ENDBRANCH  11  12
ENDBRANCH   1  11
TORSDOF 1
ENDMDL
MODEL 5
REMARK VINA RESULT:    -4.060      1.621      2.579
REMARK INTER + INTRA:          -6.123
REMARK INTER:                  -6.001
REMARK INTRA:                  -0.122
REMARK UNBOUND:                 0.073
REMARK SMILES CC1=CCC[C@@H](C)C(=O)C[C@@H](C(C)C)C(=O)C1
REMARK SMILES IDX 8 1 9 2 6 3 7 4 5 5 4 6 3 7 2 8 1 9 10 11 11 12 15 13 16 14
REMARK SMILES IDX 17 15 12 17 13 18 14 19
REMARK H PARENT
REMARK Flexibility Score: 70.00
ROOT
ATOM      1  C   UNL     1       5.301  19.163   7.007  1.00  0.00     0.136 C 
ATOM      2  O   UNL     1       5.389  17.946   6.976  1.00  0.00    -0.299 OA
ENDROOT
BRANCH   1   3
ATOM      3  C   UNL     1       6.497  19.987   6.563  1.00  0.00     0.053 C 
ATOM      4  C   UNL     1       6.322  21.435   7.044  1.00  0.00     0.016 C 
BRANCH   3   5
ATOM      5  C   UNL     1       6.664  19.932   5.016  1.00  0.00     0.015 C 
BRANCH   5   6
ATOM      6  C   UNL     1       6.340  21.231   4.235  1.00  0.00     0.028 C 
BRANCH   6   7
ATOM      7  C   UNL     1       5.157  21.185   3.296  1.00  0.00    -0.028 C 
ATOM      8  C   UNL     1       3.913  21.627   3.580  1.00  0.00    -0.070 CG0
ATOM      9  C   UNL     1       2.906  21.640   2.452  1.00  0.00     0.039 C 
ATOM     10  G   UNL     1       3.549  22.220   4.927  1.00  0.00     0.000 G0
ENDBRANCH   6   7
ENDBRANCH   5   6
ENDBRANCH   3   5
ENDBRANCH   1   3
BRANCH   1  11
ATOM     11  C   UNL     1       3.967  19.808   7.313  1.00  0.00     0.087 C 
BRANCH  11  12
ATOM     12  C   UNL     1       2.926  19.942   6.154  1.00  0.00     0.066 C 
BRANCH  12  13
ATOM     13  C   UNL     1       2.600  21.362   5.711  1.00  0.00     0.140 C 
ATOM     14  O   UNL     1       1.513  21.827   6.027  1.00  0.00    -0.299 OA
BRANCH  13  15
ATOM     15  C   UNL     1       3.544  22.238   4.928  1.00  0.00     0.106 CG0
ATOM     16  G   UNL     1       3.907  21.634   3.585  1.00  0.00     0.000 G0
ENDBRANCH  13  15
ENDBRANCH  12  13
BRANCH  12  17
ATOM     17  C   UNL     1       1.641  19.049   6.206  1.00  0.00    -0.006 C 
ATOM     18  C   UNL     1       1.833  17.675   6.879  1.00  0.00     0.008 C 
ATOM     19  C   UNL     1       0.928  18.920   4.851  1.00  0.00     0.008 C 
ENDBRANCH  12  17
ENDBRANCH  11  12
ENDBRANCH   1  11
TORSDOF 1
ENDMDL
MODEL 6
REMARK VINA RESULT:    -4.055      1.985      4.544
REMARK INTER + INTRA:          -6.115
REMARK INTER:                  -6.140
REMARK INTRA:                   0.025
REMARK UNBOUND:                 0.073
REMARK SMILES CC1=CCC[C@@H](C)C(=O)C[C@@H](C(C)C)C(=O)C1
REMARK SMILES IDX 8 1 9 2 6 3 7 4 5 5 4 6 3 7 2 8 1 9 10 11 11 12 15 13 16 14
REMARK SMILES IDX 17 15 12 17 13 18 14 19
REMARK H PARENT
REMARK Flexibility Score: 70.00
ROOT
ATOM      1  C   UNL     1       5.110  21.079   3.710  1.00  0.00     0.136 C 
ATOM      2  O   UNL     1       6.213  20.626   3.451  1.00  0.00    -0.299 OA
ENDROOT
BRANCH   1   3
ATOM      3  C   UNL     1       4.010  20.945   2.671  1.00  0.00     0.053 C 
ATOM      4  C   UNL     1       4.640  20.671   1.297  1.00  0.00     0.016 C 
BRANCH   3   5
ATOM      5  C   UNL     1       3.127  22.227   2.631  1.00  0.00     0.015 C 
BRANCH   5   6
ATOM      6  C   UNL     1       1.737  22.135   3.310  1.00  0.00     0.028 C 
BRANCH   6   7
ATOM      7  C   UNL     1       1.536  22.953   4.565  1.00  0.00    -0.028 C 
ATOM      8  C   UNL     1       1.569  22.475   5.826  1.00  0.00    -0.070 CG0
ATOM      9  C   UNL     1       1.506  23.481   6.953  1.00  0.00     0.039 C 
ATOM     10  G   UNL     1       1.798  21.008   6.134  1.00  0.00     0.000 G0
ENDBRANCH   6   7
ENDBRANCH   5   6
ENDBRANCH   3   5
ENDBRANCH   1   3
BRANCH   1  11
ATOM     11  C   UNL     1       4.822  21.596   5.103  1.00  0.00     0.087 C 
BRANCH  11  12
ATOM     12  C   UNL     1       4.441  20.561   6.212  1.00  0.00     0.066 C 
BRANCH  12  13
ATOM     13  C   UNL     1       3.091  20.771   6.884  1.00  0.00     0.140 C 
ATOM     14  O   UNL     1       3.051  20.771   8.107  1.00  0.00    -0.299 OA
BRANCH  13  15
ATOM     15  C   UNL     1       1.804  21.001   6.134  1.00  0.00     0.106 CG0
ATOM     16  G   UNL     1       1.575  22.468   5.821  1.00  0.00     0.000 G0
ENDBRANCH  13  15
ENDBRANCH  12  13
BRANCH  12  17
ATOM     17  C   UNL     1       5.540  20.151   7.250  1.00  0.00    -0.006 C 
ATOM     18  C   UNL     1       6.504  21.283   7.655  1.00  0.00     0.008 C 
ATOM     19  C   UNL     1       6.300  18.872   6.866  1.00  0.00     0.008 C 
ENDBRANCH  12  17
ENDBRANCH  11  12
ENDBRANCH   1  11
TORSDOF 1
ENDMDL
MODEL 7
REMARK VINA RESULT:    -3.949      1.886      4.053
REMARK INTER + INTRA:          -5.953
REMARK INTER:                  -5.789
REMARK INTRA:                  -0.164
REMARK UNBOUND:                 0.073
REMARK SMILES CC1=CCC[C@@H](C)C(=O)C[C@@H](C(C)C)C(=O)C1
REMARK SMILES IDX 8 1 9 2 6 3 7 4 5 5 4 6 3 7 2 8 1 9 10 11 11 12 15 13 16 14
REMARK SMILES IDX 17 15 12 17 13 18 14 19
REMARK H PARENT
REMARK Flexibility Score: 70.00
ROOT
ATOM      1  C   UNL     1       2.962  22.737   6.445  1.00  0.00     0.136 C 
ATOM      2  O   UNL     1       1.990  22.730   7.184  1.00  0.00    -0.299 OA
ENDROOT
BRANCH   1   3
ATOM      3  C   UNL     1       3.488  24.074   5.952  1.00  0.00     0.053 C 
ATOM      4  C   UNL     1       3.243  25.143   7.026  1.00  0.00     0.016 C 
BRANCH   3   5
ATOM      5  C   UNL     1       2.811  24.473   4.606  1.00  0.00     0.015 C 
BRANCH   5   6
ATOM      6  C   UNL     1       2.325  23.312   3.702  1.00  0.00     0.028 C 
BRANCH   6   7
ATOM      7  C   UNL     1       3.101  23.070   2.428  1.00  0.00    -0.028 C 
ATOM      8  C   UNL     1       3.902  22.010   2.187  1.00  0.00    -0.070 CG0
ATOM      9  C   UNL     1       4.464  21.867   0.791  1.00  0.00     0.039 C 
ATOM     10  G   UNL     1       4.136  20.918   3.213  1.00  0.00     0.000 G0
ENDBRANCH   6   7
ENDBRANCH   5   6
ENDBRANCH   3   5
ENDBRANCH   1   3
BRANCH   1  11
ATOM     11  C   UNL     1       3.711  21.448   6.185  1.00  0.00     0.087 C 
BRANCH  11  12
ATOM     12  C   UNL     1       5.155  21.539   5.592  1.00  0.00     0.066 C 
BRANCH  12  13
ATOM     13  C   UNL     1       5.297  21.166   4.123  1.00  0.00     0.140 C 
ATOM     14  O   UNL     1       6.427  21.059   3.663  1.00  0.00    -0.299 OA
BRANCH  13  15
ATOM     15  C   UNL     1       4.131  20.897   3.205  1.00  0.00     0.106 CG0
ATOM     16  G   UNL     1       3.915  22.019   2.208  1.00  0.00     0.000 G0
ENDBRANCH  13  15
ENDBRANCH  12  13
BRANCH  12  17
ATOM     17  C   UNL     1       6.342  20.974   6.444  1.00  0.00    -0.006 C 
ATOM     18  C   UNL     1       6.297  19.454   6.690  1.00  0.00     0.008 C 
ATOM     19  C   UNL     1       6.585  21.750   7.748  1.00  0.00     0.008 C 
ENDBRANCH  12  17
ENDBRANCH  11  12
ENDBRANCH   1  11
TORSDOF 1
ENDMDL
MODEL 8
REMARK VINA RESULT:    -3.659      2.117      4.711
REMARK INTER + INTRA:          -5.511
REMARK INTER:                  -5.550
REMARK INTRA:                   0.039
REMARK UNBOUND:                 0.073
REMARK SMILES CC1=CCC[C@@H](C)C(=O)C[C@@H](C(C)C)C(=O)C1
REMARK SMILES IDX 8 1 9 2 6 3 7 4 5 5 4 6 3 7 2 8 1 9 10 11 11 12 15 13 16 14
REMARK SMILES IDX 17 15 12 17 13 18 14 19
REMARK H PARENT
REMARK Flexibility Score: 70.00
ROOT
ATOM      1  C   UNL     1       3.080  23.824   6.412  1.00  0.00     0.136 C 
ATOM      2  O   UNL     1       3.319  24.463   5.400  1.00  0.00    -0.299 OA
ENDROOT
BRANCH   1   3
ATOM      3  C   UNL     1       1.640  23.733   6.888  1.00  0.00     0.053 C 
ATOM      4  C   UNL     1       1.129  25.140   7.232  1.00  0.00     0.016 C 
BRANCH   3   5
ATOM      5  C   UNL     1       1.522  22.783   8.117  1.00  0.00     0.015 C 
BRANCH   5   6
ATOM      6  C   UNL     1       1.469  21.263   7.818  1.00  0.00     0.028 C 
BRANCH   6   7
ATOM      7  C   UNL     1       1.050  20.858   6.424  1.00  0.00    -0.028 C 
ATOM      8  C   UNL     1       1.851  20.287   5.499  1.00  0.00    -0.070 CG0
ATOM      9  C   UNL     1       1.204  19.808   4.220  1.00  0.00     0.039 C 
ATOM     10  G   UNL     1       3.317  20.001   5.759  1.00  0.00     0.000 G0
ENDBRANCH   6   7
ENDBRANCH   5   6
ENDBRANCH   3   5
ENDBRANCH   1   3
BRANCH   1  11
ATOM     11  C   UNL     1       4.178  23.006   7.056  1.00  0.00     0.087 C 
BRANCH  11  12
ATOM     12  C   UNL     1       5.026  22.058   6.146  1.00  0.00     0.066 C 
BRANCH  12  13
ATOM     13  C   UNL     1       4.237  21.120   5.244  1.00  0.00     0.140 C 
ATOM     14  O   UNL     1       4.347  21.258   4.033  1.00  0.00    -0.299 OA
BRANCH  13  15
ATOM     15  C   UNL     1       3.345  20.015   5.751  1.00  0.00     0.106 CG0
ATOM     16  G   UNL     1       1.877  20.302   5.502  1.00  0.00     0.000 G0
ENDBRANCH  13  15
ENDBRANCH  12  13
BRANCH  12  17
ATOM     17  C   UNL     1       6.264  21.338   6.780  1.00  0.00    -0.006 C 
ATOM     18  C   UNL     1       7.018  20.389   5.828  1.00  0.00     0.008 C 
ATOM     19  C   UNL     1       5.959  20.663   8.126  1.00  0.00     0.008 C 
ENDBRANCH  12  17
ENDBRANCH  11  12
ENDBRANCH   1  11
TORSDOF 1
ENDMDL
MODEL 9
REMARK VINA RESULT:    -3.569      1.730      4.666
REMARK INTER + INTRA:          -5.374
REMARK INTER:                  -5.381
REMARK INTRA:                   0.006
REMARK UNBOUND:                 0.073
REMARK SMILES CC1=CCC[C@@H](C)C(=O)C[C@@H](C(C)C)C(=O)C1
REMARK SMILES IDX 8 1 9 2 6 3 7 4 5 5 4 6 3 7 2 8 1 9 10 11 11 12 15 13 16 14
REMARK SMILES IDX 17 15 12 17 13 18 14 19
REMARK H PARENT
REMARK Flexibility Score: 70.00
ROOT
ATOM      1  C   UNL     1       2.218  21.493   4.411  1.00  0.00     0.136 C 
ATOM      2  O   UNL     1       1.644  20.620   3.780  1.00  0.00    -0.299 OA
ENDROOT
BRANCH   1   3
ATOM      3  C   UNL     1       1.679  21.870   5.781  1.00  0.00     0.053 C 
ATOM      4  C   UNL     1       2.393  23.136   6.276  1.00  0.00     0.016 C 
BRANCH   3   5
ATOM      5  C   UNL     1       1.862  20.698   6.790  1.00  0.00     0.015 C 
BRANCH   5   6
ATOM      6  C   UNL     1       3.065  19.753   6.547  1.00  0.00     0.028 C 
BRANCH   6   7
ATOM      7  C   UNL     1       4.398  20.187   7.114  1.00  0.00    -0.028 C 
ATOM      8  C   UNL     1       5.581  20.127   6.468  1.00  0.00    -0.070 CG0
ATOM      9  C   UNL     1       6.776  20.758   7.147  1.00  0.00     0.039 C 
ATOM     10  G   UNL     1       5.713  19.578   5.061  1.00  0.00     0.000 G0
ENDBRANCH   6   7
ENDBRANCH   5   6
ENDBRANCH   3   5
ENDBRANCH   1   3
BRANCH   1  11
ATOM     11  C   UNL     1       3.531  22.043   3.900  1.00  0.00     0.087 C 
BRANCH  11  12
ATOM     12  C   UNL     1       4.523  21.059   3.198  1.00  0.00     0.066 C 
BRANCH  12  13
ATOM     13  C   UNL     1       5.747  20.655   4.009  1.00  0.00     0.140 C 
ATOM     14  O   UNL     1       6.797  21.249   3.801  1.00  0.00    -0.299 OA
BRANCH  13  15
ATOM     15  C   UNL     1       5.739  19.582   5.068  1.00  0.00     0.106 CG0
ATOM     16  G   UNL     1       5.581  20.153   6.463  1.00  0.00     0.000 G0
ENDBRANCH  13  15
ENDBRANCH  12  13
BRANCH  12  17
ATOM     17  C   UNL     1       4.891  21.324   1.699  1.00  0.00    -0.006 C 
ATOM     18  C   UNL     1       4.355  22.650   1.124  1.00  0.00     0.008 C 
ATOM     19  C   UNL     1       4.580  20.139   0.772  1.00  0.00     0.008 C 
ENDBRANCH  12  17
ENDBRANCH  11  12
ENDBRANCH   1  11
TORSDOF 1
ENDMDL
