MODEL 1
REMARK VINA RESULT:    -6.329      0.000      0.000
REMARK INTER + INTRA:          -7.115
REMARK INTER:                  -7.069
REMARK INTRA:                  -0.045
REMARK UNBOUND:                -0.045
REMARK SMILES COc1cc2ccc(=O)oc2c(O)c1O
REMARK SMILES IDX 3 1 14 2 12 3 11 4 5 5 4 6 6 7 7 8 8 9 9 10 10 11 2 12 1 13
REMARK SMILES IDX 15 14 13 16
REMARK H PARENT 15 15 13 17
REMARK Flexibility Score: inf
ROOT
ATOM      1  C   UNL     1      28.440  36.006  26.765  1.00  0.00     0.165 A 
ATOM      2  C   UNL     1      27.708  36.975  27.478  1.00  0.00     0.204 A 
ATOM      3  C   UNL     1      28.328  38.169  27.891  1.00  0.00     0.205 A 
ATOM      4  C   UNL     1      29.676  38.398  27.592  1.00  0.00     0.184 A 
ATOM      5  C   UNL     1      30.412  37.430  26.879  1.00  0.00     0.025 A 
ATOM      6  C   UNL     1      29.797  36.242  26.468  1.00  0.00     0.062 A 
ATOM      7  C   UNL     1      31.758  37.689  26.598  1.00  0.00     0.020 A 
ATOM      8  C   UNL     1      32.330  38.886  27.026  1.00  0.00     0.094 A 
ATOM      9  C   UNL     1      31.539  39.800  27.729  1.00  0.00     0.336 A 
ATOM     10  O   UNL     1      32.035  40.887  28.124  1.00  0.00    -0.246 OA
ATOM     11  O   UNL     1      30.262  39.529  27.983  1.00  0.00    -0.419 OA
ENDROOT
BRANCH   1  12
ATOM     12  O   UNL     1      27.790  34.825  26.369  1.00  0.00    -0.493 OA
ATOM     13  C   UNL     1      27.072  34.666  25.150  1.00  0.00     0.278 C 
ENDBRANCH   1  12
BRANCH   2  14
ATOM     14  O   UNL     1      26.363  36.764  27.784  1.00  0.00    -0.502 OA
ATOM     15  H   UNL     1      25.822  36.017  27.365  1.00  0.00     0.293 HD
ENDBRANCH   2  14
BRANCH   3  16
ATOM     16  O   UNL     1      27.615  39.140  28.598  1.00  0.00    -0.502 OA
ATOM     17  H   UNL     1      26.717  39.488  28.282  1.00  0.00     0.293 HD
ENDBRANCH   3  16
TORSDOF 3
ENDMDL
MODEL 2
REMARK VINA RESULT:    -6.115      1.750      2.707
REMARK INTER + INTRA:          -6.876
REMARK INTER:                  -6.811
REMARK INTRA:                  -0.064
REMARK UNBOUND:                -0.045
REMARK SMILES COc1cc2ccc(=O)oc2c(O)c1O
REMARK SMILES IDX 3 1 14 2 12 3 11 4 5 5 4 6 6 7 7 8 8 9 9 10 10 11 2 12 1 13
REMARK SMILES IDX 15 14 13 16
REMARK H PARENT 15 15 13 17
REMARK Flexibility Score: inf
ROOT
ATOM      1  C   UNL     1      27.389  37.491  27.117  1.00  0.00     0.165 A 
ATOM      2  C   UNL     1      28.097  37.289  25.916  1.00  0.00     0.204 A 
ATOM      3  C   UNL     1      29.388  37.823  25.756  1.00  0.00     0.205 A 
ATOM      4  C   UNL     1      29.976  38.558  26.792  1.00  0.00     0.184 A 
ATOM      5  C   UNL     1      29.270  38.763  27.996  1.00  0.00     0.025 A 
ATOM      6  C   UNL     1      27.985  38.232  28.156  1.00  0.00     0.062 A 
ATOM      7  C   UNL     1      29.885  39.503  29.011  1.00  0.00     0.020 A 
ATOM      8  C   UNL     1      31.166  40.013  28.809  1.00  0.00     0.094 A 
ATOM      9  C   UNL     1      31.806  39.770  27.589  1.00  0.00     0.336 A 
ATOM     10  O   UNL     1      32.963  40.221  27.385  1.00  0.00    -0.246 OA
ATOM     11  O   UNL     1      31.199  39.063  26.640  1.00  0.00    -0.419 OA
ENDROOT
BRANCH   1  12
ATOM     12  O   UNL     1      26.101  36.944  27.242  1.00  0.00    -0.493 OA
ATOM     13  C   UNL     1      24.894  37.643  26.953  1.00  0.00     0.278 C 
ENDBRANCH   1  12
BRANCH   2  14
ATOM     14  O   UNL     1      27.526  36.558  24.872  1.00  0.00    -0.502 OA
ATOM     15  H   UNL     1      27.322  36.969  23.969  1.00  0.00     0.293 HD
ENDBRANCH   2  14
BRANCH   3  16
ATOM     16  O   UNL     1      30.103  37.630  24.571  1.00  0.00    -0.502 OA
ATOM     17  H   UNL     1      29.703  37.827  23.661  1.00  0.00     0.293 HD
ENDBRANCH   3  16
TORSDOF 3
ENDMDL
MODEL 3
REMARK VINA RESULT:    -5.936      2.448      3.386
REMARK INTER + INTRA:          -6.676
REMARK INTER:                  -6.626
REMARK INTRA:                  -0.049
REMARK UNBOUND:                -0.045
REMARK SMILES COc1cc2ccc(=O)oc2c(O)c1O
REMARK SMILES IDX 3 1 14 2 12 3 11 4 5 5 4 6 6 7 7 8 8 9 9 10 10 11 2 12 1 13
REMARK SMILES IDX 15 14 13 16
REMARK H PARENT 15 15 13 17
REMARK Flexibility Score: inf
ROOT
ATOM      1  C   UNL     1      28.414  38.372  28.526  1.00  0.00     0.165 A 
ATOM      2  C   UNL     1      27.668  38.462  27.334  1.00  0.00     0.204 A 
ATOM      3  C   UNL     1      28.288  38.237  26.091  1.00  0.00     0.205 A 
ATOM      4  C   UNL     1      29.650  37.922  26.034  1.00  0.00     0.184 A 
ATOM      5  C   UNL     1      30.401  37.831  27.224  1.00  0.00     0.025 A 
ATOM      6  C   UNL     1      29.786  38.056  28.462  1.00  0.00     0.062 A 
ATOM      7  C   UNL     1      31.761  37.516  27.133  1.00  0.00     0.020 A 
ATOM      8  C   UNL     1      32.332  37.301  25.880  1.00  0.00     0.094 A 
ATOM      9  C   UNL     1      31.527  37.407  24.742  1.00  0.00     0.336 A 
ATOM     10  O   UNL     1      32.022  37.216  23.601  1.00  0.00    -0.246 OA
ATOM     11  O   UNL     1      30.236  37.709  24.857  1.00  0.00    -0.419 OA
ENDROOT
BRANCH   1  12
ATOM     12  O   UNL     1      27.764  38.604  29.748  1.00  0.00    -0.493 OA
ATOM     13  C   UNL     1      27.116  37.600  30.524  1.00  0.00     0.278 C 
ENDBRANCH   1  12
BRANCH   2  14
ATOM     14  O   UNL     1      26.308  38.775  27.372  1.00  0.00    -0.502 OA
ATOM     15  H   UNL     1      25.767  38.948  26.533  1.00  0.00     0.293 HD
ENDBRANCH   2  14
BRANCH   3  16
ATOM     16  O   UNL     1      27.560  38.321  24.901  1.00  0.00    -0.502 OA
ATOM     17  H   UNL     1      27.872  37.879  24.045  1.00  0.00     0.293 HD
ENDBRANCH   3  16
TORSDOF 3
ENDMDL
MODEL 4
REMARK VINA RESULT:    -5.928      1.969      4.901
REMARK INTER + INTRA:          -6.667
REMARK INTER:                  -6.598
REMARK INTRA:                  -0.069
REMARK UNBOUND:                -0.045
REMARK SMILES COc1cc2ccc(=O)oc2c(O)c1O
REMARK SMILES IDX 3 1 14 2 12 3 11 4 5 5 4 6 6 7 7 8 8 9 9 10 10 11 2 12 1 13
REMARK SMILES IDX 15 14 13 16
REMARK H PARENT 15 15 13 17
REMARK Flexibility Score: inf
ROOT
ATOM      1  C   UNL     1      30.629  39.107  27.970  1.00  0.00     0.165 A 
ATOM      2  C   UNL     1      29.852  39.234  29.138  1.00  0.00     0.204 A 
ATOM      3  C   UNL     1      28.483  38.909  29.117  1.00  0.00     0.205 A 
ATOM      4  C   UNL     1      27.888  38.456  27.933  1.00  0.00     0.184 A 
ATOM      5  C   UNL     1      28.663  38.328  26.762  1.00  0.00     0.025 A 
ATOM      6  C   UNL     1      30.025  38.652  26.782  1.00  0.00     0.062 A 
ATOM      7  C   UNL     1      28.038  37.874  25.596  1.00  0.00     0.020 A 
ATOM      8  C   UNL     1      26.679  37.563  25.622  1.00  0.00     0.094 A 
ATOM      9  C   UNL     1      25.974  37.715  26.820  1.00  0.00     0.336 A 
ATOM     10  O   UNL     1      24.747  37.440  26.866  1.00  0.00    -0.246 OA
ATOM     11  O   UNL     1      26.592  38.148  27.915  1.00  0.00    -0.419 OA
ENDROOT
BRANCH   1  12
ATOM     12  O   UNL     1      31.992  39.441  28.026  1.00  0.00    -0.493 OA
ATOM     13  C   UNL     1      32.537  40.689  27.607  1.00  0.00     0.278 C 
ENDBRANCH   1  12
BRANCH   2  14
ATOM     14  O   UNL     1      30.428  39.683  30.327  1.00  0.00    -0.502 OA
ATOM     15  H   UNL     1      29.887  40.124  31.060  1.00  0.00     0.293 HD
ENDBRANCH   2  14
BRANCH   3  16
ATOM     16  O   UNL     1      27.700  39.029  30.267  1.00  0.00    -0.502 OA
ATOM     17  H   UNL     1      26.968  39.725  30.352  1.00  0.00     0.293 HD
ENDBRANCH   3  16
TORSDOF 3
ENDMDL
MODEL 5
REMARK VINA RESULT:    -5.787      2.504      3.429
REMARK INTER + INTRA:          -6.509
REMARK INTER:                  -6.459
REMARK INTRA:                  -0.051
REMARK UNBOUND:                -0.045
REMARK SMILES COc1cc2ccc(=O)oc2c(O)c1O
REMARK SMILES IDX 3 1 14 2 12 3 11 4 5 5 4 6 6 7 7 8 8 9 9 10 10 11 2 12 1 13
REMARK SMILES IDX 15 14 13 16
REMARK H PARENT 15 15 13 17
REMARK Flexibility Score: inf
ROOT
ATOM      1  C   UNL     1      28.491  38.579  25.417  1.00  0.00     0.165 A 
ATOM      2  C   UNL     1      27.763  37.487  25.928  1.00  0.00     0.204 A 
ATOM      3  C   UNL     1      28.393  36.540  26.756  1.00  0.00     0.205 A 
ATOM      4  C   UNL     1      29.748  36.680  27.075  1.00  0.00     0.184 A 
ATOM      5  C   UNL     1      30.482  37.771  26.565  1.00  0.00     0.025 A 
ATOM      6  C   UNL     1      29.856  38.714  25.741  1.00  0.00     0.062 A 
ATOM      7  C   UNL     1      31.835  37.881  26.902  1.00  0.00     0.020 A 
ATOM      8  C   UNL     1      32.417  36.919  27.726  1.00  0.00     0.094 A 
ATOM      9  C   UNL     1      31.628  35.864  28.195  1.00  0.00     0.336 A 
ATOM     10  O   UNL     1      32.134  34.984  28.940  1.00  0.00    -0.246 OA
ATOM     11  O   UNL     1      30.344  35.782  27.859  1.00  0.00    -0.419 OA
ENDROOT
BRANCH   1  12
ATOM     12  O   UNL     1      27.832  39.505  24.593  1.00  0.00    -0.493 OA
ATOM     13  C   UNL     1      27.152  40.665  25.062  1.00  0.00     0.278 C 
ENDBRANCH   1  12
BRANCH   2  14
ATOM     14  O   UNL     1      26.410  37.332  25.620  1.00  0.00    -0.502 OA
ATOM     15  H   UNL     1      25.940  37.908  24.932  1.00  0.00     0.293 HD
ENDBRANCH   2  14
BRANCH   3  16
ATOM     16  O   UNL     1      27.683  35.452  27.271  1.00  0.00    -0.502 OA
ATOM     17  H   UNL     1      26.854  35.086  26.818  1.00  0.00     0.293 HD
ENDBRANCH   3  16
TORSDOF 3
ENDMDL
MODEL 6
REMARK VINA RESULT:    -5.750      2.324      3.378
REMARK INTER + INTRA:          -6.468
REMARK INTER:                  -6.414
REMARK INTRA:                  -0.054
REMARK UNBOUND:                -0.045
REMARK SMILES COc1cc2ccc(=O)oc2c(O)c1O
REMARK SMILES IDX 3 1 14 2 12 3 11 4 5 5 4 6 6 7 7 8 8 9 9 10 10 11 2 12 1 13
REMARK SMILES IDX 15 14 13 16
REMARK H PARENT 15 15 13 17
REMARK Flexibility Score: inf
ROOT
ATOM      1  C   UNL     1      27.040  36.834  26.433  1.00  0.00     0.165 A 
ATOM      2  C   UNL     1      27.534  35.583  26.013  1.00  0.00     0.204 A 
ATOM      3  C   UNL     1      28.843  35.190  26.347  1.00  0.00     0.205 A 
ATOM      4  C   UNL     1      29.660  36.042  27.099  1.00  0.00     0.184 A 
ATOM      5  C   UNL     1      29.170  37.295  27.521  1.00  0.00     0.025 A 
ATOM      6  C   UNL     1      27.868  37.687  27.189  1.00  0.00     0.062 A 
ATOM      7  C   UNL     1      30.012  38.123  28.270  1.00  0.00     0.020 A 
ATOM      8  C   UNL     1      31.302  37.692  28.577  1.00  0.00     0.094 A 
ATOM      9  C   UNL     1      31.720  36.436  28.126  1.00  0.00     0.336 A 
ATOM     10  O   UNL     1      32.880  36.027  28.392  1.00  0.00    -0.246 OA
ATOM     11  O   UNL     1      30.900  35.669  27.415  1.00  0.00    -0.419 OA
ENDROOT
BRANCH   1  12
ATOM     12  O   UNL     1      25.730  37.195  26.081  1.00  0.00    -0.493 OA
ATOM     13  C   UNL     1      24.819  37.875  26.940  1.00  0.00     0.278 C 
ENDBRANCH   1  12
BRANCH   2  14
ATOM     14  O   UNL     1      26.733  34.721  25.262  1.00  0.00    -0.502 OA
ATOM     15  H   UNL     1      26.140  34.021  25.690  1.00  0.00     0.293 HD
ENDBRANCH   2  14
BRANCH   3  16
ATOM     16  O   UNL     1      29.346  33.953  25.938  1.00  0.00    -0.502 OA
ATOM     17  H   UNL     1      29.338  33.660  24.968  1.00  0.00     0.293 HD
ENDBRANCH   3  16
TORSDOF 3
ENDMDL
MODEL 7
REMARK VINA RESULT:    -5.661      2.050      3.120
REMARK INTER + INTRA:          -6.368
REMARK INTER:                  -6.317
REMARK INTRA:                  -0.051
REMARK UNBOUND:                -0.045
REMARK SMILES COc1cc2ccc(=O)oc2c(O)c1O
REMARK SMILES IDX 3 1 14 2 12 3 11 4 5 5 4 6 6 7 7 8 8 9 9 10 10 11 2 12 1 13
REMARK SMILES IDX 15 14 13 16
REMARK H PARENT 15 15 13 17
REMARK Flexibility Score: inf
ROOT
ATOM      1  C   UNL     1      27.318  37.578  26.619  1.00  0.00     0.165 A 
ATOM      2  C   UNL     1      28.066  38.704  27.019  1.00  0.00     0.204 A 
ATOM      3  C   UNL     1      29.369  38.547  27.524  1.00  0.00     0.205 A 
ATOM      4  C   UNL     1      29.929  37.269  27.632  1.00  0.00     0.184 A 
ATOM      5  C   UNL     1      29.185  36.139  27.234  1.00  0.00     0.025 A 
ATOM      6  C   UNL     1      27.888  36.294  26.731  1.00  0.00     0.062 A 
ATOM      7  C   UNL     1      29.773  34.876  27.356  1.00  0.00     0.020 A 
ATOM      8  C   UNL     1      31.067  34.768  27.862  1.00  0.00     0.094 A 
ATOM      9  C   UNL     1      31.746  35.932  28.236  1.00  0.00     0.336 A 
ATOM     10  O   UNL     1      32.916  35.857  28.696  1.00  0.00    -0.246 OA
ATOM     11  O   UNL     1      31.163  37.121  28.111  1.00  0.00    -0.419 OA
ENDROOT
BRANCH   1  12
ATOM     12  O   UNL     1      26.020  37.772  26.120  1.00  0.00    -0.493 OA
ATOM     13  C   UNL     1      24.841  37.796  26.919  1.00  0.00     0.278 C 
ENDBRANCH   1  12
BRANCH   2  14
ATOM     14  O   UNL     1      27.523  39.986  26.918  1.00  0.00    -0.502 OA
ATOM     15  H   UNL     1      27.622  40.677  27.651  1.00  0.00     0.293 HD
ENDBRANCH   2  14
BRANCH   3  16
ATOM     16  O   UNL     1      30.122  39.654  27.923  1.00  0.00    -0.502 OA
ATOM     17  H   UNL     1      30.441  39.774  28.877  1.00  0.00     0.293 HD
ENDBRANCH   3  16
TORSDOF 3
ENDMDL
MODEL 8
REMARK VINA RESULT:    -5.660      2.743      4.802
REMARK INTER + INTRA:          -6.367
REMARK INTER:                  -6.326
REMARK INTRA:                  -0.041
REMARK UNBOUND:                -0.045
REMARK SMILES COc1cc2ccc(=O)oc2c(O)c1O
REMARK SMILES IDX 3 1 14 2 12 3 11 4 5 5 4 6 6 7 7 8 8 9 9 10 10 11 2 12 1 13
REMARK SMILES IDX 15 14 13 16
REMARK H PARENT 15 15 13 17
REMARK Flexibility Score: inf
ROOT
ATOM      1  C   UNL     1      30.566  37.810  25.111  1.00  0.00     0.165 A 
ATOM      2  C   UNL     1      29.770  38.709  24.374  1.00  0.00     0.204 A 
ATOM      3  C   UNL     1      28.413  38.886  24.700  1.00  0.00     0.205 A 
ATOM      4  C   UNL     1      27.848  38.168  25.760  1.00  0.00     0.184 A 
ATOM      5  C   UNL     1      28.640  37.267  26.500  1.00  0.00     0.025 A 
ATOM      6  C   UNL     1      29.991  37.090  26.177  1.00  0.00     0.062 A 
ATOM      7  C   UNL     1      28.045  36.564  27.553  1.00  0.00     0.020 A 
ATOM      8  C   UNL     1      26.697  36.772  27.840  1.00  0.00     0.094 A 
ATOM      9  C   UNL     1      25.972  37.681  27.064  1.00  0.00     0.336 A 
ATOM     10  O   UNL     1      24.754  37.884  27.305  1.00  0.00    -0.246 OA
ATOM     11  O   UNL     1      26.563  38.337  26.068  1.00  0.00    -0.419 OA
ENDROOT
BRANCH   1  12
ATOM     12  O   UNL     1      31.917  37.657  24.758  1.00  0.00    -0.493 OA
ATOM     13  C   UNL     1      32.398  36.745  23.776  1.00  0.00     0.278 C 
ENDBRANCH   1  12
BRANCH   2  14
ATOM     14  O   UNL     1      30.318  39.434  23.314  1.00  0.00    -0.502 OA
ATOM     15  H   UNL     1      31.058  39.065  22.729  1.00  0.00     0.293 HD
ENDBRANCH   2  14
BRANCH   3  16
ATOM     16  O   UNL     1      27.613  39.775  23.978  1.00  0.00    -0.502 OA
ATOM     17  H   UNL     1      27.875  40.115  23.061  1.00  0.00     0.293 HD
ENDBRANCH   3  16
TORSDOF 3
ENDMDL
MODEL 9
REMARK VINA RESULT:    -5.498      1.859      2.195
REMARK INTER + INTRA:          -6.187
REMARK INTER:                  -6.125
REMARK INTRA:                  -0.061
REMARK UNBOUND:                -0.045
REMARK SMILES COc1cc2ccc(=O)oc2c(O)c1O
REMARK SMILES IDX 3 1 14 2 12 3 11 4 5 5 4 6 6 7 7 8 8 9 9 10 10 11 2 12 1 13
REMARK SMILES IDX 15 14 13 16
REMARK H PARENT 15 15 13 17
REMARK Flexibility Score: inf
ROOT
ATOM      1  C   UNL     1      27.483  37.768  27.960  1.00  0.00     0.165 A 
ATOM      2  C   UNL     1      27.897  38.166  29.247  1.00  0.00     0.204 A 
ATOM      3  C   UNL     1      29.142  38.797  29.428  1.00  0.00     0.205 A 
ATOM      4  C   UNL     1      29.974  39.032  28.327  1.00  0.00     0.184 A 
ATOM      5  C   UNL     1      29.564  38.636  27.038  1.00  0.00     0.025 A 
ATOM      6  C   UNL     1      28.326  38.008  26.857  1.00  0.00     0.062 A 
ATOM      7  C   UNL     1      30.420  38.885  25.960  1.00  0.00     0.020 A 
ATOM      8  C   UNL     1      31.643  39.513  26.187  1.00  0.00     0.094 A 
ATOM      9  C   UNL     1      31.984  39.879  27.492  1.00  0.00     0.336 A 
ATOM     10  O   UNL     1      33.084  40.448  27.720  1.00  0.00    -0.246 OA
ATOM     11  O   UNL     1      31.152  39.630  28.500  1.00  0.00    -0.419 OA
ENDROOT
BRANCH   1  12
ATOM     12  O   UNL     1      26.236  37.140  27.816  1.00  0.00    -0.493 OA
ATOM     13  C   UNL     1      25.185  37.610  26.977  1.00  0.00     0.278 C 
ENDBRANCH   1  12
BRANCH   2  14
ATOM     14  O   UNL     1      27.079  37.939  30.355  1.00  0.00    -0.502 OA
ATOM     15  H   UNL     1      26.921  38.642  31.066  1.00  0.00     0.293 HD
ENDBRANCH   2  14
BRANCH   3  16
ATOM     16  O   UNL     1      29.564  39.197  30.697  1.00  0.00    -0.502 OA
ATOM     17  H   UNL     1      29.542  40.165  30.994  1.00  0.00     0.293 HD
ENDBRANCH   3  16
TORSDOF 3
ENDMDL
