MODEL 1
REMARK VINA RESULT:    -3.662      0.000      0.000
REMARK INTER + INTRA:          -9.403
REMARK INTER:                  -6.659
REMARK INTRA:                  -2.744
REMARK UNBOUND:                -2.744
REMARK SMILES CCCCCCCCCCCCCC[C@@H](C)C(=O)[O-]
REMARK SMILES IDX 9 1 10 2 11 3 12 4 13 5 14 6 15 7 16 8 17 9 18 10 19 11 8 12
REMARK SMILES IDX 7 13 6 14 5 15 4 16 3 17 2 18 1 19
REMARK H PARENT
REMARK Flexibility Score: inf
ROOT
ATOM      1  C   UNL     1      18.579  -0.167  56.777  1.00  0.00     0.000 C 
ENDROOT
BRANCH   1   2
ATOM      2  C   UNL     1      18.875  -0.210  58.292  1.00  0.00     0.000 C 
BRANCH   2   3
ATOM      3  C   UNL     1      18.932   1.197  58.914  1.00  0.00     0.000 C 
BRANCH   3   4
ATOM      4  C   UNL     1      18.747   1.181  60.441  1.00  0.00     0.000 C 
BRANCH   4   5
ATOM      5  C   UNL     1      18.364  -0.188  61.039  1.00  0.00     0.001 C 
BRANCH   5   6
ATOM      6  C   UNL     1      16.988  -0.239  61.735  1.00  0.00     0.009 C 
BRANCH   6   7
ATOM      7  C   UNL     1      16.374  -1.654  61.827  1.00  0.00     0.032 C 
ATOM      8  C   UNL     1      16.023  -2.179  60.431  1.00  0.00     0.014 C 
BRANCH   7   9
ATOM      9  C   UNL     1      17.302  -2.615  62.521  1.00  0.00     0.044 C 
ATOM     10  O   UNL     1      17.764  -3.613  61.907  1.00  0.00    -0.550 OA
ATOM     11  O   UNL     1      17.664  -2.396  63.844  1.00  0.00    -0.550 OA
ENDBRANCH   7   9
ENDBRANCH   6   7
ENDBRANCH   5   6
ENDBRANCH   4   5
ENDBRANCH   3   4
ENDBRANCH   2   3
ENDBRANCH   1   2
BRANCH   1  12
ATOM     12  C   UNL     1      17.143   0.278  56.439  1.00  0.00     0.000 C 
BRANCH  12  13
ATOM     13  C   UNL     1      16.046  -0.382  57.291  1.00  0.00    -0.000 C 
BRANCH  13  14
ATOM     14  C   UNL     1      14.876   0.567  57.591  1.00  0.00    -0.000 C 
BRANCH  14  15
ATOM     15  C   UNL     1      14.989   1.147  59.008  1.00  0.00    -0.000 C 
BRANCH  15  16
ATOM     16  C   UNL     1      15.603   2.556  59.031  1.00  0.00    -0.000 C 
BRANCH  16  17
ATOM     17  C   UNL     1      15.420   3.334  57.712  1.00  0.00    -0.000 C 
BRANCH  17  18
ATOM     18  C   UNL     1      16.734   3.957  57.216  1.00  0.00    -0.003 C 
ATOM     19  C   UNL     1      16.855   3.851  55.699  1.00  0.00     0.004 C 
ENDBRANCH  17  18
ENDBRANCH  16  17
ENDBRANCH  15  16
ENDBRANCH  14  15
ENDBRANCH  13  14
ENDBRANCH  12  13
ENDBRANCH   1  12
TORSDOF 14
ENDMDL
MODEL 2
REMARK VINA RESULT:    -3.661      9.871     12.346
REMARK INTER + INTRA:          -9.402
REMARK INTER:                  -6.726
REMARK INTRA:                  -2.676
REMARK UNBOUND:                -2.744
REMARK SMILES CCCCCCCCCCCCCC[C@@H](C)C(=O)[O-]
REMARK SMILES IDX 9 1 10 2 11 3 12 4 13 5 14 6 15 7 16 8 17 9 18 10 19 11 8 12
REMARK SMILES IDX 7 13 6 14 5 15 4 16 3 17 2 18 1 19
REMARK H PARENT
REMARK Flexibility Score: inf
ROOT
ATOM      1  C   UNL     1      26.350  -1.854  52.404  1.00  0.00     0.000 C 
ENDROOT
BRANCH   1   2
ATOM      2  C   UNL     1      26.341  -2.361  53.862  1.00  0.00     0.000 C 
BRANCH   2   3
ATOM      3  C   UNL     1      24.914  -2.569  54.398  1.00  0.00     0.000 C 
BRANCH   3   4
ATOM      4  C   UNL     1      24.674  -3.997  54.917  1.00  0.00     0.000 C 
BRANCH   4   5
ATOM      5  C   UNL     1      25.952  -4.808  55.212  1.00  0.00     0.001 C 
BRANCH   5   6
ATOM      6  C   UNL     1      25.828  -5.837  56.354  1.00  0.00     0.009 C 
BRANCH   6   7
ATOM      7  C   UNL     1      26.394  -5.356  57.709  1.00  0.00     0.032 C 
ATOM      8  C   UNL     1      27.245  -4.096  57.519  1.00  0.00     0.014 C 
BRANCH   7   9
ATOM      9  C   UNL     1      25.294  -5.089  58.703  1.00  0.00     0.044 C 
ATOM     10  O   UNL     1      24.096  -5.013  58.326  1.00  0.00    -0.550 OA
ATOM     11  O   UNL     1      25.599  -4.937  60.050  1.00  0.00    -0.550 OA
ENDBRANCH   7   9
ENDBRANCH   6   7
ENDBRANCH   5   6
ENDBRANCH   4   5
ENDBRANCH   3   4
ENDBRANCH   2   3
ENDBRANCH   1   2
BRANCH   1  12
ATOM     12  C   UNL     1      26.783  -2.920  51.379  1.00  0.00     0.000 C 
BRANCH  12  13
ATOM     13  C   UNL     1      25.861  -4.147  51.298  1.00  0.00    -0.000 C 
BRANCH  13  14
ATOM     14  C   UNL     1      26.559  -5.444  51.733  1.00  0.00    -0.000 C 
BRANCH  14  15
ATOM     15  C   UNL     1      28.077  -5.241  51.838  1.00  0.00    -0.000 C 
BRANCH  15  16
ATOM     16  C   UNL     1      28.662  -5.766  53.160  1.00  0.00    -0.000 C 
BRANCH  16  17
ATOM     17  C   UNL     1      29.369  -4.682  53.999  1.00  0.00    -0.000 C 
BRANCH  17  18
ATOM     18  C   UNL     1      29.925  -5.239  55.318  1.00  0.00    -0.003 C 
ATOM     19  C   UNL     1      29.541  -6.704  55.504  1.00  0.00     0.004 C 
ENDBRANCH  17  18
ENDBRANCH  16  17
ENDBRANCH  15  16
ENDBRANCH  14  15
ENDBRANCH  13  14
ENDBRANCH  12  13
ENDBRANCH   1  12
TORSDOF 14
ENDMDL
MODEL 3
REMARK VINA RESULT:    -3.630      3.065      4.739
REMARK INTER + INTRA:          -9.345
REMARK INTER:                  -7.272
REMARK INTRA:                  -2.073
REMARK UNBOUND:                -2.744
REMARK SMILES CCCCCCCCCCCCCC[C@@H](C)C(=O)[O-]
REMARK SMILES IDX 9 1 10 2 11 3 12 4 13 5 14 6 15 7 16 8 17 9 18 10 19 11 8 12
REMARK SMILES IDX 7 13 6 14 5 15 4 16 3 17 2 18 1 19
REMARK H PARENT
REMARK Flexibility Score: inf
ROOT
ATOM      1  C   UNL     1      15.776   2.298  58.694  1.00  0.00     0.000 C 
ENDROOT
BRANCH   1   2
ATOM      2  C   UNL     1      14.715   1.270  58.247  1.00  0.00     0.000 C 
BRANCH   2   3
ATOM      3  C   UNL     1      15.327   0.114  57.438  1.00  0.00     0.000 C 
BRANCH   3   4
ATOM      4  C   UNL     1      16.838  -0.050  57.682  1.00  0.00     0.000 C 
BRANCH   4   5
ATOM      5  C   UNL     1      17.217  -1.095  58.751  1.00  0.00     0.001 C 
BRANCH   5   6
ATOM      6  C   UNL     1      16.026  -1.764  59.467  1.00  0.00     0.009 C 
BRANCH   6   7
ATOM      7  C   UNL     1      15.979  -1.515  60.992  1.00  0.00     0.032 C 
ATOM      8  C   UNL     1      14.578  -1.065  61.419  1.00  0.00     0.014 C 
BRANCH   7   9
ATOM      9  C   UNL     1      16.383  -2.742  61.764  1.00  0.00     0.044 C 
ATOM     10  O   UNL     1      16.352  -2.745  63.023  1.00  0.00    -0.550 OA
ATOM     11  O   UNL     1      16.782  -3.888  61.086  1.00  0.00    -0.550 OA
ENDBRANCH   7   9
ENDBRANCH   6   7
ENDBRANCH   5   6
ENDBRANCH   4   5
ENDBRANCH   3   4
ENDBRANCH   2   3
ENDBRANCH   1   2
BRANCH   1  12
ATOM     12  C   UNL     1      15.750   2.600  60.204  1.00  0.00     0.000 C 
BRANCH  12  13
ATOM     13  C   UNL     1      16.958   2.063  60.990  1.00  0.00    -0.000 C 
BRANCH  13  14
ATOM     14  C   UNL     1      16.680   1.940  62.495  1.00  0.00    -0.000 C 
BRANCH  14  15
ATOM     15  C   UNL     1      15.272   2.448  62.836  1.00  0.00    -0.000 C 
BRANCH  15  16
ATOM     16  C   UNL     1      15.240   3.321  64.101  1.00  0.00    -0.000 C 
BRANCH  16  17
ATOM     17  C   UNL     1      16.185   4.537  64.039  1.00  0.00    -0.000 C 
BRANCH  17  18
ATOM     18  C   UNL     1      16.964   4.737  65.348  1.00  0.00    -0.003 C 
ATOM     19  C   UNL     1      17.536   6.148  65.439  1.00  0.00     0.004 C 
ENDBRANCH  17  18
ENDBRANCH  16  17
ENDBRANCH  15  16
ENDBRANCH  14  15
ENDBRANCH  13  14
ENDBRANCH  12  13
ENDBRANCH   1  12
TORSDOF 14
ENDMDL
MODEL 4
REMARK VINA RESULT:    -3.629      2.716      4.702
REMARK INTER + INTRA:          -9.343
REMARK INTER:                  -7.013
REMARK INTRA:                  -2.329
REMARK UNBOUND:                -2.744
REMARK SMILES CCCCCCCCCCCCCC[C@@H](C)C(=O)[O-]
REMARK SMILES IDX 9 1 10 2 11 3 12 4 13 5 14 6 15 7 16 8 17 9 18 10 19 11 8 12
REMARK SMILES IDX 7 13 6 14 5 15 4 16 3 17 2 18 1 19
REMARK H PARENT
REMARK Flexibility Score: inf
ROOT
ATOM      1  C   UNL     1      17.489   3.769  56.240  1.00  0.00     0.000 C 
ENDROOT
BRANCH   1   2
ATOM      2  C   UNL     1      15.983   3.936  56.534  1.00  0.00     0.000 C 
BRANCH   2   3
ATOM      3  C   UNL     1      15.512   3.035  57.688  1.00  0.00     0.000 C 
BRANCH   3   4
ATOM      4  C   UNL     1      16.534   2.951  58.835  1.00  0.00     0.000 C 
BRANCH   4   5
ATOM      5  C   UNL     1      15.976   3.285  60.233  1.00  0.00     0.001 C 
BRANCH   5   6
ATOM      6  C   UNL     1      15.188   2.149  60.915  1.00  0.00     0.009 C 
BRANCH   6   7
ATOM      7  C   UNL     1      15.763   1.704  62.279  1.00  0.00     0.032 C 
ATOM      8  C   UNL     1      17.178   1.141  62.107  1.00  0.00     0.014 C 
BRANCH   7   9
ATOM      9  C   UNL     1      15.777   2.838  63.269  1.00  0.00     0.044 C 
ATOM     10  O   UNL     1      14.712   3.214  63.826  1.00  0.00    -0.550 OA
ATOM     11  O   UNL     1      16.975   3.469  63.582  1.00  0.00    -0.550 OA
ENDBRANCH   7   9
ENDBRANCH   6   7
ENDBRANCH   5   6
ENDBRANCH   4   5
ENDBRANCH   3   4
ENDBRANCH   2   3
ENDBRANCH   1   2
BRANCH   1  12
ATOM     12  C   UNL     1      17.804   2.646  55.233  1.00  0.00     0.000 C 
BRANCH  12  13
ATOM     13  C   UNL     1      18.214   1.307  55.868  1.00  0.00    -0.000 C 
BRANCH  13  14
ATOM     14  C   UNL     1      17.277   0.154  55.481  1.00  0.00    -0.000 C 
BRANCH  14  15
ATOM     15  C   UNL     1      16.626  -0.465  56.725  1.00  0.00    -0.000 C 
BRANCH  15  16
ATOM     16  C   UNL     1      17.563  -0.487  57.944  1.00  0.00    -0.000 C 
BRANCH  16  17
ATOM     17  C   UNL     1      16.965  -1.203  59.172  1.00  0.00    -0.000 C 
BRANCH  17  18
ATOM     18  C   UNL     1      15.451  -0.975  59.298  1.00  0.00    -0.003 C 
ATOM     19  C   UNL     1      14.904  -1.605  60.575  1.00  0.00     0.004 C 
ENDBRANCH  17  18
ENDBRANCH  16  17
ENDBRANCH  15  16
ENDBRANCH  14  15
ENDBRANCH  13  14
ENDBRANCH  12  13
ENDBRANCH   1  12
TORSDOF 14
ENDMDL
MODEL 5
REMARK VINA RESULT:    -3.610      3.779      6.676
REMARK INTER + INTRA:          -9.309
REMARK INTER:                  -6.665
REMARK INTRA:                  -2.644
REMARK UNBOUND:                -2.744
REMARK SMILES CCCCCCCCCCCCCC[C@@H](C)C(=O)[O-]
REMARK SMILES IDX 9 1 10 2 11 3 12 4 13 5 14 6 15 7 16 8 17 9 18 10 19 11 8 12
REMARK SMILES IDX 7 13 6 14 5 15 4 16 3 17 2 18 1 19
REMARK H PARENT
REMARK Flexibility Score: inf
ROOT
ATOM      1  C   UNL     1      14.984   1.319  58.378  1.00  0.00     0.000 C 
ENDROOT
BRANCH   1   2
ATOM      2  C   UNL     1      15.263  -0.199  58.405  1.00  0.00     0.000 C 
BRANCH   2   3
ATOM      3  C   UNL     1      16.516  -0.576  57.597  1.00  0.00     0.000 C 
BRANCH   3   4
ATOM      4  C   UNL     1      16.400  -0.203  56.108  1.00  0.00     0.000 C 
BRANCH   4   5
ATOM      5  C   UNL     1      17.632   0.512  55.517  1.00  0.00     0.001 C 
BRANCH   5   6
ATOM      6  C   UNL     1      17.960   1.883  56.143  1.00  0.00     0.009 C 
BRANCH   6   7
ATOM      7  C   UNL     1      17.512   3.094  55.294  1.00  0.00     0.032 C 
ATOM      8  C   UNL     1      16.476   3.928  56.054  1.00  0.00     0.014 C 
BRANCH   7   9
ATOM      9  C   UNL     1      18.683   3.957  54.904  1.00  0.00     0.044 C 
ATOM     10  O   UNL     1      18.753   5.152  55.294  1.00  0.00    -0.550 OA
ATOM     11  O   UNL     1      19.701   3.431  54.119  1.00  0.00    -0.550 OA
ENDBRANCH   7   9
ENDBRANCH   6   7
ENDBRANCH   5   6
ENDBRANCH   4   5
ENDBRANCH   3   4
ENDBRANCH   2   3
ENDBRANCH   1   2
BRANCH   1  12
ATOM     12  C   UNL     1      15.265   2.026  59.718  1.00  0.00     0.000 C 
BRANCH  12  13
ATOM     13  C   UNL     1      16.242   3.210  59.629  1.00  0.00    -0.000 C 
BRANCH  13  14
ATOM     14  C   UNL     1      17.710   2.780  59.766  1.00  0.00    -0.000 C 
BRANCH  14  15
ATOM     15  C   UNL     1      17.873   1.732  60.875  1.00  0.00    -0.000 C 
BRANCH  15  16
ATOM     16  C   UNL     1      18.608   0.467  60.402  1.00  0.00    -0.000 C 
BRANCH  16  17
ATOM     17  C   UNL     1      18.278  -0.789  61.235  1.00  0.00    -0.000 C 
BRANCH  17  18
ATOM     18  C   UNL     1      16.878  -0.719  61.862  1.00  0.00    -0.003 C 
ATOM     19  C   UNL     1      16.066  -1.969  61.538  1.00  0.00     0.004 C 
ENDBRANCH  17  18
ENDBRANCH  16  17
ENDBRANCH  15  16
ENDBRANCH  14  15
ENDBRANCH  13  14
ENDBRANCH  12  13
ENDBRANCH   1  12
TORSDOF 14
ENDMDL
MODEL 6
REMARK VINA RESULT:    -3.604      2.896      5.208
REMARK INTER + INTRA:          -9.297
REMARK INTER:                  -7.127
REMARK INTRA:                  -2.170
REMARK UNBOUND:                -2.744
REMARK SMILES CCCCCCCCCCCCCC[C@@H](C)C(=O)[O-]
REMARK SMILES IDX 9 1 10 2 11 3 12 4 13 5 14 6 15 7 16 8 17 9 18 10 19 11 8 12
REMARK SMILES IDX 7 13 6 14 5 15 4 16 3 17 2 18 1 19
REMARK H PARENT
REMARK Flexibility Score: inf
ROOT
ATOM      1  C   UNL     1      16.851   1.481  56.862  1.00  0.00     0.000 C 
ENDROOT
BRANCH   1   2
ATOM      2  C   UNL     1      16.204   2.444  57.880  1.00  0.00     0.000 C 
BRANCH   2   3
ATOM      3  C   UNL     1      14.829   1.948  58.359  1.00  0.00     0.000 C 
BRANCH   3   4
ATOM      4  C   UNL     1      14.820   1.561  59.848  1.00  0.00     0.000 C 
BRANCH   4   5
ATOM      5  C   UNL     1      16.138   1.832  60.602  1.00  0.00     0.001 C 
BRANCH   5   6
ATOM      6  C   UNL     1      16.117   1.490  62.105  1.00  0.00     0.009 C 
BRANCH   6   7
ATOM      7  C   UNL     1      16.727   2.580  63.015  1.00  0.00     0.032 C 
ATOM      8  C   UNL     1      17.787   3.383  62.254  1.00  0.00     0.014 C 
BRANCH   7   9
ATOM      9  C   UNL     1      15.668   3.505  63.554  1.00  0.00     0.044 C 
ATOM     10  O   UNL     1      15.828   4.753  63.512  1.00  0.00    -0.550 OA
ATOM     11  O   UNL     1      14.498   2.981  64.090  1.00  0.00    -0.550 OA
ENDBRANCH   7   9
ENDBRANCH   6   7
ENDBRANCH   5   6
ENDBRANCH   4   5
ENDBRANCH   3   4
ENDBRANCH   2   3
ENDBRANCH   1   2
BRANCH   1  12
ATOM     12  C   UNL     1      16.181   0.095  56.808  1.00  0.00     0.000 C 
BRANCH  12  13
ATOM     13  C   UNL     1      17.033  -1.055  57.369  1.00  0.00    -0.000 C 
BRANCH  13  14
ATOM     14  C   UNL     1      17.850  -0.641  58.602  1.00  0.00    -0.000 C 
BRANCH  14  15
ATOM     15  C   UNL     1      17.464  -1.486  59.824  1.00  0.00    -0.000 C 
BRANCH  15  16
ATOM     16  C   UNL     1      16.120  -2.212  59.651  1.00  0.00    -0.000 C 
BRANCH  16  17
ATOM     17  C   UNL     1      15.693  -3.029  60.888  1.00  0.00    -0.000 C 
BRANCH  17  18
ATOM     18  C   UNL     1      15.186  -2.135  62.029  1.00  0.00    -0.003 C 
ATOM     19  C   UNL     1      13.926  -1.379  61.618  1.00  0.00     0.004 C 
ENDBRANCH  17  18
ENDBRANCH  16  17
ENDBRANCH  15  16
ENDBRANCH  14  15
ENDBRANCH  13  14
ENDBRANCH  12  13
ENDBRANCH   1  12
TORSDOF 14
ENDMDL
MODEL 7
REMARK VINA RESULT:    -3.580      1.408      2.987
REMARK INTER + INTRA:          -9.254
REMARK INTER:                  -6.781
REMARK INTRA:                  -2.473
REMARK UNBOUND:                -2.744
REMARK SMILES CCCCCCCCCCCCCC[C@@H](C)C(=O)[O-]
REMARK SMILES IDX 9 1 10 2 11 3 12 4 13 5 14 6 15 7 16 8 17 9 18 10 19 11 8 12
REMARK SMILES IDX 7 13 6 14 5 15 4 16 3 17 2 18 1 19
REMARK H PARENT
REMARK Flexibility Score: inf
ROOT
ATOM      1  C   UNL     1      16.261  -0.643  57.854  1.00  0.00     0.000 C 
ENDROOT
BRANCH   1   2
ATOM      2  C   UNL     1      15.107   0.307  57.471  1.00  0.00     0.000 C 
BRANCH   2   3
ATOM      3  C   UNL     1      14.828   1.355  58.562  1.00  0.00     0.000 C 
BRANCH   3   4
ATOM      4  C   UNL     1      16.069   1.671  59.416  1.00  0.00     0.000 C 
BRANCH   4   5
ATOM      5  C   UNL     1      15.908   1.401  60.926  1.00  0.00     0.001 C 
BRANCH   5   6
ATOM      6  C   UNL     1      17.207   1.022  61.667  1.00  0.00     0.009 C 
BRANCH   6   7
ATOM      7  C   UNL     1      18.071  -0.032  60.939  1.00  0.00     0.032 C 
ATOM      8  C   UNL     1      19.432   0.559  60.558  1.00  0.00     0.014 C 
BRANCH   7   9
ATOM      9  C   UNL     1      18.263  -1.266  61.780  1.00  0.00     0.044 C 
ATOM     10  O   UNL     1      17.311  -1.730  62.462  1.00  0.00    -0.550 OA
ATOM     11  O   UNL     1      19.495  -1.908  61.798  1.00  0.00    -0.550 OA
ENDBRANCH   7   9
ENDBRANCH   6   7
ENDBRANCH   5   6
ENDBRANCH   4   5
ENDBRANCH   3   4
ENDBRANCH   2   3
ENDBRANCH   1   2
BRANCH   1  12
ATOM     12  C   UNL     1      17.132  -1.074  56.658  1.00  0.00     0.000 C 
BRANCH  12  13
ATOM     13  C   UNL     1      17.815   0.082  55.908  1.00  0.00    -0.000 C 
BRANCH  13  14
ATOM     14  C   UNL     1      18.735   0.915  56.813  1.00  0.00    -0.000 C 
BRANCH  14  15
ATOM     15  C   UNL     1      18.434   2.413  56.670  1.00  0.00    -0.000 C 
BRANCH  15  16
ATOM     16  C   UNL     1      17.442   2.720  55.536  1.00  0.00    -0.000 C 
BRANCH  16  17
ATOM     17  C   UNL     1      16.764   4.100  55.663  1.00  0.00    -0.000 C 
BRANCH  17  18
ATOM     18  C   UNL     1      16.425   4.449  57.120  1.00  0.00    -0.003 C 
ATOM     19  C   UNL     1      15.007   5.000  57.239  1.00  0.00     0.004 C 
ENDBRANCH  17  18
ENDBRANCH  16  17
ENDBRANCH  15  16
ENDBRANCH  14  15
ENDBRANCH  13  14
ENDBRANCH  12  13
ENDBRANCH   1  12
TORSDOF 14
ENDMDL
MODEL 8
REMARK VINA RESULT:    -3.563      1.691      3.735
REMARK INTER + INTRA:          -9.224
REMARK INTER:                  -6.615
REMARK INTRA:                  -2.609
REMARK UNBOUND:                -2.744
REMARK SMILES CCCCCCCCCCCCCC[C@@H](C)C(=O)[O-]
REMARK SMILES IDX 9 1 10 2 11 3 12 4 13 5 14 6 15 7 16 8 17 9 18 10 19 11 8 12
REMARK SMILES IDX 7 13 6 14 5 15 4 16 3 17 2 18 1 19
REMARK H PARENT
REMARK Flexibility Score: inf
ROOT
ATOM      1  C   UNL     1      17.299   2.132  61.633  1.00  0.00     0.000 C 
ENDROOT
BRANCH   1   2
ATOM      2  C   UNL     1      15.859   2.016  61.087  1.00  0.00     0.000 C 
BRANCH   2   3
ATOM      3  C   UNL     1      14.875   1.493  62.148  1.00  0.00     0.000 C 
BRANCH   3   4
ATOM      4  C   UNL     1      14.139   0.217  61.701  1.00  0.00     0.000 C 
BRANCH   4   5
ATOM      5  C   UNL     1      14.655  -0.409  60.391  1.00  0.00     0.001 C 
BRANCH   5   6
ATOM      6  C   UNL     1      15.101  -1.882  60.497  1.00  0.00     0.009 C 
BRANCH   6   7
ATOM      7  C   UNL     1      15.004  -2.475  61.921  1.00  0.00     0.032 C 
ATOM      8  C   UNL     1      13.899  -3.535  61.986  1.00  0.00     0.014 C 
BRANCH   7   9
ATOM      9  C   UNL     1      16.315  -3.070  62.362  1.00  0.00     0.044 C 
ATOM     10  O   UNL     1      16.726  -2.910  63.541  1.00  0.00    -0.550 OA
ATOM     11  O   UNL     1      17.075  -3.813  61.466  1.00  0.00    -0.550 OA
ENDBRANCH   7   9
ENDBRANCH   6   7
ENDBRANCH   5   6
ENDBRANCH   4   5
ENDBRANCH   3   4
ENDBRANCH   2   3
ENDBRANCH   1   2
BRANCH   1  12
ATOM     12  C   UNL     1      18.338   1.341  60.815  1.00  0.00     0.000 C 
BRANCH  12  13
ATOM     13  C   UNL     1      18.379  -0.167  61.112  1.00  0.00    -0.000 C 
BRANCH  13  14
ATOM     14  C   UNL     1      18.565  -1.017  59.846  1.00  0.00    -0.000 C 
BRANCH  14  15
ATOM     15  C   UNL     1      18.207  -0.213  58.589  1.00  0.00    -0.000 C 
BRANCH  15  16
ATOM     16  C   UNL     1      17.184  -0.928  57.691  1.00  0.00    -0.000 C 
BRANCH  16  17
ATOM     17  C   UNL     1      16.426   0.020  56.739  1.00  0.00    -0.000 C 
BRANCH  17  18
ATOM     18  C   UNL     1      16.000   1.323  57.433  1.00  0.00    -0.003 C 
ATOM     19  C   UNL     1      16.619   2.538  56.749  1.00  0.00     0.004 C 
ENDBRANCH  17  18
ENDBRANCH  16  17
ENDBRANCH  15  16
ENDBRANCH  14  15
ENDBRANCH  13  14
ENDBRANCH  12  13
ENDBRANCH   1  12
TORSDOF 14
ENDMDL
MODEL 9
REMARK VINA RESULT:    -3.548      2.631      5.790
REMARK INTER + INTRA:          -9.196
REMARK INTER:                  -6.602
REMARK INTRA:                  -2.594
REMARK UNBOUND:                -2.744
REMARK SMILES CCCCCCCCCCCCCC[C@@H](C)C(=O)[O-]
REMARK SMILES IDX 9 1 10 2 11 3 12 4 13 5 14 6 15 7 16 8 17 9 18 10 19 11 8 12
REMARK SMILES IDX 7 13 6 14 5 15 4 16 3 17 2 18 1 19
REMARK H PARENT
REMARK Flexibility Score: inf
ROOT
ATOM      1  C   UNL     1      14.768   0.800  60.997  1.00  0.00     0.000 C 
ENDROOT
BRANCH   1   2
ATOM      2  C   UNL     1      15.701   1.610  61.923  1.00  0.00     0.000 C 
BRANCH   2   3
ATOM      3  C   UNL     1      17.073   0.938  62.100  1.00  0.00     0.000 C 
BRANCH   3   4
ATOM      4  C   UNL     1      18.215   1.729  61.437  1.00  0.00     0.000 C 
BRANCH   4   5
ATOM      5  C   UNL     1      18.977   0.973  60.330  1.00  0.00     0.001 C 
BRANCH   5   6
ATOM      6  C   UNL     1      18.116   0.024  59.472  1.00  0.00     0.009 C 
BRANCH   6   7
ATOM      7  C   UNL     1      17.453   0.696  58.249  1.00  0.00     0.032 C 
ATOM      8  C   UNL     1      18.251   1.930  57.815  1.00  0.00     0.014 C 
BRANCH   7   9
ATOM      9  C   UNL     1      17.320  -0.263  57.096  1.00  0.00     0.044 C 
ATOM     10  O   UNL     1      16.968  -1.455  57.293  1.00  0.00    -0.550 OA
ATOM     11  O   UNL     1      17.575   0.171  55.801  1.00  0.00    -0.550 OA
ENDBRANCH   7   9
ENDBRANCH   6   7
ENDBRANCH   5   6
ENDBRANCH   4   5
ENDBRANCH   3   4
ENDBRANCH   2   3
ENDBRANCH   1   2
BRANCH   1  12
ATOM     12  C   UNL     1      13.800  -0.130  61.753  1.00  0.00     0.000 C 
BRANCH  12  13
ATOM     13  C   UNL     1      14.092  -1.631  61.594  1.00  0.00    -0.000 C 
BRANCH  13  14
ATOM     14  C   UNL     1      15.148  -1.919  60.516  1.00  0.00    -0.000 C 
BRANCH  14  15
ATOM     15  C   UNL     1      16.250  -2.837  61.060  1.00  0.00    -0.000 C 
BRANCH  15  16
ATOM     16  C   UNL     1      16.414  -2.739  62.586  1.00  0.00    -0.000 C 
BRANCH  16  17
ATOM     17  C   UNL     1      17.850  -2.396  63.034  1.00  0.00    -0.000 C 
BRANCH  17  18
ATOM     18  C   UNL     1      18.910  -3.018  62.112  1.00  0.00    -0.003 C 
ATOM     19  C   UNL     1      20.147  -2.129  62.018  1.00  0.00     0.004 C 
ENDBRANCH  17  18
ENDBRANCH  16  17
ENDBRANCH  15  16
ENDBRANCH  14  15
ENDBRANCH  13  14
ENDBRANCH  12  13
ENDBRANCH   1  12
TORSDOF 14
ENDMDL
