MODEL 1
REMARK VINA RESULT:    -5.170      0.000      0.000
REMARK INTER + INTRA:          -5.907
REMARK INTER:                  -5.774
REMARK INTRA:                  -0.132
REMARK UNBOUND:                -0.132
REMARK SMILES COc1cc2ccc(=O)oc2cc1OC
REMARK SMILES IDX 3 1 13 2 12 3 11 4 5 5 4 6 6 7 7 8 8 9 9 10 10 11 2 12 1 13
REMARK SMILES IDX 14 14 15 15
REMARK H PARENT
REMARK Flexibility Score: inf
ROOT
ATOM      1  C   UNL     1       1.874  -3.881  23.714  1.00  0.00     0.161 A 
ATOM      2  C   UNL     1       1.386  -2.671  23.191  1.00  0.00     0.164 A 
ATOM      3  C   UNL     1       1.303  -2.496  21.795  1.00  0.00     0.098 A 
ATOM      4  C   UNL     1       1.703  -3.516  20.929  1.00  0.00     0.142 A 
ATOM      5  C   UNL     1       2.192  -4.730  21.454  1.00  0.00     0.022 A 
ATOM      6  C   UNL     1       2.277  -4.909  22.840  1.00  0.00     0.062 A 
ATOM      7  C   UNL     1       2.585  -5.732  20.560  1.00  0.00     0.019 A 
ATOM      8  C   UNL     1       2.482  -5.504  19.188  1.00  0.00     0.094 A 
ATOM      9  C   UNL     1       1.987  -4.275  18.741  1.00  0.00     0.336 A 
ATOM     10  O   UNL     1       1.886  -4.050  17.506  1.00  0.00    -0.246 OA
ATOM     11  O   UNL     1       1.621  -3.339  19.612  1.00  0.00    -0.423 OA
ENDROOT
BRANCH   1  12
ATOM     12  O   UNL     1       1.943  -4.021  25.110  1.00  0.00    -0.493 OA
ATOM     13  C   UNL     1       3.124  -3.836  25.883  1.00  0.00     0.278 C 
ENDBRANCH   1  12
BRANCH   2  14
ATOM     14  O   UNL     1       0.993  -1.667  24.092  1.00  0.00    -0.493 OA
ATOM     15  C   UNL     1      -0.354  -1.408  24.474  1.00  0.00     0.278 C 
ENDBRANCH   2  14
TORSDOF 2
ENDMDL
MODEL 2
REMARK VINA RESULT:    -5.089      1.484      5.066
REMARK INTER + INTRA:          -5.816
REMARK INTER:                  -5.688
REMARK INTRA:                  -0.128
REMARK UNBOUND:                -0.132
REMARK SMILES COc1cc2ccc(=O)oc2cc1OC
REMARK SMILES IDX 3 1 13 2 12 3 11 4 5 5 4 6 6 7 7 8 8 9 9 10 10 11 2 12 1 13
REMARK SMILES IDX 14 14 15 15
REMARK H PARENT
REMARK Flexibility Score: inf
ROOT
ATOM      1  C   UNL     1       2.243  -5.066  19.559  1.00  0.00     0.161 A 
ATOM      2  C   UNL     1       1.714  -3.767  19.639  1.00  0.00     0.164 A 
ATOM      3  C   UNL     1       1.648  -3.114  20.886  1.00  0.00     0.098 A 
ATOM      4  C   UNL     1       2.104  -3.750  22.043  1.00  0.00     0.142 A 
ATOM      5  C   UNL     1       2.635  -5.054  21.963  1.00  0.00     0.022 A 
ATOM      6  C   UNL     1       2.703  -5.707  20.726  1.00  0.00     0.062 A 
ATOM      7  C   UNL     1       3.083  -5.665  23.139  1.00  0.00     0.019 A 
ATOM      8  C   UNL     1       2.994  -4.973  24.346  1.00  0.00     0.094 A 
ATOM      9  C   UNL     1       2.456  -3.682  24.349  1.00  0.00     0.336 A 
ATOM     10  O   UNL     1       2.367  -3.040  25.428  1.00  0.00    -0.246 OA
ATOM     11  O   UNL     1       2.037  -3.125  23.216  1.00  0.00    -0.423 OA
ENDROOT
BRANCH   1  12
ATOM     12  O   UNL     1       2.293  -5.686  18.300  1.00  0.00    -0.493 OA
ATOM     13  C   UNL     1       1.921  -7.038  18.050  1.00  0.00     0.278 C 
ENDBRANCH   1  12
BRANCH   2  14
ATOM     14  O   UNL     1       1.264  -3.157  18.456  1.00  0.00    -0.493 OA
ATOM     15  C   UNL     1      -0.102  -3.067  18.063  1.00  0.00     0.278 C 
ENDBRANCH   2  14
TORSDOF 2
ENDMDL
MODEL 3
REMARK VINA RESULT:    -4.909      1.448      1.821
REMARK INTER + INTRA:          -5.615
REMARK INTER:                  -5.453
REMARK INTRA:                  -0.162
REMARK UNBOUND:                -0.132
REMARK SMILES COc1cc2ccc(=O)oc2cc1OC
REMARK SMILES IDX 3 1 13 2 12 3 11 4 5 5 4 6 6 7 7 8 8 9 9 10 10 11 2 12 1 13
REMARK SMILES IDX 14 14 15 15
REMARK H PARENT
REMARK Flexibility Score: inf
ROOT
ATOM      1  C   UNL     1       2.829  -3.363  25.244  1.00  0.00     0.161 A 
ATOM      2  C   UNL     1       2.380  -2.150  24.696  1.00  0.00     0.164 A 
ATOM      3  C   UNL     1       2.074  -2.075  23.322  1.00  0.00     0.098 A 
ATOM      4  C   UNL     1       2.214  -3.198  22.503  1.00  0.00     0.142 A 
ATOM      5  C   UNL     1       2.665  -4.416  23.054  1.00  0.00     0.022 A 
ATOM      6  C   UNL     1       2.970  -4.495  24.418  1.00  0.00     0.062 A 
ATOM      7  C   UNL     1       2.795  -5.522  22.207  1.00  0.00     0.019 A 
ATOM      8  C   UNL     1       2.479  -5.391  20.855  1.00  0.00     0.094 A 
ATOM      9  C   UNL     1       2.038  -4.151  20.380  1.00  0.00     0.336 A 
ATOM     10  O   UNL     1       1.747  -4.012  19.164  1.00  0.00    -0.246 OA
ATOM     11  O   UNL     1       1.923  -3.115  21.207  1.00  0.00    -0.423 OA
ENDROOT
BRANCH   1  12
ATOM     12  O   UNL     1       3.125  -3.403  26.617  1.00  0.00    -0.493 OA
ATOM     13  C   UNL     1       2.337  -4.074  27.595  1.00  0.00     0.278 C 
ENDBRANCH   1  12
BRANCH   2  14
ATOM     14  O   UNL     1       2.251  -1.042  25.548  1.00  0.00    -0.493 OA
ATOM     15  C   UNL     1       1.020  -0.589  26.104  1.00  0.00     0.278 C 
ENDBRANCH   2  14
TORSDOF 2
ENDMDL
MODEL 4
REMARK VINA RESULT:    -4.770      1.475      4.818
REMARK INTER + INTRA:          -5.460
REMARK INTER:                  -5.340
REMARK INTRA:                  -0.120
REMARK UNBOUND:                -0.132
REMARK SMILES COc1cc2ccc(=O)oc2cc1OC
REMARK SMILES IDX 3 1 13 2 12 3 11 4 5 5 4 6 6 7 7 8 8 9 9 10 10 11 2 12 1 13
REMARK SMILES IDX 14 14 15 15
REMARK H PARENT
REMARK Flexibility Score: inf
ROOT
ATOM      1  C   UNL     1       1.724  -4.051  19.599  1.00  0.00     0.161 A 
ATOM      2  C   UNL     1       1.141  -2.916  20.187  1.00  0.00     0.164 A 
ATOM      3  C   UNL     1       1.214  -2.737  21.583  1.00  0.00     0.098 A 
ATOM      4  C   UNL     1       1.860  -3.681  22.385  1.00  0.00     0.142 A 
ATOM      5  C   UNL     1       2.445  -4.820  21.794  1.00  0.00     0.022 A 
ATOM      6  C   UNL     1       2.375  -5.003  20.408  1.00  0.00     0.062 A 
ATOM      7  C   UNL     1       3.084  -5.747  22.625  1.00  0.00     0.019 A 
ATOM      8  C   UNL     1       3.125  -5.520  24.000  1.00  0.00     0.094 A 
ATOM      9  C   UNL     1       2.523  -4.367  24.514  1.00  0.00     0.336 A 
ATOM     10  O   UNL     1       2.550  -4.143  25.753  1.00  0.00    -0.246 OA
ATOM     11  O   UNL     1       1.921  -3.502  23.702  1.00  0.00    -0.423 OA
ENDROOT
BRANCH   1  12
ATOM     12  O   UNL     1       1.633  -4.198  18.205  1.00  0.00    -0.493 OA
ATOM     13  C   UNL     1       2.712  -3.992  17.298  1.00  0.00     0.278 C 
ENDBRANCH   1  12
BRANCH   2  14
ATOM     14  O   UNL     1       0.500  -1.988  19.350  1.00  0.00    -0.493 OA
ATOM     15  C   UNL     1      -0.483  -1.054  19.785  1.00  0.00     0.278 C 
ENDBRANCH   2  14
TORSDOF 2
ENDMDL
MODEL 5
REMARK VINA RESULT:    -4.733      2.917      4.667
REMARK INTER + INTRA:          -5.418
REMARK INTER:                  -5.287
REMARK INTRA:                  -0.131
REMARK UNBOUND:                -0.132
REMARK SMILES COc1cc2ccc(=O)oc2cc1OC
REMARK SMILES IDX 3 1 13 2 12 3 11 4 5 5 4 6 6 7 7 8 8 9 9 10 10 11 2 12 1 13
REMARK SMILES IDX 14 14 15 15
REMARK H PARENT
REMARK Flexibility Score: inf
ROOT
ATOM      1  C   UNL     1      -1.707  -1.779  23.517  1.00  0.00     0.161 A 
ATOM      2  C   UNL     1      -1.993  -2.784  24.456  1.00  0.00     0.164 A 
ATOM      3  C   UNL     1      -1.101  -3.863  24.619  1.00  0.00     0.098 A 
ATOM      4  C   UNL     1       0.064  -3.940  23.853  1.00  0.00     0.142 A 
ATOM      5  C   UNL     1       0.352  -2.932  22.911  1.00  0.00     0.022 A 
ATOM      6  C   UNL     1      -0.531  -1.858  22.745  1.00  0.00     0.062 A 
ATOM      7  C   UNL     1       1.527  -3.038  22.159  1.00  0.00     0.019 A 
ATOM      8  C   UNL     1       2.373  -4.128  22.361  1.00  0.00     0.094 A 
ATOM      9  C   UNL     1       2.023  -5.089  23.314  1.00  0.00     0.336 A 
ATOM     10  O   UNL     1       2.773  -6.080  23.512  1.00  0.00    -0.246 OA
ATOM     11  O   UNL     1       0.899  -4.964  24.015  1.00  0.00    -0.423 OA
ENDROOT
BRANCH   1  12
ATOM     12  O   UNL     1      -2.617  -0.719  23.380  1.00  0.00    -0.493 OA
ATOM     13  C   UNL     1      -3.591  -0.618  22.346  1.00  0.00     0.278 C 
ENDBRANCH   1  12
BRANCH   2  14
ATOM     14  O   UNL     1      -3.174  -2.675  25.208  1.00  0.00    -0.493 OA
ATOM     15  C   UNL     1      -3.245  -2.143  26.528  1.00  0.00     0.278 C 
ENDBRANCH   2  14
TORSDOF 2
ENDMDL
MODEL 6
REMARK VINA RESULT:    -4.648      1.282      2.830
REMARK INTER + INTRA:          -5.324
REMARK INTER:                  -5.157
REMARK INTRA:                  -0.167
REMARK UNBOUND:                -0.132
REMARK SMILES COc1cc2ccc(=O)oc2cc1OC
REMARK SMILES IDX 3 1 13 2 12 3 11 4 5 5 4 6 6 7 7 8 8 9 9 10 10 11 2 12 1 13
REMARK SMILES IDX 14 14 15 15
REMARK H PARENT
REMARK Flexibility Score: inf
ROOT
ATOM      1  C   UNL     1       0.782  -1.898  23.115  1.00  0.00     0.161 A 
ATOM      2  C   UNL     1       1.762  -2.903  23.193  1.00  0.00     0.164 A 
ATOM      3  C   UNL     1       2.154  -3.588  22.025  1.00  0.00     0.098 A 
ATOM      4  C   UNL     1       1.575  -3.276  20.793  1.00  0.00     0.142 A 
ATOM      5  C   UNL     1       0.592  -2.268  20.715  1.00  0.00     0.022 A 
ATOM      6  C   UNL     1       0.199  -1.584  21.872  1.00  0.00     0.062 A 
ATOM      7  C   UNL     1       0.031  -1.979  19.467  1.00  0.00     0.019 A 
ATOM      8  C   UNL     1       0.456  -2.689  18.344  1.00  0.00     0.094 A 
ATOM      9  C   UNL     1       1.436  -3.675  18.498  1.00  0.00     0.336 A 
ATOM     10  O   UNL     1       1.833  -4.327  17.497  1.00  0.00    -0.246 OA
ATOM     11  O   UNL     1       1.952  -3.930  19.697  1.00  0.00    -0.423 OA
ENDROOT
BRANCH   1  12
ATOM     12  O   UNL     1       0.415  -1.236  24.298  1.00  0.00    -0.493 OA
ATOM     13  C   UNL     1      -0.789  -1.476  25.019  1.00  0.00     0.278 C 
ENDBRANCH   1  12
BRANCH   2  14
ATOM     14  O   UNL     1       2.322  -3.191  24.448  1.00  0.00    -0.493 OA
ATOM     15  C   UNL     1       1.973  -4.316  25.249  1.00  0.00     0.278 C 
ENDBRANCH   2  14
TORSDOF 2
ENDMDL
MODEL 7
REMARK VINA RESULT:    -4.541      2.557      3.562
REMARK INTER + INTRA:          -5.204
REMARK INTER:                  -5.048
REMARK INTRA:                  -0.157
REMARK UNBOUND:                -0.132
REMARK SMILES COc1cc2ccc(=O)oc2cc1OC
REMARK SMILES IDX 3 1 13 2 12 3 11 4 5 5 4 6 6 7 7 8 8 9 9 10 10 11 2 12 1 13
REMARK SMILES IDX 14 14 15 15
REMARK H PARENT
REMARK Flexibility Score: inf
ROOT
ATOM      1  C   UNL     1       2.027  -3.145  22.550  1.00  0.00     0.161 A 
ATOM      2  C   UNL     1       1.291  -2.444  23.519  1.00  0.00     0.164 A 
ATOM      3  C   UNL     1       0.188  -1.658  23.127  1.00  0.00     0.098 A 
ATOM      4  C   UNL     1      -0.176  -1.572  21.782  1.00  0.00     0.142 A 
ATOM      5  C   UNL     1       0.563  -2.275  20.808  1.00  0.00     0.022 A 
ATOM      6  C   UNL     1       1.659  -3.057  21.193  1.00  0.00     0.062 A 
ATOM      7  C   UNL     1       0.173  -2.168  19.469  1.00  0.00     0.019 A 
ATOM      8  C   UNL     1      -0.926  -1.376  19.137  1.00  0.00     0.094 A 
ATOM      9  C   UNL     1      -1.611  -0.708  20.157  1.00  0.00     0.336 A 
ATOM     10  O   UNL     1      -2.606   0.012  19.878  1.00  0.00    -0.246 OA
ATOM     11  O   UNL     1      -1.219  -0.827  21.422  1.00  0.00    -0.423 OA
ENDROOT
BRANCH   1  12
ATOM     12  O   UNL     1       3.120  -3.918  22.976  1.00  0.00    -0.493 OA
ATOM     13  C   UNL     1       3.116  -5.339  23.072  1.00  0.00     0.278 C 
ENDBRANCH   1  12
BRANCH   2  14
ATOM     14  O   UNL     1       1.686  -2.553  24.863  1.00  0.00    -0.493 OA
ATOM     15  C   UNL     1       0.930  -3.209  25.876  1.00  0.00     0.278 C 
ENDBRANCH   2  14
TORSDOF 2
ENDMDL
MODEL 8
REMARK VINA RESULT:    -4.515      1.488      5.660
REMARK INTER + INTRA:          -5.175
REMARK INTER:                  -5.071
REMARK INTRA:                  -0.104
REMARK UNBOUND:                -0.132
REMARK SMILES COc1cc2ccc(=O)oc2cc1OC
REMARK SMILES IDX 3 1 13 2 12 3 11 4 5 5 4 6 6 7 7 8 8 9 9 10 10 11 2 12 1 13
REMARK SMILES IDX 14 14 15 15
REMARK H PARENT
REMARK Flexibility Score: inf
ROOT
ATOM      1  C   UNL     1       0.854  -2.361  21.375  1.00  0.00     0.161 A 
ATOM      2  C   UNL     1       1.739  -3.449  21.303  1.00  0.00     0.164 A 
ATOM      3  C   UNL     1       2.371  -3.915  22.474  1.00  0.00     0.098 A 
ATOM      4  C   UNL     1       2.123  -3.301  23.704  1.00  0.00     0.142 A 
ATOM      5  C   UNL     1       1.234  -2.208  23.776  1.00  0.00     0.022 A 
ATOM      6  C   UNL     1       0.604  -1.742  22.616  1.00  0.00     0.062 A 
ATOM      7  C   UNL     1       1.007  -1.615  25.022  1.00  0.00     0.019 A 
ATOM      8  C   UNL     1       1.659  -2.116  26.148  1.00  0.00     0.094 A 
ATOM      9  C   UNL     1       2.527  -3.203  26.001  1.00  0.00     0.336 A 
ATOM     10  O   UNL     1       3.125  -3.670  27.005  1.00  0.00    -0.246 OA
ATOM     11  O   UNL     1       2.725  -3.748  24.803  1.00  0.00    -0.423 OA
ENDROOT
BRANCH   1  12
ATOM     12  O   UNL     1       0.242  -1.923  20.189  1.00  0.00    -0.493 OA
ATOM     13  C   UNL     1      -0.231  -0.598  19.965  1.00  0.00     0.278 C 
ENDBRANCH   1  12
BRANCH   2  14
ATOM     14  O   UNL     1       1.965  -4.042  20.051  1.00  0.00    -0.493 OA
ATOM     15  C   UNL     1       2.410  -5.382  19.860  1.00  0.00     0.278 C 
ENDBRANCH   2  14
TORSDOF 2
ENDMDL
MODEL 9
REMARK VINA RESULT:    -4.490      1.690      5.298
REMARK INTER + INTRA:          -5.147
REMARK INTER:                  -5.036
REMARK INTRA:                  -0.111
REMARK UNBOUND:                -0.132
REMARK SMILES COc1cc2ccc(=O)oc2cc1OC
REMARK SMILES IDX 3 1 13 2 12 3 11 4 5 5 4 6 6 7 7 8 8 9 9 10 10 11 2 12 1 13
REMARK SMILES IDX 14 14 15 15
REMARK H PARENT
REMARK Flexibility Score: inf
ROOT
ATOM      1  C   UNL     1       1.894  -3.399  21.824  1.00  0.00     0.161 A 
ATOM      2  C   UNL     1       0.956  -2.357  21.918  1.00  0.00     0.164 A 
ATOM      3  C   UNL     1       0.744  -1.717  23.155  1.00  0.00     0.098 A 
ATOM      4  C   UNL     1       1.459  -2.112  24.288  1.00  0.00     0.142 A 
ATOM      5  C   UNL     1       2.401  -3.158  24.194  1.00  0.00     0.022 A 
ATOM      6  C   UNL     1       2.615  -3.797  22.967  1.00  0.00     0.062 A 
ATOM      7  C   UNL     1       3.100  -3.531  25.346  1.00  0.00     0.019 A 
ATOM      8  C   UNL     1       2.851  -2.864  26.545  1.00  0.00     0.094 A 
ATOM      9  C   UNL     1       1.903  -1.835  26.563  1.00  0.00     0.336 A 
ATOM     10  O   UNL     1       1.662  -1.221  27.635  1.00  0.00    -0.246 OA
ATOM     11  O   UNL     1       1.251  -1.502  25.452  1.00  0.00    -0.423 OA
ENDROOT
BRANCH   1  12
ATOM     12  O   UNL     1       2.079  -4.014  20.575  1.00  0.00    -0.493 OA
ATOM     13  C   UNL     1       2.444  -5.379  20.393  1.00  0.00     0.278 C 
ENDBRANCH   1  12
BRANCH   2  14
ATOM     14  O   UNL     1       0.254  -1.986  20.759  1.00  0.00    -0.493 OA
ATOM     15  C   UNL     1       0.054  -0.642  20.332  1.00  0.00     0.278 C 
ENDBRANCH   2  14
TORSDOF 2
ENDMDL
