MODEL 1
REMARK VINA RESULT:    18.457      0.000      0.000
REMARK INTER + INTRA:          27.022
REMARK INTER:                  24.930
REMARK INTRA:                   2.092
REMARK UNBOUND:                 2.092
REMARK SMILES COc1ccc(-c2cc(=O)c3c(OC)c(OC)c(OC)c(OC)c3o2)cc1
REMARK SMILES IDX 7 1 8 2 9 3 10 4 11 5 24 6 25 7 21 8 18 9 15 10 12 11 6 12
REMARK SMILES IDX 3 13 4 14 27 15 5 16 26 17 2 18 1 19 22 20 23 21 13 22 14 23
REMARK SMILES IDX 19 24 20 25 16 26 17 27
REMARK H PARENT
REMARK Flexibility Score: inf
ROOT
ATOM      1  C   UNL     1       2.273 -14.294 -18.388  1.00  0.00     0.138 A 
ATOM      2  C   UNL     1       1.185 -13.765 -19.090  1.00  0.00     0.100 A 
ATOM      3  C   UNL     1       0.088 -14.577 -19.365  1.00  0.00     0.197 A 
ATOM      4  O   UNL     1      -0.881 -14.083 -20.004  1.00  0.00    -0.289 OA
ATOM      5  C   UNL     1       0.083 -15.924 -18.933  1.00  0.00     0.115 A 
ATOM      6  C   UNL     1       1.223 -16.390 -18.228  1.00  0.00     0.188 A 
ATOM      7  O   UNL     1       2.245 -15.567 -18.003  1.00  0.00    -0.452 OA
ATOM      8  C   UNL     1       1.265 -17.718 -17.748  1.00  0.00     0.209 A 
ATOM      9  C   UNL     1       0.179 -18.569 -17.971  1.00  0.00     0.211 A 
ATOM     10  C   UNL     1      -0.920 -18.144 -18.744  1.00  0.00     0.208 A 
ATOM     11  C   UNL     1      -1.002 -16.801 -19.185  1.00  0.00     0.179 A 
ENDROOT
BRANCH   1  12
ATOM     12  C   UNL     1       3.462 -13.470 -18.066  1.00  0.00     0.018 A 
ATOM     13  C   UNL     1       5.718 -11.912 -17.394  1.00  0.00     0.118 A 
ATOM     14  C   UNL     1       4.849 -11.499 -18.419  1.00  0.00     0.047 A 
ATOM     15  C   UNL     1       5.448 -13.101 -16.710  1.00  0.00     0.047 A 
ATOM     16  C   UNL     1       3.730 -12.270 -18.751  1.00  0.00     0.016 A 
ATOM     17  C   UNL     1       4.330 -13.871 -17.038  1.00  0.00     0.016 A 
BRANCH  13  18
ATOM     18  O   UNL     1       6.852 -11.173 -17.025  1.00  0.00    -0.497 OA
ATOM     19  C   UNL     1       8.050 -11.742 -16.508  1.00  0.00     0.278 C 
ENDBRANCH  13  18
ENDBRANCH   1  12
BRANCH   8  20
ATOM     20  O   UNL     1       2.346 -18.252 -17.017  1.00  0.00    -0.490 OA
ATOM     21  C   UNL     1       2.948 -19.527 -17.205  1.00  0.00     0.278 C 
ENDBRANCH   8  20
BRANCH  11  22
ATOM     22  O   UNL     1      -2.121 -16.299 -19.881  1.00  0.00    -0.492 OA
ATOM     23  C   UNL     1      -2.125 -15.674 -21.160  1.00  0.00     0.278 C 
ENDBRANCH  11  22
BRANCH   9  24
ATOM     24  O   UNL     1       0.224 -19.849 -17.401  1.00  0.00    -0.490 OA
ATOM     25  C   UNL     1      -0.115 -20.109 -16.042  1.00  0.00     0.279 C 
ENDBRANCH   9  24
BRANCH  10  26
ATOM     26  O   UNL     1      -1.907 -19.063 -19.105  1.00  0.00    -0.490 OA
ATOM     27  C   UNL     1      -1.652 -20.116 -20.030  1.00  0.00     0.278 C 
ENDBRANCH  10  26
TORSDOF 6
ENDMDL
MODEL 2
REMARK VINA RESULT:    20.257      1.902      4.045
REMARK INTER + INTRA:          29.454
REMARK INTER:                  29.001
REMARK INTRA:                   0.453
REMARK UNBOUND:                 2.092
REMARK SMILES COc1ccc(-c2cc(=O)c3c(OC)c(OC)c(OC)c(OC)c3o2)cc1
REMARK SMILES IDX 7 1 8 2 9 3 10 4 11 5 24 6 25 7 21 8 18 9 15 10 12 11 6 12
REMARK SMILES IDX 3 13 4 14 27 15 5 16 26 17 2 18 1 19 22 20 23 21 13 22 14 23
REMARK SMILES IDX 19 24 20 25 16 26 17 27
REMARK H PARENT
REMARK Flexibility Score: inf
ROOT
ATOM      1  C   UNL     1       2.039 -14.176 -18.269  1.00  0.00     0.138 A 
ATOM      2  C   UNL     1       2.833 -15.140 -17.638  1.00  0.00     0.100 A 
ATOM      3  C   UNL     1       2.464 -16.480 -17.707  1.00  0.00     0.197 A 
ATOM      4  O   UNL     1       3.188 -17.334 -17.128  1.00  0.00    -0.289 OA
ATOM      5  C   UNL     1       1.296 -16.854 -18.414  1.00  0.00     0.115 A 
ATOM      6  C   UNL     1       0.542 -15.820 -19.026  1.00  0.00     0.188 A 
ATOM      7  O   UNL     1       0.942 -14.555 -18.917  1.00  0.00    -0.452 OA
ATOM      8  C   UNL     1      -0.619 -16.134 -19.768  1.00  0.00     0.209 A 
ATOM      9  C   UNL     1      -1.019 -17.467 -19.895  1.00  0.00     0.211 A 
ATOM     10  C   UNL     1      -0.328 -18.492 -19.219  1.00  0.00     0.208 A 
ATOM     11  C   UNL     1       0.867 -18.202 -18.518  1.00  0.00     0.179 A 
ENDROOT
BRANCH   1  12
ATOM     12  C   UNL     1       2.391 -12.736 -18.228  1.00  0.00     0.018 A 
ATOM     13  C   UNL     1       3.015  -9.983 -18.191  1.00  0.00     0.118 A 
ATOM     14  C   UNL     1       4.041 -10.945 -18.185  1.00  0.00     0.047 A 
ATOM     15  C   UNL     1       1.684 -10.407 -18.221  1.00  0.00     0.047 A 
ATOM     16  C   UNL     1       3.732 -12.308 -18.205  1.00  0.00     0.016 A 
ATOM     17  C   UNL     1       1.373 -11.770 -18.244  1.00  0.00     0.016 A 
BRANCH  13  18
ATOM     18  O   UNL     1       3.276  -8.604 -18.172  1.00  0.00    -0.497 OA
ATOM     19  C   UNL     1       2.682  -7.687 -17.260  1.00  0.00     0.278 C 
ENDBRANCH  13  18
ENDBRANCH   1  12
BRANCH   8  20
ATOM     20  O   UNL     1      -1.409 -15.172 -20.429  1.00  0.00    -0.490 OA
ATOM     21  C   UNL     1      -1.087 -13.801 -20.627  1.00  0.00     0.278 C 
ENDBRANCH   8  20
BRANCH  11  22
ATOM     22  O   UNL     1       1.648 -19.202 -17.903  1.00  0.00    -0.492 OA
ATOM     23  C   UNL     1       1.495 -19.718 -16.585  1.00  0.00     0.278 C 
ENDBRANCH  11  22
BRANCH   9  24
ATOM     24  O   UNL     1      -2.124 -17.742 -20.712  1.00  0.00    -0.490 OA
ATOM     25  C   UNL     1      -2.074 -18.647 -21.811  1.00  0.00     0.279 C 
ENDBRANCH   9  24
BRANCH  10  26
ATOM     26  O   UNL     1      -0.849 -19.787 -19.212  1.00  0.00    -0.490 OA
ATOM     27  C   UNL     1      -2.019 -20.124 -18.473  1.00  0.00     0.278 C 
ENDBRANCH  10  26
TORSDOF 6
ENDMDL
