MODEL 1
REMARK VINA RESULT:    -3.883      0.000      0.000
REMARK INTER + INTRA:          -3.883
REMARK INTER:                  -3.883
REMARK INTRA:                   0.000
REMARK UNBOUND:                 0.000
REMARK SMILES O=C1CCCCC1
REMARK SMILES IDX 5 1 4 2 3 3 2 4 1 5 7 6 6 7
REMARK H PARENT
REMARK Flexibility Score: inf
ROOT
ATOM      1  C   UNL     1      15.974  42.031 -13.526  1.00  0.00     0.001 C 
ATOM      2  C   UNL     1      15.402  42.714 -12.276  1.00  0.00     0.008 C 
ATOM      3  C   UNL     1      14.201  43.603 -12.623  1.00  0.00     0.075 C 
ATOM      4  C   UNL     1      14.546  44.528 -13.758  1.00  0.00     0.132 C 
ATOM      5  O   UNL     1      14.210  45.701 -13.722  1.00  0.00    -0.300 OA
ATOM      6  C   UNL     1      15.225  43.971 -14.979  1.00  0.00     0.075 C 
ATOM      7  C   UNL     1      16.400  43.071 -14.574  1.00  0.00     0.008 C 
ENDROOT
TORSDOF 0
ENDMDL
MODEL 2
REMARK VINA RESULT:    -3.833      1.632      2.899
REMARK INTER + INTRA:          -3.833
REMARK INTER:                  -3.833
REMARK INTRA:                   0.000
REMARK UNBOUND:                 0.000
REMARK SMILES O=C1CCCCC1
REMARK SMILES IDX 5 1 4 2 3 3 2 4 1 5 7 6 6 7
REMARK H PARENT
REMARK Flexibility Score: inf
ROOT
ATOM      1  C   UNL     1      13.919  43.705 -12.769  1.00  0.00     0.001 C 
ATOM      2  C   UNL     1      14.411  44.711 -13.819  1.00  0.00     0.008 C 
ATOM      3  C   UNL     1      15.132  44.008 -14.976  1.00  0.00     0.075 C 
ATOM      4  C   UNL     1      16.181  43.070 -14.444  1.00  0.00     0.132 C 
ATOM      5  O   UNL     1      17.284  43.019 -14.967  1.00  0.00    -0.300 OA
ATOM      6  C   UNL     1      15.827  42.130 -13.326  1.00  0.00     0.075 C 
ATOM      7  C   UNL     1      15.088  42.880 -12.210  1.00  0.00     0.008 C 
ENDROOT
TORSDOF 0
ENDMDL
MODEL 3
REMARK VINA RESULT:    -3.645     14.267     15.205
REMARK INTER + INTRA:          -3.645
REMARK INTER:                  -3.645
REMARK INTRA:                   0.000
REMARK UNBOUND:                 0.000
REMARK SMILES O=C1CCCCC1
REMARK SMILES IDX 5 1 4 2 3 3 2 4 1 5 7 6 6 7
REMARK H PARENT
REMARK Flexibility Score: inf
ROOT
ATOM      1  C   UNL     1      16.991  44.695  -0.091  1.00  0.00     0.001 C 
ATOM      2  C   UNL     1      18.112  45.697  -0.401  1.00  0.00     0.008 C 
ATOM      3  C   UNL     1      19.493  45.105  -0.094  1.00  0.00     0.075 C 
ATOM      4  C   UNL     1      19.517  44.525   1.293  1.00  0.00     0.132 C 
ATOM      5  O   UNL     1      20.476  44.717   2.025  1.00  0.00    -0.300 OA
ATOM      6  C   UNL     1      18.393  43.629   1.734  1.00  0.00     0.075 C 
ATOM      7  C   UNL     1      17.039  44.257   1.381  1.00  0.00     0.008 C 
ENDROOT
TORSDOF 0
ENDMDL
MODEL 4
REMARK VINA RESULT:    -3.562     14.480     15.471
REMARK INTER + INTRA:          -3.562
REMARK INTER:                  -3.562
REMARK INTRA:                   0.000
REMARK UNBOUND:                 0.000
REMARK SMILES O=C1CCCCC1
REMARK SMILES IDX 5 1 4 2 3 3 2 4 1 5 7 6 6 7
REMARK H PARENT
REMARK Flexibility Score: inf
ROOT
ATOM      1  C   UNL     1      17.769  43.700   1.575  1.00  0.00     0.001 C 
ATOM      2  C   UNL     1      19.078  44.125   2.254  1.00  0.00     0.008 C 
ATOM      3  C   UNL     1      20.250  44.120   1.265  1.00  0.00     0.075 C 
ATOM      4  C   UNL     1      20.305  42.811   0.526  1.00  0.00     0.132 C 
ATOM      5  O   UNL     1      21.375  42.250   0.345  1.00  0.00    -0.300 OA
ATOM      6  C   UNL     1      19.044  42.250  -0.069  1.00  0.00     0.075 C 
ATOM      7  C   UNL     1      17.901  42.302   0.954  1.00  0.00     0.008 C 
ENDROOT
TORSDOF 0
ENDMDL
MODEL 5
REMARK VINA RESULT:    -3.539     13.933     14.739
REMARK INTER + INTRA:          -3.539
REMARK INTER:                  -3.539
REMARK INTRA:                   0.000
REMARK UNBOUND:                 0.000
REMARK SMILES O=C1CCCCC1
REMARK SMILES IDX 5 1 4 2 3 3 2 4 1 5 7 6 6 7
REMARK H PARENT
REMARK Flexibility Score: inf
ROOT
ATOM      1  C   UNL     1      19.758  42.965   1.519  1.00  0.00     0.001 C 
ATOM      2  C   UNL     1      18.255  42.678   1.393  1.00  0.00     0.008 C 
ATOM      3  C   UNL     1      17.678  43.266   0.100  1.00  0.00     0.075 C 
ATOM      4  C   UNL     1      18.068  44.712  -0.037  1.00  0.00     0.132 C 
ATOM      5  O   UNL     1      17.249  45.540  -0.404  1.00  0.00    -0.300 OA
ATOM      6  C   UNL     1      19.500  45.111   0.191  1.00  0.00     0.075 C 
ATOM      7  C   UNL     1      20.033  44.476   1.482  1.00  0.00     0.008 C 
ENDROOT
TORSDOF 0
ENDMDL
MODEL 6
REMARK VINA RESULT:    -3.530     14.291     15.025
REMARK INTER + INTRA:          -3.530
REMARK INTER:                  -3.530
REMARK INTRA:                   0.000
REMARK UNBOUND:                 0.000
REMARK SMILES O=C1CCCCC1
REMARK SMILES IDX 5 1 4 2 3 3 2 4 1 5 7 6 6 7
REMARK H PARENT
REMARK Flexibility Score: inf
ROOT
ATOM      1  C   UNL     1      20.203  43.647   0.366  1.00  0.00     0.001 C 
ATOM      2  C   UNL     1      19.638  43.008   1.643  1.00  0.00     0.008 C 
ATOM      3  C   UNL     1      18.115  42.845   1.562  1.00  0.00     0.075 C 
ATOM      4  C   UNL     1      17.472  44.141   1.155  1.00  0.00     0.132 C 
ATOM      5  O   UNL     1      16.458  44.529   1.714  1.00  0.00    -0.300 OA
ATOM      6  C   UNL     1      18.034  44.907  -0.011  1.00  0.00     0.075 C 
ATOM      7  C   UNL     1      19.559  45.018   0.108  1.00  0.00     0.008 C 
ENDROOT
TORSDOF 0
ENDMDL
MODEL 7
REMARK VINA RESULT:    -3.527     13.908     14.841
REMARK INTER + INTRA:          -3.527
REMARK INTER:                  -3.527
REMARK INTRA:                   0.000
REMARK UNBOUND:                 0.000
REMARK SMILES O=C1CCCCC1
REMARK SMILES IDX 5 1 4 2 3 3 2 4 1 5 7 6 6 7
REMARK H PARENT
REMARK Flexibility Score: inf
ROOT
ATOM      1  C   UNL     1      20.029  44.502   1.494  1.00  0.00     0.001 C 
ATOM      2  C   UNL     1      19.545  45.049   0.144  1.00  0.00     0.008 C 
ATOM      3  C   UNL     1      18.075  44.695  -0.111  1.00  0.00     0.075 C 
ATOM      4  C   UNL     1      17.846  43.224   0.105  1.00  0.00     0.132 C 
ATOM      5  O   UNL     1      17.160  42.585  -0.678  1.00  0.00    -0.300 OA
ATOM      6  C   UNL     1      18.393  42.569   1.343  1.00  0.00     0.075 C 
ATOM      7  C   UNL     1      19.856  42.977   1.562  1.00  0.00     0.008 C 
ENDROOT
TORSDOF 0
ENDMDL
MODEL 8
REMARK VINA RESULT:    -3.488     14.201     15.058
REMARK INTER + INTRA:          -3.488
REMARK INTER:                  -3.488
REMARK INTRA:                   0.000
REMARK UNBOUND:                 0.000
REMARK SMILES O=C1CCCCC1
REMARK SMILES IDX 5 1 4 2 3 3 2 4 1 5 7 6 6 7
REMARK H PARENT
REMARK Flexibility Score: inf
ROOT
ATOM      1  C   UNL     1      17.242  44.346   1.051  1.00  0.00     0.001 C 
ATOM      2  C   UNL     1      17.699  42.915   1.366  1.00  0.00     0.008 C 
ATOM      3  C   UNL     1      19.199  42.862   1.683  1.00  0.00     0.075 C 
ATOM      4  C   UNL     1      19.985  43.565   0.610  1.00  0.00     0.132 C 
ATOM      5  O   UNL     1      21.016  43.073   0.178  1.00  0.00    -0.300 OA
ATOM      6  C   UNL     1      19.539  44.924   0.144  1.00  0.00     0.075 C 
ATOM      7  C   UNL     1      18.031  44.925  -0.134  1.00  0.00     0.008 C 
ENDROOT
TORSDOF 0
ENDMDL
MODEL 9
REMARK VINA RESULT:    -3.421      1.691      2.947
REMARK INTER + INTRA:          -3.421
REMARK INTER:                  -3.421
REMARK INTRA:                   0.000
REMARK UNBOUND:                 0.000
REMARK SMILES O=C1CCCCC1
REMARK SMILES IDX 5 1 4 2 3 3 2 4 1 5 7 6 6 7
REMARK H PARENT
REMARK Flexibility Score: inf
ROOT
ATOM      1  C   UNL     1      15.231  44.091 -15.197  1.00  0.00     0.001 C 
ATOM      2  C   UNL     1      16.564  43.376 -14.933  1.00  0.00     0.008 C 
ATOM      3  C   UNL     1      16.397  42.234 -13.922  1.00  0.00     0.075 C 
ATOM      4  C   UNL     1      15.677  42.723 -12.695  1.00  0.00     0.132 C 
ATOM      5  O   UNL     1      16.061  42.394 -11.583  1.00  0.00    -0.300 OA
ATOM      6  C   UNL     1      14.426  43.541 -12.855  1.00  0.00     0.075 C 
ATOM      7  C   UNL     1      14.641  44.650 -13.893  1.00  0.00     0.008 C 
ENDROOT
TORSDOF 0
ENDMDL
