MODEL 1
REMARK VINA RESULT:     0.000      0.000      0.000
REMARK INTER + INTRA:          -0.250
REMARK INTER:                   0.000
REMARK INTRA:                  -0.250
REMARK UNBOUND:                -0.250
REMARK SMILES CCCCCCO
REMARK SMILES IDX 4 1 3 2 2 3 1 4 5 5 6 6 7 7
REMARK H PARENT 7 8
REMARK Flexibility Score: inf
ROOT
ATOM      1  C   UNL     1      -0.455  16.921 -49.503  1.00  0.00     0.002 C 
ENDROOT
BRANCH   1   2
ATOM      2  C   UNL     1      -1.158  17.463 -48.247  1.00  0.00    -0.000 C 
BRANCH   2   3
ATOM      3  C   UNL     1      -0.625  16.829 -46.953  1.00  0.00    -0.003 C 
ATOM      4  C   UNL     1      -1.470  15.645 -46.482  1.00  0.00     0.004 C 
ENDBRANCH   2   3
ENDBRANCH   1   2
BRANCH   1   5
ATOM      5  C   UNL     1      -1.334  15.937 -50.292  1.00  0.00     0.028 C 
BRANCH   5   6
ATOM      6  C   UNL     1      -0.956  14.472 -50.048  1.00  0.00     0.156 C 
BRANCH   6   7
ATOM      7  O   UNL     1       0.299  14.394 -49.428  1.00  0.00    -0.396 OA
ATOM      8  H   UNL     1       0.141  14.064 -48.505  1.00  0.00     0.210 HD
ENDBRANCH   6   7
ENDBRANCH   5   6
ENDBRANCH   1   5
TORSDOF 5
ENDMDL
MODEL 2
REMARK VINA RESULT:     0.000      4.588      5.162
REMARK INTER + INTRA:          -0.250
REMARK INTER:                   0.000
REMARK INTRA:                  -0.250
REMARK UNBOUND:                -0.250
REMARK SMILES CCCCCCO
REMARK SMILES IDX 4 1 3 2 2 3 1 4 5 5 6 6 7 7
REMARK H PARENT 7 8
REMARK Flexibility Score: inf
ROOT
ATOM      1  C   UNL     1       1.994  18.131 -46.296  1.00  0.00     0.002 C 
ENDROOT
BRANCH   1   2
ATOM      2  C   UNL     1       0.482  18.323 -46.080  1.00  0.00    -0.000 C 
BRANCH   2   3
ATOM      3  C   UNL     1       0.165  19.095 -44.790  1.00  0.00    -0.003 C 
ATOM      4  C   UNL     1      -0.143  18.174 -43.609  1.00  0.00     0.004 C 
ENDBRANCH   2   3
ENDBRANCH   1   2
BRANCH   1   5
ATOM      5  C   UNL     1       2.455  16.696 -45.995  1.00  0.00     0.028 C 
BRANCH   5   6
ATOM      6  C   UNL     1       3.132  16.563 -44.626  1.00  0.00     0.156 C 
BRANCH   6   7
ATOM      7  O   UNL     1       3.462  17.831 -44.125  1.00  0.00    -0.396 OA
ATOM      8  H   UNL     1       3.072  17.887 -43.213  1.00  0.00     0.210 HD
ENDBRANCH   6   7
ENDBRANCH   5   6
ENDBRANCH   1   5
TORSDOF 5
ENDMDL
MODEL 3
REMARK VINA RESULT:     0.000      4.756      5.670
REMARK INTER + INTRA:          -0.250
REMARK INTER:                   0.000
REMARK INTRA:                  -0.250
REMARK UNBOUND:                -0.250
REMARK SMILES CCCCCCO
REMARK SMILES IDX 4 1 3 2 2 3 1 4 5 5 6 6 7 7
REMARK H PARENT 7 8
REMARK Flexibility Score: inf
ROOT
ATOM      1  C   UNL     1       1.281  14.093 -45.973  1.00  0.00     0.002 C 
ENDROOT
BRANCH   1   2
ATOM      2  C   UNL     1       0.375  12.961 -46.490  1.00  0.00    -0.000 C 
BRANCH   2   3
ATOM      3  C   UNL     1      -0.048  11.990 -45.377  1.00  0.00    -0.003 C 
ATOM      4  C   UNL     1       0.850  10.755 -45.296  1.00  0.00     0.004 C 
ENDBRANCH   2   3
ENDBRANCH   1   2
BRANCH   1   5
ATOM      5  C   UNL     1       2.754  13.895 -46.364  1.00  0.00     0.028 C 
BRANCH   5   6
ATOM      6  C   UNL     1       3.608  13.350 -45.213  1.00  0.00     0.156 C 
BRANCH   6   7
ATOM      7  O   UNL     1       2.918  13.477 -43.999  1.00  0.00    -0.396 OA
ATOM      8  H   UNL     1       1.971  13.239 -44.183  1.00  0.00     0.210 HD
ENDBRANCH   6   7
ENDBRANCH   5   6
ENDBRANCH   1   5
TORSDOF 5
ENDMDL
MODEL 4
REMARK VINA RESULT:     0.000     11.554     12.123
REMARK INTER + INTRA:          -0.250
REMARK INTER:                   0.000
REMARK INTRA:                  -0.250
REMARK UNBOUND:                -0.250
REMARK SMILES CCCCCCO
REMARK SMILES IDX 4 1 3 2 2 3 1 4 5 5 6 6 7 7
REMARK H PARENT 7 8
REMARK Flexibility Score: inf
ROOT
ATOM      1  C   UNL     1       9.649  10.283 -47.216  1.00  0.00     0.002 C 
ENDROOT
BRANCH   1   2
ATOM      2  C   UNL     1      10.876  11.030 -47.768  1.00  0.00    -0.000 C 
BRANCH   2   3
ATOM      3  C   UNL     1      10.556  12.480 -48.158  1.00  0.00    -0.003 C 
ATOM      4  C   UNL     1      10.888  13.480 -47.050  1.00  0.00     0.004 C 
ENDBRANCH   2   3
ENDBRANCH   1   2
BRANCH   1   5
ATOM      5  C   UNL     1       9.702  10.108 -45.690  1.00  0.00     0.028 C 
BRANCH   5   6
ATOM      6  C   UNL     1       8.813  11.111 -44.945  1.00  0.00     0.156 C 
BRANCH   6   7
ATOM      7  O   UNL     1       7.921  11.721 -45.837  1.00  0.00    -0.396 OA
ATOM      8  H   UNL     1       8.101  11.329 -46.732  1.00  0.00     0.210 HD
ENDBRANCH   6   7
ENDBRANCH   5   6
ENDBRANCH   1   5
TORSDOF 5
ENDMDL
MODEL 5
REMARK VINA RESULT:     0.000     12.559     13.575
REMARK INTER + INTRA:          -0.250
REMARK INTER:                   0.000
REMARK INTRA:                  -0.250
REMARK UNBOUND:                -0.250
REMARK SMILES CCCCCCO
REMARK SMILES IDX 4 1 3 2 2 3 1 4 5 5 6 6 7 7
REMARK H PARENT 7 8
REMARK Flexibility Score: inf
ROOT
ATOM      1  C   UNL     1       9.663  11.209 -52.007  1.00  0.00     0.002 C 
ENDROOT
BRANCH   1   2
ATOM      2  C   UNL     1      10.309  12.299 -52.880  1.00  0.00    -0.000 C 
BRANCH   2   3
ATOM      3  C   UNL     1      10.851  11.746 -54.207  1.00  0.00    -0.003 C 
ATOM      4  C   UNL     1      12.342  11.411 -54.144  1.00  0.00     0.004 C 
ENDBRANCH   2   3
ENDBRANCH   1   2
BRANCH   1   5
ATOM      5  C   UNL     1      10.551  10.800 -50.821  1.00  0.00     0.028 C 
BRANCH   5   6
ATOM      6  C   UNL     1      11.292   9.479 -51.059  1.00  0.00     0.156 C 
BRANCH   6   7
ATOM      7  O   UNL     1      10.731   8.802 -52.151  1.00  0.00    -0.396 OA
ATOM      8  H   UNL     1      11.431   8.187 -52.494  1.00  0.00     0.210 HD
ENDBRANCH   6   7
ENDBRANCH   5   6
ENDBRANCH   1   5
TORSDOF 5
ENDMDL
MODEL 6
REMARK VINA RESULT:     0.000      7.784      8.536
REMARK INTER + INTRA:          -0.250
REMARK INTER:                   0.000
REMARK INTRA:                  -0.250
REMARK UNBOUND:                -0.250
REMARK SMILES CCCCCCO
REMARK SMILES IDX 4 1 3 2 2 3 1 4 5 5 6 6 7 7
REMARK H PARENT 7 8
REMARK Flexibility Score: inf
ROOT
ATOM      1  C   UNL     1       3.753  22.145 -48.261  1.00  0.00     0.002 C 
ENDROOT
BRANCH   1   2
ATOM      2  C   UNL     1       3.824  23.440 -47.433  1.00  0.00    -0.000 C 
BRANCH   2   3
ATOM      3  C   UNL     1       5.259  23.971 -47.292  1.00  0.00    -0.003 C 
ATOM      4  C   UNL     1       5.932  23.524 -45.994  1.00  0.00     0.004 C 
ENDBRANCH   2   3
ENDBRANCH   1   2
BRANCH   1   5
ATOM      5  C   UNL     1       3.525  20.899 -47.389  1.00  0.00     0.028 C 
BRANCH   5   6
ATOM      6  C   UNL     1       4.809  20.096 -47.151  1.00  0.00     0.156 C 
BRANCH   6   7
ATOM      7  O   UNL     1       5.806  20.502 -48.050  1.00  0.00    -0.396 OA
ATOM      8  H   UNL     1       6.476  21.011 -47.522  1.00  0.00     0.210 HD
ENDBRANCH   6   7
ENDBRANCH   5   6
ENDBRANCH   1   5
TORSDOF 5
ENDMDL
MODEL 7
REMARK VINA RESULT:     0.000      5.473      6.029
REMARK INTER + INTRA:          -0.250
REMARK INTER:                   0.000
REMARK INTRA:                  -0.250
REMARK UNBOUND:                -0.250
REMARK SMILES CCCCCCO
REMARK SMILES IDX 4 1 3 2 2 3 1 4 5 5 6 6 7 7
REMARK H PARENT 7 8
REMARK Flexibility Score: inf
ROOT
ATOM      1  C   UNL     1       5.287  14.381 -48.286  1.00  0.00     0.002 C 
ENDROOT
BRANCH   1   2
ATOM      2  C   UNL     1       4.235  14.332 -49.408  1.00  0.00    -0.000 C 
BRANCH   2   3
ATOM      3  C   UNL     1       3.051  15.275 -49.146  1.00  0.00    -0.003 C 
ATOM      4  C   UNL     1       1.865  14.567 -48.489  1.00  0.00     0.004 C 
ENDBRANCH   2   3
ENDBRANCH   1   2
BRANCH   1   5
ATOM      5  C   UNL     1       5.235  13.143 -47.375  1.00  0.00     0.028 C 
BRANCH   5   6
ATOM      6  C   UNL     1       4.520  13.412 -46.046  1.00  0.00     0.156 C 
BRANCH   6   7
ATOM      7  O   UNL     1       4.380  14.792 -45.843  1.00  0.00    -0.396 OA
ATOM      8  H   UNL     1       3.971  15.161 -46.670  1.00  0.00     0.210 HD
ENDBRANCH   6   7
ENDBRANCH   5   6
ENDBRANCH   1   5
TORSDOF 5
ENDMDL
MODEL 8
REMARK VINA RESULT:     0.000      9.622     10.504
REMARK INTER + INTRA:          -0.250
REMARK INTER:                   0.000
REMARK INTRA:                  -0.250
REMARK UNBOUND:                -0.250
REMARK SMILES CCCCCCO
REMARK SMILES IDX 4 1 3 2 2 3 1 4 5 5 6 6 7 7
REMARK H PARENT 7 8
REMARK Flexibility Score: inf
ROOT
ATOM      1  C   UNL     1       9.723  16.223 -46.052  1.00  0.00     0.002 C 
ENDROOT
BRANCH   1   2
ATOM      2  C   UNL     1      10.360  16.262 -47.452  1.00  0.00    -0.000 C 
BRANCH   2   3
ATOM      3  C   UNL     1       9.434  15.689 -48.536  1.00  0.00    -0.003 C 
ATOM      4  C   UNL     1       8.630  16.769 -49.260  1.00  0.00     0.004 C 
ENDBRANCH   2   3
ENDBRANCH   1   2
BRANCH   1   5
ATOM      5  C   UNL     1       9.251  17.608 -45.580  1.00  0.00     0.028 C 
BRANCH   5   6
ATOM      6  C   UNL     1       7.737  17.802 -45.726  1.00  0.00     0.156 C 
BRANCH   6   7
ATOM      7  O   UNL     1       7.111  16.566 -45.940  1.00  0.00    -0.396 OA
ATOM      8  H   UNL     1       6.576  16.657 -46.772  1.00  0.00     0.210 HD
ENDBRANCH   6   7
ENDBRANCH   5   6
ENDBRANCH   1   5
TORSDOF 5
ENDMDL
MODEL 9
REMARK VINA RESULT:     0.000      6.629      7.452
REMARK INTER + INTRA:          -0.250
REMARK INTER:                   0.000
REMARK INTRA:                  -0.250
REMARK UNBOUND:                -0.250
REMARK SMILES CCCCCCO
REMARK SMILES IDX 4 1 3 2 2 3 1 4 5 5 6 6 7 7
REMARK H PARENT 7 8
REMARK Flexibility Score: inf
ROOT
ATOM      1  C   UNL     1       4.893  19.054 -52.050  1.00  0.00     0.002 C 
ENDROOT
BRANCH   1   2
ATOM      2  C   UNL     1       4.005  19.651 -53.156  1.00  0.00    -0.000 C 
BRANCH   2   3
ATOM      3  C   UNL     1       2.677  18.896 -53.317  1.00  0.00    -0.003 C 
ATOM      4  C   UNL     1       2.726  17.838 -54.420  1.00  0.00     0.004 C 
ENDBRANCH   2   3
ENDBRANCH   1   2
BRANCH   1   5
ATOM      5  C   UNL     1       6.073  18.246 -52.613  1.00  0.00     0.028 C 
BRANCH   5   6
ATOM      6  C   UNL     1       5.836  16.732 -52.561  1.00  0.00     0.156 C 
BRANCH   6   7
ATOM      7  O   UNL     1       4.756  16.441 -51.717  1.00  0.00    -0.396 OA
ATOM      8  H   UNL     1       3.955  16.353 -52.298  1.00  0.00     0.210 HD
ENDBRANCH   6   7
ENDBRANCH   5   6
ENDBRANCH   1   5
TORSDOF 5
ENDMDL
