MODEL 1
REMARK VINA RESULT:    -4.352      0.000      0.000
REMARK INTER + INTRA:          -9.591
REMARK INTER:                  -7.660
REMARK INTRA:                  -1.931
REMARK UNBOUND:                -1.931
REMARK SMILES CCCCCCCCCCCCCCC(=O)[O-]
REMARK SMILES IDX 9 1 10 2 11 3 12 4 13 5 14 6 15 7 16 8 17 9 8 10 7 11 6 12
REMARK SMILES IDX 5 13 4 14 3 15 2 16 1 17
REMARK H PARENT
REMARK Flexibility Score: inf
ROOT
ATOM      1  C   UNL     1     205.341 204.300 157.204  1.00  0.00     0.000 C 
ENDROOT
BRANCH   1   2
ATOM      2  C   UNL     1     203.920 204.840 156.976  1.00  0.00     0.000 C 
BRANCH   2   3
ATOM      3  C   UNL     1     203.893 206.372 157.087  1.00  0.00     0.000 C 
BRANCH   3   4
ATOM      4  C   UNL     1     204.812 207.057 156.063  1.00  0.00     0.000 C 
BRANCH   4   5
ATOM      5  C   UNL     1     205.565 208.259 156.651  1.00  0.00     0.006 C 
BRANCH   5   6
ATOM      6  C   UNL     1     205.293 208.396 158.151  1.00  0.00     0.053 C 
BRANCH   6   7
ATOM      7  C   UNL     1     205.379 209.828 158.572  1.00  0.00     0.041 C 
ATOM      8  O   UNL     1     206.465 210.456 158.463  1.00  0.00    -0.550 OA
ATOM      9  O   UNL     1     204.274 210.458 159.131  1.00  0.00    -0.550 OA
ENDBRANCH   6   7
ENDBRANCH   5   6
ENDBRANCH   4   5
ENDBRANCH   3   4
ENDBRANCH   2   3
ENDBRANCH   1   2
BRANCH   1  10
ATOM     10  C   UNL     1     205.587 203.866 158.658  1.00  0.00     0.000 C 
BRANCH  10  11
ATOM     11  C   UNL     1     206.753 204.628 159.312  1.00  0.00    -0.000 C 
BRANCH  11  12
ATOM     12  C   UNL     1     207.709 205.244 158.278  1.00  0.00    -0.000 C 
BRANCH  12  13
ATOM     13  C   UNL     1     208.384 206.528 158.784  1.00  0.00    -0.000 C 
BRANCH  13  14
ATOM     14  C   UNL     1     208.912 207.368 157.611  1.00  0.00    -0.000 C 
BRANCH  14  15
ATOM     15  C   UNL     1     208.773 206.656 156.253  1.00  0.00    -0.000 C 
BRANCH  15  16
ATOM     16  C   UNL     1     209.515 207.335 155.088  1.00  0.00    -0.003 C 
ATOM     17  C   UNL     1     210.983 206.924 154.993  1.00  0.00     0.004 C 
ENDBRANCH  15  16
ENDBRANCH  14  15
ENDBRANCH  13  14
ENDBRANCH  12  13
ENDBRANCH  11  12
ENDBRANCH  10  11
ENDBRANCH   1  10
TORSDOF 13
ENDMDL
MODEL 2
REMARK VINA RESULT:    -4.315      3.153      5.606
REMARK INTER + INTRA:          -9.526
REMARK INTER:                  -7.217
REMARK INTRA:                  -2.309
REMARK UNBOUND:                -1.931
REMARK SMILES CCCCCCCCCCCCCCC(=O)[O-]
REMARK SMILES IDX 9 1 10 2 11 3 12 4 13 5 14 6 15 7 16 8 17 9 8 10 7 11 6 12
REMARK SMILES IDX 5 13 4 14 3 15 2 16 1 17
REMARK H PARENT
REMARK Flexibility Score: inf
ROOT
ATOM      1  C   UNL     1     208.446 205.998 158.069  1.00  0.00     0.000 C 
ENDROOT
BRANCH   1   2
ATOM      2  C   UNL     1     208.185 205.637 159.539  1.00  0.00     0.000 C 
BRANCH   2   3
ATOM      3  C   UNL     1     206.722 205.216 159.748  1.00  0.00     0.000 C 
BRANCH   3   4
ATOM      4  C   UNL     1     206.445 203.781 159.271  1.00  0.00     0.000 C 
BRANCH   4   5
ATOM      5  C   UNL     1     205.253 203.696 158.306  1.00  0.00     0.006 C 
BRANCH   5   6
ATOM      6  C   UNL     1     205.718 203.798 156.851  1.00  0.00     0.053 C 
BRANCH   6   7
ATOM      7  C   UNL     1     206.735 202.744 156.549  1.00  0.00     0.041 C 
ATOM      8  O   UNL     1     206.454 201.527 156.712  1.00  0.00    -0.550 OA
ATOM      9  O   UNL     1     208.011 203.105 156.135  1.00  0.00    -0.550 OA
ENDBRANCH   6   7
ENDBRANCH   5   6
ENDBRANCH   4   5
ENDBRANCH   3   4
ENDBRANCH   2   3
ENDBRANCH   1   2
BRANCH   1  10
ATOM     10  C   UNL     1     208.664 207.505 157.855  1.00  0.00     0.000 C 
BRANCH  10  11
ATOM     11  C   UNL     1     208.112 207.995 156.506  1.00  0.00    -0.000 C 
BRANCH  11  12
ATOM     12  C   UNL     1     207.527 206.854 155.658  1.00  0.00    -0.000 C 
BRANCH  12  13
ATOM     13  C   UNL     1     206.045 207.070 155.312  1.00  0.00    -0.000 C 
BRANCH  13  14
ATOM     14  C   UNL     1     205.396 208.066 156.285  1.00  0.00    -0.000 C 
BRANCH  14  15
ATOM     15  C   UNL     1     204.800 207.387 157.531  1.00  0.00    -0.000 C 
BRANCH  15  16
ATOM     16  C   UNL     1     204.897 208.214 158.826  1.00  0.00    -0.003 C 
ATOM     17  C   UNL     1     205.315 209.663 158.581  1.00  0.00     0.004 C 
ENDBRANCH  15  16
ENDBRANCH  14  15
ENDBRANCH  13  14
ENDBRANCH  12  13
ENDBRANCH  11  12
ENDBRANCH  10  11
ENDBRANCH   1  10
TORSDOF 13
ENDMDL
MODEL 3
REMARK VINA RESULT:    -4.313      1.282      3.485
REMARK INTER + INTRA:          -9.521
REMARK INTER:                  -7.267
REMARK INTRA:                  -2.254
REMARK UNBOUND:                -1.931
REMARK SMILES CCCCCCCCCCCCCCC(=O)[O-]
REMARK SMILES IDX 9 1 10 2 11 3 12 4 13 5 14 6 15 7 16 8 17 9 8 10 7 11 6 12
REMARK SMILES IDX 5 13 4 14 3 15 2 16 1 17
REMARK H PARENT
REMARK Flexibility Score: inf
ROOT
ATOM      1  C   UNL     1     208.226 206.647 155.907  1.00  0.00     0.000 C 
ENDROOT
BRANCH   1   2
ATOM      2  C   UNL     1     207.020 206.078 155.143  1.00  0.00     0.000 C 
BRANCH   2   3
ATOM      3  C   UNL     1     205.793 206.989 155.305  1.00  0.00     0.000 C 
BRANCH   3   4
ATOM      4  C   UNL     1     204.952 206.635 156.543  1.00  0.00     0.000 C 
BRANCH   4   5
ATOM      5  C   UNL     1     204.970 207.740 157.608  1.00  0.00     0.006 C 
BRANCH   5   6
ATOM      6  C   UNL     1     205.637 209.009 157.071  1.00  0.00     0.053 C 
BRANCH   6   7
ATOM      7  C   UNL     1     205.984 209.935 158.192  1.00  0.00     0.041 C 
ATOM      8  O   UNL     1     205.158 210.146 159.119  1.00  0.00    -0.550 OA
ATOM      9  O   UNL     1     207.201 210.605 158.191  1.00  0.00    -0.550 OA
ENDBRANCH   6   7
ENDBRANCH   5   6
ENDBRANCH   4   5
ENDBRANCH   3   4
ENDBRANCH   2   3
ENDBRANCH   1   2
BRANCH   1  10
ATOM     10  C   UNL     1     208.641 205.773 157.102  1.00  0.00     0.000 C 
BRANCH  10  11
ATOM     11  C   UNL     1     208.322 206.433 158.454  1.00  0.00    -0.000 C 
BRANCH  11  12
ATOM     12  C   UNL     1     208.059 205.404 159.566  1.00  0.00    -0.000 C 
BRANCH  12  13
ATOM     13  C   UNL     1     206.562 205.139 159.788  1.00  0.00    -0.000 C 
BRANCH  13  14
ATOM     14  C   UNL     1     206.203 203.691 159.424  1.00  0.00    -0.000 C 
BRANCH  14  15
ATOM     15  C   UNL     1     205.660 203.549 157.990  1.00  0.00    -0.000 C 
BRANCH  15  16
ATOM     16  C   UNL     1     206.581 202.784 157.023  1.00  0.00    -0.003 C 
ATOM     17  C   UNL     1     205.980 202.618 155.628  1.00  0.00     0.004 C 
ENDBRANCH  15  16
ENDBRANCH  14  15
ENDBRANCH  13  14
ENDBRANCH  12  13
ENDBRANCH  11  12
ENDBRANCH  10  11
ENDBRANCH   1  10
TORSDOF 13
ENDMDL
MODEL 4
REMARK VINA RESULT:    -4.265      1.598      2.814
REMARK INTER + INTRA:          -9.437
REMARK INTER:                  -7.075
REMARK INTRA:                  -2.363
REMARK UNBOUND:                -1.931
REMARK SMILES CCCCCCCCCCCCCCC(=O)[O-]
REMARK SMILES IDX 9 1 10 2 11 3 12 4 13 5 14 6 15 7 16 8 17 9 8 10 7 11 6 12
REMARK SMILES IDX 5 13 4 14 3 15 2 16 1 17
REMARK H PARENT
REMARK Flexibility Score: inf
ROOT
ATOM      1  C   UNL     1     206.080 203.811 159.017  1.00  0.00     0.000 C 
ENDROOT
BRANCH   1   2
ATOM      2  C   UNL     1     204.694 204.144 158.442  1.00  0.00     0.000 C 
BRANCH   2   3
ATOM      3  C   UNL     1     204.817 204.755 157.038  1.00  0.00     0.000 C 
BRANCH   3   4
ATOM      4  C   UNL     1     203.995 206.044 156.878  1.00  0.00     0.000 C 
BRANCH   4   5
ATOM      5  C   UNL     1     204.866 207.309 156.893  1.00  0.00     0.006 C 
BRANCH   5   6
ATOM      6  C   UNL     1     204.914 207.925 158.294  1.00  0.00     0.053 C 
BRANCH   6   7
ATOM      7  C   UNL     1     205.563 209.272 158.253  1.00  0.00     0.041 C 
ATOM      8  O   UNL     1     205.173 210.187 159.026  1.00  0.00    -0.550 OA
ATOM      9  O   UNL     1     206.566 209.534 157.329  1.00  0.00    -0.550 OA
ENDBRANCH   6   7
ENDBRANCH   5   6
ENDBRANCH   4   5
ENDBRANCH   3   4
ENDBRANCH   2   3
ENDBRANCH   1   2
BRANCH   1  10
ATOM     10  C   UNL     1     206.735 205.008 159.726  1.00  0.00     0.000 C 
BRANCH  10  11
ATOM     11  C   UNL     1     208.168 205.272 159.234  1.00  0.00    -0.000 C 
BRANCH  11  12
ATOM     12  C   UNL     1     208.256 206.489 158.299  1.00  0.00    -0.000 C 
BRANCH  12  13
ATOM     13  C   UNL     1     208.302 206.095 156.814  1.00  0.00    -0.000 C 
BRANCH  13  14
ATOM     14  C   UNL     1     208.800 204.652 156.646  1.00  0.00    -0.000 C 
BRANCH  14  15
ATOM     15  C   UNL     1     207.868 203.793 155.772  1.00  0.00    -0.000 C 
BRANCH  15  16
ATOM     16  C   UNL     1     207.910 202.284 156.072  1.00  0.00    -0.003 C 
ATOM     17  C   UNL     1     206.525 201.639 156.091  1.00  0.00     0.004 C 
ENDBRANCH  15  16
ENDBRANCH  14  15
ENDBRANCH  13  14
ENDBRANCH  12  13
ENDBRANCH  11  12
ENDBRANCH  10  11
ENDBRANCH   1  10
TORSDOF 13
ENDMDL
MODEL 5
REMARK VINA RESULT:    -4.254      2.705      5.016
REMARK INTER + INTRA:          -9.418
REMARK INTER:                  -7.338
REMARK INTRA:                  -2.080
REMARK UNBOUND:                -1.931
REMARK SMILES CCCCCCCCCCCCCCC(=O)[O-]
REMARK SMILES IDX 9 1 10 2 11 3 12 4 13 5 14 6 15 7 16 8 17 9 8 10 7 11 6 12
REMARK SMILES IDX 5 13 4 14 3 15 2 16 1 17
REMARK H PARENT
REMARK Flexibility Score: inf
ROOT
ATOM      1  C   UNL     1     207.051 204.714 159.589  1.00  0.00     0.000 C 
ENDROOT
BRANCH   1   2
ATOM      2  C   UNL     1     207.983 205.286 158.510  1.00  0.00     0.000 C 
BRANCH   2   3
ATOM      3  C   UNL     1     208.440 206.706 158.878  1.00  0.00     0.000 C 
BRANCH   3   4
ATOM      4  C   UNL     1     208.935 207.504 157.660  1.00  0.00     0.000 C 
BRANCH   4   5
ATOM      5  C   UNL     1     208.703 206.766 156.334  1.00  0.00     0.006 C 
BRANCH   5   6
ATOM      6  C   UNL     1     209.506 207.410 155.201  1.00  0.00     0.053 C 
BRANCH   6   7
ATOM      7  C   UNL     1     210.949 207.027 155.296  1.00  0.00     0.041 C 
ATOM      8  O   UNL     1     211.805 207.871 155.672  1.00  0.00    -0.550 OA
ATOM      9  O   UNL     1     211.357 205.752 154.924  1.00  0.00    -0.550 OA
ENDBRANCH   6   7
ENDBRANCH   5   6
ENDBRANCH   4   5
ENDBRANCH   3   4
ENDBRANCH   2   3
ENDBRANCH   1   2
BRANCH   1  10
ATOM     10  C   UNL     1     205.957 203.802 159.011  1.00  0.00     0.000 C 
BRANCH  10  11
ATOM     11  C   UNL     1     206.267 203.348 157.573  1.00  0.00    -0.000 C 
BRANCH  11  12
ATOM     12  C   UNL     1     205.289 203.939 156.545  1.00  0.00    -0.000 C 
BRANCH  12  13
ATOM     13  C   UNL     1     204.458 205.100 157.114  1.00  0.00    -0.000 C 
BRANCH  13  14
ATOM     14  C   UNL     1     204.900 206.439 156.505  1.00  0.00    -0.000 C 
BRANCH  14  15
ATOM     15  C   UNL     1     205.074 207.549 157.558  1.00  0.00    -0.000 C 
BRANCH  15  16
ATOM     16  C   UNL     1     205.609 208.884 157.008  1.00  0.00    -0.003 C 
ATOM     17  C   UNL     1     206.081 209.837 158.104  1.00  0.00     0.004 C 
ENDBRANCH  15  16
ENDBRANCH  14  15
ENDBRANCH  13  14
ENDBRANCH  12  13
ENDBRANCH  11  12
ENDBRANCH  10  11
ENDBRANCH   1  10
TORSDOF 13
ENDMDL
MODEL 6
REMARK VINA RESULT:    -4.250      1.488      4.251
REMARK INTER + INTRA:          -9.412
REMARK INTER:                  -7.339
REMARK INTRA:                  -2.073
REMARK UNBOUND:                -1.931
REMARK SMILES CCCCCCCCCCCCCCC(=O)[O-]
REMARK SMILES IDX 9 1 10 2 11 3 12 4 13 5 14 6 15 7 16 8 17 9 8 10 7 11 6 12
REMARK SMILES IDX 5 13 4 14 3 15 2 16 1 17
REMARK H PARENT
REMARK Flexibility Score: inf
ROOT
ATOM      1  C   UNL     1     208.309 206.953 155.439  1.00  0.00     0.000 C 
ENDROOT
BRANCH   1   2
ATOM      2  C   UNL     1     208.051 206.228 156.769  1.00  0.00     0.000 C 
BRANCH   2   3
ATOM      3  C   UNL     1     207.685 207.230 157.876  1.00  0.00     0.000 C 
BRANCH   3   4
ATOM      4  C   UNL     1     207.875 208.691 157.438  1.00  0.00     0.000 C 
BRANCH   4   5
ATOM      5  C   UNL     1     206.544 209.441 157.280  1.00  0.00     0.006 C 
BRANCH   5   6
ATOM      6  C   UNL     1     206.221 210.256 158.536  1.00  0.00     0.053 C 
BRANCH   6   7
ATOM      7  C   UNL     1     204.885 209.867 159.085  1.00  0.00     0.041 C 
ATOM      8  O   UNL     1     204.692 208.697 159.511  1.00  0.00    -0.550 OA
ATOM      9  O   UNL     1     203.839 210.780 159.082  1.00  0.00    -0.550 OA
ENDBRANCH   6   7
ENDBRANCH   5   6
ENDBRANCH   4   5
ENDBRANCH   3   4
ENDBRANCH   2   3
ENDBRANCH   1   2
BRANCH   1  10
ATOM     10  C   UNL     1     207.179 206.745 154.418  1.00  0.00     0.000 C 
BRANCH  10  11
ATOM     11  C   UNL     1     206.015 205.916 154.987  1.00  0.00    -0.000 C 
BRANCH  11  12
ATOM     12  C   UNL     1     204.814 206.785 155.393  1.00  0.00    -0.000 C 
BRANCH  12  13
ATOM     13  C   UNL     1     204.252 206.414 156.775  1.00  0.00    -0.000 C 
BRANCH  13  14
ATOM     14  C   UNL     1     204.334 204.898 157.009  1.00  0.00    -0.000 C 
BRANCH  14  15
ATOM     15  C   UNL     1     205.080 204.530 158.305  1.00  0.00    -0.000 C 
BRANCH  15  16
ATOM     16  C   UNL     1     205.730 203.135 158.302  1.00  0.00    -0.003 C 
ATOM     17  C   UNL     1     206.384 202.781 156.968  1.00  0.00     0.004 C 
ENDBRANCH  15  16
ENDBRANCH  14  15
ENDBRANCH  13  14
ENDBRANCH  12  13
ENDBRANCH  11  12
ENDBRANCH  10  11
ENDBRANCH   1  10
TORSDOF 13
ENDMDL
MODEL 7
REMARK VINA RESULT:    -4.206      3.493      5.373
REMARK INTER + INTRA:          -9.335
REMARK INTER:                  -6.972
REMARK INTRA:                  -2.363
REMARK UNBOUND:                -1.931
REMARK SMILES CCCCCCCCCCCCCCC(=O)[O-]
REMARK SMILES IDX 9 1 10 2 11 3 12 4 13 5 14 6 15 7 16 8 17 9 8 10 7 11 6 12
REMARK SMILES IDX 5 13 4 14 3 15 2 16 1 17
REMARK H PARENT
REMARK Flexibility Score: inf
ROOT
ATOM      1  C   UNL     1     204.919 207.738 157.565  1.00  0.00     0.000 C 
ENDROOT
BRANCH   1   2
ATOM      2  C   UNL     1     205.035 206.414 156.795  1.00  0.00     0.000 C 
BRANCH   2   3
ATOM      3  C   UNL     1     205.267 206.670 155.298  1.00  0.00     0.000 C 
BRANCH   3   4
ATOM      4  C   UNL     1     206.371 205.777 154.709  1.00  0.00     0.000 C 
BRANCH   4   5
ATOM      5  C   UNL     1     206.823 204.675 155.678  1.00  0.00     0.006 C 
BRANCH   5   6
ATOM      6  C   UNL     1     206.426 203.291 155.158  1.00  0.00     0.053 C 
BRANCH   6   7
ATOM      7  C   UNL     1     207.192 202.222 155.870  1.00  0.00     0.041 C 
ATOM      8  O   UNL     1     206.596 201.414 156.630  1.00  0.00    -0.550 OA
ATOM      9  O   UNL     1     208.573 202.147 155.734  1.00  0.00    -0.550 OA
ENDBRANCH   6   7
ENDBRANCH   5   6
ENDBRANCH   4   5
ENDBRANCH   3   4
ENDBRANCH   2   3
ENDBRANCH   1   2
BRANCH   1  10
ATOM     10  C   UNL     1     205.751 208.867 156.936  1.00  0.00     0.000 C 
BRANCH  10  11
ATOM     11  C   UNL     1     207.179 208.936 157.505  1.00  0.00    -0.000 C 
BRANCH  11  12
ATOM     12  C   UNL     1     208.223 208.333 156.551  1.00  0.00    -0.000 C 
BRANCH  12  13
ATOM     13  C   UNL     1     209.036 207.201 157.199  1.00  0.00    -0.000 C 
BRANCH  13  14
ATOM     14  C   UNL     1     208.557 206.935 158.634  1.00  0.00    -0.000 C 
BRANCH  14  15
ATOM     15  C   UNL     1     208.172 205.465 158.875  1.00  0.00    -0.000 C 
BRANCH  15  16
ATOM     16  C   UNL     1     206.866 205.259 159.664  1.00  0.00    -0.003 C 
ATOM     17  C   UNL     1     206.176 203.934 159.346  1.00  0.00     0.004 C 
ENDBRANCH  15  16
ENDBRANCH  14  15
ENDBRANCH  13  14
ENDBRANCH  12  13
ENDBRANCH  11  12
ENDBRANCH  10  11
ENDBRANCH   1  10
TORSDOF 13
ENDMDL
MODEL 8
REMARK VINA RESULT:    -4.203      3.521      5.188
REMARK INTER + INTRA:          -9.328
REMARK INTER:                  -6.996
REMARK INTRA:                  -2.332
REMARK UNBOUND:                -1.931
REMARK SMILES CCCCCCCCCCCCCCC(=O)[O-]
REMARK SMILES IDX 9 1 10 2 11 3 12 4 13 5 14 6 15 7 16 8 17 9 8 10 7 11 6 12
REMARK SMILES IDX 5 13 4 14 3 15 2 16 1 17
REMARK H PARENT
REMARK Flexibility Score: inf
ROOT
ATOM      1  C   UNL     1     204.774 207.210 157.222  1.00  0.00     0.000 C 
ENDROOT
BRANCH   1   2
ATOM      2  C   UNL     1     203.584 206.281 156.937  1.00  0.00     0.000 C 
BRANCH   2   3
ATOM      3  C   UNL     1     203.897 204.841 157.374  1.00  0.00     0.000 C 
BRANCH   3   4
ATOM      4  C   UNL     1     205.172 204.746 158.228  1.00  0.00     0.000 C 
BRANCH   4   5
ATOM      5  C   UNL     1     205.927 203.425 158.020  1.00  0.00     0.006 C 
BRANCH   5   6
ATOM      6  C   UNL     1     205.999 203.062 156.535  1.00  0.00     0.053 C 
BRANCH   6   7
ATOM      7  C   UNL     1     206.927 201.909 156.320  1.00  0.00     0.041 C 
ATOM      8  O   UNL     1     207.821 201.971 155.435  1.00  0.00    -0.550 OA
ATOM      9  O   UNL     1     206.776 200.746 157.064  1.00  0.00    -0.550 OA
ENDBRANCH   6   7
ENDBRANCH   5   6
ENDBRANCH   4   5
ENDBRANCH   3   4
ENDBRANCH   2   3
ENDBRANCH   1   2
BRANCH   1  10
ATOM     10  C   UNL     1     205.225 207.999 155.982  1.00  0.00     0.000 C 
BRANCH  10  11
ATOM     11  C   UNL     1     205.387 207.104 154.740  1.00  0.00    -0.000 C 
BRANCH  11  12
ATOM     12  C   UNL     1     206.602 206.168 154.842  1.00  0.00    -0.000 C 
BRANCH  12  13
ATOM     13  C   UNL     1     207.914 206.851 154.424  1.00  0.00    -0.000 C 
BRANCH  13  14
ATOM     14  C   UNL     1     208.943 206.804 155.564  1.00  0.00    -0.000 C 
BRANCH  14  15
ATOM     15  C   UNL     1     208.449 206.008 156.786  1.00  0.00    -0.000 C 
BRANCH  15  16
ATOM     16  C   UNL     1     208.361 206.817 158.092  1.00  0.00    -0.003 C 
ATOM     17  C   UNL     1     208.476 208.325 157.871  1.00  0.00     0.004 C 
ENDBRANCH  15  16
ENDBRANCH  14  15
ENDBRANCH  13  14
ENDBRANCH  12  13
ENDBRANCH  11  12
ENDBRANCH  10  11
ENDBRANCH   1  10
TORSDOF 13
ENDMDL
MODEL 9
REMARK VINA RESULT:    -4.199      3.104      5.434
REMARK INTER + INTRA:          -9.322
REMARK INTER:                  -7.032
REMARK INTRA:                  -2.290
REMARK UNBOUND:                -1.931
REMARK SMILES CCCCCCCCCCCCCCC(=O)[O-]
REMARK SMILES IDX 9 1 10 2 11 3 12 4 13 5 14 6 15 7 16 8 17 9 8 10 7 11 6 12
REMARK SMILES IDX 5 13 4 14 3 15 2 16 1 17
REMARK H PARENT
REMARK Flexibility Score: inf
ROOT
ATOM      1  C   UNL     1     208.858 206.327 156.233  1.00  0.00     0.000 C 
ENDROOT
BRANCH   1   2
ATOM      2  C   UNL     1     209.093 207.220 157.461  1.00  0.00     0.000 C 
BRANCH   2   3
ATOM      3  C   UNL     1     208.253 206.740 158.655  1.00  0.00     0.000 C 
BRANCH   3   4
ATOM      4  C   UNL     1     207.935 205.237 158.590  1.00  0.00     0.000 C 
BRANCH   4   5
ATOM      5  C   UNL     1     206.751 204.842 159.484  1.00  0.00     0.006 C 
BRANCH   5   6
ATOM      6  C   UNL     1     205.630 204.203 158.660  1.00  0.00     0.053 C 
BRANCH   6   7
ATOM      7  C   UNL     1     205.952 202.776 158.353  1.00  0.00     0.041 C 
ATOM      8  O   UNL     1     206.157 202.414 157.164  1.00  0.00    -0.550 OA
ATOM      9  O   UNL     1     205.979 201.833 159.372  1.00  0.00    -0.550 OA
ENDBRANCH   6   7
ENDBRANCH   5   6
ENDBRANCH   4   5
ENDBRANCH   3   4
ENDBRANCH   2   3
ENDBRANCH   1   2
BRANCH   1  10
ATOM     10  C   UNL     1     208.470 207.127 154.980  1.00  0.00     0.000 C 
BRANCH  10  11
ATOM     11  C   UNL     1     207.065 206.769 154.463  1.00  0.00    -0.000 C 
BRANCH  11  12
ATOM     12  C   UNL     1     206.208 206.063 155.526  1.00  0.00    -0.000 C 
BRANCH  12  13
ATOM     13  C   UNL     1     204.967 206.877 155.926  1.00  0.00    -0.000 C 
BRANCH  13  14
ATOM     14  C   UNL     1     205.261 207.755 157.152  1.00  0.00    -0.000 C 
BRANCH  14  15
ATOM     15  C   UNL     1     205.361 209.252 156.808  1.00  0.00    -0.000 C 
BRANCH  15  16
ATOM     16  C   UNL     1     206.787 209.830 156.845  1.00  0.00    -0.003 C 
ATOM     17  C   UNL     1     207.139 210.469 158.188  1.00  0.00     0.004 C 
ENDBRANCH  15  16
ENDBRANCH  14  15
ENDBRANCH  13  14
ENDBRANCH  12  13
ENDBRANCH  11  12
ENDBRANCH  10  11
ENDBRANCH   1  10
TORSDOF 13
ENDMDL
