MODEL 1
REMARK VINA RESULT:    -3.865      0.000      0.000
REMARK INTER + INTRA:          -3.865
REMARK INTER:                  -3.865
REMARK INTRA:                   0.000
REMARK UNBOUND:                 0.000
REMARK SMILES CC1=CC[C@H]2C[C@@H]1C2(C)C
REMARK SMILES IDX 1 1 2 2 3 3 4 4 5 5 6 6 7 7 8 8 9 9 10 10
REMARK H PARENT
REMARK Flexibility Score: inf
ROOT
ATOM      1  C   UNL     1     133.745 138.549 138.917  1.00  0.00     0.039 C 
ATOM      2  C   UNL     1     133.973 139.068 137.529  1.00  0.00    -0.074 C 
ATOM      3  C   UNL     1     133.035 138.914 136.549  1.00  0.00    -0.027 C 
ATOM      4  C   UNL     1     133.345 139.446 135.135  1.00  0.00     0.031 C 
ATOM      5  C   UNL     1     134.751 140.140 135.119  1.00  0.00    -0.000 C 
ATOM      6  C   UNL     1     134.781 141.054 136.361  1.00  0.00     0.013 C 
ATOM      7  C   UNL     1     135.258 139.814 137.144  1.00  0.00     0.021 C 
ATOM      8  C   UNL     1     135.808 139.237 135.813  1.00  0.00    -0.026 C 
ATOM      9  C   UNL     1     135.737 137.701 135.588  1.00  0.00     0.012 C 
ATOM     10  C   UNL     1     137.256 139.703 135.524  1.00  0.00     0.012 C 
ENDROOT
TORSDOF 0
ENDMDL
MODEL 2
REMARK VINA RESULT:    -3.857      4.104      5.286
REMARK INTER + INTRA:          -3.857
REMARK INTER:                  -3.857
REMARK INTRA:                   0.000
REMARK UNBOUND:                 0.000
REMARK SMILES CC1=CC[C@H]2C[C@@H]1C2(C)C
REMARK SMILES IDX 1 1 2 2 3 3 4 4 5 5 6 6 7 7 8 8 9 9 10 10
REMARK H PARENT
REMARK Flexibility Score: inf
ROOT
ATOM      1  C   UNL     1     138.573 138.986 138.939  1.00  0.00     0.039 C 
ATOM      2  C   UNL     1     139.084 138.721 137.554  1.00  0.00    -0.074 C 
ATOM      3  C   UNL     1     138.917 139.629 136.549  1.00  0.00    -0.027 C 
ATOM      4  C   UNL     1     139.442 139.282 135.141  1.00  0.00     0.031 C 
ATOM      5  C   UNL     1     140.145 137.881 135.160  1.00  0.00    -0.000 C 
ATOM      6  C   UNL     1     141.067 137.892 136.397  1.00  0.00     0.013 C 
ATOM      7  C   UNL     1     139.836 137.430 137.202  1.00  0.00     0.021 C 
ATOM      8  C   UNL     1     139.253 136.838 135.891  1.00  0.00    -0.026 C 
ATOM      9  C   UNL     1     137.715 136.893 135.675  1.00  0.00     0.012 C 
ATOM     10  C   UNL     1     139.727 135.385 135.640  1.00  0.00     0.012 C 
ENDROOT
TORSDOF 0
ENDMDL
MODEL 3
REMARK VINA RESULT:    -3.807      5.448      7.525
REMARK INTER + INTRA:          -3.807
REMARK INTER:                  -3.807
REMARK INTRA:                   0.000
REMARK UNBOUND:                 0.000
REMARK SMILES CC1=CC[C@H]2C[C@@H]1C2(C)C
REMARK SMILES IDX 1 1 2 2 3 3 4 4 5 5 6 6 7 7 8 8 9 9 10 10
REMARK H PARENT
REMARK Flexibility Score: inf
ROOT
ATOM      1  C   UNL     1     138.757 134.122 138.876  1.00  0.00     0.039 C 
ATOM      2  C   UNL     1     138.593 133.547 137.501  1.00  0.00    -0.074 C 
ATOM      3  C   UNL     1     139.560 133.693 136.549  1.00  0.00    -0.027 C 
ATOM      4  C   UNL     1     139.316 133.103 135.146  1.00  0.00     0.031 C 
ATOM      5  C   UNL     1     137.931 132.368 135.106  1.00  0.00    -0.000 C 
ATOM      6  C   UNL     1     137.882 131.499 136.379  1.00  0.00     0.013 C 
ATOM      7  C   UNL     1     137.343 132.751 137.100  1.00  0.00     0.021 C 
ATOM      8  C   UNL     1     136.825 133.265 135.730  1.00  0.00    -0.026 C 
ATOM      9  C   UNL     1     136.862 134.793 135.452  1.00  0.00     0.012 C 
ATOM     10  C   UNL     1     135.401 132.747 135.408  1.00  0.00     0.012 C 
ENDROOT
TORSDOF 0
ENDMDL
MODEL 4
REMARK VINA RESULT:    -3.767      2.116      4.412
REMARK INTER + INTRA:          -3.767
REMARK INTER:                  -3.767
REMARK INTRA:                   0.000
REMARK UNBOUND:                 0.000
REMARK SMILES CC1=CC[C@H]2C[C@@H]1C2(C)C
REMARK SMILES IDX 1 1 2 2 3 3 4 4 5 5 6 6 7 7 8 8 9 9 10 10
REMARK H PARENT
REMARK Flexibility Score: inf
ROOT
ATOM      1  C   UNL     1     137.091 141.613 131.875  1.00  0.00     0.039 C 
ATOM      2  C   UNL     1     137.017 140.575 132.954  1.00  0.00    -0.074 C 
ATOM      3  C   UNL     1     137.153 139.246 132.673  1.00  0.00    -0.027 C 
ATOM      4  C   UNL     1     137.038 138.228 133.825  1.00  0.00     0.031 C 
ATOM      5  C   UNL     1     136.814 138.978 135.184  1.00  0.00    -0.000 C 
ATOM      6  C   UNL     1     137.848 140.123 135.205  1.00  0.00     0.013 C 
ATOM      7  C   UNL     1     136.805 140.951 134.427  1.00  0.00     0.021 C 
ATOM      8  C   UNL     1     135.698 140.048 135.033  1.00  0.00    -0.026 C 
ATOM      9  C   UNL     1     134.457 139.712 134.159  1.00  0.00     0.012 C 
ATOM     10  C   UNL     1     135.199 140.571 136.404  1.00  0.00     0.012 C 
ENDROOT
TORSDOF 0
ENDMDL
MODEL 5
REMARK VINA RESULT:    -3.758      1.185      3.566
REMARK INTER + INTRA:          -3.758
REMARK INTER:                  -3.758
REMARK INTRA:                   0.000
REMARK UNBOUND:                 0.000
REMARK SMILES CC1=CC[C@H]2C[C@@H]1C2(C)C
REMARK SMILES IDX 1 1 2 2 3 3 4 4 5 5 6 6 7 7 8 8 9 9 10 10
REMARK H PARENT
REMARK Flexibility Score: inf
ROOT
ATOM      1  C   UNL     1     137.134 140.881 133.437  1.00  0.00     0.039 C 
ATOM      2  C   UNL     1     136.501 140.323 134.676  1.00  0.00    -0.074 C 
ATOM      3  C   UNL     1     137.247 139.720 135.646  1.00  0.00    -0.027 C 
ATOM      4  C   UNL     1     136.529 139.141 136.882  1.00  0.00     0.031 C 
ATOM      5  C   UNL     1     134.989 139.420 136.788  1.00  0.00    -0.000 C 
ATOM      6  C   UNL     1     134.856 140.903 136.384  1.00  0.00     0.013 C 
ATOM      7  C   UNL     1     134.989 140.420 134.926  1.00  0.00     0.021 C 
ATOM      8  C   UNL     1     134.455 139.036 135.380  1.00  0.00    -0.026 C 
ATOM      9  C   UNL     1     135.021 137.763 134.692  1.00  0.00     0.012 C 
ATOM     10  C   UNL     1     132.908 138.961 135.342  1.00  0.00     0.012 C 
ENDROOT
TORSDOF 0
ENDMDL
MODEL 6
REMARK VINA RESULT:    -3.751      5.704      7.272
REMARK INTER + INTRA:          -3.751
REMARK INTER:                  -3.751
REMARK INTRA:                   0.000
REMARK UNBOUND:                 0.000
REMARK SMILES CC1=CC[C@H]2C[C@@H]1C2(C)C
REMARK SMILES IDX 1 1 2 2 3 3 4 4 5 5 6 6 7 7 8 8 9 9 10 10
REMARK H PARENT
REMARK Flexibility Score: inf
ROOT
ATOM      1  C   UNL     1     135.380 131.730 133.858  1.00  0.00     0.039 C 
ATOM      2  C   UNL     1     136.094 132.351 135.020  1.00  0.00    -0.074 C 
ATOM      3  C   UNL     1     135.418 133.037 135.987  1.00  0.00    -0.027 C 
ATOM      4  C   UNL     1     136.218 133.676 137.140  1.00  0.00     0.031 C 
ATOM      5  C   UNL     1     137.743 133.350 136.982  1.00  0.00    -0.000 C 
ATOM      6  C   UNL     1     137.818 131.840 136.672  1.00  0.00     0.013 C 
ATOM      7  C   UNL     1     137.615 132.230 135.194  1.00  0.00     0.021 C 
ATOM      8  C   UNL     1     138.206 133.626 135.524  1.00  0.00    -0.026 C 
ATOM      9  C   UNL     1     137.632 134.866 134.783  1.00  0.00     0.012 C 
ATOM     10  C   UNL     1     139.750 133.656 135.396  1.00  0.00     0.012 C 
ENDROOT
TORSDOF 0
ENDMDL
MODEL 7
REMARK VINA RESULT:    -3.748      3.671      5.306
REMARK INTER + INTRA:          -3.748
REMARK INTER:                  -3.748
REMARK INTRA:                   0.000
REMARK UNBOUND:                 0.000
REMARK SMILES CC1=CC[C@H]2C[C@@H]1C2(C)C
REMARK SMILES IDX 1 1 2 2 3 3 4 4 5 5 6 6 7 7 8 8 9 9 10 10
REMARK H PARENT
REMARK Flexibility Score: inf
ROOT
ATOM      1  C   UNL     1     131.789 137.144 133.779  1.00  0.00     0.039 C 
ATOM      2  C   UNL     1     132.375 136.462 134.979  1.00  0.00    -0.074 C 
ATOM      3  C   UNL     1     133.046 137.164 135.938  1.00  0.00    -0.027 C 
ATOM      4  C   UNL     1     133.649 136.398 137.133  1.00  0.00     0.031 C 
ATOM      5  C   UNL     1     133.309 134.871 137.018  1.00  0.00    -0.000 C 
ATOM      6  C   UNL     1     131.807 134.801 136.676  1.00  0.00     0.013 C 
ATOM      7  C   UNL     1     132.232 134.950 135.202  1.00  0.00     0.021 C 
ATOM      8  C   UNL     1     133.614 134.356 135.584  1.00  0.00    -0.026 C 
ATOM      9  C   UNL     1     134.877 134.891 134.854  1.00  0.00     0.012 C 
ATOM     10  C   UNL     1     133.629 132.808 135.509  1.00  0.00     0.012 C 
ENDROOT
TORSDOF 0
ENDMDL
MODEL 8
REMARK VINA RESULT:    -3.747      4.134      6.167
REMARK INTER + INTRA:          -3.747
REMARK INTER:                  -3.747
REMARK INTRA:                   0.000
REMARK UNBOUND:                 0.000
REMARK SMILES CC1=CC[C@H]2C[C@@H]1C2(C)C
REMARK SMILES IDX 1 1 2 2 3 3 4 4 5 5 6 6 7 7 8 8 9 9 10 10
REMARK H PARENT
REMARK Flexibility Score: inf
ROOT
ATOM      1  C   UNL     1     140.826 135.638 133.480  1.00  0.00     0.039 C 
ATOM      2  C   UNL     1     140.280 136.241 134.740  1.00  0.00    -0.074 C 
ATOM      3  C   UNL     1     139.662 135.475 135.685  1.00  0.00    -0.027 C 
ATOM      4  C   UNL     1     139.097 136.162 136.944  1.00  0.00     0.031 C 
ATOM      5  C   UNL     1     139.406 137.699 136.901  1.00  0.00    -0.000 C 
ATOM      6  C   UNL     1     140.892 137.816 136.502  1.00  0.00     0.013 C 
ATOM      7  C   UNL     1     140.406 137.741 135.040  1.00  0.00     0.021 C 
ATOM      8  C   UNL     1     139.032 138.287 135.512  1.00  0.00    -0.026 C 
ATOM      9  C   UNL     1     137.749 137.769 134.806  1.00  0.00     0.012 C 
ATOM     10  C   UNL     1     138.988 139.836 135.524  1.00  0.00     0.012 C 
ENDROOT
TORSDOF 0
ENDMDL
MODEL 9
REMARK VINA RESULT:    -3.719      4.122      5.346
REMARK INTER + INTRA:          -3.719
REMARK INTER:                  -3.719
REMARK INTRA:                   0.000
REMARK UNBOUND:                 0.000
REMARK SMILES CC1=CC[C@H]2C[C@@H]1C2(C)C
REMARK SMILES IDX 1 1 2 2 3 3 4 4 5 5 6 6 7 7 8 8 9 9 10 10
REMARK H PARENT
REMARK Flexibility Score: inf
ROOT
ATOM      1  C   UNL     1     133.762 136.029 138.711  1.00  0.00     0.039 C 
ATOM      2  C   UNL     1     133.368 135.140 137.570  1.00  0.00    -0.074 C 
ATOM      3  C   UNL     1     133.710 133.819 137.547  1.00  0.00    -0.027 C 
ATOM      4  C   UNL     1     133.298 132.967 136.329  1.00  0.00     0.031 C 
ATOM      5  C   UNL     1     132.478 133.839 135.316  1.00  0.00    -0.000 C 
ATOM      6  C   UNL     1     131.444 134.605 136.166  1.00  0.00     0.013 C 
ATOM      7  C   UNL     1     132.545 135.661 136.383  1.00  0.00     0.021 C 
ATOM      8  C   UNL     1     133.201 135.190 135.058  1.00  0.00    -0.026 C 
ATOM      9  C   UNL     1     134.752 135.197 134.957  1.00  0.00     0.012 C 
ATOM     10  C   UNL     1     132.630 135.932 133.823  1.00  0.00     0.012 C 
ENDROOT
TORSDOF 0
ENDMDL
