MODEL 1
REMARK VINA RESULT:    14.123      0.000      0.000
REMARK INTER + INTRA:          17.879
REMARK INTER:                  17.425
REMARK INTRA:                   0.454
REMARK UNBOUND:                 0.454
REMARK SMILES C=CCc1ccc(OC)c(OC)c1
REMARK SMILES IDX 7 1 10 2 13 3 4 4 5 5 6 6 8 7 9 8 11 9 12 10 3 11 2 12 1 13
REMARK H PARENT
REMARK Flexibility Score: inf
ROOT
ATOM      1  C   UNL     1      12.149   3.070   7.571  1.00  0.00     0.160 A 
ATOM      2  C   UNL     1      12.731   4.059   8.381  1.00  0.00     0.160 A 
ATOM      3  C   UNL     1      12.616   5.414   8.016  1.00  0.00     0.054 A 
ATOM      4  C   UNL     1      11.933   5.785   6.848  1.00  0.00    -0.040 A 
ATOM      5  C   UNL     1      11.347   4.792   6.051  1.00  0.00     0.008 A 
ATOM      6  C   UNL     1      11.456   3.447   6.405  1.00  0.00     0.051 A 
ENDROOT
BRANCH   1   7
ATOM      7  O   UNL     1      12.281   1.727   7.959  1.00  0.00    -0.493 OA
ATOM      8  C   UNL     1      13.460   1.163   8.521  1.00  0.00     0.278 C 
ENDBRANCH   1   7
BRANCH   2   9
ATOM      9  O   UNL     1      13.413   3.654   9.540  1.00  0.00    -0.493 OA
ATOM     10  C   UNL     1      13.609   4.472  10.688  1.00  0.00     0.278 C 
ENDBRANCH   2   9
BRANCH   4  11
ATOM     11  C   UNL     1      11.790   7.238   6.482  1.00  0.00     0.062 C 
BRANCH  11  12
ATOM     12  C   UNL     1      13.065   7.765   5.885  1.00  0.00    -0.030 C 
ATOM     13  C   UNL     1      13.348   9.071   5.875  1.00  0.00     0.004 C 
ENDBRANCH  11  12
ENDBRANCH   4  11
TORSDOF 4
ENDMDL
MODEL 2
REMARK VINA RESULT:    15.246      8.624     11.393
REMARK INTER + INTRA:          19.265
REMARK INTER:                  18.149
REMARK INTRA:                   1.115
REMARK UNBOUND:                 0.454
REMARK SMILES C=CCc1ccc(OC)c(OC)c1
REMARK SMILES IDX 7 1 10 2 13 3 4 4 5 5 6 6 8 7 9 8 11 9 12 10 3 11 2 12 1 13
REMARK H PARENT
REMARK Flexibility Score: inf
ROOT
ATOM      1  C   UNL     1      15.283  -3.426   9.922  1.00  0.00     0.160 A 
ATOM      2  C   UNL     1      15.322  -4.541   9.067  1.00  0.00     0.160 A 
ATOM      3  C   UNL     1      14.794  -5.771   9.505  1.00  0.00     0.054 A 
ATOM      4  C   UNL     1      14.238  -5.895  10.787  1.00  0.00    -0.040 A 
ATOM      5  C   UNL     1      14.194  -4.775  11.629  1.00  0.00     0.008 A 
ATOM      6  C   UNL     1      14.714  -3.552  11.203  1.00  0.00     0.051 A 
ENDROOT
BRANCH   1   7
ATOM      7  O   UNL     1      15.817  -2.213   9.459  1.00  0.00    -0.493 OA
ATOM      8  C   UNL     1      17.118  -1.732   9.777  1.00  0.00     0.278 C 
ENDBRANCH   1   7
BRANCH   2   9
ATOM      9  O   UNL     1      15.890  -4.384   7.794  1.00  0.00    -0.493 OA
ATOM     10  C   UNL     1      17.125  -3.722   7.537  1.00  0.00     0.278 C 
ENDBRANCH   2   9
BRANCH   4  11
ATOM     11  C   UNL     1      13.650  -7.207  11.234  1.00  0.00     0.062 C 
BRANCH  11  12
ATOM     12  C   UNL     1      12.941  -7.889  10.097  1.00  0.00    -0.030 C 
ATOM     13  C   UNL     1      13.551  -8.803   9.337  1.00  0.00     0.004 C 
ENDBRANCH  11  12
ENDBRANCH   4  11
TORSDOF 4
ENDMDL
MODEL 3
REMARK VINA RESULT:    15.671      8.374     11.249
REMARK INTER + INTRA:          19.790
REMARK INTER:                  20.020
REMARK INTRA:                  -0.230
REMARK UNBOUND:                 0.454
REMARK SMILES C=CCc1ccc(OC)c(OC)c1
REMARK SMILES IDX 7 1 10 2 13 3 4 4 5 5 6 6 8 7 9 8 11 9 12 10 3 11 2 12 1 13
REMARK H PARENT
REMARK Flexibility Score: inf
ROOT
ATOM      1  C   UNL     1      15.572  -3.429   9.656  1.00  0.00     0.160 A 
ATOM      2  C   UNL     1      14.999  -3.979  10.815  1.00  0.00     0.160 A 
ATOM      3  C   UNL     1      14.539  -5.310  10.798  1.00  0.00     0.054 A 
ATOM      4  C   UNL     1      14.640  -6.087   9.635  1.00  0.00    -0.040 A 
ATOM      5  C   UNL     1      15.222  -5.533   8.487  1.00  0.00     0.008 A 
ATOM      6  C   UNL     1      15.681  -4.216   8.494  1.00  0.00     0.051 A 
ENDROOT
BRANCH   1   7
ATOM      7  O   UNL     1      16.022  -2.099   9.701  1.00  0.00    -0.493 OA
ATOM      8  C   UNL     1      17.125  -1.596   8.956  1.00  0.00     0.278 C 
ENDBRANCH   1   7
BRANCH   2   9
ATOM      9  O   UNL     1      14.908  -3.172  11.959  1.00  0.00    -0.493 OA
ATOM     10  C   UNL     1      14.157  -3.504  13.123  1.00  0.00     0.278 C 
ENDBRANCH   2   9
BRANCH   4  11
ATOM     11  C   UNL     1      14.172  -7.518   9.637  1.00  0.00     0.062 C 
BRANCH  11  12
ATOM     12  C   UNL     1      13.251  -7.776  10.796  1.00  0.00    -0.030 C 
ATOM     13  C   UNL     1      12.363  -8.775  10.780  1.00  0.00     0.004 C 
ENDBRANCH  11  12
ENDBRANCH   4  11
TORSDOF 4
ENDMDL
