MODEL 1
REMARK VINA RESULT:    -4.892      0.000      0.000
REMARK INTER + INTRA:          -6.889
REMARK INTER:                  -6.608
REMARK INTRA:                  -0.280
REMARK UNBOUND:                -0.280
REMARK SMILES CCCCCCC=CC(=O)[O-]
REMARK SMILES IDX 5 1 6 2 7 3 8 4 9 5 10 6 11 7 4 8 3 9 2 10 1 11
REMARK H PARENT
REMARK Flexibility Score: inf
ROOT
ATOM      1  C   UNL     1      25.250 136.100 352.760  1.00  0.00     0.004 C 
ENDROOT
BRANCH   1   2
ATOM      2  C   UNL     1      26.710 135.629 352.843  1.00  0.00     0.027 C 
BRANCH   2   3
ATOM      3  C   UNL     1      27.239 135.748 354.246  1.00  0.00    -0.025 C 
ATOM      4  C   UNL     1      28.501 135.505 354.637  1.00  0.00     0.020 C 
BRANCH   4   5
ATOM      5  C   UNL     1      29.632 135.114 353.769  1.00  0.00     0.064 C 
ATOM      6  O   UNL     1      30.288 136.013 353.183  1.00  0.00    -0.545 OA
ATOM      7  O   UNL     1      29.979 133.786 353.554  1.00  0.00    -0.545 OA
ENDBRANCH   4   5
ENDBRANCH   2   3
ENDBRANCH   1   2
BRANCH   1   8
ATOM      8  C   UNL     1      25.107 137.617 352.964  1.00  0.00     0.000 C 
BRANCH   8   9
ATOM      9  C   UNL     1      23.762 138.000 353.601  1.00  0.00    -0.000 C 
BRANCH   9  10
ATOM     10  C   UNL     1      23.260 139.341 353.055  1.00  0.00    -0.003 C 
ATOM     11  C   UNL     1      24.013 140.509 353.684  1.00  0.00     0.004 C 
ENDBRANCH   9  10
ENDBRANCH   8   9
ENDBRANCH   1   8
TORSDOF 6
ENDMDL
MODEL 2
REMARK VINA RESULT:    -4.875      3.081      5.962
REMARK INTER + INTRA:          -6.865
REMARK INTER:                  -6.515
REMARK INTRA:                  -0.350
REMARK UNBOUND:                -0.280
REMARK SMILES CCCCCCC=CC(=O)[O-]
REMARK SMILES IDX 5 1 6 2 7 3 8 4 9 5 10 6 11 7 4 8 3 9 2 10 1 11
REMARK H PARENT
REMARK Flexibility Score: inf
ROOT
ATOM      1  C   UNL     1      27.761 135.708 354.615  1.00  0.00     0.004 C 
ENDROOT
BRANCH   1   2
ATOM      2  C   UNL     1      26.938 135.612 353.321  1.00  0.00     0.027 C 
BRANCH   2   3
ATOM      3  C   UNL     1      25.773 136.563 353.347  1.00  0.00    -0.025 C 
ATOM      4  C   UNL     1      25.022 136.919 352.292  1.00  0.00     0.020 C 
BRANCH   4   5
ATOM      5  C   UNL     1      25.157 136.422 350.906  1.00  0.00     0.064 C 
ATOM      6  O   UNL     1      24.638 135.317 350.604  1.00  0.00    -0.545 OA
ATOM      7  O   UNL     1      25.861 137.119 349.932  1.00  0.00    -0.545 OA
ENDBRANCH   4   5
ENDBRANCH   2   3
ENDBRANCH   1   2
BRANCH   1   8
ATOM      8  C   UNL     1      29.145 135.051 354.485  1.00  0.00     0.000 C 
BRANCH   8   9
ATOM      9  C   UNL     1      29.938 135.586 353.283  1.00  0.00    -0.000 C 
BRANCH   9  10
ATOM     10  C   UNL     1      30.426 134.437 352.394  1.00  0.00    -0.003 C 
ATOM     11  C   UNL     1      31.189 133.395 353.208  1.00  0.00     0.004 C 
ENDBRANCH   9  10
ENDBRANCH   8   9
ENDBRANCH   1   8
TORSDOF 6
ENDMDL
MODEL 3
REMARK VINA RESULT:    -4.821      7.755     10.629
REMARK INTER + INTRA:          -6.793
REMARK INTER:                  -6.459
REMARK INTRA:                  -0.333
REMARK UNBOUND:                -0.280
REMARK SMILES CCCCCCC=CC(=O)[O-]
REMARK SMILES IDX 5 1 6 2 7 3 8 4 9 5 10 6 11 7 4 8 3 9 2 10 1 11
REMARK H PARENT
REMARK Flexibility Score: inf
ROOT
ATOM      1  C   UNL     1      21.052 143.018 352.617  1.00  0.00     0.004 C 
ENDROOT
BRANCH   1   2
ATOM      2  C   UNL     1      20.448 143.336 353.993  1.00  0.00     0.027 C 
BRANCH   2   3
ATOM      3  C   UNL     1      19.190 142.545 354.229  1.00  0.00    -0.025 C 
ATOM      4  C   UNL     1      17.943 142.933 353.912  1.00  0.00     0.020 C 
BRANCH   4   5
ATOM      5  C   UNL     1      17.557 144.188 353.234  1.00  0.00     0.064 C 
ATOM      6  O   UNL     1      16.906 145.051 353.878  1.00  0.00    -0.545 OA
ATOM      7  O   UNL     1      17.862 144.438 351.902  1.00  0.00    -0.545 OA
ENDBRANCH   4   5
ENDBRANCH   2   3
ENDBRANCH   1   2
BRANCH   1   8
ATOM      8  C   UNL     1      22.498 142.506 352.711  1.00  0.00     0.000 C 
BRANCH   8   9
ATOM      9  C   UNL     1      22.577 141.061 353.227  1.00  0.00    -0.000 C 
BRANCH   9  10
ATOM     10  C   UNL     1      24.020 140.683 353.580  1.00  0.00    -0.003 C 
ATOM     11  C   UNL     1      24.445 139.403 352.867  1.00  0.00     0.004 C 
ENDBRANCH   9  10
ENDBRANCH   8   9
ENDBRANCH   1   8
TORSDOF 6
ENDMDL
MODEL 4
REMARK VINA RESULT:    -4.741      8.029      9.477
REMARK INTER + INTRA:          -6.684
REMARK INTER:                  -6.346
REMARK INTRA:                  -0.338
REMARK UNBOUND:                -0.280
REMARK SMILES CCCCCCC=CC(=O)[O-]
REMARK SMILES IDX 5 1 6 2 7 3 8 4 9 5 10 6 11 7 4 8 3 9 2 10 1 11
REMARK H PARENT
REMARK Flexibility Score: inf
ROOT
ATOM      1  C   UNL     1      20.612 143.128 353.727  1.00  0.00     0.004 C 
ENDROOT
BRANCH   1   2
ATOM      2  C   UNL     1      21.691 142.084 353.403  1.00  0.00     0.027 C 
BRANCH   2   3
ATOM      3  C   UNL     1      22.814 142.694 352.608  1.00  0.00    -0.025 C 
ATOM      4  C   UNL     1      22.811 142.918 351.284  1.00  0.00     0.020 C 
BRANCH   4   5
ATOM      5  C   UNL     1      21.699 142.654 350.347  1.00  0.00     0.064 C 
ATOM      6  O   UNL     1      21.720 141.602 349.659  1.00  0.00    -0.545 OA
ATOM      7  O   UNL     1      20.643 143.542 350.179  1.00  0.00    -0.545 OA
ENDBRANCH   4   5
ENDBRANCH   2   3
ENDBRANCH   1   2
BRANCH   1   8
ATOM      8  C   UNL     1      19.448 142.541 354.543  1.00  0.00     0.000 C 
BRANCH   8   9
ATOM      9  C   UNL     1      18.076 142.908 353.958  1.00  0.00    -0.000 C 
BRANCH   9  10
ATOM     10  C   UNL     1      18.135 144.256 353.230  1.00  0.00    -0.003 C 
ATOM     11  C   UNL     1      16.888 145.090 353.512  1.00  0.00     0.004 C 
ENDBRANCH   9  10
ENDBRANCH   8   9
ENDBRANCH   1   8
TORSDOF 6
ENDMDL
MODEL 5
REMARK VINA RESULT:    -4.732      5.512      7.876
REMARK INTER + INTRA:          -6.672
REMARK INTER:                  -6.390
REMARK INTRA:                  -0.282
REMARK UNBOUND:                -0.280
REMARK SMILES CCCCCCC=CC(=O)[O-]
REMARK SMILES IDX 5 1 6 2 7 3 8 4 9 5 10 6 11 7 4 8 3 9 2 10 1 11
REMARK H PARENT
REMARK Flexibility Score: inf
ROOT
ATOM      1  C   UNL     1      20.754 143.103 353.933  1.00  0.00     0.004 C 
ENDROOT
BRANCH   1   2
ATOM      2  C   UNL     1      21.413 141.845 353.348  1.00  0.00     0.027 C 
BRANCH   2   3
ATOM      3  C   UNL     1      22.911 141.987 353.307  1.00  0.00    -0.025 C 
ATOM      4  C   UNL     1      23.790 141.000 353.066  1.00  0.00     0.020 C 
BRANCH   4   5
ATOM      5  C   UNL     1      23.470 139.591 352.753  1.00  0.00     0.064 C 
ATOM      6  O   UNL     1      23.544 138.733 353.670  1.00  0.00    -0.545 OA
ATOM      7  O   UNL     1      23.117 139.176 351.475  1.00  0.00    -0.545 OA
ENDBRANCH   4   5
ENDBRANCH   2   3
ENDBRANCH   1   2
BRANCH   1   8
ATOM      8  C   UNL     1      19.506 142.780 354.770  1.00  0.00     0.000 C 
BRANCH   8   9
ATOM      9  C   UNL     1      18.204 142.945 353.972  1.00  0.00    -0.000 C 
BRANCH   9  10
ATOM     10  C   UNL     1      18.173 144.297 353.249  1.00  0.00    -0.003 C 
ATOM     11  C   UNL     1      16.885 145.056 353.555  1.00  0.00     0.004 C 
ENDBRANCH   9  10
ENDBRANCH   8   9
ENDBRANCH   1   8
TORSDOF 6
ENDMDL
MODEL 6
REMARK VINA RESULT:    -4.693      1.292      2.049
REMARK INTER + INTRA:          -6.620
REMARK INTER:                  -6.357
REMARK INTRA:                  -0.263
REMARK UNBOUND:                -0.280
REMARK SMILES CCCCCCC=CC(=O)[O-]
REMARK SMILES IDX 5 1 6 2 7 3 8 4 9 5 10 6 11 7 4 8 3 9 2 10 1 11
REMARK H PARENT
REMARK Flexibility Score: inf
ROOT
ATOM      1  C   UNL     1      26.694 135.835 353.550  1.00  0.00     0.004 C 
ENDROOT
BRANCH   1   2
ATOM      2  C   UNL     1      27.894 134.881 353.648  1.00  0.00     0.027 C 
BRANCH   2   3
ATOM      3  C   UNL     1      29.166 135.635 353.927  1.00  0.00    -0.025 C 
ATOM      4  C   UNL     1      30.379 135.348 353.427  1.00  0.00     0.020 C 
BRANCH   4   5
ATOM      5  C   UNL     1      30.706 134.266 352.475  1.00  0.00     0.064 C 
ATOM      6  O   UNL     1      30.307 134.362 351.286  1.00  0.00    -0.545 OA
ATOM      7  O   UNL     1      31.415 133.133 352.853  1.00  0.00    -0.545 OA
ENDBRANCH   4   5
ENDBRANCH   2   3
ENDBRANCH   1   2
BRANCH   1   8
ATOM      8  C   UNL     1      25.881 135.631 352.262  1.00  0.00     0.000 C 
BRANCH   8   9
ATOM      9  C   UNL     1      24.780 136.688 352.089  1.00  0.00    -0.000 C 
BRANCH   9  10
ATOM     10  C   UNL     1      24.747 137.646 353.285  1.00  0.00    -0.003 C 
ATOM     11  C   UNL     1      23.607 138.651 353.155  1.00  0.00     0.004 C 
ENDBRANCH   9  10
ENDBRANCH   8   9
ENDBRANCH   1   8
TORSDOF 6
ENDMDL
MODEL 7
REMARK VINA RESULT:    -4.671      3.236      5.914
REMARK INTER + INTRA:          -6.590
REMARK INTER:                  -6.176
REMARK INTRA:                  -0.414
REMARK UNBOUND:                -0.280
REMARK SMILES CCCCCCC=CC(=O)[O-]
REMARK SMILES IDX 5 1 6 2 7 3 8 4 9 5 10 6 11 7 4 8 3 9 2 10 1 11
REMARK H PARENT
REMARK Flexibility Score: inf
ROOT
ATOM      1  C   UNL     1      27.082 135.243 352.822  1.00  0.00     0.004 C 
ENDROOT
BRANCH   1   2
ATOM      2  C   UNL     1      25.800 135.947 352.351  1.00  0.00     0.027 C 
BRANCH   2   3
ATOM      3  C   UNL     1      25.409 137.052 353.294  1.00  0.00    -0.025 C 
ATOM      4  C   UNL     1      24.821 138.210 352.952  1.00  0.00     0.020 C 
BRANCH   4   5
ATOM      5  C   UNL     1      24.400 138.617 351.595  1.00  0.00     0.064 C 
ATOM      6  O   UNL     1      25.207 139.261 350.876  1.00  0.00    -0.545 OA
ATOM      7  O   UNL     1      23.134 138.339 351.094  1.00  0.00    -0.545 OA
ENDBRANCH   4   5
ENDBRANCH   2   3
ENDBRANCH   1   2
BRANCH   1   8
ATOM      8  C   UNL     1      27.460 135.612 354.266  1.00  0.00     0.000 C 
BRANCH   8   9
ATOM      9  C   UNL     1      28.874 135.143 354.641  1.00  0.00    -0.000 C 
BRANCH   9  10
ATOM     10  C   UNL     1      29.880 135.507 353.543  1.00  0.00    -0.003 C 
ATOM     11  C   UNL     1      30.838 134.351 353.268  1.00  0.00     0.004 C 
ENDBRANCH   9  10
ENDBRANCH   8   9
ENDBRANCH   1   8
TORSDOF 6
ENDMDL
MODEL 8
REMARK VINA RESULT:    -4.636      2.730      5.155
REMARK INTER + INTRA:          -6.543
REMARK INTER:                  -6.056
REMARK INTRA:                  -0.487
REMARK UNBOUND:                -0.280
REMARK SMILES CCCCCCC=CC(=O)[O-]
REMARK SMILES IDX 5 1 6 2 7 3 8 4 9 5 10 6 11 7 4 8 3 9 2 10 1 11
REMARK H PARENT
REMARK Flexibility Score: inf
ROOT
ATOM      1  C   UNL     1      26.263 136.393 353.519  1.00  0.00     0.004 C 
ENDROOT
BRANCH   1   2
ATOM      2  C   UNL     1      25.950 135.497 352.311  1.00  0.00     0.027 C 
BRANCH   2   3
ATOM      3  C   UNL     1      25.871 136.305 351.043  1.00  0.00    -0.025 C 
ATOM      4  C   UNL     1      26.523 136.042 349.899  1.00  0.00     0.020 C 
BRANCH   4   5
ATOM      5  C   UNL     1      27.413 134.892 349.636  1.00  0.00     0.064 C 
ATOM      6  O   UNL     1      27.023 133.988 348.853  1.00  0.00    -0.545 OA
ATOM      7  O   UNL     1      28.655 134.758 350.245  1.00  0.00    -0.545 OA
ENDBRANCH   4   5
ENDBRANCH   2   3
ENDBRANCH   1   2
BRANCH   1   8
ATOM      8  C   UNL     1      27.364 135.807 354.418  1.00  0.00     0.000 C 
BRANCH   8   9
ATOM      9  C   UNL     1      28.309 134.869 353.653  1.00  0.00    -0.000 C 
BRANCH   9  10
ATOM     10  C   UNL     1      29.727 135.448 353.595  1.00  0.00    -0.003 C 
ATOM     11  C   UNL     1      30.750 134.370 353.247  1.00  0.00     0.004 C 
ENDBRANCH   9  10
ENDBRANCH   8   9
ENDBRANCH   1   8
TORSDOF 6
ENDMDL
MODEL 9
REMARK VINA RESULT:    -4.611     11.281     12.449
REMARK INTER + INTRA:          -6.508
REMARK INTER:                  -6.130
REMARK INTRA:                  -0.378
REMARK UNBOUND:                -0.280
REMARK SMILES CCCCCCC=CC(=O)[O-]
REMARK SMILES IDX 5 1 6 2 7 3 8 4 9 5 10 6 11 7 4 8 3 9 2 10 1 11
REMARK H PARENT
REMARK Flexibility Score: inf
ROOT
ATOM      1  C   UNL     1      28.795 140.264 341.169  1.00  0.00     0.004 C 
ENDROOT
BRANCH   1   2
ATOM      2  C   UNL     1      28.431 140.880 342.528  1.00  0.00     0.027 C 
BRANCH   2   3
ATOM      3  C   UNL     1      26.948 141.115 342.637  1.00  0.00    -0.025 C 
ATOM      4  C   UNL     1      26.262 141.301 343.776  1.00  0.00     0.020 C 
BRANCH   4   5
ATOM      5  C   UNL     1      26.820 141.356 345.143  1.00  0.00     0.064 C 
ATOM      6  O   UNL     1      26.927 142.473 345.712  1.00  0.00    -0.545 OA
ATOM      7  O   UNL     1      27.259 140.221 345.813  1.00  0.00    -0.545 OA
ENDBRANCH   4   5
ENDBRANCH   2   3
ENDBRANCH   1   2
BRANCH   1   8
ATOM      8  C   UNL     1      30.108 139.465 341.216  1.00  0.00     0.000 C 
BRANCH   8   9
ATOM      9  C   UNL     1      30.644 139.300 342.646  1.00  0.00    -0.000 C 
BRANCH   9  10
ATOM     10  C   UNL     1      32.161 139.082 342.640  1.00  0.00    -0.003 C 
ATOM     11  C   UNL     1      32.860 140.093 341.736  1.00  0.00     0.004 C 
ENDBRANCH   9  10
ENDBRANCH   8   9
ENDBRANCH   1   8
TORSDOF 6
ENDMDL
