MODEL 1
REMARK VINA RESULT:    -1.402      0.000      0.000
REMARK INTER + INTRA:          -2.467
REMARK INTER:                  -2.140
REMARK INTRA:                  -0.327
REMARK UNBOUND:                -0.327
REMARK SMILES CC1=CCC[C@@H](C)C(=O)C[C@H](C(C)C)C(=O)C1
REMARK SMILES IDX 8 1 9 2 6 3 7 4 5 5 4 6 3 7 2 8 1 9 10 11 11 12 15 13 16 14
REMARK SMILES IDX 17 15 12 17 13 18 14 19
REMARK H PARENT
REMARK Flexibility Score: 70.00
ROOT
ATOM      1  C   UNL     1      30.735  57.992   9.563  1.00  0.00     0.136 C 
ATOM      2  O   UNL     1      30.938  58.469   8.456  1.00  0.00    -0.299 OA
ENDROOT
BRANCH   1   3
ATOM      3  C   UNL     1      29.904  56.719   9.668  1.00  0.00     0.053 C 
ATOM      4  C   UNL     1      28.424  56.936   9.319  1.00  0.00     0.016 C 
BRANCH   3   5
ATOM      5  C   UNL     1      30.160  55.933  10.987  1.00  0.00     0.015 C 
BRANCH   5   6
ATOM      6  C   UNL     1      29.060  55.899  12.070  1.00  0.00     0.028 C 
BRANCH   6   7
ATOM      7  C   UNL     1      29.493  55.958  13.517  1.00  0.00    -0.028 C 
ATOM      8  C   UNL     1      29.702  57.076  14.251  1.00  0.00    -0.070 CG0
ATOM      9  C   UNL     1      30.296  56.916  15.629  1.00  0.00     0.039 C 
ATOM     10  G   UNL     1      29.325  58.463  13.779  1.00  0.00     0.000 G0
ENDBRANCH   6   7
ENDBRANCH   5   6
ENDBRANCH   3   5
ENDBRANCH   1   3
BRANCH   1  11
ATOM     11  C   UNL     1      31.319  58.695  10.767  1.00  0.00     0.087 C 
BRANCH  11  12
ATOM     12  C   UNL     1      30.287  59.542  11.569  1.00  0.00     0.066 C 
BRANCH  12  13
ATOM     13  C   UNL     1      30.383  59.227  13.062  1.00  0.00     0.140 C 
ATOM     14  O   UNL     1      31.360  59.606  13.693  1.00  0.00    -0.299 OA
BRANCH  13  15
ATOM     15  C   UNL     1      29.303  58.476  13.806  1.00  0.00     0.106 CG0
ATOM     16  G   UNL     1      29.747  57.096  14.239  1.00  0.00     0.000 G0
ENDBRANCH  13  15
ENDBRANCH  12  13
BRANCH  12  17
ATOM     17  C   UNL     1      30.366  61.084  11.298  1.00  0.00    -0.006 C 
ATOM     18  C   UNL     1      29.304  61.512  10.266  1.00  0.00     0.008 C 
ATOM     19  C   UNL     1      31.750  61.531  10.790  1.00  0.00     0.008 C 
ENDBRANCH  12  17
ENDBRANCH  11  12
ENDBRANCH   1  11
TORSDOF 1
ENDMDL
MODEL 2
REMARK VINA RESULT:    -1.071      2.613      4.445
REMARK INTER + INTRA:          -1.961
REMARK INTER:                  -1.620
REMARK INTRA:                  -0.341
REMARK UNBOUND:                -0.327
REMARK SMILES CC1=CCC[C@@H](C)C(=O)C[C@H](C(C)C)C(=O)C1
REMARK SMILES IDX 8 1 9 2 6 3 7 4 5 5 4 6 3 7 2 8 1 9 10 11 11 12 15 13 16 14
REMARK SMILES IDX 17 15 12 17 13 18 14 19
REMARK H PARENT
REMARK Flexibility Score: 70.00
ROOT
ATOM      1  C   UNL     1      28.838  60.303  12.891  1.00  0.00     0.136 C 
ATOM      2  O   UNL     1      27.833  60.943  12.618  1.00  0.00    -0.299 OA
ENDROOT
BRANCH   1   3
ATOM      3  C   UNL     1      29.702  60.766  14.057  1.00  0.00     0.053 C 
ATOM      4  C   UNL     1      31.192  60.869  13.699  1.00  0.00     0.016 C 
BRANCH   3   5
ATOM      5  C   UNL     1      29.396  60.005  15.380  1.00  0.00     0.015 C 
BRANCH   5   6
ATOM      6  C   UNL     1      27.938  59.613  15.705  1.00  0.00     0.028 C 
BRANCH   6   7
ATOM      7  C   UNL     1      27.659  58.172  16.064  1.00  0.00    -0.028 C 
ATOM      8  C   UNL     1      27.127  57.227  15.253  1.00  0.00    -0.070 CG0
ATOM      9  C   UNL     1      26.775  55.891  15.860  1.00  0.00     0.039 C 
ATOM     10  G   UNL     1      26.916  57.429  13.769  1.00  0.00     0.000 G0
ENDBRANCH   6   7
ENDBRANCH   5   6
ENDBRANCH   3   5
ENDBRANCH   1   3
BRANCH   1  11
ATOM     11  C   UNL     1      29.167  59.089  12.054  1.00  0.00     0.087 C 
BRANCH  11  12
ATOM     12  C   UNL     1      29.397  57.790  12.882  1.00  0.00     0.066 C 
BRANCH  12  13
ATOM     13  C   UNL     1      28.112  56.965  12.949  1.00  0.00     0.140 C 
ATOM     14  O   UNL     1      28.047  55.907  12.340  1.00  0.00    -0.299 OA
BRANCH  13  15
ATOM     15  C   UNL     1      26.911  57.395  13.760  1.00  0.00     0.106 CG0
ATOM     16  G   UNL     1      27.127  57.237  15.248  1.00  0.00     0.000 G0
ENDBRANCH  13  15
ENDBRANCH  12  13
BRANCH  12  17
ATOM     17  C   UNL     1      30.615  56.926  12.405  1.00  0.00    -0.006 C 
ATOM     18  C   UNL     1      31.706  56.872  13.491  1.00  0.00     0.008 C 
ATOM     19  C   UNL     1      31.246  57.452  11.102  1.00  0.00     0.008 C 
ENDBRANCH  12  17
ENDBRANCH  11  12
ENDBRANCH   1  11
TORSDOF 1
ENDMDL
MODEL 3
REMARK VINA RESULT:    -1.059      2.254      5.236
REMARK INTER + INTRA:          -1.942
REMARK INTER:                  -1.716
REMARK INTRA:                  -0.226
REMARK UNBOUND:                -0.327
REMARK SMILES CC1=CCC[C@@H](C)C(=O)C[C@H](C(C)C)C(=O)C1
REMARK SMILES IDX 8 1 9 2 6 3 7 4 5 5 4 6 3 7 2 8 1 9 10 11 11 12 15 13 16 14
REMARK SMILES IDX 17 15 12 17 13 18 14 19
REMARK H PARENT
REMARK Flexibility Score: 70.00
ROOT
ATOM      1  C   UNL     1      29.864  60.227  13.150  1.00  0.00     0.136 C 
ATOM      2  O   UNL     1      28.746  60.712  13.251  1.00  0.00    -0.299 OA
ENDROOT
BRANCH   1   3
ATOM      3  C   UNL     1      31.030  61.148  12.811  1.00  0.00     0.053 C 
ATOM      4  C   UNL     1      31.215  62.285  13.828  1.00  0.00     0.016 C 
BRANCH   3   5
ATOM      5  C   UNL     1      31.040  61.592  11.320  1.00  0.00     0.015 C 
BRANCH   5   6
ATOM      6  C   UNL     1      31.591  60.625  10.249  1.00  0.00     0.028 C 
BRANCH   6   7
ATOM      7  C   UNL     1      30.594  59.851   9.418  1.00  0.00    -0.028 C 
ATOM      8  C   UNL     1      30.299  58.535   9.531  1.00  0.00    -0.070 CG0
ATOM      9  C   UNL     1      29.394  57.921   8.492  1.00  0.00     0.039 C 
ATOM     10  G   UNL     1      30.789  57.668  10.671  1.00  0.00     0.000 G0
ENDBRANCH   6   7
ENDBRANCH   5   6
ENDBRANCH   3   5
ENDBRANCH   1   3
BRANCH   1  11
ATOM     11  C   UNL     1      30.025  58.741  13.366  1.00  0.00     0.087 C 
BRANCH  11  12
ATOM     12  C   UNL     1      28.968  57.873  12.620  1.00  0.00     0.066 C 
BRANCH  12  13
ATOM     13  C   UNL     1      29.626  57.086  11.486  1.00  0.00     0.140 C 
ATOM     14  O   UNL     1      29.208  55.971  11.210  1.00  0.00    -0.299 OA
BRANCH  13  15
ATOM     15  C   UNL     1      30.771  57.640  10.670  1.00  0.00     0.106 CG0
ATOM     16  G   UNL     1      30.304  58.537   9.545  1.00  0.00     0.000 G0
ENDBRANCH  13  15
ENDBRANCH  12  13
BRANCH  12  17
ATOM     17  C   UNL     1      28.121  56.942  13.554  1.00  0.00    -0.006 C 
ATOM     18  C   UNL     1      26.621  57.279  13.447  1.00  0.00     0.008 C 
ATOM     19  C   UNL     1      28.540  57.038  15.033  1.00  0.00     0.008 C 
ENDBRANCH  12  17
ENDBRANCH  11  12
ENDBRANCH   1  11
TORSDOF 1
ENDMDL
MODEL 4
REMARK VINA RESULT:    -0.929      2.276      2.869
REMARK INTER + INTRA:          -1.745
REMARK INTER:                  -1.685
REMARK INTRA:                  -0.059
REMARK UNBOUND:                -0.327
REMARK SMILES CC1=CCC[C@@H](C)C(=O)C[C@H](C(C)C)C(=O)C1
REMARK SMILES IDX 8 1 9 2 6 3 7 4 5 5 4 6 3 7 2 8 1 9 10 11 11 12 15 13 16 14
REMARK SMILES IDX 17 15 12 17 13 18 14 19
REMARK H PARENT
REMARK Flexibility Score: 70.00
ROOT
ATOM      1  C   UNL     1      29.751  59.934  11.369  1.00  0.00     0.136 C 
ATOM      2  O   UNL     1      28.736  59.815  10.699  1.00  0.00    -0.299 OA
ENDROOT
BRANCH   1   3
ATOM      3  C   UNL     1      31.023  59.240  10.896  1.00  0.00     0.053 C 
ATOM      4  C   UNL     1      31.471  59.692   9.498  1.00  0.00     0.016 C 
BRANCH   3   5
ATOM      5  C   UNL     1      30.989  57.699  11.109  1.00  0.00     0.015 C 
BRANCH   5   6
ATOM      6  C   UNL     1      31.139  57.131  12.538  1.00  0.00     0.028 C 
BRANCH   6   7
ATOM      7  C   UNL     1      29.884  56.701  13.260  1.00  0.00    -0.028 C 
ATOM      8  C   UNL     1      29.279  57.351  14.282  1.00  0.00    -0.070 CG0
ATOM      9  C   UNL     1      28.127  56.664  14.975  1.00  0.00     0.039 C 
ATOM     10  G   UNL     1      29.667  58.744  14.727  1.00  0.00     0.000 G0
ENDBRANCH   6   7
ENDBRANCH   5   6
ENDBRANCH   3   5
ENDBRANCH   1   3
BRANCH   1  11
ATOM     11  C   UNL     1      29.687  60.763  12.631  1.00  0.00     0.087 C 
BRANCH  11  12
ATOM     12  C   UNL     1      28.338  60.643  13.401  1.00  0.00     0.066 C 
BRANCH  12  13
ATOM     13  C   UNL     1      28.497  59.727  14.615  1.00  0.00     0.140 C 
ATOM     14  O   UNL     1      27.667  59.774  15.513  1.00  0.00    -0.299 OA
BRANCH  13  15
ATOM     15  C   UNL     1      29.636  58.743  14.749  1.00  0.00     0.106 CG0
ATOM     16  G   UNL     1      29.262  57.354  14.279  1.00  0.00     0.000 G0
ENDBRANCH  13  15
ENDBRANCH  12  13
BRANCH  12  17
ATOM     17  C   UNL     1      27.693  62.016  13.792  1.00  0.00    -0.006 C 
ATOM     18  C   UNL     1      26.545  62.376  12.829  1.00  0.00     0.008 C 
ATOM     19  C   UNL     1      28.709  63.174  13.797  1.00  0.00     0.008 C 
ENDBRANCH  12  17
ENDBRANCH  11  12
ENDBRANCH   1  11
TORSDOF 1
ENDMDL
MODEL 5
REMARK VINA RESULT:    -0.922      2.500      5.047
REMARK INTER + INTRA:          -1.734
REMARK INTER:                  -1.750
REMARK INTRA:                   0.015
REMARK UNBOUND:                -0.327
REMARK SMILES CC1=CCC[C@@H](C)C(=O)C[C@H](C(C)C)C(=O)C1
REMARK SMILES IDX 8 1 9 2 6 3 7 4 5 5 4 6 3 7 2 8 1 9 10 11 11 12 15 13 16 14
REMARK SMILES IDX 17 15 12 17 13 18 14 19
REMARK H PARENT
REMARK Flexibility Score: 70.00
ROOT
ATOM      1  C   UNL     1      30.842  60.326  12.263  1.00  0.00     0.136 C 
ATOM      2  O   UNL     1      31.297  60.399  13.395  1.00  0.00    -0.299 OA
ENDROOT
BRANCH   1   3
ATOM      3  C   UNL     1      30.488  61.617  11.535  1.00  0.00     0.053 C 
ATOM      4  C   UNL     1      31.591  62.682  11.626  1.00  0.00     0.016 C 
BRANCH   3   5
ATOM      5  C   UNL     1      29.053  62.126  11.861  1.00  0.00     0.015 C 
BRANCH   5   6
ATOM      6  C   UNL     1      28.080  61.201  12.625  1.00  0.00     0.028 C 
BRANCH   6   7
ATOM      7  C   UNL     1      26.843  60.727  11.898  1.00  0.00    -0.028 C 
ATOM      8  C   UNL     1      26.778  59.733  10.981  1.00  0.00    -0.070 CG0
ATOM      9  C   UNL     1      25.474  59.529  10.250  1.00  0.00     0.039 C 
ATOM     10  G   UNL     1      27.927  58.791  10.693  1.00  0.00     0.000 G0
ENDBRANCH   6   7
ENDBRANCH   5   6
ENDBRANCH   3   5
ENDBRANCH   1   3
BRANCH   1  11
ATOM     11  C   UNL     1      30.653  58.958  11.651  1.00  0.00     0.087 C 
BRANCH  11  12
ATOM     12  C   UNL     1      29.732  58.013  12.479  1.00  0.00     0.066 C 
BRANCH  12  13
ATOM     13  C   UNL     1      28.347  57.923  11.839  1.00  0.00     0.140 C 
ATOM     14  O   UNL     1      27.528  57.135  12.292  1.00  0.00    -0.299 OA
BRANCH  13  15
ATOM     15  C   UNL     1      27.932  58.787  10.671  1.00  0.00     0.106 CG0
ATOM     16  G   UNL     1      26.797  59.725  11.014  1.00  0.00     0.000 G0
ENDBRANCH  13  15
ENDBRANCH  12  13
BRANCH  12  17
ATOM     17  C   UNL     1      30.338  56.593  12.748  1.00  0.00    -0.006 C 
ATOM     18  C   UNL     1      31.358  56.644  13.903  1.00  0.00     0.008 C 
ATOM     19  C   UNL     1      31.030  55.994  11.510  1.00  0.00     0.008 C 
ENDBRANCH  12  17
ENDBRANCH  11  12
ENDBRANCH   1  11
TORSDOF 1
ENDMDL
MODEL 6
REMARK VINA RESULT:    -0.912      2.076      4.465
REMARK INTER + INTRA:          -1.719
REMARK INTER:                  -1.637
REMARK INTRA:                  -0.082
REMARK UNBOUND:                -0.327
REMARK SMILES CC1=CCC[C@@H](C)C(=O)C[C@H](C(C)C)C(=O)C1
REMARK SMILES IDX 8 1 9 2 6 3 7 4 5 5 4 6 3 7 2 8 1 9 10 11 11 12 15 13 16 14
REMARK SMILES IDX 17 15 12 17 13 18 14 19
REMARK H PARENT
REMARK Flexibility Score: 70.00
ROOT
ATOM      1  C   UNL     1      30.880  61.192  12.748  1.00  0.00     0.136 C 
ATOM      2  O   UNL     1      30.360  62.037  13.462  1.00  0.00    -0.299 OA
ENDROOT
BRANCH   1   3
ATOM      3  C   UNL     1      31.322  61.594  11.346  1.00  0.00     0.053 C 
ATOM      4  C   UNL     1      30.505  62.761  10.768  1.00  0.00     0.016 C 
BRANCH   3   5
ATOM      5  C   UNL     1      31.495  60.378  10.390  1.00  0.00     0.015 C 
BRANCH   5   6
ATOM      6  C   UNL     1      30.248  59.762   9.718  1.00  0.00     0.028 C 
BRANCH   6   7
ATOM      7  C   UNL     1      30.163  58.256   9.636  1.00  0.00    -0.028 C 
ATOM      8  C   UNL     1      29.570  57.432  10.532  1.00  0.00    -0.070 CG0
ATOM      9  C   UNL     1      29.744  55.944  10.348  1.00  0.00     0.039 C 
ATOM     10  G   UNL     1      28.706  57.927  11.672  1.00  0.00     0.000 G0
ENDBRANCH   6   7
ENDBRANCH   5   6
ENDBRANCH   3   5
ENDBRANCH   1   3
BRANCH   1  11
ATOM     11  C   UNL     1      31.054  59.795  13.296  1.00  0.00     0.087 C 
BRANCH  11  12
ATOM     12  C   UNL     1      29.737  59.152  13.824  1.00  0.00     0.066 C 
BRANCH  12  13
ATOM     13  C   UNL     1      29.406  57.888  13.031  1.00  0.00     0.140 C 
ATOM     14  O   UNL     1      29.704  56.796  13.494  1.00  0.00    -0.299 OA
BRANCH  13  15
ATOM     15  C   UNL     1      28.701  57.926  11.695  1.00  0.00     0.106 CG0
ATOM     16  G   UNL     1      29.573  57.433  10.562  1.00  0.00     0.000 G0
ENDBRANCH  13  15
ENDBRANCH  12  13
BRANCH  12  17
ATOM     17  C   UNL     1      29.721  58.887  15.368  1.00  0.00    -0.006 C 
ATOM     18  C   UNL     1      28.348  59.243  15.970  1.00  0.00     0.008 C 
ATOM     19  C   UNL     1      30.806  59.680  16.122  1.00  0.00     0.008 C 
ENDBRANCH  12  17
ENDBRANCH  11  12
ENDBRANCH   1  11
TORSDOF 1
ENDMDL
MODEL 7
REMARK VINA RESULT:    -0.895      2.670      4.703
REMARK INTER + INTRA:          -1.694
REMARK INTER:                  -1.602
REMARK INTRA:                  -0.092
REMARK UNBOUND:                -0.327
REMARK SMILES CC1=CCC[C@@H](C)C(=O)C[C@H](C(C)C)C(=O)C1
REMARK SMILES IDX 8 1 9 2 6 3 7 4 5 5 4 6 3 7 2 8 1 9 10 11 11 12 15 13 16 14
REMARK SMILES IDX 17 15 12 17 13 18 14 19
REMARK H PARENT
REMARK Flexibility Score: 70.00
ROOT
ATOM      1  C   UNL     1      29.138  57.803  11.850  1.00  0.00     0.136 C 
ATOM      2  O   UNL     1      29.167  57.496  13.033  1.00  0.00    -0.299 OA
ENDROOT
BRANCH   1   3
ATOM      3  C   UNL     1      29.918  56.951  10.856  1.00  0.00     0.053 C 
ATOM      4  C   UNL     1      30.862  55.947  11.535  1.00  0.00     0.016 C 
BRANCH   3   5
ATOM      5  C   UNL     1      30.561  57.787   9.712  1.00  0.00     0.015 C 
BRANCH   5   6
ATOM      6  C   UNL     1      31.772  58.693  10.028  1.00  0.00     0.028 C 
BRANCH   6   7
ATOM      7  C   UNL     1      31.947  59.948   9.203  1.00  0.00    -0.028 C 
ATOM      8  C   UNL     1      31.486  61.184   9.509  1.00  0.00    -0.070 CG0
ATOM      9  C   UNL     1      31.624  62.267   8.467  1.00  0.00     0.039 C 
ATOM     10  G   UNL     1      30.889  61.540  10.852  1.00  0.00     0.000 G0
ENDBRANCH   6   7
ENDBRANCH   5   6
ENDBRANCH   3   5
ENDBRANCH   1   3
BRANCH   1  11
ATOM     11  C   UNL     1      28.331  59.013  11.441  1.00  0.00     0.087 C 
BRANCH  11  12
ATOM     12  C   UNL     1      28.836  60.351  12.058  1.00  0.00     0.066 C 
BRANCH  12  13
ATOM     13  C   UNL     1      29.414  61.256  10.970  1.00  0.00     0.140 C 
ATOM     14  O   UNL     1      28.662  61.764  10.151  1.00  0.00    -0.299 OA
BRANCH  13  15
ATOM     15  C   UNL     1      30.889  61.570  10.872  1.00  0.00     0.106 CG0
ATOM     16  G   UNL     1      31.476  61.197   9.528  1.00  0.00     0.000 G0
ENDBRANCH  13  15
ENDBRANCH  12  13
BRANCH  12  17
ATOM     17  C   UNL     1      27.772  61.102  12.930  1.00  0.00    -0.006 C 
ATOM     18  C   UNL     1      28.389  62.352  13.588  1.00  0.00     0.008 C 
ATOM     19  C   UNL     1      27.169  60.214  14.034  1.00  0.00     0.008 C 
ENDBRANCH  12  17
ENDBRANCH  11  12
ENDBRANCH   1  11
TORSDOF 1
ENDMDL
MODEL 8
REMARK VINA RESULT:    -0.876      2.884      5.178
REMARK INTER + INTRA:          -1.664
REMARK INTER:                  -1.522
REMARK INTRA:                  -0.142
REMARK UNBOUND:                -0.327
REMARK SMILES CC1=CCC[C@@H](C)C(=O)C[C@H](C(C)C)C(=O)C1
REMARK SMILES IDX 8 1 9 2 6 3 7 4 5 5 4 6 3 7 2 8 1 9 10 11 11 12 15 13 16 14
REMARK SMILES IDX 17 15 12 17 13 18 14 19
REMARK H PARENT
REMARK Flexibility Score: 70.00
ROOT
ATOM      1  C   UNL     1      28.962  57.452  11.284  1.00  0.00     0.136 C 
ATOM      2  O   UNL     1      28.604  57.432  12.453  1.00  0.00    -0.299 OA
ENDROOT
BRANCH   1   3
ATOM      3  C   UNL     1      30.362  56.960  10.941  1.00  0.00     0.053 C 
ATOM      4  C   UNL     1      30.945  56.014  12.001  1.00  0.00     0.016 C 
BRANCH   3   5
ATOM      5  C   UNL     1      31.315  58.103  10.486  1.00  0.00     0.015 C 
BRANCH   5   6
ATOM      6  C   UNL     1      31.023  59.552  10.937  1.00  0.00     0.028 C 
BRANCH   6   7
ATOM      7  C   UNL     1      30.723  60.576   9.867  1.00  0.00    -0.028 C 
ATOM      8  C   UNL     1      29.556  61.239   9.691  1.00  0.00    -0.070 CG0
ATOM      9  C   UNL     1      29.408  62.097   8.458  1.00  0.00     0.039 C 
ATOM     10  G   UNL     1      28.420  61.202  10.689  1.00  0.00     0.000 G0
ENDBRANCH   6   7
ENDBRANCH   5   6
ENDBRANCH   3   5
ENDBRANCH   1   3
BRANCH   1  11
ATOM     11  C   UNL     1      27.993  57.968  10.246  1.00  0.00     0.087 C 
BRANCH  11  12
ATOM     12  C   UNL     1      26.948  58.982  10.801  1.00  0.00     0.066 C 
BRANCH  12  13
ATOM     13  C   UNL     1      27.221  60.383  10.253  1.00  0.00     0.140 C 
ATOM     14  O   UNL     1      26.452  60.865   9.433  1.00  0.00    -0.299 OA
BRANCH  13  15
ATOM     15  C   UNL     1      28.400  61.216  10.699  1.00  0.00     0.106 CG0
ATOM     16  G   UNL     1      29.524  61.222   9.686  1.00  0.00     0.000 G0
ENDBRANCH  13  15
ENDBRANCH  12  13
BRANCH  12  17
ATOM     17  C   UNL     1      25.456  58.556  10.583  1.00  0.00    -0.006 C 
ATOM     18  C   UNL     1      24.823  58.085  11.907  1.00  0.00     0.008 C 
ATOM     19  C   UNL     1      25.301  57.433   9.540  1.00  0.00     0.008 C 
ENDBRANCH  12  17
ENDBRANCH  11  12
ENDBRANCH   1  11
TORSDOF 1
ENDMDL
MODEL 9
REMARK VINA RESULT:    -0.608      2.511      4.570
REMARK INTER + INTRA:          -1.255
REMARK INTER:                  -0.861
REMARK INTRA:                  -0.394
REMARK UNBOUND:                -0.327
REMARK SMILES CC1=CCC[C@@H](C)C(=O)C[C@H](C(C)C)C(=O)C1
REMARK SMILES IDX 8 1 9 2 6 3 7 4 5 5 4 6 3 7 2 8 1 9 10 11 11 12 15 13 16 14
REMARK SMILES IDX 17 15 12 17 13 18 14 19
REMARK H PARENT
REMARK Flexibility Score: 70.00
ROOT
ATOM      1  C   UNL     1      27.194  60.160  14.636  1.00  0.00     0.136 C 
ATOM      2  O   UNL     1      26.751  61.040  15.359  1.00  0.00    -0.299 OA
ENDROOT
BRANCH   1   3
ATOM      3  C   UNL     1      26.496  58.805  14.624  1.00  0.00     0.053 C 
ATOM      4  C   UNL     1      26.899  57.910  15.806  1.00  0.00     0.016 C 
BRANCH   3   5
ATOM      5  C   UNL     1      26.537  58.112  13.231  1.00  0.00     0.015 C 
BRANCH   5   6
ATOM      6  C   UNL     1      27.502  56.927  13.006  1.00  0.00     0.028 C 
BRANCH   6   7
ATOM      7  C   UNL     1      28.272  56.882  11.707  1.00  0.00    -0.028 C 
ATOM      8  C   UNL     1      29.545  57.298  11.510  1.00  0.00    -0.070 CG0
ATOM      9  C   UNL     1      30.071  57.322  10.095  1.00  0.00     0.039 C 
ATOM     10  G   UNL     1      30.476  57.689  12.637  1.00  0.00     0.000 G0
ENDBRANCH   6   7
ENDBRANCH   5   6
ENDBRANCH   3   5
ENDBRANCH   1   3
BRANCH   1  11
ATOM     11  C   UNL     1      28.412  60.465  13.795  1.00  0.00     0.087 C 
BRANCH  11  12
ATOM     12  C   UNL     1      29.689  59.680  14.220  1.00  0.00     0.066 C 
BRANCH  12  13
ATOM     13  C   UNL     1      30.428  59.157  12.988  1.00  0.00     0.140 C 
ATOM     14  O   UNL     1      31.005  59.948  12.255  1.00  0.00    -0.299 OA
BRANCH  13  15
ATOM     15  C   UNL     1      30.495  57.688  12.643  1.00  0.00     0.106 CG0
ATOM     16  G   UNL     1      29.556  57.311  11.518  1.00  0.00     0.000 G0
ENDBRANCH  13  15
ENDBRANCH  12  13
BRANCH  12  17
ATOM     17  C   UNL     1      30.645  60.473  15.176  1.00  0.00    -0.006 C 
ATOM     18  C   UNL     1      30.462  60.014  16.636  1.00  0.00     0.008 C 
ATOM     19  C   UNL     1      30.429  61.996  15.110  1.00  0.00     0.008 C 
ENDBRANCH  12  17
ENDBRANCH  11  12
ENDBRANCH   1  11
TORSDOF 1
ENDMDL
