MODEL 1
REMARK VINA RESULT:    -5.765      0.000      0.000
REMARK INTER + INTRA:          -5.765
REMARK INTER:                  -5.765
REMARK INTRA:                   0.000
REMARK UNBOUND:                 0.000
REMARK SMILES C=C1CCC[C@]2(C)CC(=O)C(=C(C)C)C[C@H]12
REMARK SMILES IDX 13 1 12 2 11 3 15 4 16 5 2 6 1 7 3 8 4 9 5 10 6 11 8 12 9 13
REMARK SMILES IDX 10 14 7 15 14 16
REMARK H PARENT
REMARK Flexibility Score: inf
ROOT
ATOM      1  C   UNL     1     212.731 201.491 212.934  1.00  0.00     0.039 C 
ATOM      2  C   UNL     1     213.694 201.931 214.013  1.00  0.00    -0.070 C 
ATOM      3  C   UNL     1     213.388 202.956 214.859  1.00  0.00    -0.006 C 
ATOM      4  C   UNL     1     212.074 203.718 214.737  1.00  0.00     0.047 C 
ATOM      5  C   UNL     1     212.176 205.200 215.183  1.00  0.00     0.025 C 
ATOM      6  C   UNL     1     212.833 206.137 214.167  1.00  0.00    -0.073 C 
ATOM      7  C   UNL     1     213.443 205.730 213.036  1.00  0.00     0.008 C 
ATOM      8  C   UNL     1     212.854 207.597 214.539  1.00  0.00     0.031 C 
ATOM      9  C   UNL     1     213.567 207.768 215.880  1.00  0.00     0.005 C 
ATOM     10  C   UNL     1     212.951 206.868 216.966  1.00  0.00     0.008 C 
ATOM     11  C   UNL     1     212.867 205.358 216.577  1.00  0.00    -0.018 C 
ATOM     12  C   UNL     1     214.285 204.733 216.526  1.00  0.00     0.088 C 
ATOM     13  C   UNL     1     214.258 203.321 216.017  1.00  0.00     0.159 C 
ATOM     14  O   UNL     1     214.971 202.456 216.594  1.00  0.00    -0.295 OA
ATOM     15  C   UNL     1     212.037 204.652 217.680  1.00  0.00     0.012 C 
ATOM     16  C   UNL     1     215.023 201.211 214.082  1.00  0.00     0.039 C 
ENDROOT
TORSDOF 0
ENDMDL
MODEL 2
REMARK VINA RESULT:    -5.749     13.924     15.404
REMARK INTER + INTRA:          -5.749
REMARK INTER:                  -5.749
REMARK INTRA:                   0.000
REMARK UNBOUND:                 0.000
REMARK SMILES C=C1CCC[C@]2(C)CC(=O)C(=C(C)C)C[C@H]12
REMARK SMILES IDX 13 1 12 2 11 3 15 4 16 5 2 6 1 7 3 8 4 9 5 10 6 11 8 12 9 13
REMARK SMILES IDX 10 14 7 15 14 16
REMARK H PARENT
REMARK Flexibility Score: inf
ROOT
ATOM      1  C   UNL     1     199.610 210.871 213.094  1.00  0.00     0.039 C 
ATOM      2  C   UNL     1     198.629 210.393 214.140  1.00  0.00    -0.070 C 
ATOM      3  C   UNL     1     198.919 209.336 214.952  1.00  0.00    -0.006 C 
ATOM      4  C   UNL     1     200.234 208.577 214.823  1.00  0.00     0.047 C 
ATOM      5  C   UNL     1     200.124 207.079 215.212  1.00  0.00     0.025 C 
ATOM      6  C   UNL     1     199.482 206.182 214.151  1.00  0.00    -0.073 C 
ATOM      7  C   UNL     1     198.892 206.632 213.026  1.00  0.00     0.008 C 
ATOM      8  C   UNL     1     199.453 204.709 214.468  1.00  0.00     0.031 C 
ATOM      9  C   UNL     1     198.718 204.489 215.790  1.00  0.00     0.005 C 
ATOM     10  C   UNL     1     199.317 205.347 216.919  1.00  0.00     0.008 C 
ATOM     11  C   UNL     1     199.410 206.871 216.587  1.00  0.00    -0.018 C 
ATOM     12  C   UNL     1     197.994 207.500 216.536  1.00  0.00     0.088 C 
ATOM     13  C   UNL     1     198.031 208.930 216.081  1.00  0.00     0.159 C 
ATOM     14  O   UNL     1     197.309 209.774 216.678  1.00  0.00    -0.295 OA
ATOM     15  C   UNL     1     200.223 207.534 217.730  1.00  0.00     0.012 C 
ATOM     16  C   UNL     1     197.300 211.112 214.214  1.00  0.00     0.039 C 
ENDROOT
TORSDOF 0
ENDMDL
MODEL 3
REMARK VINA RESULT:    -5.596     13.831     15.252
REMARK INTER + INTRA:          -5.596
REMARK INTER:                  -5.596
REMARK INTRA:                   0.000
REMARK UNBOUND:                 0.000
REMARK SMILES C=C1CCC[C@]2(C)CC(=O)C(=C(C)C)C[C@H]12
REMARK SMILES IDX 13 1 12 2 11 3 15 4 16 5 2 6 1 7 3 8 4 9 5 10 6 11 8 12 9 13
REMARK SMILES IDX 10 14 7 15 14 16
REMARK H PARENT
REMARK Flexibility Score: inf
ROOT
ATOM      1  C   UNL     1     197.646 211.537 213.060  1.00  0.00     0.039 C 
ATOM      2  C   UNL     1     198.762 210.521 212.974  1.00  0.00    -0.070 C 
ATOM      3  C   UNL     1     198.832 209.472 213.844  1.00  0.00    -0.006 C 
ATOM      4  C   UNL     1     197.803 209.294 214.953  1.00  0.00     0.047 C 
ATOM      5  C   UNL     1     198.373 208.602 216.219  1.00  0.00     0.025 C 
ATOM      6  C   UNL     1     199.218 209.502 217.123  1.00  0.00    -0.073 C 
ATOM      7  C   UNL     1     199.605 210.754 216.807  1.00  0.00     0.008 C 
ATOM      8  C   UNL     1     199.700 208.876 218.406  1.00  0.00     0.031 C 
ATOM      9  C   UNL     1     200.514 207.623 218.084  1.00  0.00     0.005 C 
ATOM     10  C   UNL     1     199.724 206.652 217.188  1.00  0.00     0.008 C 
ATOM     11  C   UNL     1     199.165 207.296 215.880  1.00  0.00    -0.018 C 
ATOM     12  C   UNL     1     200.323 207.631 214.904  1.00  0.00     0.088 C 
ATOM     13  C   UNL     1     199.841 208.382 213.697  1.00  0.00     0.159 C 
ATOM     14  O   UNL     1     200.295 208.062 212.565  1.00  0.00    -0.295 OA
ATOM     15  C   UNL     1     198.231 206.247 215.222  1.00  0.00     0.012 C 
ATOM     16  C   UNL     1     199.814 210.746 211.911  1.00  0.00     0.039 C 
ENDROOT
TORSDOF 0
ENDMDL
MODEL 4
REMARK VINA RESULT:    -5.552      1.822      3.476
REMARK INTER + INTRA:          -5.552
REMARK INTER:                  -5.552
REMARK INTRA:                   0.000
REMARK UNBOUND:                 0.000
REMARK SMILES C=C1CCC[C@]2(C)CC(=O)C(=C(C)C)C[C@H]12
REMARK SMILES IDX 13 1 12 2 11 3 15 4 16 5 2 6 1 7 3 8 4 9 5 10 6 11 8 12 9 13
REMARK SMILES IDX 10 14 7 15 14 16
REMARK H PARENT
REMARK Flexibility Score: inf
ROOT
ATOM      1  C   UNL     1     214.602 201.164 212.889  1.00  0.00     0.039 C 
ATOM      2  C   UNL     1     213.419 202.105 212.903  1.00  0.00    -0.070 C 
ATOM      3  C   UNL     1     213.321 203.103 213.829  1.00  0.00    -0.006 C 
ATOM      4  C   UNL     1     214.385 203.295 214.902  1.00  0.00     0.047 C 
ATOM      5  C   UNL     1     213.829 203.884 216.225  1.00  0.00     0.025 C 
ATOM      6  C   UNL     1     213.087 202.885 217.115  1.00  0.00    -0.073 C 
ATOM      7  C   UNL     1     212.768 201.627 216.750  1.00  0.00     0.008 C 
ATOM      8  C   UNL     1     212.624 203.412 218.449  1.00  0.00     0.031 C 
ATOM      9  C   UNL     1     211.716 204.623 218.227  1.00  0.00     0.005 C 
ATOM     10  C   UNL     1     212.400 205.688 217.351  1.00  0.00     0.008 C 
ATOM     11  C   UNL     1     212.940 205.148 215.988  1.00  0.00    -0.018 C 
ATOM     12  C   UNL     1     211.763 204.785 215.046  1.00  0.00     0.088 C 
ATOM     13  C   UNL     1     212.238 204.129 213.782  1.00  0.00     0.159 C 
ATOM     14  O   UNL     1     211.712 204.473 212.689  1.00  0.00    -0.295 OA
ATOM     15  C   UNL     1     213.773 206.289 215.347  1.00  0.00     0.012 C 
ATOM     16  C   UNL     1     212.338 201.864 211.875  1.00  0.00     0.039 C 
ENDROOT
TORSDOF 0
ENDMDL
MODEL 5
REMARK VINA RESULT:    -5.224     13.924     15.145
REMARK INTER + INTRA:          -5.224
REMARK INTER:                  -5.224
REMARK INTRA:                   0.000
REMARK UNBOUND:                 0.000
REMARK SMILES C=C1CCC[C@]2(C)CC(=O)C(=C(C)C)C[C@H]12
REMARK SMILES IDX 13 1 12 2 11 3 15 4 16 5 2 6 1 7 3 8 4 9 5 10 6 11 8 12 9 13
REMARK SMILES IDX 10 14 7 15 14 16
REMARK H PARENT
REMARK Flexibility Score: inf
ROOT
ATOM      1  C   UNL     1     199.182 205.827 217.122  1.00  0.00     0.039 C 
ATOM      2  C   UNL     1     199.683 207.249 217.239  1.00  0.00    -0.070 C 
ATOM      3  C   UNL     1     199.214 208.233 216.418  1.00  0.00    -0.006 C 
ATOM      4  C   UNL     1     198.186 207.936 215.334  1.00  0.00     0.047 C 
ATOM      5  C   UNL     1     198.312 208.858 214.092  1.00  0.00     0.025 C 
ATOM      6  C   UNL     1     199.451 208.500 213.135  1.00  0.00    -0.073 C 
ATOM      7  C   UNL     1     200.399 207.575 213.387  1.00  0.00     0.008 C 
ATOM      8  C   UNL     1     199.532 209.323 211.875  1.00  0.00     0.031 C 
ATOM      9  C   UNL     1     199.661 210.802 212.242  1.00  0.00     0.005 C 
ATOM     10  C   UNL     1     198.537 211.248 213.194  1.00  0.00     0.008 C 
ATOM     11  C   UNL     1     198.399 210.371 214.480  1.00  0.00    -0.018 C 
ATOM     12  C   UNL     1     199.611 210.596 215.421  1.00  0.00     0.088 C 
ATOM     13  C   UNL     1     199.587 209.667 216.600  1.00  0.00     0.159 C 
ATOM     14  O   UNL     1     199.875 210.127 217.738  1.00  0.00    -0.295 OA
ATOM     15  C   UNL     1     197.102 210.825 215.200  1.00  0.00     0.012 C 
ATOM     16  C   UNL     1     200.752 207.518 218.274  1.00  0.00     0.039 C 
ENDROOT
TORSDOF 0
ENDMDL
MODEL 6
REMARK VINA RESULT:    -5.176      1.585      4.530
REMARK INTER + INTRA:          -5.176
REMARK INTER:                  -5.176
REMARK INTRA:                   0.000
REMARK UNBOUND:                 0.000
REMARK SMILES C=C1CCC[C@]2(C)CC(=O)C(=C(C)C)C[C@H]12
REMARK SMILES IDX 13 1 12 2 11 3 15 4 16 5 2 6 1 7 3 8 4 9 5 10 6 11 8 12 9 13
REMARK SMILES IDX 10 14 7 15 14 16
REMARK H PARENT
REMARK Flexibility Score: inf
ROOT
ATOM      1  C   UNL     1     213.158 206.536 217.115  1.00  0.00     0.039 C 
ATOM      2  C   UNL     1     212.650 205.117 217.245  1.00  0.00    -0.070 C 
ATOM      3  C   UNL     1     213.083 204.131 216.408  1.00  0.00    -0.006 C 
ATOM      4  C   UNL     1     214.077 204.422 215.291  1.00  0.00     0.047 C 
ATOM      5  C   UNL     1     213.903 203.503 214.053  1.00  0.00     0.025 C 
ATOM      6  C   UNL     1     212.736 203.872 213.134  1.00  0.00    -0.073 C 
ATOM      7  C   UNL     1     211.805 204.804 213.419  1.00  0.00     0.008 C 
ATOM      8  C   UNL     1     212.607 203.052 211.876  1.00  0.00     0.031 C 
ATOM      9  C   UNL     1     212.477 201.574 212.246  1.00  0.00     0.005 C 
ATOM     10  C   UNL     1     213.629 201.117 213.159  1.00  0.00     0.008 C 
ATOM     11  C   UNL     1     213.816 201.990 214.441  1.00  0.00    -0.018 C 
ATOM     12  C   UNL     1     212.635 201.773 215.421  1.00  0.00     0.088 C 
ATOM     13  C   UNL     1     212.705 202.700 216.600  1.00  0.00     0.159 C 
ATOM     14  O   UNL     1     212.452 202.240 217.746  1.00  0.00    -0.295 OA
ATOM     15  C   UNL     1     215.133 201.525 215.117  1.00  0.00     0.012 C 
ATOM     16  C   UNL     1     211.614 204.855 218.315  1.00  0.00     0.039 C 
ENDROOT
TORSDOF 0
ENDMDL
MODEL 7
REMARK VINA RESULT:    -5.133     13.683     14.583
REMARK INTER + INTRA:          -5.133
REMARK INTER:                  -5.133
REMARK INTRA:                   0.000
REMARK UNBOUND:                 0.000
REMARK SMILES C=C1CCC[C@]2(C)CC(=O)C(=C(C)C)C[C@H]12
REMARK SMILES IDX 13 1 12 2 11 3 15 4 16 5 2 6 1 7 3 8 4 9 5 10 6 11 8 12 9 13
REMARK SMILES IDX 10 14 7 15 14 16
REMARK H PARENT
REMARK Flexibility Score: inf
ROOT
ATOM      1  C   UNL     1     198.174 204.487 213.054  1.00  0.00     0.039 C 
ATOM      2  C   UNL     1     198.943 204.781 214.322  1.00  0.00    -0.070 C 
ATOM      3  C   UNL     1     198.771 205.954 214.999  1.00  0.00    -0.006 C 
ATOM      4  C   UNL     1     197.815 207.026 214.492  1.00  0.00     0.047 C 
ATOM      5  C   UNL     1     198.251 208.468 214.864  1.00  0.00     0.025 C 
ATOM      6  C   UNL     1     199.379 209.044 214.005  1.00  0.00    -0.073 C 
ATOM      7  C   UNL     1     200.086 208.338 213.100  1.00  0.00     0.008 C 
ATOM      8  C   UNL     1     199.752 210.477 214.287  1.00  0.00     0.031 C 
ATOM      9  C   UNL     1     200.147 210.619 215.757  1.00  0.00     0.005 C 
ATOM     10  C   UNL     1     199.051 210.076 216.692  1.00  0.00     0.008 C 
ATOM     11  C   UNL     1     198.610 208.610 216.379  1.00  0.00    -0.018 C 
ATOM     12  C   UNL     1     199.743 207.615 216.739  1.00  0.00     0.088 C 
ATOM     13  C   UNL     1     199.412 206.212 216.321  1.00  0.00     0.159 C 
ATOM     14  O   UNL     1     199.675 205.268 217.114  1.00  0.00    -0.295 OA
ATOM     15  C   UNL     1     197.370 208.313 217.264  1.00  0.00     0.012 C 
ATOM     16  C   UNL     1     199.937 203.737 214.779  1.00  0.00     0.039 C 
ENDROOT
TORSDOF 0
ENDMDL
MODEL 8
REMARK VINA RESULT:    -5.027      1.813      5.205
REMARK INTER + INTRA:          -5.027
REMARK INTER:                  -5.027
REMARK INTRA:                   0.000
REMARK UNBOUND:                 0.000
REMARK SMILES C=C1CCC[C@]2(C)CC(=O)C(=C(C)C)C[C@H]12
REMARK SMILES IDX 13 1 12 2 11 3 15 4 16 5 2 6 1 7 3 8 4 9 5 10 6 11 8 12 9 13
REMARK SMILES IDX 10 14 7 15 14 16
REMARK H PARENT
REMARK Flexibility Score: inf
ROOT
ATOM      1  C   UNL     1     212.000 204.152 217.921  1.00  0.00     0.039 C 
ATOM      2  C   UNL     1     212.628 204.676 216.649  1.00  0.00    -0.070 C 
ATOM      3  C   UNL     1     212.814 203.866 215.567  1.00  0.00    -0.006 C 
ATOM      4  C   UNL     1     212.419 202.395 215.603  1.00  0.00     0.047 C 
ATOM      5  C   UNL     1     213.307 201.495 214.703  1.00  0.00     0.025 C 
ATOM      6  C   UNL     1     214.683 201.158 215.284  1.00  0.00    -0.073 C 
ATOM      7  C   UNL     1     215.195 201.709 216.402  1.00  0.00     0.008 C 
ATOM      8  C   UNL     1     215.523 200.207 214.470  1.00  0.00     0.031 C 
ATOM      9  C   UNL     1     215.722 200.780 213.067  1.00  0.00     0.005 C 
ATOM     10  C   UNL     1     214.377 201.130 212.404  1.00  0.00     0.008 C 
ATOM     11  C   UNL     1     213.466 202.069 213.257  1.00  0.00    -0.018 C 
ATOM     12  C   UNL     1     214.074 203.494 213.329  1.00  0.00     0.088 C 
ATOM     13  C   UNL     1     213.303 204.387 214.257  1.00  0.00     0.159 C 
ATOM     14  O   UNL     1     213.071 205.573 213.899  1.00  0.00    -0.295 OA
ATOM     15  C   UNL     1     212.091 202.136 212.543  1.00  0.00     0.012 C 
ATOM     16  C   UNL     1     213.076 206.120 216.649  1.00  0.00     0.039 C 
ENDROOT
TORSDOF 0
ENDMDL
MODEL 9
REMARK VINA RESULT:    -5.027     14.508     15.809
REMARK INTER + INTRA:          -5.027
REMARK INTER:                  -5.027
REMARK INTRA:                   0.000
REMARK UNBOUND:                 0.000
REMARK SMILES C=C1CCC[C@]2(C)CC(=O)C(=C(C)C)C[C@H]12
REMARK SMILES IDX 13 1 12 2 11 3 15 4 16 5 2 6 1 7 3 8 4 9 5 10 6 11 8 12 9 13
REMARK SMILES IDX 10 14 7 15 14 16
REMARK H PARENT
REMARK Flexibility Score: inf
ROOT
ATOM      1  C   UNL     1     200.372 207.880 217.710  1.00  0.00     0.039 C 
ATOM      2  C   UNL     1     199.684 207.428 216.442  1.00  0.00    -0.070 C 
ATOM      3  C   UNL     1     199.484 208.287 215.401  1.00  0.00    -0.006 C 
ATOM      4  C   UNL     1     199.922 209.744 215.482  1.00  0.00     0.047 C 
ATOM      5  C   UNL     1     199.029 210.704 214.653  1.00  0.00     0.025 C 
ATOM      6  C   UNL     1     197.686 211.055 215.297  1.00  0.00    -0.073 C 
ATOM      7  C   UNL     1     197.197 210.472 216.410  1.00  0.00     0.008 C 
ATOM      8  C   UNL     1     196.846 212.062 214.554  1.00  0.00     0.031 C 
ATOM      9  C   UNL     1     196.580 211.554 213.137  1.00  0.00     0.005 C 
ATOM     10  C   UNL     1     197.889 211.195 212.411  1.00  0.00     0.008 C 
ATOM     11  C   UNL     1     198.802 210.196 213.192  1.00  0.00    -0.018 C 
ATOM     12  C   UNL     1     198.156 208.787 213.228  1.00  0.00     0.088 C 
ATOM     13  C   UNL     1     198.933 207.834 214.089  1.00  0.00     0.159 C 
ATOM     14  O   UNL     1     199.118 206.658 213.675  1.00  0.00    -0.295 OA
ATOM     15  C   UNL     1     200.149 210.120 212.425  1.00  0.00     0.012 C 
ATOM     16  C   UNL     1     199.194 205.998 216.399  1.00  0.00     0.039 C 
ENDROOT
TORSDOF 0
ENDMDL
