MODEL 1
REMARK VINA RESULT:    -4.598      0.000      0.000
REMARK INTER + INTRA:         -14.465
REMARK INTER:                 -11.587
REMARK INTRA:                  -2.878
REMARK UNBOUND:                -2.878
REMARK SMILES CCCCCCCCCCCCCCCCCCCCCCCCCCCC(=O)[O-]
REMARK SMILES IDX 15 1 16 2 17 3 18 4 19 5 20 6 21 7 22 8 23 9 24 10 25 11
REMARK SMILES IDX 26 12 27 13 28 14 29 15 30 16 14 17 13 18 12 19 11 20 10 21
REMARK SMILES IDX 9 22 8 23 7 24 6 25 5 26 4 27 3 28 2 29 1 30
REMARK H PARENT
REMARK Flexibility Score: inf
ROOT
ATOM      1  C   UNL     1      42.954  22.743  13.136  1.00  0.00     0.000 C 
ENDROOT
BRANCH   1   2
ATOM      2  C   UNL     1      43.087  23.124  11.651  1.00  0.00     0.000 C 
BRANCH   2   3
ATOM      3  C   UNL     1      42.154  22.303  10.735  1.00  0.00     0.000 C 
BRANCH   3   4
ATOM      4  C   UNL     1      42.334  22.597   9.231  1.00  0.00     0.000 C 
BRANCH   4   5
ATOM      5  C   UNL     1      43.331  21.675   8.505  1.00  0.00     0.000 C 
BRANCH   5   6
ATOM      6  C   UNL     1      42.653  20.705   7.518  1.00  0.00     0.000 C 
BRANCH   6   7
ATOM      7  C   UNL     1      43.435  20.563   6.203  1.00  0.00     0.000 C 
BRANCH   7   8
ATOM      8  C   UNL     1      44.668  21.480   6.139  1.00  0.00     0.000 C 
BRANCH   8   9
ATOM      9  C   UNL     1      44.875  22.008   4.710  1.00  0.00     0.000 C 
BRANCH   9  10
ATOM     10  C   UNL     1      45.369  20.926   3.737  1.00  0.00     0.000 C 
BRANCH  10  11
ATOM     11  C   UNL     1      46.580  21.381   2.906  1.00  0.00     0.000 C 
BRANCH  11  12
ATOM     12  C   UNL     1      47.269  22.588   3.551  1.00  0.00     0.006 C 
BRANCH  12  13
ATOM     13  C   UNL     1      48.562  22.164   4.259  1.00  0.00     0.053 C 
BRANCH  13  14
ATOM     14  C   UNL     1      48.348  21.953   5.726  1.00  0.00     0.041 C 
ATOM     15  O   UNL     1      48.175  20.790   6.189  1.00  0.00    -0.550 OA
ATOM     16  O   UNL     1      48.262  23.051   6.577  1.00  0.00    -0.550 OA
ENDBRANCH  13  14
ENDBRANCH  12  13
ENDBRANCH  11  12
ENDBRANCH  10  11
ENDBRANCH   9  10
ENDBRANCH   8   9
ENDBRANCH   7   8
ENDBRANCH   6   7
ENDBRANCH   5   6
ENDBRANCH   4   5
ENDBRANCH   3   4
ENDBRANCH   2   3
ENDBRANCH   1   2
BRANCH   1  17
ATOM     17  C   UNL     1      42.311  21.359  13.320  1.00  0.00     0.000 C 
BRANCH  17  18
ATOM     18  C   UNL     1      43.362  20.243  13.466  1.00  0.00     0.000 C 
BRANCH  18  19
ATOM     19  C   UNL     1      43.915  19.701  12.129  1.00  0.00     0.000 C 
BRANCH  19  20
ATOM     20  C   UNL     1      44.471  18.262  12.175  1.00  0.00     0.000 C 
BRANCH  20  21
ATOM     21  C   UNL     1      43.466  17.214  11.669  1.00  0.00     0.000 C 
BRANCH  21  22
ATOM     22  C   UNL     1      42.262  17.085  12.614  1.00  0.00    -0.000 C 
BRANCH  22  23
ATOM     23  C   UNL     1      41.006  17.700  11.981  1.00  0.00    -0.000 C 
BRANCH  23  24
ATOM     24  C   UNL     1      41.125  17.751  10.449  1.00  0.00    -0.000 C 
BRANCH  24  25
ATOM     25  C   UNL     1      40.505  19.025   9.843  1.00  0.00    -0.000 C 
BRANCH  25  26
ATOM     26  C   UNL     1      39.684  19.874  10.831  1.00  0.00    -0.000 C 
BRANCH  26  27
ATOM     27  C   UNL     1      38.175  19.595  10.733  1.00  0.00    -0.000 C 
BRANCH  27  28
ATOM     28  C   UNL     1      37.708  18.487  11.692  1.00  0.00    -0.000 C 
BRANCH  28  29
ATOM     29  C   UNL     1      36.264  17.997  11.473  1.00  0.00    -0.003 C 
ATOM     30  C   UNL     1      35.213  18.956  12.035  1.00  0.00     0.004 C 
ENDBRANCH  28  29
ENDBRANCH  27  28
ENDBRANCH  26  27
ENDBRANCH  25  26
ENDBRANCH  24  25
ENDBRANCH  23  24
ENDBRANCH  22  23
ENDBRANCH  21  22
ENDBRANCH  20  21
ENDBRANCH  19  20
ENDBRANCH  18  19
ENDBRANCH  17  18
ENDBRANCH   1  17
TORSDOF 26
ENDMDL
MODEL 2
REMARK VINA RESULT:    -4.448      1.735      3.596
REMARK INTER + INTRA:         -14.088
REMARK INTER:                 -11.289
REMARK INTRA:                  -2.799
REMARK UNBOUND:                -2.878
REMARK SMILES CCCCCCCCCCCCCCCCCCCCCCCCCCCC(=O)[O-]
REMARK SMILES IDX 15 1 16 2 17 3 18 4 19 5 20 6 21 7 22 8 23 9 24 10 25 11
REMARK SMILES IDX 26 12 27 13 28 14 29 15 30 16 14 17 13 18 12 19 11 20 10 21
REMARK SMILES IDX 9 22 8 23 7 24 6 25 5 26 4 27 3 28 2 29 1 30
REMARK H PARENT
REMARK Flexibility Score: inf
ROOT
ATOM      1  C   UNL     1      38.986  19.187  11.315  1.00  0.00     0.000 C 
ENDROOT
BRANCH   1   2
ATOM      2  C   UNL     1      39.077  20.035  10.034  1.00  0.00     0.000 C 
BRANCH   2   3
ATOM      3  C   UNL     1      40.533  20.356   9.630  1.00  0.00     0.000 C 
BRANCH   3   4
ATOM      4  C   UNL     1      40.994  19.655   8.335  1.00  0.00     0.000 C 
BRANCH   4   5
ATOM      5  C   UNL     1      42.164  20.343   7.607  1.00  0.00     0.000 C 
BRANCH   5   6
ATOM      6  C   UNL     1      42.966  21.296   8.515  1.00  0.00     0.000 C 
BRANCH   6   7
ATOM      7  C   UNL     1      43.438  22.556   7.772  1.00  0.00     0.000 C 
BRANCH   7   8
ATOM      8  C   UNL     1      44.744  22.335   6.991  1.00  0.00     0.000 C 
BRANCH   8   9
ATOM      9  C   UNL     1      44.488  22.409   5.478  1.00  0.00     0.000 C 
BRANCH   9  10
ATOM     10  C   UNL     1      44.702  21.064   4.766  1.00  0.00     0.000 C 
BRANCH  10  11
ATOM     11  C   UNL     1      45.758  21.143   3.650  1.00  0.00     0.000 C 
BRANCH  11  12
ATOM     12  C   UNL     1      46.786  22.242   3.941  1.00  0.00     0.006 C 
BRANCH  12  13
ATOM     13  C   UNL     1      48.096  21.639   4.463  1.00  0.00     0.053 C 
BRANCH  13  14
ATOM     14  C   UNL     1      48.148  21.634   5.960  1.00  0.00     0.041 C 
ATOM     15  O   UNL     1      47.872  20.585   6.608  1.00  0.00    -0.550 OA
ATOM     16  O   UNL     1      48.425  22.813   6.645  1.00  0.00    -0.550 OA
ENDBRANCH  13  14
ENDBRANCH  12  13
ENDBRANCH  11  12
ENDBRANCH  10  11
ENDBRANCH   9  10
ENDBRANCH   8   9
ENDBRANCH   7   8
ENDBRANCH   6   7
ENDBRANCH   5   6
ENDBRANCH   4   5
ENDBRANCH   3   4
ENDBRANCH   2   3
ENDBRANCH   1   2
BRANCH   1  17
ATOM     17  C   UNL     1      39.774  17.873  11.193  1.00  0.00     0.000 C 
BRANCH  17  18
ATOM     18  C   UNL     1      41.000  17.842  12.124  1.00  0.00     0.000 C 
BRANCH  18  19
ATOM     19  C   UNL     1      42.334  17.507  11.420  1.00  0.00     0.000 C 
BRANCH  19  20
ATOM     20  C   UNL     1      43.559  17.371  12.349  1.00  0.00     0.000 C 
BRANCH  20  21
ATOM     21  C   UNL     1      44.550  18.540  12.210  1.00  0.00     0.000 C 
BRANCH  21  22
ATOM     22  C   UNL     1      43.972  19.840  12.786  1.00  0.00    -0.000 C 
BRANCH  22  23
ATOM     23  C   UNL     1      43.503  20.773  11.662  1.00  0.00    -0.000 C 
BRANCH  23  24
ATOM     24  C   UNL     1      42.721  21.972  12.226  1.00  0.00    -0.000 C 
BRANCH  24  25
ATOM     25  C   UNL     1      43.163  22.355  13.652  1.00  0.00    -0.000 C 
BRANCH  25  26
ATOM     26  C   UNL     1      42.030  22.371  14.695  1.00  0.00    -0.000 C 
BRANCH  26  27
ATOM     27  C   UNL     1      41.300  21.021  14.792  1.00  0.00    -0.000 C 
BRANCH  27  28
ATOM     28  C   UNL     1      40.535  20.849  16.116  1.00  0.00    -0.000 C 
BRANCH  28  29
ATOM     29  C   UNL     1      39.354  19.860  16.065  1.00  0.00    -0.003 C 
ATOM     30  C   UNL     1      38.287  20.145  17.123  1.00  0.00     0.004 C 
ENDBRANCH  28  29
ENDBRANCH  27  28
ENDBRANCH  26  27
ENDBRANCH  25  26
ENDBRANCH  24  25
ENDBRANCH  23  24
ENDBRANCH  22  23
ENDBRANCH  21  22
ENDBRANCH  20  21
ENDBRANCH  19  20
ENDBRANCH  18  19
ENDBRANCH  17  18
ENDBRANCH   1  17
TORSDOF 26
ENDMDL
MODEL 3
REMARK VINA RESULT:    -4.403      1.178      3.204
REMARK INTER + INTRA:         -13.974
REMARK INTER:                 -10.712
REMARK INTRA:                  -3.262
REMARK UNBOUND:                -2.878
REMARK SMILES CCCCCCCCCCCCCCCCCCCCCCCCCCCC(=O)[O-]
REMARK SMILES IDX 15 1 16 2 17 3 18 4 19 5 20 6 21 7 22 8 23 9 24 10 25 11
REMARK SMILES IDX 26 12 27 13 28 14 29 15 30 16 14 17 13 18 12 19 11 20 10 21
REMARK SMILES IDX 9 22 8 23 7 24 6 25 5 26 4 27 3 28 2 29 1 30
REMARK H PARENT
REMARK Flexibility Score: inf
ROOT
ATOM      1  C   UNL     1      42.543  17.666  10.886  1.00  0.00     0.000 C 
ENDROOT
BRANCH   1   2
ATOM      2  C   UNL     1      41.605  17.882   9.685  1.00  0.00     0.000 C 
BRANCH   2   3
ATOM      3  C   UNL     1      42.209  17.379   8.356  1.00  0.00     0.000 C 
BRANCH   3   4
ATOM      4  C   UNL     1      42.024  18.354   7.174  1.00  0.00     0.000 C 
BRANCH   4   5
ATOM      5  C   UNL     1      42.570  19.774   7.414  1.00  0.00     0.000 C 
BRANCH   5   6
ATOM      6  C   UNL     1      43.187  20.408   6.153  1.00  0.00     0.000 C 
BRANCH   6   7
ATOM      7  C   UNL     1      44.426  21.261   6.470  1.00  0.00     0.000 C 
BRANCH   7   8
ATOM      8  C   UNL     1      44.304  22.706   5.957  1.00  0.00     0.000 C 
BRANCH   8   9
ATOM      9  C   UNL     1      45.490  23.057   5.046  1.00  0.00     0.000 C 
BRANCH   9  10
ATOM     10  C   UNL     1      45.848  21.930   4.065  1.00  0.00     0.000 C 
BRANCH  10  11
ATOM     11  C   UNL     1      47.098  22.246   3.227  1.00  0.00     0.000 C 
BRANCH  11  12
ATOM     12  C   UNL     1      48.302  22.546   4.126  1.00  0.00     0.006 C 
BRANCH  12  13
ATOM     13  C   UNL     1      48.801  21.270   4.816  1.00  0.00     0.053 C 
BRANCH  13  14
ATOM     14  C   UNL     1      48.526  21.291   6.288  1.00  0.00     0.041 C 
ATOM     15  O   UNL     1      48.076  20.266   6.872  1.00  0.00    -0.550 OA
ATOM     16  O   UNL     1      48.692  22.472   7.005  1.00  0.00    -0.550 OA
ENDBRANCH  13  14
ENDBRANCH  12  13
ENDBRANCH  11  12
ENDBRANCH  10  11
ENDBRANCH   9  10
ENDBRANCH   8   9
ENDBRANCH   7   8
ENDBRANCH   6   7
ENDBRANCH   5   6
ENDBRANCH   4   5
ENDBRANCH   3   4
ENDBRANCH   2   3
ENDBRANCH   1   2
BRANCH   1  17
ATOM     17  C   UNL     1      41.823  17.888  12.226  1.00  0.00     0.000 C 
BRANCH  17  18
ATOM     18  C   UNL     1      42.473  19.011  13.056  1.00  0.00     0.000 C 
BRANCH  18  19
ATOM     19  C   UNL     1      41.473  20.005  13.688  1.00  0.00     0.000 C 
BRANCH  19  20
ATOM     20  C   UNL     1      42.067  21.365  14.110  1.00  0.00     0.000 C 
BRANCH  20  21
ATOM     21  C   UNL     1      43.257  21.798  13.236  1.00  0.00     0.000 C 
BRANCH  21  22
ATOM     22  C   UNL     1      42.882  22.965  12.312  1.00  0.00    -0.000 C 
BRANCH  22  23
ATOM     23  C   UNL     1      43.097  22.585  10.841  1.00  0.00    -0.000 C 
BRANCH  23  24
ATOM     24  C   UNL     1      42.127  21.472  10.408  1.00  0.00    -0.000 C 
BRANCH  24  25
ATOM     25  C   UNL     1      41.172  21.916   9.283  1.00  0.00    -0.000 C 
BRANCH  25  26
ATOM     26  C   UNL     1      39.761  21.304   9.356  1.00  0.00    -0.000 C 
BRANCH  26  27
ATOM     27  C   UNL     1      39.559  20.438  10.610  1.00  0.00    -0.000 C 
BRANCH  27  28
ATOM     28  C   UNL     1      38.710  19.184  10.342  1.00  0.00    -0.000 C 
BRANCH  28  29
ATOM     29  C   UNL     1      38.075  18.544  11.591  1.00  0.00    -0.003 C 
ATOM     30  C   UNL     1      36.559  18.734  11.658  1.00  0.00     0.004 C 
ENDBRANCH  28  29
ENDBRANCH  27  28
ENDBRANCH  26  27
ENDBRANCH  25  26
ENDBRANCH  24  25
ENDBRANCH  23  24
ENDBRANCH  22  23
ENDBRANCH  21  22
ENDBRANCH  20  21
ENDBRANCH  19  20
ENDBRANCH  18  19
ENDBRANCH  17  18
ENDBRANCH   1  17
TORSDOF 26
ENDMDL
MODEL 4
REMARK VINA RESULT:    -4.384      1.661      2.733
REMARK INTER + INTRA:         -13.926
REMARK INTER:                 -10.317
REMARK INTRA:                  -3.609
REMARK UNBOUND:                -2.878
REMARK SMILES CCCCCCCCCCCCCCCCCCCCCCCCCCCC(=O)[O-]
REMARK SMILES IDX 15 1 16 2 17 3 18 4 19 5 20 6 21 7 22 8 23 9 24 10 25 11
REMARK SMILES IDX 26 12 27 13 28 14 29 15 30 16 14 17 13 18 12 19 11 20 10 21
REMARK SMILES IDX 9 22 8 23 7 24 6 25 5 26 4 27 3 28 2 29 1 30
REMARK H PARENT
REMARK Flexibility Score: inf
ROOT
ATOM      1  C   UNL     1      43.738  20.693  13.258  1.00  0.00     0.000 C 
ENDROOT
BRANCH   1   2
ATOM      2  C   UNL     1      43.027  21.790  12.446  1.00  0.00     0.000 C 
BRANCH   2   3
ATOM      3  C   UNL     1      43.130  21.569  10.921  1.00  0.00     0.000 C 
BRANCH   3   4
ATOM      4  C   UNL     1      42.670  22.778  10.079  1.00  0.00     0.000 C 
BRANCH   4   5
ATOM      5  C   UNL     1      43.507  23.042   8.815  1.00  0.00     0.000 C 
BRANCH   5   6
ATOM      6  C   UNL     1      43.451  21.886   7.798  1.00  0.00     0.000 C 
BRANCH   6   7
ATOM      7  C   UNL     1      44.712  21.814   6.921  1.00  0.00     0.000 C 
BRANCH   7   8
ATOM      8  C   UNL     1      44.457  22.255   5.470  1.00  0.00     0.000 C 
BRANCH   8   9
ATOM      9  C   UNL     1      44.893  21.158   4.487  1.00  0.00     0.000 C 
BRANCH   9  10
ATOM     10  C   UNL     1      46.066  21.586   3.591  1.00  0.00     0.000 C 
BRANCH  10  11
ATOM     11  C   UNL     1      46.723  22.896   4.057  1.00  0.00     0.000 C 
BRANCH  11  12
ATOM     12  C   UNL     1      48.228  22.709   4.275  1.00  0.00     0.006 C 
BRANCH  12  13
ATOM     13  C   UNL     1      48.525  21.332   4.884  1.00  0.00     0.053 C 
BRANCH  13  14
ATOM     14  C   UNL     1      48.364  21.337   6.373  1.00  0.00     0.041 C 
ATOM     15  O   UNL     1      48.009  20.290   6.984  1.00  0.00    -0.550 OA
ATOM     16  O   UNL     1      48.531  22.523   7.081  1.00  0.00    -0.550 OA
ENDBRANCH  13  14
ENDBRANCH  12  13
ENDBRANCH  11  12
ENDBRANCH  10  11
ENDBRANCH   9  10
ENDBRANCH   8   9
ENDBRANCH   7   8
ENDBRANCH   6   7
ENDBRANCH   5   6
ENDBRANCH   4   5
ENDBRANCH   3   4
ENDBRANCH   2   3
ENDBRANCH   1   2
BRANCH   1  17
ATOM     17  C   UNL     1      44.082  19.469  12.395  1.00  0.00     0.000 C 
BRANCH  17  18
ATOM     18  C   UNL     1      43.352  18.199  12.871  1.00  0.00     0.000 C 
BRANCH  18  19
ATOM     19  C   UNL     1      42.546  17.470  11.772  1.00  0.00     0.000 C 
BRANCH  19  20
ATOM     20  C   UNL     1      42.725  18.022  10.342  1.00  0.00     0.000 C 
BRANCH  20  21
ATOM     21  C   UNL     1      41.443  17.931   9.499  1.00  0.00     0.000 C 
BRANCH  21  22
ATOM     22  C   UNL     1      41.079  19.286   8.877  1.00  0.00    -0.000 C 
BRANCH  22  23
ATOM     23  C   UNL     1      40.138  20.073   9.799  1.00  0.00    -0.000 C 
BRANCH  23  24
ATOM     24  C   UNL     1      38.928  19.219  10.215  1.00  0.00    -0.000 C 
BRANCH  24  25
ATOM     25  C   UNL     1      38.922  18.883  11.719  1.00  0.00    -0.000 C 
BRANCH  25  26
ATOM     26  C   UNL     1      40.118  19.445  12.510  1.00  0.00    -0.000 C 
BRANCH  26  27
ATOM     27  C   UNL     1      39.988  19.205  14.023  1.00  0.00    -0.000 C 
BRANCH  27  28
ATOM     28  C   UNL     1      40.609  20.334  14.863  1.00  0.00    -0.000 C 
BRANCH  28  29
ATOM     29  C   UNL     1      40.104  20.421  16.316  1.00  0.00    -0.003 C 
ATOM     30  C   UNL     1      38.676  19.899  16.487  1.00  0.00     0.004 C 
ENDBRANCH  28  29
ENDBRANCH  27  28
ENDBRANCH  26  27
ENDBRANCH  25  26
ENDBRANCH  24  25
ENDBRANCH  23  24
ENDBRANCH  22  23
ENDBRANCH  21  22
ENDBRANCH  20  21
ENDBRANCH  19  20
ENDBRANCH  18  19
ENDBRANCH  17  18
ENDBRANCH   1  17
TORSDOF 26
ENDMDL
MODEL 5
REMARK VINA RESULT:    -4.286      2.926      8.652
REMARK INTER + INTRA:         -13.678
REMARK INTER:                  -9.882
REMARK INTRA:                  -3.796
REMARK UNBOUND:                -2.878
REMARK SMILES CCCCCCCCCCCCCCCCCCCCCCCCCCCC(=O)[O-]
REMARK SMILES IDX 15 1 16 2 17 3 18 4 19 5 20 6 21 7 22 8 23 9 24 10 25 11
REMARK SMILES IDX 26 12 27 13 28 14 29 15 30 16 14 17 13 18 12 19 11 20 10 21
REMARK SMILES IDX 9 22 8 23 7 24 6 25 5 26 4 27 3 28 2 29 1 30
REMARK H PARENT
REMARK Flexibility Score: inf
ROOT
ATOM      1  C   UNL     1      40.489  17.857  10.751  1.00  0.00     0.000 C 
ENDROOT
BRANCH   1   2
ATOM      2  C   UNL     1      39.226  18.668  10.412  1.00  0.00     0.000 C 
BRANCH   2   3
ATOM      3  C   UNL     1      39.405  20.183  10.649  1.00  0.00     0.000 C 
BRANCH   3   4
ATOM      4  C   UNL     1      39.492  21.015   9.352  1.00  0.00     0.000 C 
BRANCH   4   5
ATOM      5  C   UNL     1      40.827  21.755   9.145  1.00  0.00     0.000 C 
BRANCH   5   6
ATOM      6  C   UNL     1      41.519  22.137  10.467  1.00  0.00     0.000 C 
BRANCH   6   7
ATOM      7  C   UNL     1      43.048  21.996  10.391  1.00  0.00     0.000 C 
BRANCH   7   8
ATOM      8  C   UNL     1      43.614  21.046  11.459  1.00  0.00     0.000 C 
BRANCH   8   9
ATOM      9  C   UNL     1      42.502  20.576  12.409  1.00  0.00     0.000 C 
BRANCH   9  10
ATOM     10  C   UNL     1      42.895  19.339  13.230  1.00  0.00     0.000 C 
BRANCH  10  11
ATOM     11  C   UNL     1      44.045  18.542  12.591  1.00  0.00     0.000 C 
BRANCH  11  12
ATOM     12  C   UNL     1      43.981  17.065  12.993  1.00  0.00     0.006 C 
BRANCH  12  13
ATOM     13  C   UNL     1      44.260  16.158  11.787  1.00  0.00     0.053 C 
BRANCH  13  14
ATOM     14  C   UNL     1      44.732  14.801  12.210  1.00  0.00     0.041 C 
ATOM     15  O   UNL     1      43.918  13.952  12.669  1.00  0.00    -0.550 OA
ATOM     16  O   UNL     1      46.090  14.500  12.172  1.00  0.00    -0.550 OA
ENDBRANCH  13  14
ENDBRANCH  12  13
ENDBRANCH  11  12
ENDBRANCH  10  11
ENDBRANCH   9  10
ENDBRANCH   8   9
ENDBRANCH   7   8
ENDBRANCH   6   7
ENDBRANCH   5   6
ENDBRANCH   4   5
ENDBRANCH   3   4
ENDBRANCH   2   3
ENDBRANCH   1   2
BRANCH   1  17
ATOM     17  C   UNL     1      41.716  18.347   9.966  1.00  0.00     0.000 C 
BRANCH  17  18
ATOM     18  C   UNL     1      42.006  17.471   8.733  1.00  0.00     0.000 C 
BRANCH  18  19
ATOM     19  C   UNL     1      42.028  18.236   7.390  1.00  0.00     0.000 C 
BRANCH  19  20
ATOM     20  C   UNL     1      42.396  19.732   7.485  1.00  0.00     0.000 C 
BRANCH  20  21
ATOM     21  C   UNL     1      43.176  20.237   6.260  1.00  0.00     0.000 C 
BRANCH  21  22
ATOM     22  C   UNL     1      44.022  21.472   6.600  1.00  0.00    -0.000 C 
BRANCH  22  23
ATOM     23  C   UNL     1      44.659  22.061   5.334  1.00  0.00    -0.000 C 
BRANCH  23  24
ATOM     24  C   UNL     1      45.058  20.951   4.346  1.00  0.00    -0.000 C 
BRANCH  24  25
ATOM     25  C   UNL     1      46.176  21.385   3.380  1.00  0.00    -0.000 C 
BRANCH  25  26
ATOM     26  C   UNL     1      46.782  22.770   3.675  1.00  0.00    -0.000 C 
BRANCH  26  27
ATOM     27  C   UNL     1      48.291  22.704   3.960  1.00  0.00    -0.000 C 
BRANCH  27  28
ATOM     28  C   UNL     1      48.679  21.516   4.858  1.00  0.00    -0.000 C 
BRANCH  28  29
ATOM     29  C   UNL     1      48.270  21.653   6.337  1.00  0.00    -0.003 C 
ATOM     30  C   UNL     1      48.051  20.306   7.027  1.00  0.00     0.004 C 
ENDBRANCH  28  29
ENDBRANCH  27  28
ENDBRANCH  26  27
ENDBRANCH  25  26
ENDBRANCH  24  25
ENDBRANCH  23  24
ENDBRANCH  22  23
ENDBRANCH  21  22
ENDBRANCH  20  21
ENDBRANCH  19  20
ENDBRANCH  18  19
ENDBRANCH  17  18
ENDBRANCH   1  17
TORSDOF 26
ENDMDL
MODEL 6
REMARK VINA RESULT:    -4.167      1.658      4.521
REMARK INTER + INTRA:         -13.379
REMARK INTER:                  -9.700
REMARK INTRA:                  -3.679
REMARK UNBOUND:                -2.878
REMARK SMILES CCCCCCCCCCCCCCCCCCCCCCCCCCCC(=O)[O-]
REMARK SMILES IDX 15 1 16 2 17 3 18 4 19 5 20 6 21 7 22 8 23 9 24 10 25 11
REMARK SMILES IDX 26 12 27 13 28 14 29 15 30 16 14 17 13 18 12 19 11 20 10 21
REMARK SMILES IDX 9 22 8 23 7 24 6 25 5 26 4 27 3 28 2 29 1 30
REMARK H PARENT
REMARK Flexibility Score: inf
ROOT
ATOM      1  C   UNL     1      39.801  18.950  10.016  1.00  0.00     0.000 C 
ENDROOT
BRANCH   1   2
ATOM      2  C   UNL     1      39.928  20.474   9.849  1.00  0.00     0.000 C 
BRANCH   2   3
ATOM      3  C   UNL     1      40.565  20.879   8.502  1.00  0.00     0.000 C 
BRANCH   3   4
ATOM      4  C   UNL     1      41.533  19.825   7.924  1.00  0.00     0.000 C 
BRANCH   4   5
ATOM      5  C   UNL     1      42.755  20.402   7.188  1.00  0.00     0.000 C 
BRANCH   5   6
ATOM      6  C   UNL     1      43.286  21.703   7.821  1.00  0.00     0.000 C 
BRANCH   6   7
ATOM      7  C   UNL     1      44.496  22.274   7.066  1.00  0.00     0.000 C 
BRANCH   7   8
ATOM      8  C   UNL     1      44.987  21.350   5.938  1.00  0.00     0.000 C 
BRANCH   8   9
ATOM      9  C   UNL     1      45.250  22.155   4.656  1.00  0.00     0.000 C 
BRANCH   9  10
ATOM     10  C   UNL     1      46.085  21.382   3.623  1.00  0.00     0.000 C 
BRANCH  10  11
ATOM     11  C   UNL     1      47.265  22.203   3.077  1.00  0.00     0.000 C 
BRANCH  11  12
ATOM     12  C   UNL     1      48.215  22.619   4.204  1.00  0.00     0.006 C 
BRANCH  12  13
ATOM     13  C   UNL     1      48.839  21.388   4.874  1.00  0.00     0.053 C 
BRANCH  13  14
ATOM     14  C   UNL     1      48.609  21.384   6.353  1.00  0.00     0.041 C 
ATOM     15  O   UNL     1      48.855  22.412   7.044  1.00  0.00    -0.550 OA
ATOM     16  O   UNL     1      48.194  20.215   6.985  1.00  0.00    -0.550 OA
ENDBRANCH  13  14
ENDBRANCH  12  13
ENDBRANCH  11  12
ENDBRANCH  10  11
ENDBRANCH   9  10
ENDBRANCH   8   9
ENDBRANCH   7   8
ENDBRANCH   6   7
ENDBRANCH   5   6
ENDBRANCH   4   5
ENDBRANCH   3   4
ENDBRANCH   2   3
ENDBRANCH   1   2
BRANCH   1  17
ATOM     17  C   UNL     1      40.195  18.490  11.428  1.00  0.00     0.000 C 
BRANCH  17  18
ATOM     18  C   UNL     1      40.166  19.646  12.446  1.00  0.00     0.000 C 
BRANCH  18  19
ATOM     19  C   UNL     1      40.791  19.310  13.819  1.00  0.00     0.000 C 
BRANCH  19  20
ATOM     20  C   UNL     1      41.601  20.448  14.475  1.00  0.00     0.000 C 
BRANCH  20  21
ATOM     21  C   UNL     1      41.822  21.646  13.536  1.00  0.00     0.000 C 
BRANCH  21  22
ATOM     22  C   UNL     1      43.266  21.699  13.019  1.00  0.00    -0.000 C 
BRANCH  22  23
ATOM     23  C   UNL     1      43.311  21.468  11.502  1.00  0.00    -0.000 C 
BRANCH  23  24
ATOM     24  C   UNL     1      43.436  19.970  11.173  1.00  0.00    -0.000 C 
BRANCH  24  25
ATOM     25  C   UNL     1      44.340  19.214  12.166  1.00  0.00    -0.000 C 
BRANCH  25  26
ATOM     26  C   UNL     1      43.773  17.870  12.660  1.00  0.00    -0.000 C 
BRANCH  26  27
ATOM     27  C   UNL     1      44.632  16.672  12.222  1.00  0.00    -0.000 C 
BRANCH  27  28
ATOM     28  C   UNL     1      43.850  15.347  12.214  1.00  0.00    -0.000 C 
BRANCH  28  29
ATOM     29  C   UNL     1      44.718  14.076  12.282  1.00  0.00    -0.003 C 
ATOM     30  C   UNL     1      46.217  14.368  12.207  1.00  0.00     0.004 C 
ENDBRANCH  28  29
ENDBRANCH  27  28
ENDBRANCH  26  27
ENDBRANCH  25  26
ENDBRANCH  24  25
ENDBRANCH  23  24
ENDBRANCH  22  23
ENDBRANCH  21  22
ENDBRANCH  20  21
ENDBRANCH  19  20
ENDBRANCH  18  19
ENDBRANCH  17  18
ENDBRANCH   1  17
TORSDOF 26
ENDMDL
MODEL 7
REMARK VINA RESULT:    -4.144      4.094      9.796
REMARK INTER + INTRA:         -13.322
REMARK INTER:                 -10.036
REMARK INTRA:                  -3.285
REMARK UNBOUND:                -2.878
REMARK SMILES CCCCCCCCCCCCCCCCCCCCCCCCCCCC(=O)[O-]
REMARK SMILES IDX 15 1 16 2 17 3 18 4 19 5 20 6 21 7 22 8 23 9 24 10 25 11
REMARK SMILES IDX 26 12 27 13 28 14 29 15 30 16 14 17 13 18 12 19 11 20 10 21
REMARK SMILES IDX 9 22 8 23 7 24 6 25 5 26 4 27 3 28 2 29 1 30
REMARK H PARENT
REMARK Flexibility Score: inf
ROOT
ATOM      1  C   UNL     1      39.781  20.073  10.007  1.00  0.00     0.000 C 
ENDROOT
BRANCH   1   2
ATOM      2  C   UNL     1      39.512  19.426  11.377  1.00  0.00     0.000 C 
BRANCH   2   3
ATOM      3  C   UNL     1      39.538  17.882  11.326  1.00  0.00     0.000 C 
BRANCH   3   4
ATOM      4  C   UNL     1      40.905  17.265  11.688  1.00  0.00     0.000 C 
BRANCH   4   5
ATOM      5  C   UNL     1      41.757  18.103  12.660  1.00  0.00     0.000 C 
BRANCH   5   6
ATOM      6  C   UNL     1      43.265  17.804  12.556  1.00  0.00     0.000 C 
BRANCH   6   7
ATOM      7  C   UNL     1      44.066  19.000  12.018  1.00  0.00     0.000 C 
BRANCH   7   8
ATOM      8  C   UNL     1      43.342  20.342  12.219  1.00  0.00     0.000 C 
BRANCH   8   9
ATOM      9  C   UNL     1      43.868  21.057  13.473  1.00  0.00     0.000 C 
BRANCH   9  10
ATOM     10  C   UNL     1      42.785  21.869  14.201  1.00  0.00     0.000 C 
BRANCH  10  11
ATOM     11  C   UNL     1      41.406  21.189  14.162  1.00  0.00     0.000 C 
BRANCH  11  12
ATOM     12  C   UNL     1      40.850  20.991  15.576  1.00  0.00     0.006 C 
BRANCH  12  13
ATOM     13  C   UNL     1      39.855  19.824  15.613  1.00  0.00     0.053 C 
BRANCH  13  14
ATOM     14  C   UNL     1      38.727  20.086  16.564  1.00  0.00     0.041 C 
ATOM     15  O   UNL     1      37.817  19.227  16.732  1.00  0.00    -0.550 OA
ATOM     16  O   UNL     1      38.639  21.317  17.207  1.00  0.00    -0.550 OA
ENDBRANCH  13  14
ENDBRANCH  12  13
ENDBRANCH  11  12
ENDBRANCH  10  11
ENDBRANCH   9  10
ENDBRANCH   8   9
ENDBRANCH   7   8
ENDBRANCH   6   7
ENDBRANCH   5   6
ENDBRANCH   4   5
ENDBRANCH   3   4
ENDBRANCH   2   3
ENDBRANCH   1   2
BRANCH   1  17
ATOM     17  C   UNL     1      40.779  19.257   9.170  1.00  0.00     0.000 C 
BRANCH  17  18
ATOM     18  C   UNL     1      41.473  20.114   8.095  1.00  0.00     0.000 C 
BRANCH  18  19
ATOM     19  C   UNL     1      41.795  21.560   8.533  1.00  0.00     0.000 C 
BRANCH  19  20
ATOM     20  C   UNL     1      43.283  21.849   8.826  1.00  0.00     0.000 C 
BRANCH  20  21
ATOM     21  C   UNL     1      43.847  23.003   7.981  1.00  0.00     0.000 C 
BRANCH  21  22
ATOM     22  C   UNL     1      44.869  22.501   6.951  1.00  0.00    -0.000 C 
BRANCH  22  23
ATOM     23  C   UNL     1      44.204  21.560   5.938  1.00  0.00    -0.000 C 
BRANCH  23  24
ATOM     24  C   UNL     1      45.241  20.638   5.274  1.00  0.00    -0.000 C 
BRANCH  24  25
ATOM     25  C   UNL     1      45.374  20.881   3.758  1.00  0.00    -0.000 C 
BRANCH  25  26
ATOM     26  C   UNL     1      46.455  21.903   3.362  1.00  0.00    -0.000 C 
BRANCH  26  27
ATOM     27  C   UNL     1      47.825  21.581   3.981  1.00  0.00    -0.000 C 
BRANCH  27  28
ATOM     28  C   UNL     1      48.323  22.679   4.936  1.00  0.00    -0.000 C 
BRANCH  28  29
ATOM     29  C   UNL     1      48.445  22.257   6.412  1.00  0.00    -0.003 C 
ATOM     30  C   UNL     1      48.722  20.763   6.589  1.00  0.00     0.004 C 
ENDBRANCH  28  29
ENDBRANCH  27  28
ENDBRANCH  26  27
ENDBRANCH  25  26
ENDBRANCH  24  25
ENDBRANCH  23  24
ENDBRANCH  22  23
ENDBRANCH  21  22
ENDBRANCH  20  21
ENDBRANCH  19  20
ENDBRANCH  18  19
ENDBRANCH  17  18
ENDBRANCH   1  17
TORSDOF 26
ENDMDL
MODEL 8
REMARK VINA RESULT:    -4.111      1.151      2.948
REMARK INTER + INTRA:         -13.239
REMARK INTER:                  -9.992
REMARK INTRA:                  -3.246
REMARK UNBOUND:                -2.878
REMARK SMILES CCCCCCCCCCCCCCCCCCCCCCCCCCCC(=O)[O-]
REMARK SMILES IDX 15 1 16 2 17 3 18 4 19 5 20 6 21 7 22 8 23 9 24 10 25 11
REMARK SMILES IDX 26 12 27 13 28 14 29 15 30 16 14 17 13 18 12 19 11 20 10 21
REMARK SMILES IDX 9 22 8 23 7 24 6 25 5 26 4 27 3 28 2 29 1 30
REMARK H PARENT
REMARK Flexibility Score: inf
ROOT
ATOM      1  C   UNL     1      42.107  18.594   9.826  1.00  0.00     0.000 C 
ENDROOT
BRANCH   1   2
ATOM      2  C   UNL     1      41.557  18.584   8.388  1.00  0.00     0.000 C 
BRANCH   2   3
ATOM      3  C   UNL     1      41.372  20.002   7.807  1.00  0.00     0.000 C 
BRANCH   3   4
ATOM      4  C   UNL     1      40.970  21.062   8.855  1.00  0.00     0.000 C 
BRANCH   4   5
ATOM      5  C   UNL     1      42.006  22.179   9.077  1.00  0.00     0.000 C 
BRANCH   5   6
ATOM      6  C   UNL     1      43.358  21.897   8.392  1.00  0.00     0.000 C 
BRANCH   6   7
ATOM      7  C   UNL     1      43.907  23.125   7.649  1.00  0.00     0.000 C 
BRANCH   7   8
ATOM      8  C   UNL     1      44.612  22.761   6.332  1.00  0.00     0.000 C 
BRANCH   8   9
ATOM      9  C   UNL     1      44.159  21.377   5.841  1.00  0.00     0.000 C 
BRANCH   9  10
ATOM     10  C   UNL     1      45.033  20.828   4.703  1.00  0.00     0.000 C 
BRANCH  10  11
ATOM     11  C   UNL     1      45.859  21.922   4.006  1.00  0.00     0.000 C 
BRANCH  11  12
ATOM     12  C   UNL     1      47.266  21.418   3.667  1.00  0.00     0.006 C 
BRANCH  12  13
ATOM     13  C   UNL     1      48.330  22.210   4.436  1.00  0.00     0.053 C 
BRANCH  13  14
ATOM     14  C   UNL     1      48.217  21.999   5.915  1.00  0.00     0.041 C 
ATOM     15  O   UNL     1      48.250  22.982   6.708  1.00  0.00    -0.550 OA
ATOM     16  O   UNL     1      48.155  20.706   6.425  1.00  0.00    -0.550 OA
ENDBRANCH  13  14
ENDBRANCH  12  13
ENDBRANCH  11  12
ENDBRANCH  10  11
ENDBRANCH   9  10
ENDBRANCH   8   9
ENDBRANCH   7   8
ENDBRANCH   6   7
ENDBRANCH   5   6
ENDBRANCH   4   5
ENDBRANCH   3   4
ENDBRANCH   2   3
ENDBRANCH   1   2
BRANCH   1  17
ATOM     17  C   UNL     1      42.378  17.175  10.350  1.00  0.00     0.000 C 
BRANCH  17  18
ATOM     18  C   UNL     1      42.358  17.109  11.888  1.00  0.00     0.000 C 
BRANCH  18  19
ATOM     19  C   UNL     1      43.753  17.131  12.551  1.00  0.00     0.000 C 
BRANCH  19  20
ATOM     20  C   UNL     1      44.647  18.333  12.177  1.00  0.00     0.000 C 
BRANCH  20  21
ATOM     21  C   UNL     1      44.251  19.626  12.910  1.00  0.00     0.000 C 
BRANCH  21  22
ATOM     22  C   UNL     1      43.634  20.652  11.950  1.00  0.00    -0.000 C 
BRANCH  22  23
ATOM     23  C   UNL     1      42.507  21.433  12.638  1.00  0.00    -0.000 C 
BRANCH  23  24
ATOM     24  C   UNL     1      42.245  20.895  14.055  1.00  0.00    -0.000 C 
BRANCH  24  25
ATOM     25  C   UNL     1      40.903  20.147  14.172  1.00  0.00    -0.000 C 
BRANCH  25  26
ATOM     26  C   UNL     1      40.659  19.087  13.081  1.00  0.00    -0.000 C 
BRANCH  26  27
ATOM     27  C   UNL     1      39.574  19.513  12.079  1.00  0.00    -0.000 C 
BRANCH  27  28
ATOM     28  C   UNL     1      38.904  18.318  11.379  1.00  0.00    -0.000 C 
BRANCH  28  29
ATOM     29  C   UNL     1      37.531  18.616  10.748  1.00  0.00    -0.003 C 
ATOM     30  C   UNL     1      36.389  18.608  11.766  1.00  0.00     0.004 C 
ENDBRANCH  28  29
ENDBRANCH  27  28
ENDBRANCH  26  27
ENDBRANCH  25  26
ENDBRANCH  24  25
ENDBRANCH  23  24
ENDBRANCH  22  23
ENDBRANCH  21  22
ENDBRANCH  20  21
ENDBRANCH  19  20
ENDBRANCH  18  19
ENDBRANCH  17  18
ENDBRANCH   1  17
TORSDOF 26
ENDMDL
MODEL 9
REMARK VINA RESULT:    -4.059      3.849      9.433
REMARK INTER + INTRA:         -13.107
REMARK INTER:                  -9.100
REMARK INTRA:                  -4.007
REMARK UNBOUND:                -2.878
REMARK SMILES CCCCCCCCCCCCCCCCCCCCCCCCCCCC(=O)[O-]
REMARK SMILES IDX 15 1 16 2 17 3 18 4 19 5 20 6 21 7 22 8 23 9 24 10 25 11
REMARK SMILES IDX 26 12 27 13 28 14 29 15 30 16 14 17 13 18 12 19 11 20 10 21
REMARK SMILES IDX 9 22 8 23 7 24 6 25 5 26 4 27 3 28 2 29 1 30
REMARK H PARENT
REMARK Flexibility Score: inf
ROOT
ATOM      1  C   UNL     1      43.049  21.994  12.710  1.00  0.00     0.000 C 
ENDROOT
BRANCH   1   2
ATOM      2  C   UNL     1      43.722  20.760  13.338  1.00  0.00     0.000 C 
BRANCH   2   3
ATOM      3  C   UNL     1      44.020  19.650  12.306  1.00  0.00     0.000 C 
BRANCH   3   4
ATOM      4  C   UNL     1      43.590  18.239  12.760  1.00  0.00     0.000 C 
BRANCH   4   5
ATOM      5  C   UNL     1      42.741  17.461  11.738  1.00  0.00     0.000 C 
BRANCH   5   6
ATOM      6  C   UNL     1      42.536  18.223  10.415  1.00  0.00     0.000 C 
BRANCH   6   7
ATOM      7  C   UNL     1      41.158  17.955   9.790  1.00  0.00     0.000 C 
BRANCH   7   8
ATOM      8  C   UNL     1      40.335  19.237   9.585  1.00  0.00     0.000 C 
BRANCH   8   9
ATOM      9  C   UNL     1      39.057  19.200  10.438  1.00  0.00     0.000 C 
BRANCH   9  10
ATOM     10  C   UNL     1      39.314  18.764  11.888  1.00  0.00     0.000 C 
BRANCH  10  11
ATOM     11  C   UNL     1      40.125  19.798  12.686  1.00  0.00     0.000 C 
BRANCH  11  12
ATOM     12  C   UNL     1      40.479  19.265  14.078  1.00  0.00     0.006 C 
BRANCH  12  13
ATOM     13  C   UNL     1      40.523  20.405  15.104  1.00  0.00     0.053 C 
BRANCH  13  14
ATOM     14  C   UNL     1      39.544  20.187  16.217  1.00  0.00     0.041 C 
ATOM     15  O   UNL     1      39.046  21.170  16.835  1.00  0.00    -0.550 OA
ATOM     16  O   UNL     1      39.240  18.893  16.627  1.00  0.00    -0.550 OA
ENDBRANCH  13  14
ENDBRANCH  12  13
ENDBRANCH  11  12
ENDBRANCH  10  11
ENDBRANCH   9  10
ENDBRANCH   8   9
ENDBRANCH   7   8
ENDBRANCH   6   7
ENDBRANCH   5   6
ENDBRANCH   4   5
ENDBRANCH   3   4
ENDBRANCH   2   3
ENDBRANCH   1   2
BRANCH   1  17
ATOM     17  C   UNL     1      43.192  22.012  11.180  1.00  0.00     0.000 C 
BRANCH  17  18
ATOM     18  C   UNL     1      41.876  22.396  10.477  1.00  0.00     0.000 C 
BRANCH  18  19
ATOM     19  C   UNL     1      41.863  22.139   8.953  1.00  0.00     0.000 C 
BRANCH  19  20
ATOM     20  C   UNL     1      43.161  21.542   8.369  1.00  0.00     0.000 C 
BRANCH  20  21
ATOM     21  C   UNL     1      43.956  22.550   7.522  1.00  0.00     0.000 C 
BRANCH  21  22
ATOM     22  C   UNL     1      44.991  21.845   6.633  1.00  0.00    -0.000 C 
BRANCH  22  23
ATOM     23  C   UNL     1      44.302  20.905   5.635  1.00  0.00    -0.000 C 
BRANCH  23  24
ATOM     24  C   UNL     1      45.055  20.873   4.294  1.00  0.00    -0.000 C 
BRANCH  24  25
ATOM     25  C   UNL     1      45.892  22.143   4.049  1.00  0.00    -0.000 C 
BRANCH  25  26
ATOM     26  C   UNL     1      47.045  21.971   3.042  1.00  0.00    -0.000 C 
BRANCH  26  27
ATOM     27  C   UNL     1      48.408  22.367   3.634  1.00  0.00    -0.000 C 
BRANCH  27  28
ATOM     28  C   UNL     1      48.973  21.306   4.594  1.00  0.00    -0.000 C 
BRANCH  28  29
ATOM     29  C   UNL     1      48.844  21.645   6.092  1.00  0.00    -0.003 C 
ATOM     30  C   UNL     1      48.425  20.446   6.944  1.00  0.00     0.004 C 
ENDBRANCH  28  29
ENDBRANCH  27  28
ENDBRANCH  26  27
ENDBRANCH  25  26
ENDBRANCH  24  25
ENDBRANCH  23  24
ENDBRANCH  22  23
ENDBRANCH  21  22
ENDBRANCH  20  21
ENDBRANCH  19  20
ENDBRANCH  18  19
ENDBRANCH  17  18
ENDBRANCH   1  17
TORSDOF 26
ENDMDL
