MODEL 1
REMARK VINA RESULT:    -4.332      0.000      0.000
REMARK INTER + INTRA:          -7.538
REMARK INTER:                  -6.358
REMARK INTRA:                  -1.180
REMARK UNBOUND:                -1.180
REMARK SMILES Cc1cc2c(C(C)C)c(O)c(O)c(C=O)c2c(O)c1-c1c(C)cc2c(C(C)C)c(O)c(O)c(C=O)c2c1O
REMARK SMILES IDX 1 1 2 2 3 3 4 4 16 5 13 6 11 7 9 8 5 9 17 10 19 11 20 12
REMARK SMILES IDX 37 13 21 14 36 15 23 16 22 17 24 18 33 19 25 20 31 21 29 22
REMARK SMILES IDX 38 23 34 25 35 26 26 27 27 28 28 29 32 30 30 32 18 34 6 36
REMARK SMILES IDX 7 37 8 38 14 39 15 40 10 41 12 43
REMARK H PARENT 38 24 32 31 30 33 18 35 10 42 12 44
REMARK Flexibility Score: inf
ROOT
ATOM      1  C   UNL     1    -114.311  39.832  -9.388  1.00  0.00     0.045 C 
ATOM      2  C   UNL     1    -114.767  38.617 -10.159  1.00  0.00    -0.039 A 
ATOM      3  C   UNL     1    -115.119  37.457  -9.468  1.00  0.00     0.013 A 
ATOM      4  C   UNL     1    -115.557  36.294 -10.141  1.00  0.00    -0.006 A 
ATOM      5  C   UNL     1    -115.488  36.263 -11.564  1.00  0.00     0.039 A 
ATOM      6  C   UNL     1    -115.697  35.024 -12.237  1.00  0.00     0.072 A 
ATOM      7  C   UNL     1    -116.029  33.869 -11.504  1.00  0.00     0.169 A 
ATOM      8  C   UNL     1    -116.160  33.925 -10.102  1.00  0.00     0.162 A 
ATOM      9  C   UNL     1    -116.029  35.156  -9.420  1.00  0.00     0.008 A 
ATOM     10  C   UNL     1    -115.244  37.481 -12.264  1.00  0.00     0.132 A 
ATOM     11  C   UNL     1    -114.877  38.648 -11.559  1.00  0.00     0.031 A 
ENDROOT
BRANCH  11  12
ATOM     12  C   UNL     1    -114.606  39.913 -12.291  1.00  0.00     0.031 A 
ATOM     13  C   UNL     1    -113.320  40.173 -12.807  1.00  0.00     0.132 A 
ATOM     14  C   UNL     1    -115.648  40.830 -12.506  1.00  0.00    -0.039 A 
ATOM     15  C   UNL     1    -113.039  41.410 -13.457  1.00  0.00     0.039 A 
ATOM     16  C   UNL     1    -115.402  41.993 -13.238  1.00  0.00     0.013 A 
ATOM     17  C   UNL     1    -117.047  40.543 -12.018  1.00  0.00     0.045 C 
ATOM     18  C   UNL     1    -114.108  42.326 -13.698  1.00  0.00    -0.006 A 
ATOM     19  C   UNL     1    -111.736  41.739 -13.925  1.00  0.00     0.072 A 
ATOM     20  C   UNL     1    -113.868  43.527 -14.434  1.00  0.00     0.008 A 
ATOM     21  C   UNL     1    -111.557  42.820 -14.801  1.00  0.00     0.169 A 
ATOM     22  C   UNL     1    -112.636  43.666 -15.113  1.00  0.00     0.162 A 
BRANCH  13  23
ATOM     23  O   UNL     1    -112.334  39.183 -12.723  1.00  0.00    -0.507 OA
ATOM     24  H   UNL     1    -112.446  38.317 -12.212  1.00  0.00     0.293 HD
ENDBRANCH  13  23
BRANCH  19  25
ATOM     25  C   UNL     1    -110.514  41.038 -13.471  1.00  0.00     0.264 C 
ATOM     26  O   UNL     1    -109.901  40.248 -14.237  1.00  0.00    -0.298 OA
ENDBRANCH  19  25
BRANCH  20  27
ATOM     27  C   UNL     1    -114.932  44.634 -14.549  1.00  0.00     0.017 C 
ATOM     28  C   UNL     1    -115.396  45.094 -13.163  1.00  0.00     0.012 C 
ATOM     29  C   UNL     1    -116.128  44.256 -15.441  1.00  0.00     0.012 C 
ENDBRANCH  20  27
BRANCH  21  30
ATOM     30  O   UNL     1    -110.275  43.061 -15.309  1.00  0.00    -0.504 OA
ATOM     31  H   UNL     1    -109.557  43.574 -14.817  1.00  0.00     0.293 HD
ENDBRANCH  21  30
BRANCH  22  32
ATOM     32  O   UNL     1    -112.511  44.646 -16.103  1.00  0.00    -0.504 OA
ATOM     33  H   UNL     1    -113.054  45.497 -16.131  1.00  0.00     0.293 HD
ENDBRANCH  22  32
ENDBRANCH  11  12
BRANCH  10  34
ATOM     34  O   UNL     1    -115.402  37.541 -13.653  1.00  0.00    -0.507 OA
ATOM     35  H   UNL     1    -115.790  36.791 -14.210  1.00  0.00     0.293 HD
ENDBRANCH  10  34
BRANCH   9  36
ATOM     36  C   UNL     1    -116.383  35.243  -7.924  1.00  0.00     0.017 C 
ATOM     37  C   UNL     1    -117.124  36.547  -7.610  1.00  0.00     0.012 C 
ATOM     38  C   UNL     1    -115.175  35.045  -6.990  1.00  0.00     0.012 C 
ENDBRANCH   9  36
BRANCH   6  39
ATOM     39  C   UNL     1    -115.447  34.867 -13.689  1.00  0.00     0.264 C 
ATOM     40  O   UNL     1    -114.300  34.584 -14.123  1.00  0.00    -0.298 OA
ENDBRANCH   6  39
BRANCH   8  41
ATOM     41  O   UNL     1    -116.384  32.765  -9.356  1.00  0.00    -0.504 OA
ATOM     42  H   UNL     1    -116.769  32.743  -8.423  1.00  0.00     0.293 HD
ENDBRANCH   8  41
BRANCH   7  43
ATOM     43  O   UNL     1    -116.216  32.670 -12.204  1.00  0.00    -0.504 OA
ATOM     44  H   UNL     1    -116.690  31.857 -11.836  1.00  0.00     0.293 HD
ENDBRANCH   7  43
TORSDOF 11
ENDMDL
MODEL 2
REMARK VINA RESULT:    -4.127      1.535      3.088
REMARK INTER + INTRA:          -7.237
REMARK INTER:                  -5.971
REMARK INTRA:                  -1.266
REMARK UNBOUND:                -1.180
REMARK SMILES Cc1cc2c(C(C)C)c(O)c(O)c(C=O)c2c(O)c1-c1c(C)cc2c(C(C)C)c(O)c(O)c(C=O)c2c1O
REMARK SMILES IDX 1 1 2 2 3 3 4 4 16 5 13 6 11 7 9 8 5 9 17 10 19 11 20 12
REMARK SMILES IDX 37 13 21 14 36 15 23 16 22 17 24 18 33 19 25 20 31 21 29 22
REMARK SMILES IDX 38 23 34 25 35 26 26 27 27 28 28 29 32 30 30 32 18 34 6 36
REMARK SMILES IDX 7 37 8 38 14 39 15 40 10 41 12 43
REMARK H PARENT 38 24 32 31 30 33 18 35 10 42 12 44
REMARK Flexibility Score: inf
ROOT
ATOM      1  C   UNL     1    -115.441  37.450 -15.160  1.00  0.00     0.045 C 
ATOM      2  C   UNL     1    -115.400  37.158 -13.679  1.00  0.00    -0.039 A 
ATOM      3  C   UNL     1    -115.744  35.886 -13.220  1.00  0.00     0.013 A 
ATOM      4  C   UNL     1    -115.718  35.560 -11.846  1.00  0.00    -0.006 A 
ATOM      5  C   UNL     1    -115.484  36.600 -10.902  1.00  0.00     0.039 A 
ATOM      6  C   UNL     1    -115.691  36.334  -9.517  1.00  0.00     0.072 A 
ATOM      7  C   UNL     1    -116.060  35.044  -9.093  1.00  0.00     0.169 A 
ATOM      8  C   UNL     1    -116.224  34.004 -10.029  1.00  0.00     0.162 A 
ATOM      9  C   UNL     1    -115.955  34.224 -11.399  1.00  0.00     0.008 A 
ATOM     10  C   UNL     1    -115.019  37.862 -11.376  1.00  0.00     0.132 A 
ATOM     11  C   UNL     1    -114.987  38.137 -12.761  1.00  0.00     0.031 A 
ENDROOT
BRANCH  11  12
ATOM     12  C   UNL     1    -114.518  39.458 -13.253  1.00  0.00     0.031 A 
ATOM     13  C   UNL     1    -113.168  39.640 -13.620  1.00  0.00     0.132 A 
ATOM     14  C   UNL     1    -115.433  40.514 -13.394  1.00  0.00    -0.039 A 
ATOM     15  C   UNL     1    -112.700  40.921 -14.035  1.00  0.00     0.039 A 
ATOM     16  C   UNL     1    -114.999  41.739 -13.905  1.00  0.00     0.013 A 
ATOM     17  C   UNL     1    -116.894  40.323 -13.069  1.00  0.00     0.045 C 
ATOM     18  C   UNL     1    -113.639  41.983 -14.204  1.00  0.00    -0.006 A 
ATOM     19  C   UNL     1    -111.330  41.162 -14.342  1.00  0.00     0.072 A 
ATOM     20  C   UNL     1    -113.206  43.247 -14.713  1.00  0.00     0.008 A 
ATOM     21  C   UNL     1    -110.958  42.336 -15.012  1.00  0.00     0.169 A 
ATOM     22  C   UNL     1    -111.908  43.342 -15.264  1.00  0.00     0.162 A 
BRANCH  13  23
ATOM     23  O   UNL     1    -112.304  38.539 -13.624  1.00  0.00    -0.507 OA
ATOM     24  H   UNL     1    -112.259  37.855 -12.881  1.00  0.00     0.293 HD
ENDBRANCH  13  23
BRANCH  19  25
ATOM     25  C   UNL     1    -110.237  40.259 -13.917  1.00  0.00     0.264 C 
ATOM     26  O   UNL     1    -109.641  39.530 -14.753  1.00  0.00    -0.298 OA
ENDBRANCH  19  25
BRANCH  20  27
ATOM     27  C   UNL     1    -114.133  44.476 -14.726  1.00  0.00     0.017 C 
ATOM     28  C   UNL     1    -114.573  44.845 -13.305  1.00  0.00     0.012 C 
ATOM     29  C   UNL     1    -115.344  44.332 -15.666  1.00  0.00     0.012 C 
ENDBRANCH  20  27
BRANCH  21  30
ATOM     30  O   UNL     1    -109.615  42.499 -15.375  1.00  0.00    -0.504 OA
ATOM     31  H   UNL     1    -109.259  42.356 -16.310  1.00  0.00     0.293 HD
ENDBRANCH  21  30
BRANCH  22  32
ATOM     32  O   UNL     1    -111.588  44.441 -16.067  1.00  0.00    -0.504 OA
ATOM     33  H   UNL     1    -112.087  44.693 -16.908  1.00  0.00     0.293 HD
ENDBRANCH  22  32
ENDBRANCH  11  12
BRANCH  10  34
ATOM     34  O   UNL     1    -114.553  38.827 -10.476  1.00  0.00    -0.507 OA
ATOM     35  H   UNL     1    -113.879  39.543 -10.714  1.00  0.00     0.293 HD
ENDBRANCH  10  34
BRANCH   9  36
ATOM     36  C   UNL     1    -115.932  33.035 -12.375  1.00  0.00     0.017 C 
ATOM     37  C   UNL     1    -114.597  32.965 -13.126  1.00  0.00     0.012 C 
ATOM     38  C   UNL     1    -117.125  33.009 -13.349  1.00  0.00     0.012 C 
ENDBRANCH   9  36
BRANCH   6  39
ATOM     39  C   UNL     1    -115.662  37.410  -8.498  1.00  0.00     0.264 C 
ATOM     40  O   UNL     1    -116.713  38.023  -8.172  1.00  0.00    -0.298 OA
ENDBRANCH   6  39
BRANCH   8  41
ATOM     41  O   UNL     1    -116.693  32.749  -9.631  1.00  0.00    -0.504 OA
ATOM     42  H   UNL     1    -117.456  32.594  -8.989  1.00  0.00     0.293 HD
ENDBRANCH   8  41
BRANCH   7  43
ATOM     43  O   UNL     1    -116.264  34.829  -7.724  1.00  0.00    -0.504 OA
ATOM     44  H   UNL     1    -115.657  34.279  -7.132  1.00  0.00     0.293 HD
ENDBRANCH   7  43
TORSDOF 11
ENDMDL
MODEL 3
REMARK VINA RESULT:    -3.171      1.600      8.959
REMARK INTER + INTRA:          -5.835
REMARK INTER:                  -5.884
REMARK INTRA:                   0.049
REMARK UNBOUND:                -1.180
REMARK SMILES Cc1cc2c(C(C)C)c(O)c(O)c(C=O)c2c(O)c1-c1c(C)cc2c(C(C)C)c(O)c(O)c(C=O)c2c1O
REMARK SMILES IDX 1 1 2 2 3 3 4 4 16 5 13 6 11 7 9 8 5 9 17 10 19 11 20 12
REMARK SMILES IDX 37 13 21 14 36 15 23 16 22 17 24 18 33 19 25 20 31 21 29 22
REMARK SMILES IDX 38 23 34 25 35 26 26 27 27 28 28 29 32 30 30 32 18 34 6 36
REMARK SMILES IDX 7 37 8 38 14 39 15 40 10 41 12 43
REMARK H PARENT 38 24 32 31 30 33 18 35 10 42 12 44
REMARK Flexibility Score: inf
ROOT
ATOM      1  C   UNL     1    -112.142  38.751 -12.664  1.00  0.00     0.045 C 
ATOM      2  C   UNL     1    -113.166  39.791 -13.048  1.00  0.00    -0.039 A 
ATOM      3  C   UNL     1    -112.797  40.840 -13.892  1.00  0.00     0.013 A 
ATOM      4  C   UNL     1    -113.718  41.837 -14.285  1.00  0.00    -0.006 A 
ATOM      5  C   UNL     1    -115.008  41.851 -13.680  1.00  0.00     0.039 A 
ATOM      6  C   UNL     1    -115.853  42.980 -13.885  1.00  0.00     0.072 A 
ATOM      7  C   UNL     1    -115.438  44.030 -14.726  1.00  0.00     0.169 A 
ATOM      8  C   UNL     1    -114.187  43.975 -15.374  1.00  0.00     0.162 A 
ATOM      9  C   UNL     1    -113.363  42.834 -15.243  1.00  0.00     0.008 A 
ATOM     10  C   UNL     1    -115.417  40.719 -12.915  1.00  0.00     0.132 A 
ATOM     11  C   UNL     1    -114.492  39.700 -12.597  1.00  0.00     0.031 A 
ENDROOT
BRANCH  11  12
ATOM     12  C   UNL     1    -114.916  38.529 -11.786  1.00  0.00     0.031 A 
ATOM     13  C   UNL     1    -115.277  37.321 -12.418  1.00  0.00     0.132 A 
ATOM     14  C   UNL     1    -114.914  38.615 -10.385  1.00  0.00    -0.039 A 
ATOM     15  C   UNL     1    -115.742  36.215 -11.649  1.00  0.00     0.039 A 
ATOM     16  C   UNL     1    -115.264  37.497  -9.625  1.00  0.00     0.013 A 
ATOM     17  C   UNL     1    -114.470  39.876  -9.684  1.00  0.00     0.045 C 
ATOM     18  C   UNL     1    -115.710  36.297 -10.225  1.00  0.00    -0.006 A 
ATOM     19  C   UNL     1    -116.185  35.005 -12.257  1.00  0.00     0.072 A 
ATOM     20  C   UNL     1    -116.079  35.165  -9.434  1.00  0.00     0.008 A 
ATOM     21  C   UNL     1    -116.361  33.853 -11.477  1.00  0.00     0.169 A 
ATOM     22  C   UNL     1    -116.235  33.916 -10.078  1.00  0.00     0.162 A 
BRANCH  13  23
ATOM     23  O   UNL     1    -115.124  37.200 -13.805  1.00  0.00    -0.507 OA
ATOM     24  H   UNL     1    -114.782  36.365 -14.263  1.00  0.00     0.293 HD
ENDBRANCH  13  23
BRANCH  19  25
ATOM     25  C   UNL     1    -116.554  34.908 -13.687  1.00  0.00     0.264 C 
ATOM     26  O   UNL     1    -115.783  34.357 -14.516  1.00  0.00    -0.298 OA
ENDBRANCH  19  25
BRANCH  20  27
ATOM     27  C   UNL     1    -116.253  35.263  -7.908  1.00  0.00     0.017 C 
ATOM     28  C   UNL     1    -116.786  36.642  -7.504  1.00  0.00     0.012 C 
ATOM     29  C   UNL     1    -114.985  34.901  -7.113  1.00  0.00     0.012 C 
ENDBRANCH  20  27
BRANCH  21  30
ATOM     30  O   UNL     1    -116.713  32.661 -12.121  1.00  0.00    -0.504 OA
ATOM     31  H   UNL     1    -117.203  32.616 -13.004  1.00  0.00     0.293 HD
ENDBRANCH  21  30
BRANCH  22  32
ATOM     32  O   UNL     1    -116.250  32.750  -9.307  1.00  0.00    -0.504 OA
ATOM     33  H   UNL     1    -116.260  31.816  -9.691  1.00  0.00     0.293 HD
ENDBRANCH  22  32
ENDBRANCH  11  12
BRANCH  10  34
ATOM     34  O   UNL     1    -116.749  40.588 -12.505  1.00  0.00    -0.507 OA
ATOM     35  H   UNL     1    -117.334  41.366 -12.231  1.00  0.00     0.293 HD
ENDBRANCH  10  34
BRANCH   9  36
ATOM     36  C   UNL     1    -112.104  42.695 -16.118  1.00  0.00     0.017 C 
ATOM     37  C   UNL     1    -111.559  41.264 -16.073  1.00  0.00     0.012 C 
ATOM     38  C   UNL     1    -111.007  43.725 -15.792  1.00  0.00     0.012 C 
ENDBRANCH   9  36
BRANCH   6  39
ATOM     39  C   UNL     1    -117.119  43.160 -13.135  1.00  0.00     0.264 C 
ATOM     40  O   UNL     1    -117.125  43.690 -11.993  1.00  0.00    -0.298 OA
ENDBRANCH   6  39
BRANCH   8  41
ATOM     41  O   UNL     1    -113.721  45.057 -16.124  1.00  0.00    -0.504 OA
ATOM     42  H   UNL     1    -114.269  45.572 -16.798  1.00  0.00     0.293 HD
ENDBRANCH   8  41
BRANCH   7  43
ATOM     43  O   UNL     1    -116.295  45.125 -14.893  1.00  0.00    -0.504 OA
ATOM     44  H   UNL     1    -117.297  45.059 -15.001  1.00  0.00     0.293 HD
ENDBRANCH   7  43
TORSDOF 11
ENDMDL
MODEL 4
REMARK VINA RESULT:    -2.925      1.816      3.542
REMARK INTER + INTRA:          -5.474
REMARK INTER:                  -5.733
REMARK INTRA:                   0.259
REMARK UNBOUND:                -1.180
REMARK SMILES Cc1cc2c(C(C)C)c(O)c(O)c(C=O)c2c(O)c1-c1c(C)cc2c(C(C)C)c(O)c(O)c(C=O)c2c1O
REMARK SMILES IDX 1 1 2 2 3 3 4 4 16 5 13 6 11 7 9 8 5 9 17 10 19 11 20 12
REMARK SMILES IDX 37 13 21 14 36 15 23 16 22 17 24 18 33 19 25 20 31 21 29 22
REMARK SMILES IDX 38 23 34 25 35 26 26 27 27 28 28 29 32 30 30 32 18 34 6 36
REMARK SMILES IDX 7 37 8 38 14 39 15 40 10 41 12 43
REMARK H PARENT 38 24 32 31 30 33 18 35 10 42 12 44
REMARK Flexibility Score: inf
ROOT
ATOM      1  C   UNL     1    -115.100  37.870 -14.850  1.00  0.00     0.045 C 
ATOM      2  C   UNL     1    -115.323  37.070 -13.589  1.00  0.00    -0.039 A 
ATOM      3  C   UNL     1    -115.621  35.710 -13.682  1.00  0.00     0.013 A 
ATOM      4  C   UNL     1    -115.834  34.915 -12.534  1.00  0.00    -0.006 A 
ATOM      5  C   UNL     1    -115.896  35.556 -11.263  1.00  0.00     0.039 A 
ATOM      6  C   UNL     1    -116.345  34.809 -10.136  1.00  0.00     0.072 A 
ATOM      7  C   UNL     1    -116.659  33.443 -10.272  1.00  0.00     0.169 A 
ATOM      8  C   UNL     1    -116.529  32.802 -11.520  1.00  0.00     0.162 A 
ATOM      9  C   UNL     1    -116.018  33.503 -12.635  1.00  0.00     0.008 A 
ATOM     10  C   UNL     1    -115.477  36.915 -11.160  1.00  0.00     0.132 A 
ATOM     11  C   UNL     1    -115.200  37.667 -12.324  1.00  0.00     0.031 A 
ENDROOT
BRANCH  11  12
ATOM     12  C   UNL     1    -114.779  39.087 -12.217  1.00  0.00     0.031 A 
ATOM     13  C   UNL     1    -113.471  39.469 -12.581  1.00  0.00     0.132 A 
ATOM     14  C   UNL     1    -115.701  40.057 -11.793  1.00  0.00    -0.039 A 
ATOM     15  C   UNL     1    -113.043  40.820 -12.423  1.00  0.00     0.039 A 
ATOM     16  C   UNL     1    -115.317  41.399 -11.741  1.00  0.00     0.013 A 
ATOM     17  C   UNL     1    -117.125  39.682 -11.459  1.00  0.00     0.045 C 
ATOM     18  C   UNL     1    -113.992  41.807 -12.020  1.00  0.00    -0.006 A 
ATOM     19  C   UNL     1    -111.710  41.228 -12.710  1.00  0.00     0.072 A 
ATOM     20  C   UNL     1    -113.609  43.182 -11.949  1.00  0.00     0.008 A 
ATOM     21  C   UNL     1    -111.402  42.593 -12.819  1.00  0.00     0.169 A 
ATOM     22  C   UNL     1    -112.370  43.565 -12.512  1.00  0.00     0.162 A 
BRANCH  13  23
ATOM     23  O   UNL     1    -112.613  38.521 -13.150  1.00  0.00    -0.507 OA
ATOM     24  H   UNL     1    -112.898  37.585 -13.408  1.00  0.00     0.293 HD
ENDBRANCH  13  23
BRANCH  19  25
ATOM     25  C   UNL     1    -110.582  40.277 -12.829  1.00  0.00     0.264 C 
ATOM     26  O   UNL     1    -109.731  40.397 -13.750  1.00  0.00    -0.298 OA
ENDBRANCH  19  25
BRANCH  20  27
ATOM     27  C   UNL     1    -114.530  44.250 -11.333  1.00  0.00     0.017 C 
ATOM     28  C   UNL     1    -115.176  45.113 -12.422  1.00  0.00     0.012 C 
ATOM     29  C   UNL     1    -113.844  45.120 -10.264  1.00  0.00     0.012 C 
ENDBRANCH  20  27
BRANCH  21  30
ATOM     30  O   UNL     1    -110.101  42.955 -13.187  1.00  0.00    -0.504 OA
ATOM     31  H   UNL     1    -109.396  43.275 -12.538  1.00  0.00     0.293 HD
ENDBRANCH  21  30
BRANCH  22  32
ATOM     32  O   UNL     1    -112.128  44.918 -12.768  1.00  0.00    -0.504 OA
ATOM     33  H   UNL     1    -112.788  45.659 -12.577  1.00  0.00     0.293 HD
ENDBRANCH  22  32
ENDBRANCH  11  12
BRANCH  10  34
ATOM     34  O   UNL     1    -115.298  37.507  -9.905  1.00  0.00    -0.507 OA
ATOM     35  H   UNL     1    -114.469  38.021  -9.636  1.00  0.00     0.293 HD
ENDBRANCH  10  34
BRANCH   9  36
ATOM     36  C   UNL     1    -115.683  32.741 -13.930  1.00  0.00     0.017 C 
ATOM     37  C   UNL     1    -114.537  33.421 -14.688  1.00  0.00     0.012 C 
ATOM     38  C   UNL     1    -116.900  32.509 -14.845  1.00  0.00     0.012 C 
ENDBRANCH   9  36
BRANCH   6  39
ATOM     39  C   UNL     1    -116.627  35.451  -8.829  1.00  0.00     0.264 C 
ATOM     40  O   UNL     1    -115.911  35.211  -7.821  1.00  0.00    -0.298 OA
ENDBRANCH   6  39
BRANCH   8  41
ATOM     41  O   UNL     1    -116.938  31.476 -11.691  1.00  0.00    -0.504 OA
ATOM     42  H   UNL     1    -117.132  31.042 -12.581  1.00  0.00     0.293 HD
ENDBRANCH   8  41
BRANCH   7  43
ATOM     43  O   UNL     1    -117.106  32.749  -9.141  1.00  0.00    -0.504 OA
ATOM     44  H   UNL     1    -117.465  31.805  -9.150  1.00  0.00     0.293 HD
ENDBRANCH   7  43
TORSDOF 11
ENDMDL
MODEL 5
REMARK VINA RESULT:    -2.715      3.367      5.256
REMARK INTER + INTRA:          -5.165
REMARK INTER:                  -6.038
REMARK INTRA:                   0.873
REMARK UNBOUND:                -1.180
REMARK SMILES Cc1cc2c(C(C)C)c(O)c(O)c(C=O)c2c(O)c1-c1c(C)cc2c(C(C)C)c(O)c(O)c(C=O)c2c1O
REMARK SMILES IDX 1 1 2 2 3 3 4 4 16 5 13 6 11 7 9 8 5 9 17 10 19 11 20 12
REMARK SMILES IDX 37 13 21 14 36 15 23 16 22 17 24 18 33 19 25 20 31 21 29 22
REMARK SMILES IDX 38 23 34 25 35 26 26 27 27 28 28 29 32 30 30 32 18 34 6 36
REMARK SMILES IDX 7 37 8 38 14 39 15 40 10 41 12 43
REMARK H PARENT 38 24 32 31 30 33 18 35 10 42 12 44
REMARK Flexibility Score: inf
ROOT
ATOM      1  C   UNL     1    -114.993  39.180 -13.665  1.00  0.00     0.045 C 
ATOM      2  C   UNL     1    -115.124  38.082 -12.638  1.00  0.00    -0.039 A 
ATOM      3  C   UNL     1    -115.505  36.802 -13.044  1.00  0.00     0.013 A 
ATOM      4  C   UNL     1    -115.638  35.739 -12.124  1.00  0.00    -0.006 A 
ATOM      5  C   UNL     1    -115.529  36.023 -10.732  1.00  0.00     0.039 A 
ATOM      6  C   UNL     1    -115.896  35.017  -9.793  1.00  0.00     0.072 A 
ATOM      7  C   UNL     1    -116.297  33.744 -10.240  1.00  0.00     0.169 A 
ATOM      8  C   UNL     1    -116.337  33.451 -11.618  1.00  0.00     0.162 A 
ATOM      9  C   UNL     1    -115.910  34.408 -12.566  1.00  0.00     0.008 A 
ATOM     10  C   UNL     1    -115.026  37.296 -10.331  1.00  0.00     0.132 A 
ATOM     11  C   UNL     1    -114.834  38.320 -11.285  1.00  0.00     0.031 A 
ENDROOT
BRANCH  11  12
ATOM     12  C   UNL     1    -114.326  39.651 -10.864  1.00  0.00     0.031 A 
ATOM     13  C   UNL     1    -115.033  40.412  -9.910  1.00  0.00     0.132 A 
ATOM     14  C   UNL     1    -113.113  40.131 -11.386  1.00  0.00    -0.039 A 
ATOM     15  C   UNL     1    -114.582  41.715  -9.547  1.00  0.00     0.039 A 
ATOM     16  C   UNL     1    -112.613  41.359 -10.950  1.00  0.00     0.013 A 
ATOM     17  C   UNL     1    -112.307  39.306 -12.359  1.00  0.00     0.045 C 
ATOM     18  C   UNL     1    -113.335  42.185 -10.058  1.00  0.00    -0.006 A 
ATOM     19  C   UNL     1    -115.308  42.542  -8.644  1.00  0.00     0.072 A 
ATOM     20  C   UNL     1    -112.816  43.447  -9.631  1.00  0.00     0.008 A 
ATOM     21  C   UNL     1    -114.703  43.681  -8.094  1.00  0.00     0.169 A 
ATOM     22  C   UNL     1    -113.430  44.089  -8.532  1.00  0.00     0.162 A 
BRANCH  13  23
ATOM     23  O   UNL     1    -116.153  39.855  -9.282  1.00  0.00    -0.507 OA
ATOM     24  H   UNL     1    -117.002  40.368  -9.085  1.00  0.00     0.293 HD
ENDBRANCH  13  23
BRANCH  19  25
ATOM     25  C   UNL     1    -116.729  42.308  -8.300  1.00  0.00     0.264 C 
ATOM     26  O   UNL     1    -117.044  41.610  -7.301  1.00  0.00    -0.298 OA
ENDBRANCH  19  25
BRANCH  20  27
ATOM     27  C   UNL     1    -111.585  44.086 -10.299  1.00  0.00     0.017 C 
ATOM     28  C   UNL     1    -110.772  44.898  -9.286  1.00  0.00     0.012 C 
ATOM     29  C   UNL     1    -111.919  44.923 -11.547  1.00  0.00     0.012 C 
ENDBRANCH  20  27
BRANCH  21  30
ATOM     30  O   UNL     1    -115.416  44.422  -7.144  1.00  0.00    -0.504 OA
ATOM     31  H   UNL     1    -115.693  45.386  -7.268  1.00  0.00     0.293 HD
ENDBRANCH  21  30
BRANCH  22  32
ATOM     32  O   UNL     1    -112.751  45.125  -7.883  1.00  0.00    -0.504 OA
ATOM     33  H   UNL     1    -112.138  44.992  -7.091  1.00  0.00     0.293 HD
ENDBRANCH  22  32
ENDBRANCH  11  12
BRANCH  10  34
ATOM     34  O   UNL     1    -114.682  37.530  -8.996  1.00  0.00    -0.507 OA
ATOM     35  H   UNL     1    -115.328  37.445  -8.222  1.00  0.00     0.293 HD
ENDBRANCH  10  34
BRANCH   9  36
ATOM     36  C   UNL     1    -115.757  34.006 -14.044  1.00  0.00     0.017 C 
ATOM     37  C   UNL     1    -117.125  33.882 -14.724  1.00  0.00     0.012 C 
ATOM     38  C   UNL     1    -114.907  32.740 -14.257  1.00  0.00     0.012 C 
ENDBRANCH   9  36
BRANCH   6  39
ATOM     39  C   UNL     1    -116.001  35.298  -8.341  1.00  0.00     0.264 C 
ATOM     40  O   UNL     1    -115.214  34.760  -7.517  1.00  0.00    -0.298 OA
ENDBRANCH   6  39
BRANCH   8  41
ATOM     41  O   UNL     1    -116.835  32.228 -12.077  1.00  0.00    -0.504 OA
ATOM     42  H   UNL     1    -116.486  31.322 -11.799  1.00  0.00     0.293 HD
ENDBRANCH   8  41
BRANCH   7  43
ATOM     43  O   UNL     1    -116.659  32.787  -9.283  1.00  0.00    -0.504 OA
ATOM     44  H   UNL     1    -117.604  32.613  -8.973  1.00  0.00     0.293 HD
ENDBRANCH   7  43
TORSDOF 11
ENDMDL
MODEL 6
REMARK VINA RESULT:    -2.695      3.748      6.598
REMARK INTER + INTRA:          -5.136
REMARK INTER:                  -4.899
REMARK INTRA:                  -0.237
REMARK UNBOUND:                -1.180
REMARK SMILES Cc1cc2c(C(C)C)c(O)c(O)c(C=O)c2c(O)c1-c1c(C)cc2c(C(C)C)c(O)c(O)c(C=O)c2c1O
REMARK SMILES IDX 1 1 2 2 3 3 4 4 16 5 13 6 11 7 9 8 5 9 17 10 19 11 20 12
REMARK SMILES IDX 37 13 21 14 36 15 23 16 22 17 24 18 33 19 25 20 31 21 29 22
REMARK SMILES IDX 38 23 34 25 35 26 26 27 27 28 28 29 32 30 30 32 18 34 6 36
REMARK SMILES IDX 7 37 8 38 14 39 15 40 10 41 12 43
REMARK H PARENT 38 24 32 31 30 33 18 35 10 42 12 44
REMARK Flexibility Score: inf
ROOT
ATOM      1  C   UNL     1    -115.256  37.420  -8.841  1.00  0.00     0.045 C 
ATOM      2  C   UNL     1    -115.445  38.917  -8.872  1.00  0.00    -0.039 A 
ATOM      3  C   UNL     1    -115.753  39.595  -7.691  1.00  0.00     0.013 A 
ATOM      4  C   UNL     1    -115.936  40.996  -7.665  1.00  0.00    -0.006 A 
ATOM      5  C   UNL     1    -115.959  41.704  -8.901  1.00  0.00     0.039 A 
ATOM      6  C   UNL     1    -116.378  43.066  -8.907  1.00  0.00     0.072 A 
ATOM      7  C   UNL     1    -116.703  43.711  -7.698  1.00  0.00     0.169 A 
ATOM      8  C   UNL     1    -116.613  43.020  -6.473  1.00  0.00     0.162 A 
ATOM      9  C   UNL     1    -116.131  41.692  -6.434  1.00  0.00     0.008 A 
ATOM     10  C   UNL     1    -115.529  41.032 -10.083  1.00  0.00     0.132 A 
ATOM     11  C   UNL     1    -115.283  39.641 -10.063  1.00  0.00     0.031 A 
ENDROOT
BRANCH  11  12
ATOM     12  C   UNL     1    -114.851  38.939 -11.299  1.00  0.00     0.031 A 
ATOM     13  C   UNL     1    -113.544  39.119 -11.799  1.00  0.00     0.132 A 
ATOM     14  C   UNL     1    -115.735  38.060 -11.946  1.00  0.00    -0.039 A 
ATOM     15  C   UNL     1    -113.144  38.496 -13.016  1.00  0.00     0.039 A 
ATOM     16  C   UNL     1    -115.308  37.363 -13.079  1.00  0.00     0.013 A 
ATOM     17  C   UNL     1    -117.116  37.802 -11.394  1.00  0.00     0.045 C 
ATOM     18  C   UNL     1    -114.035  37.581 -13.654  1.00  0.00    -0.006 A 
ATOM     19  C   UNL     1    -111.859  38.712 -13.590  1.00  0.00     0.072 A 
ATOM     20  C   UNL     1    -113.618  36.870 -14.822  1.00  0.00     0.008 A 
ATOM     21  C   UNL     1    -111.399  37.875 -14.617  1.00  0.00     0.169 A 
ATOM     22  C   UNL     1    -112.251  36.908 -15.179  1.00  0.00     0.162 A 
BRANCH  13  23
ATOM     23  O   UNL     1    -112.625  39.873 -11.059  1.00  0.00    -0.507 OA
ATOM     24  H   UNL     1    -111.622  39.750 -11.112  1.00  0.00     0.293 HD
ENDBRANCH  13  23
BRANCH  19  25
ATOM     25  C   UNL     1    -110.986  39.846 -13.210  1.00  0.00     0.264 C 
ATOM     26  O   UNL     1    -110.765  40.788 -14.017  1.00  0.00    -0.298 OA
ENDBRANCH  19  25
BRANCH  20  27
ATOM     27  C   UNL     1    -114.602  36.031 -15.655  1.00  0.00     0.017 C 
ATOM     28  C   UNL     1    -115.790  36.879 -16.120  1.00  0.00     0.012 C 
ATOM     29  C   UNL     1    -115.074  34.746 -14.950  1.00  0.00     0.012 C 
ENDBRANCH  20  27
BRANCH  21  30
ATOM     30  O   UNL     1    -110.097  38.063 -15.097  1.00  0.00    -0.504 OA
ATOM     31  H   UNL     1    -109.648  38.965 -15.181  1.00  0.00     0.293 HD
ENDBRANCH  21  30
BRANCH  22  32
ATOM     32  O   UNL     1    -111.759  35.966 -16.088  1.00  0.00    -0.504 OA
ATOM     33  H   UNL     1    -111.188  35.173 -15.830  1.00  0.00     0.293 HD
ENDBRANCH  22  32
ENDBRANCH  11  12
BRANCH  10  34
ATOM     34  O   UNL     1    -115.310  41.750 -11.263  1.00  0.00    -0.507 OA
ATOM     35  H   UNL     1    -114.762  42.599 -11.315  1.00  0.00     0.293 HD
ENDBRANCH  10  34
BRANCH   9  36
ATOM     36  C   UNL     1    -115.838  41.024  -5.078  1.00  0.00     0.017 C 
ATOM     37  C   UNL     1    -117.089  40.335  -4.523  1.00  0.00     0.012 C 
ATOM     38  C   UNL     1    -115.215  41.977  -4.041  1.00  0.00     0.012 C 
ENDBRANCH   9  36
BRANCH   6  39
ATOM     39  C   UNL     1    -116.618  43.809 -10.167  1.00  0.00     0.264 C 
ATOM     40  O   UNL     1    -115.878  44.771 -10.504  1.00  0.00    -0.298 OA
ENDBRANCH   6  39
BRANCH   8  41
ATOM     41  O   UNL     1    -117.034  43.617  -5.281  1.00  0.00    -0.504 OA
ATOM     42  H   UNL     1    -117.874  43.372  -4.778  1.00  0.00     0.293 HD
ENDBRANCH   8  41
BRANCH   7  43
ATOM     43  O   UNL     1    -117.120  45.047  -7.751  1.00  0.00    -0.504 OA
ATOM     44  H   UNL     1    -117.017  45.712  -6.997  1.00  0.00     0.293 HD
ENDBRANCH   7  43
TORSDOF 11
ENDMDL
MODEL 7
REMARK VINA RESULT:    -1.976      4.871      9.220
REMARK INTER + INTRA:          -4.081
REMARK INTER:                  -3.098
REMARK INTRA:                  -0.983
REMARK UNBOUND:                -1.180
REMARK SMILES Cc1cc2c(C(C)C)c(O)c(O)c(C=O)c2c(O)c1-c1c(C)cc2c(C(C)C)c(O)c(O)c(C=O)c2c1O
REMARK SMILES IDX 1 1 2 2 3 3 4 4 16 5 13 6 11 7 9 8 5 9 17 10 19 11 20 12
REMARK SMILES IDX 37 13 21 14 36 15 23 16 22 17 24 18 33 19 25 20 31 21 29 22
REMARK SMILES IDX 38 23 34 25 35 26 26 27 27 28 28 29 32 30 30 32 18 34 6 36
REMARK SMILES IDX 7 37 8 38 14 39 15 40 10 41 12 43
REMARK H PARENT 38 24 32 31 30 33 18 35 10 42 12 44
REMARK Flexibility Score: inf
ROOT
ATOM      1  C   UNL     1    -111.951  42.226  -8.970  1.00  0.00     0.045 C 
ATOM      2  C   UNL     1    -113.003  42.398 -10.039  1.00  0.00    -0.039 A 
ATOM      3  C   UNL     1    -112.650  42.250 -11.381  1.00  0.00     0.013 A 
ATOM      4  C   UNL     1    -113.596  42.397 -12.419  1.00  0.00    -0.006 A 
ATOM      5  C   UNL     1    -114.904  42.858 -12.091  1.00  0.00     0.039 A 
ATOM      6  C   UNL     1    -115.786  43.237 -13.144  1.00  0.00     0.072 A 
ATOM      7  C   UNL     1    -115.386  43.095 -14.486  1.00  0.00     0.169 A 
ATOM      8  C   UNL     1    -114.115  42.574 -14.802  1.00  0.00     0.162 A 
ATOM      9  C   UNL     1    -113.251  42.125 -13.778  1.00  0.00     0.008 A 
ATOM     10  C   UNL     1    -115.292  42.893 -10.719  1.00  0.00     0.132 A 
ATOM     11  C   UNL     1    -114.338  42.671  -9.701  1.00  0.00     0.031 A 
ENDROOT
BRANCH  11  12
ATOM     12  C   UNL     1    -114.741  42.724  -8.272  1.00  0.00     0.031 A 
ATOM     13  C   UNL     1    -115.269  41.579  -7.640  1.00  0.00     0.132 A 
ATOM     14  C   UNL     1    -114.553  43.907  -7.538  1.00  0.00    -0.039 A 
ATOM     15  C   UNL     1    -115.712  41.640  -6.287  1.00  0.00     0.039 A 
ATOM     16  C   UNL     1    -114.886  43.937  -6.182  1.00  0.00     0.013 A 
ATOM     17  C   UNL     1    -113.931  45.125  -8.176  1.00  0.00     0.045 C 
ATOM     18  C   UNL     1    -115.493  42.835  -5.538  1.00  0.00    -0.006 A 
ATOM     19  C   UNL     1    -116.318  40.526  -5.638  1.00  0.00     0.072 A 
ATOM     20  C   UNL     1    -115.841  42.886  -4.152  1.00  0.00     0.008 A 
ATOM     21  C   UNL     1    -116.478  40.528  -4.245  1.00  0.00     0.169 A 
ATOM     22  C   UNL     1    -116.170  41.678  -3.496  1.00  0.00     0.162 A 
BRANCH  13  23
ATOM     23  O   UNL     1    -115.303  40.365  -8.337  1.00  0.00    -0.507 OA
ATOM     24  H   UNL     1    -115.013  40.260  -9.300  1.00  0.00     0.293 HD
ENDBRANCH  13  23
BRANCH  19  25
ATOM     25  C   UNL     1    -116.874  39.369  -6.374  1.00  0.00     0.264 C 
ATOM     26  O   UNL     1    -116.538  38.192  -6.073  1.00  0.00    -0.298 OA
ENDBRANCH  19  25
BRANCH  20  27
ATOM     27  C   UNL     1    -115.810  44.203  -3.356  1.00  0.00     0.017 C 
ATOM     28  C   UNL     1    -114.516  44.323  -2.544  1.00  0.00     0.012 C 
ATOM     29  C   UNL     1    -117.049  44.421  -2.468  1.00  0.00     0.012 C 
ENDBRANCH  20  27
BRANCH  21  30
ATOM     30  O   UNL     1    -116.997  39.381  -3.633  1.00  0.00    -0.504 OA
ATOM     31  H   UNL     1    -117.224  38.528  -4.126  1.00  0.00     0.293 HD
ENDBRANCH  21  30
BRANCH  22  32
ATOM     32  O   UNL     1    -116.173  41.641  -2.099  1.00  0.00    -0.504 OA
ATOM     33  H   UNL     1    -116.889  41.193  -1.545  1.00  0.00     0.293 HD
ENDBRANCH  22  32
ENDBRANCH  11  12
BRANCH  10  34
ATOM     34  O   UNL     1    -116.630  43.109 -10.369  1.00  0.00    -0.507 OA
ATOM     35  H   UNL     1    -117.018  44.019 -10.158  1.00  0.00     0.293 HD
ENDBRANCH  10  34
BRANCH   9  36
ATOM     36  C   UNL     1    -111.961  41.368 -14.142  1.00  0.00     0.017 C 
ATOM     37  C   UNL     1    -111.903  40.010 -13.435  1.00  0.00     0.012 C 
ATOM     38  C   UNL     1    -110.677  42.182 -13.902  1.00  0.00     0.012 C 
ENDBRANCH   9  36
BRANCH   6  39
ATOM     39  C   UNL     1    -117.080  43.909 -12.880  1.00  0.00     0.264 C 
ATOM     40  O   UNL     1    -117.125  45.125 -12.554  1.00  0.00    -0.298 OA
ENDBRANCH   6  39
BRANCH   8  41
ATOM     41  O   UNL     1    -113.668  42.529 -16.125  1.00  0.00    -0.504 OA
ATOM     42  H   UNL     1    -112.766  42.184 -16.418  1.00  0.00     0.293 HD
ENDBRANCH   8  41
BRANCH   7  43
ATOM     43  O   UNL     1    -116.280  43.489 -15.490  1.00  0.00    -0.504 OA
ATOM     44  H   UNL     1    -116.740  42.857 -16.131  1.00  0.00     0.293 HD
ENDBRANCH   7  43
TORSDOF 11
ENDMDL
MODEL 8
REMARK VINA RESULT:    -1.834      3.105      5.215
REMARK INTER + INTRA:          -3.872
REMARK INTER:                  -4.720
REMARK INTRA:                   0.848
REMARK UNBOUND:                -1.180
REMARK SMILES Cc1cc2c(C(C)C)c(O)c(O)c(C=O)c2c(O)c1-c1c(C)cc2c(C(C)C)c(O)c(O)c(C=O)c2c1O
REMARK SMILES IDX 1 1 2 2 3 3 4 4 16 5 13 6 11 7 9 8 5 9 17 10 19 11 20 12
REMARK SMILES IDX 37 13 21 14 36 15 23 16 22 17 24 18 33 19 25 20 31 21 29 22
REMARK SMILES IDX 38 23 34 25 35 26 26 27 27 28 28 29 32 30 30 32 18 34 6 36
REMARK SMILES IDX 7 37 8 38 14 39 15 40 10 41 12 43
REMARK H PARENT 38 24 32 31 30 33 18 35 10 42 12 44
REMARK Flexibility Score: inf
ROOT
ATOM      1  C   UNL     1    -117.099  37.764 -10.765  1.00  0.00     0.045 C 
ATOM      2  C   UNL     1    -116.100  37.469 -11.857  1.00  0.00    -0.039 A 
ATOM      3  C   UNL     1    -116.134  36.233 -12.504  1.00  0.00     0.013 A 
ATOM      4  C   UNL     1    -115.225  35.909 -13.536  1.00  0.00    -0.006 A 
ATOM      5  C   UNL     1    -114.155  36.809 -13.811  1.00  0.00     0.039 A 
ATOM      6  C   UNL     1    -113.104  36.387 -14.674  1.00  0.00     0.072 A 
ATOM      7  C   UNL     1    -113.160  35.123 -15.291  1.00  0.00     0.169 A 
ATOM      8  C   UNL     1    -114.256  34.266 -15.066  1.00  0.00     0.162 A 
ATOM      9  C   UNL     1    -115.345  34.691 -14.271  1.00  0.00     0.008 A 
ATOM     10  C   UNL     1    -114.194  38.113 -13.235  1.00  0.00     0.132 A 
ATOM     11  C   UNL     1    -115.161  38.433 -12.256  1.00  0.00     0.031 A 
ENDROOT
BRANCH  11  12
ATOM     12  C   UNL     1    -115.190  39.787 -11.646  1.00  0.00     0.031 A 
ATOM     13  C   UNL     1    -114.963  39.948 -10.263  1.00  0.00     0.132 A 
ATOM     14  C   UNL     1    -115.402  40.913 -12.458  1.00  0.00    -0.039 A 
ATOM     15  C   UNL     1    -115.049  41.238  -9.662  1.00  0.00     0.039 A 
ATOM     16  C   UNL     1    -115.378  42.189 -11.889  1.00  0.00     0.013 A 
ATOM     17  C   UNL     1    -115.583  40.772 -13.949  1.00  0.00     0.045 C 
ATOM     18  C   UNL     1    -115.235  42.381 -10.495  1.00  0.00    -0.006 A 
ATOM     19  C   UNL     1    -114.899  41.429  -8.259  1.00  0.00     0.072 A 
ATOM     20  C   UNL     1    -115.227  43.692  -9.925  1.00  0.00     0.008 A 
ATOM     21  C   UNL     1    -114.706  42.719  -7.744  1.00  0.00     0.169 A 
ATOM     22  C   UNL     1    -114.795  43.841  -8.588  1.00  0.00     0.162 A 
BRANCH  13  23
ATOM     23  O   UNL     1    -114.598  38.836  -9.494  1.00  0.00    -0.507 OA
ATOM     24  H   UNL     1    -115.167  38.454  -8.751  1.00  0.00     0.293 HD
ENDBRANCH  13  23
BRANCH  19  25
ATOM     25  C   UNL     1    -115.014  40.328  -7.277  1.00  0.00     0.264 C 
ATOM     26  O   UNL     1    -116.017  40.241  -6.520  1.00  0.00    -0.298 OA
ENDBRANCH  19  25
BRANCH  20  27
ATOM     27  C   UNL     1    -115.620  44.935 -10.743  1.00  0.00     0.017 C 
ATOM     28  C   UNL     1    -117.121  44.938 -11.051  1.00  0.00     0.012 C 
ATOM     29  C   UNL     1    -114.786  45.124 -12.024  1.00  0.00     0.012 C 
ENDBRANCH  20  27
BRANCH  21  30
ATOM     30  O   UNL     1    -114.475  42.861  -6.370  1.00  0.00    -0.504 OA
ATOM     31  H   UNL     1    -114.206  43.728  -5.927  1.00  0.00     0.293 HD
ENDBRANCH  21  30
BRANCH  22  32
ATOM     32  O   UNL     1    -114.449  45.113  -8.122  1.00  0.00    -0.504 OA
ATOM     33  H   UNL     1    -113.500  45.446  -8.031  1.00  0.00     0.293 HD
ENDBRANCH  22  32
ENDBRANCH  11  12
BRANCH  10  34
ATOM     34  O   UNL     1    -113.299  39.101 -13.662  1.00  0.00    -0.507 OA
ATOM     35  H   UNL     1    -112.346  39.180 -13.332  1.00  0.00     0.293 HD
ENDBRANCH  10  34
BRANCH   9  36
ATOM     36  C   UNL     1    -116.623  33.836 -14.205  1.00  0.00     0.017 C 
ATOM     37  C   UNL     1    -116.471  32.695 -13.194  1.00  0.00     0.012 C 
ATOM     38  C   UNL     1    -117.089  33.312 -15.576  1.00  0.00     0.012 C 
ENDBRANCH   9  36
BRANCH   6  39
ATOM     39  C   UNL     1    -111.865  37.182 -14.851  1.00  0.00     0.264 C 
ATOM     40  O   UNL     1    -111.648  37.815 -15.918  1.00  0.00    -0.298 OA
ENDBRANCH   6  39
BRANCH   8  41
ATOM     41  O   UNL     1    -114.272  32.970 -15.588  1.00  0.00    -0.504 OA
ATOM     42  H   UNL     1    -115.105  32.425 -15.756  1.00  0.00     0.293 HD
ENDBRANCH   8  41
BRANCH   7  43
ATOM     43  O   UNL     1    -112.100  34.744 -16.125  1.00  0.00    -0.504 OA
ATOM     44  H   UNL     1    -111.994  35.031 -17.088  1.00  0.00     0.293 HD
ENDBRANCH   7  43
TORSDOF 11
ENDMDL
MODEL 9
REMARK VINA RESULT:    -1.827      4.770      6.470
REMARK INTER + INTRA:          -3.862
REMARK INTER:                  -3.018
REMARK INTRA:                  -0.844
REMARK UNBOUND:                -1.180
REMARK SMILES Cc1cc2c(C(C)C)c(O)c(O)c(C=O)c2c(O)c1-c1c(C)cc2c(C(C)C)c(O)c(O)c(C=O)c2c1O
REMARK SMILES IDX 1 1 2 2 3 3 4 4 16 5 13 6 11 7 9 8 5 9 17 10 19 11 20 12
REMARK SMILES IDX 37 13 21 14 36 15 23 16 22 17 24 18 33 19 25 20 31 21 29 22
REMARK SMILES IDX 38 23 34 25 35 26 26 27 27 28 28 29 32 30 30 32 18 34 6 36
REMARK SMILES IDX 7 37 8 38 14 39 15 40 10 41 12 43
REMARK H PARENT 38 24 32 31 30 33 18 35 10 42 12 44
REMARK Flexibility Score: inf
ROOT
ATOM      1  C   UNL     1    -113.713  44.892  -8.236  1.00  0.00     0.045 C 
ATOM      2  C   UNL     1    -114.532  43.814  -7.567  1.00  0.00    -0.039 A 
ATOM      3  C   UNL     1    -114.661  43.812  -6.177  1.00  0.00     0.013 A 
ATOM      4  C   UNL     1    -115.419  42.829  -5.503  1.00  0.00    -0.006 A 
ATOM      5  C   UNL     1    -115.933  41.732  -6.251  1.00  0.00     0.039 A 
ATOM      6  C   UNL     1    -116.489  40.621  -5.552  1.00  0.00     0.072 A 
ATOM      7  C   UNL     1    -116.581  40.644  -4.147  1.00  0.00     0.169 A 
ATOM      8  C   UNL     1    -116.131  41.764  -3.420  1.00  0.00     0.162 A 
ATOM      9  C   UNL     1    -115.643  42.906  -4.095  1.00  0.00     0.008 A 
ATOM     10  C   UNL     1    -115.901  41.799  -7.675  1.00  0.00     0.132 A 
ATOM     11  C   UNL     1    -115.194  42.836  -8.325  1.00  0.00     0.031 A 
ENDROOT
BRANCH  11  12
ATOM     12  C   UNL     1    -115.148  42.896  -9.808  1.00  0.00     0.031 A 
ATOM     13  C   UNL     1    -114.211  42.121 -10.522  1.00  0.00     0.132 A 
ATOM     14  C   UNL     1    -116.072  43.696 -10.502  1.00  0.00    -0.039 A 
ATOM     15  C   UNL     1    -114.123  42.221 -11.941  1.00  0.00     0.039 A 
ATOM     16  C   UNL     1    -116.058  43.711 -11.898  1.00  0.00     0.013 A 
ATOM     17  C   UNL     1    -117.125  44.484  -9.763  1.00  0.00     0.045 C 
ATOM     18  C   UNL     1    -115.081  43.012 -12.643  1.00  0.00    -0.006 A 
ATOM     19  C   UNL     1    -113.141  41.510 -12.689  1.00  0.00     0.072 A 
ATOM     20  C   UNL     1    -115.071  43.048 -14.072  1.00  0.00     0.008 A 
ATOM     21  C   UNL     1    -113.260  41.406 -14.082  1.00  0.00     0.169 A 
ATOM     22  C   UNL     1    -114.268  42.113 -14.763  1.00  0.00     0.162 A 
BRANCH  13  23
ATOM     23  O   UNL     1    -113.404  41.211  -9.829  1.00  0.00    -0.507 OA
ATOM     24  H   UNL     1    -113.239  41.249  -8.831  1.00  0.00     0.293 HD
ENDBRANCH  13  23
BRANCH  19  25
ATOM     25  C   UNL     1    -111.928  40.924 -12.076  1.00  0.00     0.264 C 
ATOM     26  O   UNL     1    -111.431  39.856 -12.523  1.00  0.00    -0.298 OA
ENDBRANCH  19  25
BRANCH  20  27
ATOM     27  C   UNL     1    -115.949  44.034 -14.864  1.00  0.00     0.017 C 
ATOM     28  C   UNL     1    -117.097  43.303 -15.568  1.00  0.00     0.012 C 
ATOM     29  C   UNL     1    -115.159  44.914 -15.850  1.00  0.00     0.012 C 
ENDBRANCH  20  27
BRANCH  21  30
ATOM     30  O   UNL     1    -112.325  40.628 -14.775  1.00  0.00    -0.504 OA
ATOM     31  H   UNL     1    -112.024  39.709 -14.481  1.00  0.00     0.293 HD
ENDBRANCH  21  30
BRANCH  22  32
ATOM     32  O   UNL     1    -114.497  41.894 -16.125  1.00  0.00    -0.504 OA
ATOM     33  H   UNL     1    -115.414  41.802 -16.539  1.00  0.00     0.293 HD
ENDBRANCH  22  32
ENDBRANCH  11  12
BRANCH  10  34
ATOM     34  O   UNL     1    -116.602  40.863  -8.443  1.00  0.00    -0.507 OA
ATOM     35  H   UNL     1    -117.313  41.106  -9.120  1.00  0.00     0.293 HD
ENDBRANCH  10  34
BRANCH   9  36
ATOM     36  C   UNL     1    -115.355  44.196  -3.305  1.00  0.00     0.017 C 
ATOM     37  C   UNL     1    -114.086  44.050  -2.458  1.00  0.00     0.012 C 
ATOM     38  C   UNL     1    -116.545  44.681  -2.456  1.00  0.00     0.012 C 
ENDBRANCH   9  36
BRANCH   6  39
ATOM     39  C   UNL     1    -116.860  39.363  -6.244  1.00  0.00     0.264 C 
ATOM     40  O   UNL     1    -116.309  38.271  -5.943  1.00  0.00    -0.298 OA
ENDBRANCH   6  39
BRANCH   8  41
ATOM     41  O   UNL     1    -116.121  41.754  -2.023  1.00  0.00    -0.504 OA
ATOM     42  H   UNL     1    -115.292  41.676  -1.452  1.00  0.00     0.293 HD
ENDBRANCH   8  41
BRANCH   7  43
ATOM     43  O   UNL     1    -117.125  39.527  -3.500  1.00  0.00    -0.504 OA
ATOM     44  H   UNL     1    -116.585  38.821  -3.020  1.00  0.00     0.293 HD
ENDBRANCH   7  43
TORSDOF 11
ENDMDL
