MODEL 1
REMARK VINA RESULT:    -3.131      0.000      0.000
REMARK INTER + INTRA:         -14.055
REMARK INTER:                  -8.256
REMARK INTRA:                  -5.799
REMARK UNBOUND:                -5.799
REMARK SMILES CCCCCCCCCCCCCCCCCCCCCCCCCCCCCC(=O)[O-]
REMARK SMILES IDX 16 1 17 2 18 3 19 4 20 5 21 6 22 7 23 8 24 9 25 10 26 11
REMARK SMILES IDX 27 12 28 13 29 14 30 15 31 16 32 17 15 18 14 19 13 20 12 21
REMARK SMILES IDX 11 22 10 23 9 24 8 25 7 26 6 27 5 28 4 29 3 30 2 31 1 32
REMARK H PARENT
REMARK Flexibility Score: inf
ROOT
ATOM      1  C   UNL     1      53.146  53.138  52.325  1.00  0.00     0.000 C 
ENDROOT
BRANCH   1   2
ATOM      2  C   UNL     1      51.989  53.346  51.335  1.00  0.00     0.000 C 
BRANCH   2   3
ATOM      3  C   UNL     1      52.468  53.777  49.940  1.00  0.00     0.000 C 
BRANCH   3   4
ATOM      4  C   UNL     1      52.319  52.627  48.933  1.00  0.00     0.000 C 
BRANCH   4   5
ATOM      5  C   UNL     1      53.076  52.889  47.622  1.00  0.00     0.000 C 
BRANCH   5   6
ATOM      6  C   UNL     1      53.758  54.268  47.596  1.00  0.00     0.000 C 
BRANCH   6   7
ATOM      7  C   UNL     1      55.297  54.155  47.610  1.00  0.00     0.000 C 
BRANCH   7   8
ATOM      8  C   UNL     1      55.945  54.671  48.907  1.00  0.00     0.000 C 
BRANCH   8   9
ATOM      9  C   UNL     1      56.665  53.564  49.695  1.00  0.00     0.000 C 
BRANCH   9  10
ATOM     10  C   UNL     1      56.613  52.197  48.981  1.00  0.00     0.000 C 
BRANCH  10  11
ATOM     11  C   UNL     1      56.574  50.990  49.939  1.00  0.00     0.000 C 
BRANCH  11  12
ATOM     12  C   UNL     1      55.280  50.848  50.758  1.00  0.00     0.000 C 
BRANCH  12  13
ATOM     13  C   UNL     1      54.219  49.990  50.047  1.00  0.00     0.006 C 
BRANCH  13  14
ATOM     14  C   UNL     1      53.043  49.637  50.969  1.00  0.00     0.053 C 
BRANCH  14  15
ATOM     15  C   UNL     1      53.171  48.258  51.544  1.00  0.00     0.041 C 
ATOM     16  O   UNL     1      52.883  47.249  50.846  1.00  0.00    -0.550 OA
ATOM     17  O   UNL     1      53.600  48.087  52.856  1.00  0.00    -0.550 OA
ENDBRANCH  14  15
ENDBRANCH  13  14
ENDBRANCH  12  13
ENDBRANCH  11  12
ENDBRANCH  10  11
ENDBRANCH   9  10
ENDBRANCH   8   9
ENDBRANCH   7   8
ENDBRANCH   6   7
ENDBRANCH   5   6
ENDBRANCH   4   5
ENDBRANCH   3   4
ENDBRANCH   2   3
ENDBRANCH   1   2
BRANCH   1  18
ATOM     18  C   UNL     1      54.194  54.263  52.256  1.00  0.00     0.000 C 
BRANCH  18  19
ATOM     19  C   UNL     1      54.184  55.159  53.504  1.00  0.00     0.000 C 
BRANCH  19  20
ATOM     20  C   UNL     1      54.388  56.648  53.169  1.00  0.00     0.000 C 
BRANCH  20  21
ATOM     21  C   UNL     1      53.095  57.468  53.313  1.00  0.00     0.000 C 
BRANCH  21  22
ATOM     22  C   UNL     1      52.123  57.254  52.142  1.00  0.00     0.000 C 
BRANCH  22  23
ATOM     23  C   UNL     1      52.511  58.122  50.935  1.00  0.00     0.000 C 
BRANCH  23  24
ATOM     24  C   UNL     1      53.160  57.309  49.799  1.00  0.00    -0.000 C 
BRANCH  24  25
ATOM     25  C   UNL     1      52.806  57.788  48.377  1.00  0.00    -0.000 C 
BRANCH  25  26
ATOM     26  C   UNL     1      53.407  59.149  47.973  1.00  0.00    -0.000 C 
BRANCH  26  27
ATOM     27  C   UNL     1      54.424  59.096  46.817  1.00  0.00    -0.000 C 
BRANCH  27  28
ATOM     28  C   UNL     1      55.214  57.778  46.775  1.00  0.00    -0.000 C 
BRANCH  28  29
ATOM     29  C   UNL     1      55.119  57.064  45.414  1.00  0.00    -0.000 C 
BRANCH  29  30
ATOM     30  C   UNL     1      53.839  57.358  44.609  1.00  0.00    -0.000 C 
BRANCH  30  31
ATOM     31  C   UNL     1      52.893  56.151  44.527  1.00  0.00    -0.003 C 
ATOM     32  C   UNL     1      51.632  56.386  45.354  1.00  0.00     0.004 C 
ENDBRANCH  30  31
ENDBRANCH  29  30
ENDBRANCH  28  29
ENDBRANCH  27  28
ENDBRANCH  26  27
ENDBRANCH  25  26
ENDBRANCH  24  25
ENDBRANCH  23  24
ENDBRANCH  22  23
ENDBRANCH  21  22
ENDBRANCH  20  21
ENDBRANCH  19  20
ENDBRANCH  18  19
ENDBRANCH   1  18
TORSDOF 28
ENDMDL
MODEL 2
REMARK VINA RESULT:    -3.122      2.874      7.261
REMARK INTER + INTRA:         -14.030
REMARK INTER:                  -7.825
REMARK INTRA:                  -6.205
REMARK UNBOUND:                -5.799
REMARK SMILES CCCCCCCCCCCCCCCCCCCCCCCCCCCCCC(=O)[O-]
REMARK SMILES IDX 16 1 17 2 18 3 19 4 20 5 21 6 22 7 23 8 24 9 25 10 26 11
REMARK SMILES IDX 27 12 28 13 29 14 30 15 31 16 32 17 15 18 14 19 13 20 12 21
REMARK SMILES IDX 11 22 10 23 9 24 8 25 7 26 6 27 5 28 4 29 3 30 2 31 1 32
REMARK H PARENT
REMARK Flexibility Score: inf
ROOT
ATOM      1  C   UNL     1      53.869  53.445  46.872  1.00  0.00     0.000 C 
ENDROOT
BRANCH   1   2
ATOM      2  C   UNL     1      55.242  52.864  46.501  1.00  0.00     0.000 C 
BRANCH   2   3
ATOM      3  C   UNL     1      56.071  53.811  45.620  1.00  0.00     0.000 C 
BRANCH   3   4
ATOM      4  C   UNL     1      55.654  55.272  45.845  1.00  0.00     0.000 C 
BRANCH   4   5
ATOM      5  C   UNL     1      55.322  55.999  44.533  1.00  0.00     0.000 C 
BRANCH   5   6
ATOM      6  C   UNL     1      54.117  56.947  44.668  1.00  0.00     0.000 C 
BRANCH   6   7
ATOM      7  C   UNL     1      52.773  56.202  44.515  1.00  0.00     0.000 C 
BRANCH   7   8
ATOM      8  C   UNL     1      51.862  56.308  45.750  1.00  0.00     0.000 C 
BRANCH   8   9
ATOM      9  C   UNL     1      52.332  57.381  46.747  1.00  0.00     0.000 C 
BRANCH   9  10
ATOM     10  C   UNL     1      53.068  56.780  47.962  1.00  0.00     0.000 C 
BRANCH  10  11
ATOM     11  C   UNL     1      54.292  57.596  48.421  1.00  0.00     0.000 C 
BRANCH  11  12
ATOM     12  C   UNL     1      54.019  58.604  49.550  1.00  0.00     0.000 C 
BRANCH  12  13
ATOM     13  C   UNL     1      52.751  58.266  50.354  1.00  0.00     0.006 C 
BRANCH  13  14
ATOM     14  C   UNL     1      52.630  59.112  51.630  1.00  0.00     0.053 C 
BRANCH  14  15
ATOM     15  C   UNL     1      53.340  58.486  52.792  1.00  0.00     0.041 C 
ATOM     16  O   UNL     1      54.507  58.854  53.098  1.00  0.00    -0.550 OA
ATOM     17  O   UNL     1      52.718  57.488  53.535  1.00  0.00    -0.550 OA
ENDBRANCH  14  15
ENDBRANCH  13  14
ENDBRANCH  12  13
ENDBRANCH  11  12
ENDBRANCH  10  11
ENDBRANCH   9  10
ENDBRANCH   8   9
ENDBRANCH   7   8
ENDBRANCH   6   7
ENDBRANCH   5   6
ENDBRANCH   4   5
ENDBRANCH   3   4
ENDBRANCH   2   3
ENDBRANCH   1   2
BRANCH   1  18
ATOM     18  C   UNL     1      53.052  52.505  47.776  1.00  0.00     0.000 C 
BRANCH  18  19
ATOM     19  C   UNL     1      52.356  53.246  48.927  1.00  0.00     0.000 C 
BRANCH  19  20
ATOM     20  C   UNL     1      52.173  52.366  50.177  1.00  0.00     0.000 C 
BRANCH  20  21
ATOM     21  C   UNL     1      51.964  53.192  51.457  1.00  0.00     0.000 C 
BRANCH  21  22
ATOM     22  C   UNL     1      52.564  54.603  51.357  1.00  0.00     0.000 C 
BRANCH  22  23
ATOM     23  C   UNL     1      54.012  54.627  51.868  1.00  0.00     0.000 C 
BRANCH  23  24
ATOM     24  C   UNL     1      55.001  55.196  50.835  1.00  0.00    -0.000 C 
BRANCH  24  25
ATOM     25  C   UNL     1      55.796  54.135  50.048  1.00  0.00    -0.000 C 
BRANCH  25  26
ATOM     26  C   UNL     1      55.970  52.780  50.762  1.00  0.00    -0.000 C 
BRANCH  26  27
ATOM     27  C   UNL     1      55.803  51.541  49.863  1.00  0.00    -0.000 C 
BRANCH  27  28
ATOM     28  C   UNL     1      55.881  50.219  50.643  1.00  0.00    -0.000 C 
BRANCH  28  29
ATOM     29  C   UNL     1      54.505  49.556  50.841  1.00  0.00    -0.000 C 
BRANCH  29  30
ATOM     30  C   UNL     1      53.815  49.870  52.181  1.00  0.00    -0.000 C 
BRANCH  30  31
ATOM     31  C   UNL     1      54.810  50.135  53.320  1.00  0.00    -0.003 C 
ATOM     32  C   UNL     1      54.595  51.521  53.924  1.00  0.00     0.004 C 
ENDBRANCH  30  31
ENDBRANCH  29  30
ENDBRANCH  28  29
ENDBRANCH  27  28
ENDBRANCH  26  27
ENDBRANCH  25  26
ENDBRANCH  24  25
ENDBRANCH  23  24
ENDBRANCH  22  23
ENDBRANCH  21  22
ENDBRANCH  20  21
ENDBRANCH  19  20
ENDBRANCH  18  19
ENDBRANCH   1  18
TORSDOF 28
ENDMDL
MODEL 3
REMARK VINA RESULT:    -3.096      3.269      8.221
REMARK INTER + INTRA:         -13.961
REMARK INTER:                  -8.448
REMARK INTRA:                  -5.513
REMARK UNBOUND:                -5.799
REMARK SMILES CCCCCCCCCCCCCCCCCCCCCCCCCCCCCC(=O)[O-]
REMARK SMILES IDX 16 1 17 2 18 3 19 4 20 5 21 6 22 7 23 8 24 9 25 10 26 11
REMARK SMILES IDX 27 12 28 13 29 14 30 15 31 16 32 17 15 18 14 19 13 20 12 21
REMARK SMILES IDX 11 22 10 23 9 24 8 25 7 26 6 27 5 28 4 29 3 30 2 31 1 32
REMARK H PARENT
REMARK Flexibility Score: inf
ROOT
ATOM      1  C   UNL     1      51.990  52.226  50.999  1.00  0.00     0.000 C 
ENDROOT
BRANCH   1   2
ATOM      2  C   UNL     1      52.233  53.696  51.375  1.00  0.00     0.000 C 
BRANCH   2   3
ATOM      3  C   UNL     1      53.306  53.864  52.462  1.00  0.00     0.000 C 
BRANCH   3   4
ATOM      4  C   UNL     1      54.367  54.885  52.028  1.00  0.00     0.000 C 
BRANCH   4   5
ATOM      5  C   UNL     1      53.940  55.691  50.792  1.00  0.00     0.000 C 
BRANCH   5   6
ATOM      6  C   UNL     1      55.028  55.732  49.705  1.00  0.00     0.000 C 
BRANCH   6   7
ATOM      7  C   UNL     1      54.605  56.589  48.492  1.00  0.00     0.000 C 
BRANCH   7   8
ATOM      8  C   UNL     1      53.085  56.798  48.380  1.00  0.00     0.000 C 
BRANCH   8   9
ATOM      9  C   UNL     1      52.659  57.361  47.014  1.00  0.00     0.000 C 
BRANCH   9  10
ATOM     10  C   UNL     1      52.171  56.264  46.045  1.00  0.00     0.000 C 
BRANCH  10  11
ATOM     11  C   UNL     1      52.773  56.365  44.630  1.00  0.00     0.000 C 
BRANCH  11  12
ATOM     12  C   UNL     1      54.309  56.426  44.577  1.00  0.00     0.000 C 
BRANCH  12  13
ATOM     13  C   UNL     1      54.974  55.190  45.206  1.00  0.00     0.006 C 
BRANCH  13  14
ATOM     14  C   UNL     1      56.341  54.883  44.577  1.00  0.00     0.053 C 
BRANCH  14  15
ATOM     15  C   UNL     1      57.454  55.627  45.253  1.00  0.00     0.041 C 
ATOM     16  O   UNL     1      58.271  56.303  44.572  1.00  0.00    -0.550 OA
ATOM     17  O   UNL     1      57.594  55.567  46.635  1.00  0.00    -0.550 OA
ENDBRANCH  14  15
ENDBRANCH  13  14
ENDBRANCH  12  13
ENDBRANCH  11  12
ENDBRANCH  10  11
ENDBRANCH   9  10
ENDBRANCH   8   9
ENDBRANCH   7   8
ENDBRANCH   6   7
ENDBRANCH   5   6
ENDBRANCH   4   5
ENDBRANCH   3   4
ENDBRANCH   2   3
ENDBRANCH   1   2
BRANCH   1  18
ATOM     18  C   UNL     1      52.385  51.913  49.545  1.00  0.00     0.000 C 
BRANCH  18  19
ATOM     19  C   UNL     1      52.357  53.154  48.642  1.00  0.00     0.000 C 
BRANCH  19  20
ATOM     20  C   UNL     1      53.321  53.043  47.446  1.00  0.00     0.000 C 
BRANCH  20  21
ATOM     21  C   UNL     1      54.455  52.036  47.694  1.00  0.00     0.000 C 
BRANCH  21  22
ATOM     22  C   UNL     1      55.821  52.714  47.884  1.00  0.00     0.000 C 
BRANCH  22  23
ATOM     23  C   UNL     1      56.617  52.049  49.017  1.00  0.00     0.000 C 
BRANCH  23  24
ATOM     24  C   UNL     1      55.837  51.994  50.343  1.00  0.00    -0.000 C 
BRANCH  24  25
ATOM     25  C   UNL     1      55.623  50.575  50.908  1.00  0.00    -0.000 C 
BRANCH  25  26
ATOM     26  C   UNL     1      54.915  50.512  52.277  1.00  0.00    -0.000 C 
BRANCH  26  27
ATOM     27  C   UNL     1      53.889  49.374  52.430  1.00  0.00    -0.000 C 
BRANCH  27  28
ATOM     28  C   UNL     1      53.490  48.743  51.086  1.00  0.00    -0.000 C 
BRANCH  28  29
ATOM     29  C   UNL     1      53.693  47.217  51.056  1.00  0.00    -0.000 C 
BRANCH  29  30
ATOM     30  C   UNL     1      53.020  46.445  52.206  1.00  0.00    -0.000 C 
BRANCH  30  31
ATOM     31  C   UNL     1      51.759  45.689  51.761  1.00  0.00    -0.003 C 
ATOM     32  C   UNL     1      51.316  44.688  52.826  1.00  0.00     0.004 C 
ENDBRANCH  30  31
ENDBRANCH  29  30
ENDBRANCH  28  29
ENDBRANCH  27  28
ENDBRANCH  26  27
ENDBRANCH  25  26
ENDBRANCH  24  25
ENDBRANCH  23  24
ENDBRANCH  22  23
ENDBRANCH  21  22
ENDBRANCH  20  21
ENDBRANCH  19  20
ENDBRANCH  18  19
ENDBRANCH   1  18
TORSDOF 28
ENDMDL
MODEL 4
REMARK VINA RESULT:    -3.095      3.078      7.628
REMARK INTER + INTRA:         -13.959
REMARK INTER:                  -9.070
REMARK INTRA:                  -4.889
REMARK UNBOUND:                -5.799
REMARK SMILES CCCCCCCCCCCCCCCCCCCCCCCCCCCCCC(=O)[O-]
REMARK SMILES IDX 16 1 17 2 18 3 19 4 20 5 21 6 22 7 23 8 24 9 25 10 26 11
REMARK SMILES IDX 27 12 28 13 29 14 30 15 31 16 32 17 15 18 14 19 13 20 12 21
REMARK SMILES IDX 11 22 10 23 9 24 8 25 7 26 6 27 5 28 4 29 3 30 2 31 1 32
REMARK H PARENT
REMARK Flexibility Score: inf
ROOT
ATOM      1  C   UNL     1      52.989  53.400  52.350  1.00  0.00     0.000 C 
ENDROOT
BRANCH   1   2
ATOM      2  C   UNL     1      51.962  52.938  51.306  1.00  0.00     0.000 C 
BRANCH   2   3
ATOM      3  C   UNL     1      52.240  51.520  50.782  1.00  0.00     0.000 C 
BRANCH   3   4
ATOM      4  C   UNL     1      53.068  51.568  49.490  1.00  0.00     0.000 C 
BRANCH   4   5
ATOM      5  C   UNL     1      52.502  52.562  48.463  1.00  0.00     0.000 C 
BRANCH   5   6
ATOM      6  C   UNL     1      53.459  52.804  47.283  1.00  0.00     0.000 C 
BRANCH   6   7
ATOM      7  C   UNL     1      54.692  51.877  47.335  1.00  0.00     0.000 C 
BRANCH   7   8
ATOM      8  C   UNL     1      55.876  52.373  46.487  1.00  0.00     0.000 C 
BRANCH   8   9
ATOM      9  C   UNL     1      55.586  53.708  45.781  1.00  0.00     0.000 C 
BRANCH   9  10
ATOM     10  C   UNL     1      56.570  54.823  46.190  1.00  0.00     0.000 C 
BRANCH  10  11
ATOM     11  C   UNL     1      56.513  56.072  45.290  1.00  0.00     0.000 C 
BRANCH  11  12
ATOM     12  C   UNL     1      55.331  56.114  44.306  1.00  0.00     0.000 C 
BRANCH  12  13
ATOM     13  C   UNL     1      54.198  57.041  44.778  1.00  0.00     0.006 C 
BRANCH  13  14
ATOM     14  C   UNL     1      52.815  56.542  44.335  1.00  0.00     0.053 C 
BRANCH  14  15
ATOM     15  C   UNL     1      51.867  56.408  45.489  1.00  0.00     0.041 C 
ATOM     16  O   UNL     1      52.263  55.928  46.585  1.00  0.00    -0.550 OA
ATOM     17  O   UNL     1      50.542  56.806  45.351  1.00  0.00    -0.550 OA
ENDBRANCH  14  15
ENDBRANCH  13  14
ENDBRANCH  12  13
ENDBRANCH  11  12
ENDBRANCH  10  11
ENDBRANCH   9  10
ENDBRANCH   8   9
ENDBRANCH   7   8
ENDBRANCH   6   7
ENDBRANCH   5   6
ENDBRANCH   4   5
ENDBRANCH   3   4
ENDBRANCH   2   3
ENDBRANCH   1   2
BRANCH   1  18
ATOM     18  C   UNL     1      53.361  54.886  52.199  1.00  0.00     0.000 C 
BRANCH  18  19
ATOM     19  C   UNL     1      52.742  55.528  50.949  1.00  0.00     0.000 C 
BRANCH  19  20
ATOM     20  C   UNL     1      53.758  55.705  49.806  1.00  0.00     0.000 C 
BRANCH  20  21
ATOM     21  C   UNL     1      55.214  55.579  50.284  1.00  0.00     0.000 C 
BRANCH  21  22
ATOM     22  C   UNL     1      55.918  54.336  49.720  1.00  0.00     0.000 C 
BRANCH  22  23
ATOM     23  C   UNL     1      56.580  53.518  50.840  1.00  0.00     0.000 C 
BRANCH  23  24
ATOM     24  C   UNL     1      56.361  52.003  50.683  1.00  0.00    -0.000 C 
BRANCH  24  25
ATOM     25  C   UNL     1      55.879  51.283  51.959  1.00  0.00    -0.000 C 
BRANCH  25  26
ATOM     26  C   UNL     1      56.667  50.013  52.335  1.00  0.00    -0.000 C 
BRANCH  26  27
ATOM     27  C   UNL     1      55.811  48.747  52.528  1.00  0.00    -0.000 C 
BRANCH  27  28
ATOM     28  C   UNL     1      54.304  49.016  52.387  1.00  0.00    -0.000 C 
BRANCH  28  29
ATOM     29  C   UNL     1      53.453  47.738  52.506  1.00  0.00    -0.000 C 
BRANCH  29  30
ATOM     30  C   UNL     1      52.696  47.335  51.227  1.00  0.00    -0.000 C 
BRANCH  30  31
ATOM     31  C   UNL     1      52.691  45.818  50.989  1.00  0.00    -0.003 C 
ATOM     32  C   UNL     1      51.589  45.139  51.800  1.00  0.00     0.004 C 
ENDBRANCH  30  31
ENDBRANCH  29  30
ENDBRANCH  28  29
ENDBRANCH  27  28
ENDBRANCH  26  27
ENDBRANCH  25  26
ENDBRANCH  24  25
ENDBRANCH  23  24
ENDBRANCH  22  23
ENDBRANCH  21  22
ENDBRANCH  20  21
ENDBRANCH  19  20
ENDBRANCH  18  19
ENDBRANCH   1  18
TORSDOF 28
ENDMDL
MODEL 5
REMARK VINA RESULT:    -3.078      1.370      4.254
REMARK INTER + INTRA:         -13.915
REMARK INTER:                  -7.894
REMARK INTRA:                  -6.021
REMARK UNBOUND:                -5.799
REMARK SMILES CCCCCCCCCCCCCCCCCCCCCCCCCCCCCC(=O)[O-]
REMARK SMILES IDX 16 1 17 2 18 3 19 4 20 5 21 6 22 7 23 8 24 9 25 10 26 11
REMARK SMILES IDX 27 12 28 13 29 14 30 15 31 16 32 17 15 18 14 19 13 20 12 21
REMARK SMILES IDX 11 22 10 23 9 24 8 25 7 26 6 27 5 28 4 29 3 30 2 31 1 32
REMARK H PARENT
REMARK Flexibility Score: inf
ROOT
ATOM      1  C   UNL     1      54.415  51.638  48.100  1.00  0.00     0.000 C 
ENDROOT
BRANCH   1   2
ATOM      2  C   UNL     1      53.148  52.361  47.621  1.00  0.00     0.000 C 
BRANCH   2   3
ATOM      3  C   UNL     1      52.352  52.996  48.772  1.00  0.00     0.000 C 
BRANCH   3   4
ATOM      4  C   UNL     1      52.351  52.081  50.005  1.00  0.00     0.000 C 
BRANCH   4   5
ATOM      5  C   UNL     1      51.886  52.805  51.277  1.00  0.00     0.000 C 
BRANCH   5   6
ATOM      6  C   UNL     1      52.507  54.205  51.424  1.00  0.00     0.000 C 
BRANCH   6   7
ATOM      7  C   UNL     1      53.883  54.160  52.122  1.00  0.00     0.000 C 
BRANCH   7   8
ATOM      8  C   UNL     1      53.801  53.905  53.637  1.00  0.00     0.000 C 
BRANCH   8   9
ATOM      9  C   UNL     1      54.256  52.488  54.028  1.00  0.00     0.000 C 
BRANCH   9  10
ATOM     10  C   UNL     1      55.131  51.825  52.944  1.00  0.00     0.000 C 
BRANCH  10  11
ATOM     11  C   UNL     1      54.642  50.429  52.512  1.00  0.00     0.000 C 
BRANCH  11  12
ATOM     12  C   UNL     1      55.250  49.902  51.202  1.00  0.00     0.000 C 
BRANCH  12  13
ATOM     13  C   UNL     1      54.363  48.847  50.518  1.00  0.00     0.006 C 
BRANCH  13  14
ATOM     14  C   UNL     1      53.042  48.623  51.268  1.00  0.00     0.053 C 
BRANCH  14  15
ATOM     15  C   UNL     1      52.885  47.204  51.724  1.00  0.00     0.041 C 
ATOM     16  O   UNL     1      53.569  46.767  52.689  1.00  0.00    -0.550 OA
ATOM     17  O   UNL     1      51.988  46.360  51.080  1.00  0.00    -0.550 OA
ENDBRANCH  14  15
ENDBRANCH  13  14
ENDBRANCH  12  13
ENDBRANCH  11  12
ENDBRANCH  10  11
ENDBRANCH   9  10
ENDBRANCH   8   9
ENDBRANCH   7   8
ENDBRANCH   6   7
ENDBRANCH   5   6
ENDBRANCH   4   5
ENDBRANCH   3   4
ENDBRANCH   2   3
ENDBRANCH   1   2
BRANCH   1  18
ATOM     18  C   UNL     1      55.669  52.529  48.029  1.00  0.00     0.000 C 
BRANCH  18  19
ATOM     19  C   UNL     1      56.108  53.045  49.407  1.00  0.00     0.000 C 
BRANCH  19  20
ATOM     20  C   UNL     1      56.211  54.580  49.463  1.00  0.00     0.000 C 
BRANCH  20  21
ATOM     21  C   UNL     1      55.344  55.269  48.397  1.00  0.00     0.000 C 
BRANCH  21  22
ATOM     22  C   UNL     1      56.143  56.253  47.527  1.00  0.00     0.000 C 
BRANCH  22  23
ATOM     23  C   UNL     1      55.836  56.049  46.035  1.00  0.00     0.000 C 
BRANCH  23  24
ATOM     24  C   UNL     1      54.669  55.075  45.793  1.00  0.00    -0.000 C 
BRANCH  24  25
ATOM     25  C   UNL     1      53.449  55.691  45.080  1.00  0.00    -0.000 C 
BRANCH  25  26
ATOM     26  C   UNL     1      53.141  57.156  45.452  1.00  0.00    -0.000 C 
BRANCH  26  27
ATOM     27  C   UNL     1      52.558  57.362  46.862  1.00  0.00    -0.000 C 
BRANCH  27  28
ATOM     28  C   UNL     1      53.203  58.541  47.610  1.00  0.00    -0.000 C 
BRANCH  28  29
ATOM     29  C   UNL     1      52.726  58.659  49.069  1.00  0.00    -0.000 C 
BRANCH  29  30
ATOM     30  C   UNL     1      53.009  57.430  49.952  1.00  0.00    -0.000 C 
BRANCH  30  31
ATOM     31  C   UNL     1      54.072  57.697  51.028  1.00  0.00    -0.003 C 
ATOM     32  C   UNL     1      54.931  58.906  50.661  1.00  0.00     0.004 C 
ENDBRANCH  30  31
ENDBRANCH  29  30
ENDBRANCH  28  29
ENDBRANCH  27  28
ENDBRANCH  26  27
ENDBRANCH  25  26
ENDBRANCH  24  25
ENDBRANCH  23  24
ENDBRANCH  22  23
ENDBRANCH  21  22
ENDBRANCH  20  21
ENDBRANCH  19  20
ENDBRANCH  18  19
ENDBRANCH   1  18
TORSDOF 28
ENDMDL
MODEL 6
REMARK VINA RESULT:    -3.074      1.557      2.713
REMARK INTER + INTRA:         -13.906
REMARK INTER:                  -8.308
REMARK INTRA:                  -5.597
REMARK UNBOUND:                -5.799
REMARK SMILES CCCCCCCCCCCCCCCCCCCCCCCCCCCCCC(=O)[O-]
REMARK SMILES IDX 16 1 17 2 18 3 19 4 20 5 21 6 22 7 23 8 24 9 25 10 26 11
REMARK SMILES IDX 27 12 28 13 29 14 30 15 31 16 32 17 15 18 14 19 13 20 12 21
REMARK SMILES IDX 11 22 10 23 9 24 8 25 7 26 6 27 5 28 4 29 3 30 2 31 1 32
REMARK H PARENT
REMARK Flexibility Score: inf
ROOT
ATOM      1  C   UNL     1      53.395  53.150  52.532  1.00  0.00     0.000 C 
ENDROOT
BRANCH   1   2
ATOM      2  C   UNL     1      52.117  53.397  51.717  1.00  0.00     0.000 C 
BRANCH   2   3
ATOM      3  C   UNL     1      52.006  52.478  50.490  1.00  0.00     0.000 C 
BRANCH   3   4
ATOM      4  C   UNL     1      52.389  53.232  49.208  1.00  0.00     0.000 C 
BRANCH   4   5
ATOM      5  C   UNL     1      52.613  52.291  48.014  1.00  0.00     0.000 C 
BRANCH   5   6
ATOM      6  C   UNL     1      53.984  52.495  47.346  1.00  0.00     0.000 C 
BRANCH   6   7
ATOM      7  C   UNL     1      54.978  53.226  48.273  1.00  0.00     0.000 C 
BRANCH   7   8
ATOM      8  C   UNL     1      56.085  52.317  48.834  1.00  0.00     0.000 C 
BRANCH   8   9
ATOM      9  C   UNL     1      55.622  51.493  50.048  1.00  0.00     0.000 C 
BRANCH   9  10
ATOM     10  C   UNL     1      55.224  50.051  49.669  1.00  0.00     0.000 C 
BRANCH  10  11
ATOM     11  C   UNL     1      53.987  49.524  50.422  1.00  0.00     0.000 C 
BRANCH  11  12
ATOM     12  C   UNL     1      54.048  48.038  50.817  1.00  0.00     0.000 C 
BRANCH  12  13
ATOM     13  C   UNL     1      52.702  47.507  51.339  1.00  0.00     0.006 C 
BRANCH  13  14
ATOM     14  C   UNL     1      52.872  46.594  52.562  1.00  0.00     0.053 C 
BRANCH  14  15
ATOM     15  C   UNL     1      51.929  45.429  52.532  1.00  0.00     0.041 C 
ATOM     16  O   UNL     1      51.456  45.022  51.437  1.00  0.00    -0.550 OA
ATOM     17  O   UNL     1      51.567  44.796  53.716  1.00  0.00    -0.550 OA
ENDBRANCH  14  15
ENDBRANCH  13  14
ENDBRANCH  12  13
ENDBRANCH  11  12
ENDBRANCH  10  11
ENDBRANCH   9  10
ENDBRANCH   8   9
ENDBRANCH   7   8
ENDBRANCH   6   7
ENDBRANCH   5   6
ENDBRANCH   4   5
ENDBRANCH   3   4
ENDBRANCH   2   3
ENDBRANCH   1   2
BRANCH   1  18
ATOM     18  C   UNL     1      54.146  54.452  52.866  1.00  0.00     0.000 C 
BRANCH  18  19
ATOM     19  C   UNL     1      55.403  54.649  52.005  1.00  0.00     0.000 C 
BRANCH  19  20
ATOM     20  C   UNL     1      55.187  55.653  50.858  1.00  0.00     0.000 C 
BRANCH  20  21
ATOM     21  C   UNL     1      54.081  56.675  51.168  1.00  0.00     0.000 C 
BRANCH  21  22
ATOM     22  C   UNL     1      52.989  56.715  50.088  1.00  0.00     0.000 C 
BRANCH  22  23
ATOM     23  C   UNL     1      53.107  57.981  49.225  1.00  0.00     0.000 C 
BRANCH  23  24
ATOM     24  C   UNL     1      52.812  57.719  47.737  1.00  0.00    -0.000 C 
BRANCH  24  25
ATOM     25  C   UNL     1      52.904  56.241  47.309  1.00  0.00    -0.000 C 
BRANCH  25  26
ATOM     26  C   UNL     1      52.881  55.993  45.788  1.00  0.00    -0.000 C 
BRANCH  26  27
ATOM     27  C   UNL     1      54.195  55.454  45.193  1.00  0.00    -0.000 C 
BRANCH  27  28
ATOM     28  C   UNL     1      54.882  56.456  44.250  1.00  0.00    -0.000 C 
BRANCH  28  29
ATOM     29  C   UNL     1      56.105  57.139  44.888  1.00  0.00    -0.000 C 
BRANCH  29  30
ATOM     30  C   UNL     1      55.790  58.378  45.747  1.00  0.00    -0.000 C 
BRANCH  30  31
ATOM     31  C   UNL     1      56.501  58.359  47.107  1.00  0.00    -0.003 C 
ATOM     32  C   UNL     1      56.535  56.948  47.690  1.00  0.00     0.004 C 
ENDBRANCH  30  31
ENDBRANCH  29  30
ENDBRANCH  28  29
ENDBRANCH  27  28
ENDBRANCH  26  27
ENDBRANCH  25  26
ENDBRANCH  24  25
ENDBRANCH  23  24
ENDBRANCH  22  23
ENDBRANCH  21  22
ENDBRANCH  20  21
ENDBRANCH  19  20
ENDBRANCH  18  19
ENDBRANCH   1  18
TORSDOF 28
ENDMDL
MODEL 7
REMARK VINA RESULT:    -3.067      1.283      5.103
REMARK INTER + INTRA:         -13.885
REMARK INTER:                  -8.238
REMARK INTRA:                  -5.647
REMARK UNBOUND:                -5.799
REMARK SMILES CCCCCCCCCCCCCCCCCCCCCCCCCCCCCC(=O)[O-]
REMARK SMILES IDX 16 1 17 2 18 3 19 4 20 5 21 6 22 7 23 8 24 9 25 10 26 11
REMARK SMILES IDX 27 12 28 13 29 14 30 15 31 16 32 17 15 18 14 19 13 20 12 21
REMARK SMILES IDX 11 22 10 23 9 24 8 25 7 26 6 27 5 28 4 29 3 30 2 31 1 32
REMARK H PARENT
REMARK Flexibility Score: inf
ROOT
ATOM      1  C   UNL     1      53.074  52.670  47.616  1.00  0.00     0.000 C 
ENDROOT
BRANCH   1   2
ATOM      2  C   UNL     1      52.628  53.811  48.544  1.00  0.00     0.000 C 
BRANCH   2   3
ATOM      3  C   UNL     1      52.285  53.327  49.962  1.00  0.00     0.000 C 
BRANCH   3   4
ATOM      4  C   UNL     1      53.339  53.806  50.971  1.00  0.00     0.000 C 
BRANCH   4   5
ATOM      5  C   UNL     1      53.006  53.393  52.413  1.00  0.00     0.000 C 
BRANCH   5   6
ATOM      6  C   UNL     1      54.190  52.716  53.125  1.00  0.00     0.000 C 
BRANCH   6   7
ATOM      7  C   UNL     1      55.540  53.055  52.458  1.00  0.00     0.000 C 
BRANCH   7   8
ATOM      8  C   UNL     1      56.344  51.817  52.023  1.00  0.00     0.000 C 
BRANCH   8   9
ATOM      9  C   UNL     1      56.148  51.471  50.537  1.00  0.00     0.000 C 
BRANCH   9  10
ATOM     10  C   UNL     1      55.466  50.103  50.331  1.00  0.00     0.000 C 
BRANCH  10  11
ATOM     11  C   UNL     1      53.973  50.196  49.963  1.00  0.00     0.000 C 
BRANCH  11  12
ATOM     12  C   UNL     1      52.997  49.850  51.100  1.00  0.00     0.000 C 
BRANCH  12  13
ATOM     13  C   UNL     1      53.446  48.627  51.917  1.00  0.00     0.006 C 
BRANCH  13  14
ATOM     14  C   UNL     1      52.783  47.329  51.432  1.00  0.00     0.053 C 
BRANCH  14  15
ATOM     15  C   UNL     1      52.732  46.285  52.507  1.00  0.00     0.041 C 
ATOM     16  O   UNL     1      51.676  45.623  52.700  1.00  0.00    -0.550 OA
ATOM     17  O   UNL     1      53.847  46.049  53.303  1.00  0.00    -0.550 OA
ENDBRANCH  14  15
ENDBRANCH  13  14
ENDBRANCH  12  13
ENDBRANCH  11  12
ENDBRANCH  10  11
ENDBRANCH   9  10
ENDBRANCH   8   9
ENDBRANCH   7   8
ENDBRANCH   6   7
ENDBRANCH   5   6
ENDBRANCH   4   5
ENDBRANCH   3   4
ENDBRANCH   2   3
ENDBRANCH   1   2
BRANCH   1  18
ATOM     18  C   UNL     1      54.426  52.952  46.937  1.00  0.00     0.000 C 
BRANCH  18  19
ATOM     19  C   UNL     1      55.284  53.957  47.719  1.00  0.00     0.000 C 
BRANCH  19  20
ATOM     20  C   UNL     1      55.878  55.058  46.821  1.00  0.00     0.000 C 
BRANCH  20  21
ATOM     21  C   UNL     1      55.365  54.980  45.374  1.00  0.00     0.000 C 
BRANCH  21  22
ATOM     22  C   UNL     1      54.544  56.214  44.968  1.00  0.00     0.000 C 
BRANCH  22  23
ATOM     23  C   UNL     1      53.038  55.910  44.990  1.00  0.00     0.000 C 
BRANCH  23  24
ATOM     24  C   UNL     1      52.278  56.732  46.047  1.00  0.00    -0.000 C 
BRANCH  24  25
ATOM     25  C   UNL     1      53.158  57.689  46.877  1.00  0.00    -0.000 C 
BRANCH  25  26
ATOM     26  C   UNL     1      52.711  57.891  48.339  1.00  0.00    -0.000 C 
BRANCH  26  27
ATOM     27  C   UNL     1      53.544  57.130  49.388  1.00  0.00    -0.000 C 
BRANCH  27  28
ATOM     28  C   UNL     1      53.588  57.843  50.749  1.00  0.00    -0.000 C 
BRANCH  28  29
ATOM     29  C   UNL     1      52.687  57.176  51.805  1.00  0.00    -0.000 C 
BRANCH  29  30
ATOM     30  C   UNL     1      53.108  57.413  53.268  1.00  0.00    -0.000 C 
BRANCH  30  31
ATOM     31  C   UNL     1      54.412  56.693  53.639  1.00  0.00    -0.003 C 
ATOM     32  C   UNL     1      54.268  55.945  54.963  1.00  0.00     0.004 C 
ENDBRANCH  30  31
ENDBRANCH  29  30
ENDBRANCH  28  29
ENDBRANCH  27  28
ENDBRANCH  26  27
ENDBRANCH  25  26
ENDBRANCH  24  25
ENDBRANCH  23  24
ENDBRANCH  22  23
ENDBRANCH  21  22
ENDBRANCH  20  21
ENDBRANCH  19  20
ENDBRANCH  18  19
ENDBRANCH   1  18
TORSDOF 28
ENDMDL
MODEL 8
REMARK VINA RESULT:    -3.026      2.279      5.074
REMARK INTER + INTRA:         -13.777
REMARK INTER:                  -8.591
REMARK INTRA:                  -5.186
REMARK UNBOUND:                -5.799
REMARK SMILES CCCCCCCCCCCCCCCCCCCCCCCCCCCCCC(=O)[O-]
REMARK SMILES IDX 16 1 17 2 18 3 19 4 20 5 21 6 22 7 23 8 24 9 25 10 26 11
REMARK SMILES IDX 27 12 28 13 29 14 30 15 31 16 32 17 15 18 14 19 13 20 12 21
REMARK SMILES IDX 11 22 10 23 9 24 8 25 7 26 6 27 5 28 4 29 3 30 2 31 1 32
REMARK H PARENT
REMARK Flexibility Score: inf
ROOT
ATOM      1  C   UNL     1      52.303  52.999  51.713  1.00  0.00     0.000 C 
ENDROOT
BRANCH   1   2
ATOM      2  C   UNL     1      52.140  51.888  50.665  1.00  0.00     0.000 C 
BRANCH   2   3
ATOM      3  C   UNL     1      52.894  50.602  51.037  1.00  0.00     0.000 C 
BRANCH   3   4
ATOM      4  C   UNL     1      53.841  50.848  52.221  1.00  0.00     0.000 C 
BRANCH   4   5
ATOM      5  C   UNL     1      54.675  49.608  52.577  1.00  0.00     0.000 C 
BRANCH   5   6
ATOM      6  C   UNL     1      56.138  49.723  52.114  1.00  0.00     0.000 C 
BRANCH   6   7
ATOM      7  C   UNL     1      56.505  48.640  51.077  1.00  0.00     0.000 C 
BRANCH   7   8
ATOM      8  C   UNL     1      55.602  47.396  51.134  1.00  0.00     0.000 C 
BRANCH   8   9
ATOM      9  C   UNL     1      54.536  47.381  50.025  1.00  0.00     0.000 C 
BRANCH   9  10
ATOM     10  C   UNL     1      53.370  46.420  50.334  1.00  0.00     0.000 C 
BRANCH  10  11
ATOM     11  C   UNL     1      52.362  46.967  51.362  1.00  0.00     0.000 C 
BRANCH  11  12
ATOM     12  C   UNL     1      51.973  45.987  52.482  1.00  0.00     0.000 C 
BRANCH  12  13
ATOM     13  C   UNL     1      52.128  44.515  52.062  1.00  0.00     0.006 C 
BRANCH  13  14
ATOM     14  C   UNL     1      52.719  43.649  53.185  1.00  0.00     0.053 C 
BRANCH  14  15
ATOM     15  C   UNL     1      53.977  44.238  53.750  1.00  0.00     0.041 C 
ATOM     16  O   UNL     1      54.969  44.452  53.003  1.00  0.00    -0.550 OA
ATOM     17  O   UNL     1      54.057  44.543  55.104  1.00  0.00    -0.550 OA
ENDBRANCH  14  15
ENDBRANCH  13  14
ENDBRANCH  12  13
ENDBRANCH  11  12
ENDBRANCH  10  11
ENDBRANCH   9  10
ENDBRANCH   8   9
ENDBRANCH   7   8
ENDBRANCH   6   7
ENDBRANCH   5   6
ENDBRANCH   4   5
ENDBRANCH   3   4
ENDBRANCH   2   3
ENDBRANCH   1   2
BRANCH   1  18
ATOM     18  C   UNL     1      52.419  54.398  51.081  1.00  0.00     0.000 C 
BRANCH  18  19
ATOM     19  C   UNL     1      53.852  54.735  50.646  1.00  0.00     0.000 C 
BRANCH  19  20
ATOM     20  C   UNL     1      54.897  54.394  51.724  1.00  0.00     0.000 C 
BRANCH  20  21
ATOM     21  C   UNL     1      56.043  53.524  51.182  1.00  0.00     0.000 C 
BRANCH  21  22
ATOM     22  C   UNL     1      55.940  53.282  49.668  1.00  0.00     0.000 C 
BRANCH  22  23
ATOM     23  C   UNL     1      56.254  51.819  49.317  1.00  0.00     0.000 C 
BRANCH  23  24
ATOM     24  C   UNL     1      55.267  51.224  48.297  1.00  0.00    -0.000 C 
BRANCH  24  25
ATOM     25  C   UNL     1      54.721  52.230  47.264  1.00  0.00    -0.000 C 
BRANCH  25  26
ATOM     26  C   UNL     1      53.228  52.584  47.416  1.00  0.00    -0.000 C 
BRANCH  26  27
ATOM     27  C   UNL     1      52.894  54.081  47.275  1.00  0.00    -0.000 C 
BRANCH  27  28
ATOM     28  C   UNL     1      54.064  54.905  46.712  1.00  0.00    -0.000 C 
BRANCH  28  29
ATOM     29  C   UNL     1      53.623  56.273  46.161  1.00  0.00    -0.000 C 
BRANCH  29  30
ATOM     30  C   UNL     1      53.440  56.335  44.633  1.00  0.00    -0.000 C 
BRANCH  30  31
ATOM     31  C   UNL     1      51.966  56.304  44.205  1.00  0.00    -0.003 C 
ATOM     32  C   UNL     1      51.051  56.694  45.363  1.00  0.00     0.004 C 
ENDBRANCH  30  31
ENDBRANCH  29  30
ENDBRANCH  28  29
ENDBRANCH  27  28
ENDBRANCH  26  27
ENDBRANCH  25  26
ENDBRANCH  24  25
ENDBRANCH  23  24
ENDBRANCH  22  23
ENDBRANCH  21  22
ENDBRANCH  20  21
ENDBRANCH  19  20
ENDBRANCH  18  19
ENDBRANCH   1  18
TORSDOF 28
ENDMDL
MODEL 9
REMARK VINA RESULT:    -3.005      1.846      4.475
REMARK INTER + INTRA:         -13.724
REMARK INTER:                  -7.708
REMARK INTRA:                  -6.016
REMARK UNBOUND:                -5.799
REMARK SMILES CCCCCCCCCCCCCCCCCCCCCCCCCCCCCC(=O)[O-]
REMARK SMILES IDX 16 1 17 2 18 3 19 4 20 5 21 6 22 7 23 8 24 9 25 10 26 11
REMARK SMILES IDX 27 12 28 13 29 14 30 15 31 16 32 17 15 18 14 19 13 20 12 21
REMARK SMILES IDX 11 22 10 23 9 24 8 25 7 26 6 27 5 28 4 29 3 30 2 31 1 32
REMARK H PARENT
REMARK Flexibility Score: inf
ROOT
ATOM      1  C   UNL     1      52.438  53.406  49.548  1.00  0.00     0.000 C 
ENDROOT
BRANCH   1   2
ATOM      2  C   UNL     1      52.000  52.959  50.951  1.00  0.00     0.000 C 
BRANCH   2   3
ATOM      3  C   UNL     1      52.940  53.462  52.058  1.00  0.00     0.000 C 
BRANCH   3   4
ATOM      4  C   UNL     1      54.208  54.083  51.455  1.00  0.00     0.000 C 
BRANCH   4   5
ATOM      5  C   UNL     1      55.464  53.239  51.725  1.00  0.00     0.000 C 
BRANCH   5   6
ATOM      6  C   UNL     1      56.179  52.810  50.432  1.00  0.00     0.000 C 
BRANCH   6   7
ATOM      7  C   UNL     1      56.409  51.285  50.374  1.00  0.00     0.000 C 
BRANCH   7   8
ATOM      8  C   UNL     1      55.685  50.593  49.206  1.00  0.00     0.000 C 
BRANCH   8   9
ATOM      9  C   UNL     1      54.688  49.520  49.675  1.00  0.00     0.000 C 
BRANCH   9  10
ATOM     10  C   UNL     1      53.961  49.913  50.977  1.00  0.00     0.000 C 
BRANCH  10  11
ATOM     11  C   UNL     1      52.817  48.959  51.370  1.00  0.00     0.000 C 
BRANCH  11  12
ATOM     12  C   UNL     1      53.140  47.991  52.520  1.00  0.00     0.000 C 
BRANCH  12  13
ATOM     13  C   UNL     1      52.908  46.518  52.140  1.00  0.00     0.006 C 
BRANCH  13  14
ATOM     14  C   UNL     1      52.742  46.328  50.625  1.00  0.00     0.053 C 
BRANCH  14  15
ATOM     15  C   UNL     1      53.803  45.441  50.047  1.00  0.00     0.041 C 
ATOM     16  O   UNL     1      54.783  45.940  49.431  1.00  0.00    -0.550 OA
ATOM     17  O   UNL     1      53.707  44.060  50.182  1.00  0.00    -0.550 OA
ENDBRANCH  14  15
ENDBRANCH  13  14
ENDBRANCH  12  13
ENDBRANCH  11  12
ENDBRANCH  10  11
ENDBRANCH   9  10
ENDBRANCH   8   9
ENDBRANCH   7   8
ENDBRANCH   6   7
ENDBRANCH   5   6
ENDBRANCH   4   5
ENDBRANCH   3   4
ENDBRANCH   2   3
ENDBRANCH   1   2
BRANCH   1  18
ATOM     18  C   UNL     1      52.378  52.265  48.517  1.00  0.00     0.000 C 
BRANCH  18  19
ATOM     19  C   UNL     1      53.192  52.568  47.250  1.00  0.00     0.000 C 
BRANCH  19  20
ATOM     20  C   UNL     1      54.300  53.609  47.490  1.00  0.00     0.000 C 
BRANCH  20  21
ATOM     21  C   UNL     1      55.579  53.307  46.693  1.00  0.00     0.000 C 
BRANCH  21  22
ATOM     22  C   UNL     1      56.725  54.276  47.019  1.00  0.00     0.000 C 
BRANCH  22  23
ATOM     23  C   UNL     1      56.218  55.486  47.819  1.00  0.00     0.000 C 
BRANCH  23  24
ATOM     24  C   UNL     1      56.528  56.828  47.133  1.00  0.00    -0.000 C 
BRANCH  24  25
ATOM     25  C   UNL     1      56.719  56.745  45.605  1.00  0.00    -0.000 C 
BRANCH  25  26
ATOM     26  C   UNL     1      55.495  57.162  44.766  1.00  0.00    -0.000 C 
BRANCH  26  27
ATOM     27  C   UNL     1      54.402  56.086  44.624  1.00  0.00    -0.000 C 
BRANCH  27  28
ATOM     28  C   UNL     1      52.980  56.656  44.754  1.00  0.00    -0.000 C 
BRANCH  28  29
ATOM     29  C   UNL     1      52.255  56.178  46.025  1.00  0.00    -0.000 C 
BRANCH  29  30
ATOM     30  C   UNL     1      52.748  56.815  47.338  1.00  0.00    -0.000 C 
BRANCH  30  31
ATOM     31  C   UNL     1      52.876  58.342  47.252  1.00  0.00    -0.003 C 
ATOM     32  C   UNL     1      53.769  58.882  48.366  1.00  0.00     0.004 C 
ENDBRANCH  30  31
ENDBRANCH  29  30
ENDBRANCH  28  29
ENDBRANCH  27  28
ENDBRANCH  26  27
ENDBRANCH  25  26
ENDBRANCH  24  25
ENDBRANCH  23  24
ENDBRANCH  22  23
ENDBRANCH  21  22
ENDBRANCH  20  21
ENDBRANCH  19  20
ENDBRANCH  18  19
ENDBRANCH   1  18
TORSDOF 28
ENDMDL
