MODEL 1
REMARK VINA RESULT:    -5.729      0.000      0.000
REMARK INTER + INTRA:          -7.141
REMARK INTER:                  -7.068
REMARK INTRA:                  -0.073
REMARK UNBOUND:                -0.073
REMARK SMILES O=c1c(O)c(-c2cc(O)c(O)c(O)c2)oc2cc(O)cc(O)c12
REMARK SMILES IDX 5 1 3 2 2 3 1 4 23 5 21 6 20 7 18 8 17 9 16 10 15 11 6 12
REMARK SMILES IDX 7 13 8 14 14 15 10 16 12 17 9 18 11 20 13 22 4 24 22 26
REMARK SMILES IDX 19 28
REMARK H PARENT 9 19 11 21 13 23 4 25 22 27 19 29
REMARK Flexibility Score: inf
ROOT
ATOM      1  C   UNL     1      40.847  40.545  48.506  1.00  0.00     0.180 A 
ATOM      2  C   UNL     1      41.297  41.736  49.109  1.00  0.00     0.208 A 
ATOM      3  C   UNL     1      42.531  41.733  49.776  1.00  0.00     0.238 A 
ATOM      4  O   UNL     1      42.950  42.796  50.311  1.00  0.00    -0.285 OA
ATOM      5  C   UNL     1      43.283  40.542  49.847  1.00  0.00     0.111 A 
ATOM      6  C   UNL     1      44.534  40.454  50.505  1.00  0.00     0.134 A 
ATOM      7  C   UNL     1      45.216  39.229  50.539  1.00  0.00     0.093 A 
ATOM      8  C   UNL     1      44.672  38.093  49.931  1.00  0.00     0.123 A 
ATOM      9  C   UNL     1      43.440  38.175  49.282  1.00  0.00     0.094 A 
ATOM     10  C   UNL     1      42.744  39.387  49.235  1.00  0.00     0.146 A 
ATOM     11  O   UNL     1      41.575  39.437  48.606  1.00  0.00    -0.452 OA
ENDROOT
BRANCH   1  12
ATOM     12  C   UNL     1      39.565  40.474  47.768  1.00  0.00     0.029 A 
ATOM     13  C   UNL     1      38.355  40.871  48.362  1.00  0.00     0.062 A 
ATOM     14  C   UNL     1      37.155  40.818  47.639  1.00  0.00     0.162 A 
ATOM     15  C   UNL     1      39.563  40.057  46.428  1.00  0.00     0.062 A 
ATOM     16  C   UNL     1      37.159  40.376  46.305  1.00  0.00     0.200 A 
ATOM     17  C   UNL     1      38.370  39.999  45.699  1.00  0.00     0.162 A 
BRANCH  14  18
ATOM     18  O   UNL     1      35.960  41.208  48.242  1.00  0.00    -0.504 OA
ATOM     19  H   UNL     1      35.925  41.964  48.915  1.00  0.00     0.293 HD
ENDBRANCH  14  18
BRANCH  16  20
ATOM     20  O   UNL     1      35.973  40.313  45.572  1.00  0.00    -0.502 OA
ATOM     21  H   UNL     1      35.757  39.534  44.962  1.00  0.00     0.293 HD
ENDBRANCH  16  20
BRANCH  17  22
ATOM     22  O   UNL     1      38.409  39.564  44.375  1.00  0.00    -0.504 OA
ATOM     23  H   UNL     1      37.668  39.005  43.970  1.00  0.00     0.293 HD
ENDBRANCH  17  22
ENDBRANCH   1  12
BRANCH   2  24
ATOM     24  O   UNL     1      40.510  42.890  49.066  1.00  0.00    -0.502 OA
ATOM     25  H   UNL     1      40.674  43.680  49.678  1.00  0.00     0.293 HD
ENDBRANCH   2  24
BRANCH   6  26
ATOM     26  O   UNL     1      45.102  41.570  51.121  1.00  0.00    -0.507 OA
ATOM     27  H   UNL     1      44.545  42.375  51.383  1.00  0.00     0.293 HD
ENDBRANCH   6  26
BRANCH   8  28
ATOM     28  O   UNL     1      45.350  36.875  49.967  1.00  0.00    -0.508 OA
ATOM     29  H   UNL     1      45.334  36.283  50.789  1.00  0.00     0.293 HD
ENDBRANCH   8  28
TORSDOF 7
ENDMDL
MODEL 2
REMARK VINA RESULT:    -5.378      1.263      2.940
REMARK INTER + INTRA:          -6.708
REMARK INTER:                  -6.461
REMARK INTRA:                  -0.247
REMARK UNBOUND:                -0.073
REMARK SMILES O=c1c(O)c(-c2cc(O)c(O)c(O)c2)oc2cc(O)cc(O)c12
REMARK SMILES IDX 5 1 3 2 2 3 1 4 23 5 21 6 20 7 18 8 17 9 16 10 15 11 6 12
REMARK SMILES IDX 7 13 8 14 14 15 10 16 12 17 9 18 11 20 13 22 4 24 22 26
REMARK SMILES IDX 19 28
REMARK H PARENT 9 19 11 21 13 23 4 25 22 27 19 29
REMARK Flexibility Score: inf
ROOT
ATOM      1  C   UNL     1      41.157  40.541  48.681  1.00  0.00     0.180 A 
ATOM      2  C   UNL     1      41.912  39.382  48.942  1.00  0.00     0.208 A 
ATOM      3  C   UNL     1      43.125  39.505  49.637  1.00  0.00     0.238 A 
ATOM      4  O   UNL     1      43.805  38.472  49.886  1.00  0.00    -0.285 OA
ATOM      5  C   UNL     1      43.571  40.781  50.040  1.00  0.00     0.111 A 
ATOM      6  C   UNL     1      44.783  40.991  50.741  1.00  0.00     0.134 A 
ATOM      7  C   UNL     1      45.162  42.293  51.099  1.00  0.00     0.093 A 
ATOM      8  C   UNL     1      44.353  43.387  50.770  1.00  0.00     0.123 A 
ATOM      9  C   UNL     1      43.158  43.184  50.080  1.00  0.00     0.094 A 
ATOM     10  C   UNL     1      42.761  41.894  49.715  1.00  0.00     0.146 A 
ATOM     11  O   UNL     1      41.615  41.729  49.063  1.00  0.00    -0.452 OA
ENDROOT
BRANCH   1  12
ATOM     12  C   UNL     1      39.858  40.490  47.970  1.00  0.00     0.029 A 
ATOM     13  C   UNL     1      38.651  40.774  48.630  1.00  0.00     0.062 A 
ATOM     14  C   UNL     1      37.435  40.744  47.934  1.00  0.00     0.162 A 
ATOM     15  C   UNL     1      39.836  40.210  46.595  1.00  0.00     0.062 A 
ATOM     16  C   UNL     1      37.419  40.439  46.562  1.00  0.00     0.200 A 
ATOM     17  C   UNL     1      38.627  40.176  45.892  1.00  0.00     0.162 A 
BRANCH  14  18
ATOM     18  O   UNL     1      36.242  41.020  48.601  1.00  0.00    -0.504 OA
ATOM     19  H   UNL     1      36.219  41.197  49.598  1.00  0.00     0.293 HD
ENDBRANCH  14  18
BRANCH  16  20
ATOM     20  O   UNL     1      36.217  40.400  45.855  1.00  0.00    -0.502 OA
ATOM     21  H   UNL     1      35.986  41.085  45.146  1.00  0.00     0.293 HD
ENDBRANCH  16  20
BRANCH  17  22
ATOM     22  O   UNL     1      38.645  39.879  44.530  1.00  0.00    -0.504 OA
ATOM     23  H   UNL     1      39.428  40.122  43.936  1.00  0.00     0.293 HD
ENDBRANCH  17  22
ENDBRANCH   1  12
BRANCH   2  24
ATOM     24  O   UNL     1      41.472  38.135  48.488  1.00  0.00    -0.502 OA
ATOM     25  H   UNL     1      41.587  37.289  49.033  1.00  0.00     0.293 HD
ENDBRANCH   2  24
BRANCH   6  26
ATOM     26  O   UNL     1      45.611  39.921  51.082  1.00  0.00    -0.507 OA
ATOM     27  H   UNL     1      46.608  40.041  51.218  1.00  0.00     0.293 HD
ENDBRANCH   6  26
BRANCH   8  28
ATOM     28  O   UNL     1      44.730  44.681  51.125  1.00  0.00    -0.508 OA
ATOM     29  H   UNL     1      44.343  45.141  51.941  1.00  0.00     0.293 HD
ENDBRANCH   8  28
TORSDOF 7
ENDMDL
MODEL 3
REMARK VINA RESULT:    -5.347     13.132     15.602
REMARK INTER + INTRA:          -6.671
REMARK INTER:                  -6.356
REMARK INTRA:                  -0.315
REMARK UNBOUND:                -0.073
REMARK SMILES O=c1c(O)c(-c2cc(O)c(O)c(O)c2)oc2cc(O)cc(O)c12
REMARK SMILES IDX 5 1 3 2 2 3 1 4 23 5 21 6 20 7 18 8 17 9 16 10 15 11 6 12
REMARK SMILES IDX 7 13 8 14 14 15 10 16 12 17 9 18 11 20 13 22 4 24 22 26
REMARK SMILES IDX 19 28
REMARK H PARENT 9 19 11 21 13 23 4 25 22 27 19 29
REMARK Flexibility Score: inf
ROOT
ATOM      1  C   UNL     1      42.632  54.140  45.740  1.00  0.00     0.180 A 
ATOM      2  C   UNL     1      43.751  54.827  45.231  1.00  0.00     0.208 A 
ATOM      3  C   UNL     1      43.692  55.351  43.930  1.00  0.00     0.238 A 
ATOM      4  O   UNL     1      44.683  55.978  43.468  1.00  0.00    -0.285 OA
ATOM      5  C   UNL     1      42.528  55.163  43.156  1.00  0.00     0.111 A 
ATOM      6  C   UNL     1      42.389  55.656  41.836  1.00  0.00     0.134 A 
ATOM      7  C   UNL     1      41.202  55.419  41.127  1.00  0.00     0.093 A 
ATOM      8  C   UNL     1      40.154  54.700  41.712  1.00  0.00     0.123 A 
ATOM      9  C   UNL     1      40.286  54.213  43.013  1.00  0.00     0.094 A 
ATOM     10  C   UNL     1      41.461  54.440  43.737  1.00  0.00     0.146 A 
ATOM     11  O   UNL     1      41.557  53.970  44.976  1.00  0.00    -0.452 OA
ENDROOT
BRANCH   1  12
ATOM     12  C   UNL     1      42.612  53.576  47.109  1.00  0.00     0.029 A 
ATOM     13  C   UNL     1      43.282  52.380  47.418  1.00  0.00     0.062 A 
ATOM     14  C   UNL     1      43.271  51.875  48.725  1.00  0.00     0.162 A 
ATOM     15  C   UNL     1      41.961  54.279  48.135  1.00  0.00     0.062 A 
ATOM     16  C   UNL     1      42.596  52.572  49.742  1.00  0.00     0.200 A 
ATOM     17  C   UNL     1      41.944  53.781  49.442  1.00  0.00     0.162 A 
BRANCH  14  18
ATOM     18  O   UNL     1      43.933  50.683  49.019  1.00  0.00    -0.504 OA
ATOM     19  H   UNL     1      43.588  50.043  49.723  1.00  0.00     0.293 HD
ENDBRANCH  14  18
BRANCH  16  20
ATOM     20  O   UNL     1      42.571  52.082  51.048  1.00  0.00    -0.502 OA
ATOM     21  H   UNL     1      41.798  52.262  51.677  1.00  0.00     0.293 HD
ENDBRANCH  16  20
BRANCH  17  22
ATOM     22  O   UNL     1      41.272  54.501  50.430  1.00  0.00    -0.504 OA
ATOM     23  H   UNL     1      40.341  54.872  50.287  1.00  0.00     0.293 HD
ENDBRANCH  17  22
ENDBRANCH   1  12
BRANCH   2  24
ATOM     24  O   UNL     1      44.910  54.957  46.001  1.00  0.00    -0.502 OA
ATOM     25  H   UNL     1      45.639  54.254  46.006  1.00  0.00     0.293 HD
ENDBRANCH   2  24
BRANCH   6  26
ATOM     26  O   UNL     1      43.417  56.375  41.225  1.00  0.00    -0.507 OA
ATOM     27  H   UNL     1      43.731  57.268  41.587  1.00  0.00     0.293 HD
ENDBRANCH   6  26
BRANCH   8  28
ATOM     28  O   UNL     1      38.974  54.464  41.008  1.00  0.00    -0.508 OA
ATOM     29  H   UNL     1      38.906  54.643  40.013  1.00  0.00     0.293 HD
ENDBRANCH   8  28
TORSDOF 7
ENDMDL
MODEL 4
REMARK VINA RESULT:    -5.284     13.184     15.571
REMARK INTER + INTRA:          -6.593
REMARK INTER:                  -6.274
REMARK INTRA:                  -0.319
REMARK UNBOUND:                -0.073
REMARK SMILES O=c1c(O)c(-c2cc(O)c(O)c(O)c2)oc2cc(O)cc(O)c12
REMARK SMILES IDX 5 1 3 2 2 3 1 4 23 5 21 6 20 7 18 8 17 9 16 10 15 11 6 12
REMARK SMILES IDX 7 13 8 14 14 15 10 16 12 17 9 18 11 20 13 22 4 24 22 26
REMARK SMILES IDX 19 28
REMARK H PARENT 9 19 11 21 13 23 4 25 22 27 19 29
REMARK Flexibility Score: inf
ROOT
ATOM      1  C   UNL     1      42.648  54.236  45.731  1.00  0.00     0.180 A 
ATOM      2  C   UNL     1      43.768  54.904  45.197  1.00  0.00     0.208 A 
ATOM      3  C   UNL     1      43.702  55.395  43.884  1.00  0.00     0.238 A 
ATOM      4  O   UNL     1      44.694  56.004  43.400  1.00  0.00    -0.285 OA
ATOM      5  C   UNL     1      42.532  55.194  43.123  1.00  0.00     0.111 A 
ATOM      6  C   UNL     1      42.387  55.654  41.791  1.00  0.00     0.134 A 
ATOM      7  C   UNL     1      41.194  55.406  41.097  1.00  0.00     0.093 A 
ATOM      8  C   UNL     1      40.146  54.708  41.707  1.00  0.00     0.123 A 
ATOM      9  C   UNL     1      40.284  54.254  43.019  1.00  0.00     0.094 A 
ATOM     10  C   UNL     1      41.465  54.492  43.729  1.00  0.00     0.146 A 
ATOM     11  O   UNL     1      41.568  54.052  44.979  1.00  0.00    -0.452 OA
ENDROOT
BRANCH   1  12
ATOM     12  C   UNL     1      42.634  53.706  47.114  1.00  0.00     0.029 A 
ATOM     13  C   UNL     1      41.946  54.368  48.144  1.00  0.00     0.062 A 
ATOM     14  C   UNL     1      41.924  53.839  49.442  1.00  0.00     0.162 A 
ATOM     15  C   UNL     1      43.272  52.487  47.392  1.00  0.00     0.062 A 
ATOM     16  C   UNL     1      42.586  52.630  49.717  1.00  0.00     0.200 A 
ATOM     17  C   UNL     1      43.258  51.952  48.684  1.00  0.00     0.162 A 
BRANCH  14  18
ATOM     18  O   UNL     1      41.243  54.508  50.458  1.00  0.00    -0.504 OA
ATOM     19  H   UNL     1      40.642  54.017  51.108  1.00  0.00     0.293 HD
ENDBRANCH  14  18
BRANCH  16  20
ATOM     20  O   UNL     1      42.579  52.090  51.004  1.00  0.00    -0.502 OA
ATOM     21  H   UNL     1      43.327  52.261  51.664  1.00  0.00     0.293 HD
ENDBRANCH  16  20
BRANCH  17  22
ATOM     22  O   UNL     1      43.916  50.747  48.923  1.00  0.00    -0.504 OA
ATOM     23  H   UNL     1      43.498  50.003  49.467  1.00  0.00     0.293 HD
ENDBRANCH  17  22
ENDBRANCH   1  12
BRANCH   2  24
ATOM     24  O   UNL     1      44.933  55.046  45.956  1.00  0.00    -0.502 OA
ATOM     25  H   UNL     1      45.227  55.939  46.335  1.00  0.00     0.293 HD
ENDBRANCH   2  24
BRANCH   6  26
ATOM     26  O   UNL     1      43.415  56.352  41.156  1.00  0.00    -0.507 OA
ATOM     27  H   UNL     1      43.496  56.379  40.146  1.00  0.00     0.293 HD
ENDBRANCH   6  26
BRANCH   8  28
ATOM     28  O   UNL     1      38.961  54.461  41.016  1.00  0.00    -0.508 OA
ATOM     29  H   UNL     1      38.259  55.182  40.892  1.00  0.00     0.293 HD
ENDBRANCH   8  28
TORSDOF 7
ENDMDL
MODEL 5
REMARK VINA RESULT:    -5.240      1.401      7.035
REMARK INTER + INTRA:          -6.538
REMARK INTER:                  -6.304
REMARK INTRA:                  -0.235
REMARK UNBOUND:                -0.073
REMARK SMILES O=c1c(O)c(-c2cc(O)c(O)c(O)c2)oc2cc(O)cc(O)c12
REMARK SMILES IDX 5 1 3 2 2 3 1 4 23 5 21 6 20 7 18 8 17 9 16 10 15 11 6 12
REMARK SMILES IDX 7 13 8 14 14 15 10 16 12 17 9 18 11 20 13 22 4 24 22 26
REMARK SMILES IDX 19 28
REMARK H PARENT 9 19 11 21 13 23 4 25 22 27 19 29
REMARK Flexibility Score: inf
ROOT
ATOM      1  C   UNL     1      40.845  41.314  49.085  1.00  0.00     0.180 A 
ATOM      2  C   UNL     1      39.701  41.651  49.834  1.00  0.00     0.208 A 
ATOM      3  C   UNL     1      38.435  41.479  49.254  1.00  0.00     0.238 A 
ATOM      4  O   UNL     1      37.403  41.767  49.919  1.00  0.00    -0.285 OA
ATOM      5  C   UNL     1      38.333  40.996  47.933  1.00  0.00     0.111 A 
ATOM      6  C   UNL     1      37.096  40.799  47.274  1.00  0.00     0.134 A 
ATOM      7  C   UNL     1      37.079  40.323  45.955  1.00  0.00     0.093 A 
ATOM      8  C   UNL     1      38.274  40.042  45.283  1.00  0.00     0.123 A 
ATOM      9  C   UNL     1      39.496  40.233  45.929  1.00  0.00     0.094 A 
ATOM     10  C   UNL     1      39.534  40.706  47.244  1.00  0.00     0.146 A 
ATOM     11  O   UNL     1      40.711  40.874  47.837  1.00  0.00    -0.452 OA
ENDROOT
BRANCH   1  12
ATOM     12  C   UNL     1      42.213  41.448  49.635  1.00  0.00     0.029 A 
ATOM     13  C   UNL     1      43.011  40.321  49.895  1.00  0.00     0.062 A 
ATOM     14  C   UNL     1      44.313  40.470  50.393  1.00  0.00     0.162 A 
ATOM     15  C   UNL     1      42.749  42.728  49.846  1.00  0.00     0.062 A 
ATOM     16  C   UNL     1      44.833  41.755  50.625  1.00  0.00     0.200 A 
ATOM     17  C   UNL     1      44.046  42.886  50.345  1.00  0.00     0.162 A 
BRANCH  14  18
ATOM     18  O   UNL     1      45.093  39.345  50.655  1.00  0.00    -0.504 OA
ATOM     19  H   UNL     1      45.170  38.585  49.990  1.00  0.00     0.293 HD
ENDBRANCH  14  18
BRANCH  16  20
ATOM     20  O   UNL     1      46.125  41.922  51.125  1.00  0.00    -0.502 OA
ATOM     21  H   UNL     1      46.712  41.136  51.373  1.00  0.00     0.293 HD
ENDBRANCH  16  20
BRANCH  17  22
ATOM     22  O   UNL     1      44.536  44.175  50.556  1.00  0.00    -0.504 OA
ATOM     23  H   UNL     1      45.522  44.394  50.491  1.00  0.00     0.293 HD
ENDBRANCH  17  22
ENDBRANCH   1  12
BRANCH   2  24
ATOM     24  O   UNL     1      39.831  42.174  51.124  1.00  0.00    -0.502 OA
ATOM     25  H   UNL     1      39.563  43.123  51.353  1.00  0.00     0.293 HD
ENDBRANCH   2  24
BRANCH   6  26
ATOM     26  O   UNL     1      35.888  41.072  47.917  1.00  0.00    -0.507 OA
ATOM     27  H   UNL     1      35.646  42.008  48.221  1.00  0.00     0.293 HD
ENDBRANCH   6  26
BRANCH   8  28
ATOM     28  O   UNL     1      38.257  39.569  43.972  1.00  0.00    -0.508 OA
ATOM     29  H   UNL     1      37.413  39.199  43.552  1.00  0.00     0.293 HD
ENDBRANCH   8  28
TORSDOF 7
ENDMDL
MODEL 6
REMARK VINA RESULT:    -5.177     13.325     14.840
REMARK INTER + INTRA:          -6.461
REMARK INTER:                  -6.171
REMARK INTRA:                  -0.290
REMARK UNBOUND:                -0.073
REMARK SMILES O=c1c(O)c(-c2cc(O)c(O)c(O)c2)oc2cc(O)cc(O)c12
REMARK SMILES IDX 5 1 3 2 2 3 1 4 23 5 21 6 20 7 18 8 17 9 16 10 15 11 6 12
REMARK SMILES IDX 7 13 8 14 14 15 10 16 12 17 9 18 11 20 13 22 4 24 22 26
REMARK SMILES IDX 19 28
REMARK H PARENT 9 19 11 21 13 23 4 25 22 27 19 29
REMARK Flexibility Score: inf
ROOT
ATOM      1  C   UNL     1      41.674  54.660  45.471  1.00  0.00     0.180 A 
ATOM      2  C   UNL     1      40.973  55.459  46.395  1.00  0.00     0.208 A 
ATOM      3  C   UNL     1      41.067  55.155  47.762  1.00  0.00     0.238 A 
ATOM      4  O   UNL     1      40.453  55.869  48.600  1.00  0.00    -0.285 OA
ATOM      5  C   UNL     1      41.840  54.051  48.179  1.00  0.00     0.111 A 
ATOM      6  C   UNL     1      41.982  53.674  49.537  1.00  0.00     0.134 A 
ATOM      7  C   UNL     1      42.761  52.556  49.870  1.00  0.00     0.093 A 
ATOM      8  C   UNL     1      43.398  51.809  48.873  1.00  0.00     0.123 A 
ATOM      9  C   UNL     1      43.260  52.176  47.534  1.00  0.00     0.094 A 
ATOM     10  C   UNL     1      42.490  53.288  47.181  1.00  0.00     0.146 A 
ATOM     11  O   UNL     1      42.380  53.618  45.899  1.00  0.00    -0.452 OA
ENDROOT
BRANCH   1  12
ATOM     12  C   UNL     1      41.640  54.930  44.015  1.00  0.00     0.029 A 
ATOM     13  C   UNL     1      40.502  54.638  43.243  1.00  0.00     0.062 A 
ATOM     14  C   UNL     1      40.480  54.922  41.871  1.00  0.00     0.162 A 
ATOM     15  C   UNL     1      42.742  55.543  43.401  1.00  0.00     0.062 A 
ATOM     16  C   UNL     1      41.599  55.515  41.259  1.00  0.00     0.200 A 
ATOM     17  C   UNL     1      42.730  55.829  42.032  1.00  0.00     0.162 A 
BRANCH  14  18
ATOM     18  O   UNL     1      39.349  54.622  41.113  1.00  0.00    -0.504 OA
ATOM     19  H   UNL     1      38.513  54.237  41.536  1.00  0.00     0.293 HD
ENDBRANCH  14  18
BRANCH  16  20
ATOM     20  O   UNL     1      41.596  55.801  39.894  1.00  0.00    -0.502 OA
ATOM     21  H   UNL     1      41.734  56.739  39.539  1.00  0.00     0.293 HD
ENDBRANCH  16  20
BRANCH  17  22
ATOM     22  O   UNL     1      43.852  56.425  41.457  1.00  0.00    -0.504 OA
ATOM     23  H   UNL     1      44.789  56.254  41.801  1.00  0.00     0.293 HD
ENDBRANCH  17  22
ENDBRANCH   1  12
BRANCH   2  24
ATOM     24  O   UNL     1      40.176  56.518  45.952  1.00  0.00    -0.502 OA
ATOM     25  H   UNL     1      39.469  56.946  46.538  1.00  0.00     0.293 HD
ENDBRANCH   2  24
BRANCH   6  26
ATOM     26  O   UNL     1      41.358  54.399  50.553  1.00  0.00    -0.507 OA
ATOM     27  H   UNL     1      41.883  55.001  51.177  1.00  0.00     0.293 HD
ENDBRANCH   6  26
BRANCH   8  28
ATOM     28  O   UNL     1      44.171  50.697  49.204  1.00  0.00    -0.508 OA
ATOM     29  H   UNL     1      44.047  49.807  48.737  1.00  0.00     0.293 HD
ENDBRANCH   8  28
TORSDOF 7
ENDMDL
MODEL 7
REMARK VINA RESULT:    -5.148     13.341     14.893
REMARK INTER + INTRA:          -6.424
REMARK INTER:                  -6.124
REMARK INTRA:                  -0.300
REMARK UNBOUND:                -0.073
REMARK SMILES O=c1c(O)c(-c2cc(O)c(O)c(O)c2)oc2cc(O)cc(O)c12
REMARK SMILES IDX 5 1 3 2 2 3 1 4 23 5 21 6 20 7 18 8 17 9 16 10 15 11 6 12
REMARK SMILES IDX 7 13 8 14 14 15 10 16 12 17 9 18 11 20 13 22 4 24 22 26
REMARK SMILES IDX 19 28
REMARK H PARENT 9 19 11 21 13 23 4 25 22 27 19 29
REMARK Flexibility Score: inf
ROOT
ATOM      1  C   UNL     1      41.663  54.736  45.512  1.00  0.00     0.180 A 
ATOM      2  C   UNL     1      40.951  55.524  46.436  1.00  0.00     0.208 A 
ATOM      3  C   UNL     1      41.021  55.200  47.800  1.00  0.00     0.238 A 
ATOM      4  O   UNL     1      40.396  55.905  48.638  1.00  0.00    -0.285 OA
ATOM      5  C   UNL     1      41.784  54.088  48.214  1.00  0.00     0.111 A 
ATOM      6  C   UNL     1      41.903  53.692  49.568  1.00  0.00     0.134 A 
ATOM      7  C   UNL     1      42.673  52.567  49.897  1.00  0.00     0.093 A 
ATOM      8  C   UNL     1      43.323  51.831  48.901  1.00  0.00     0.123 A 
ATOM      9  C   UNL     1      43.209  52.218  47.565  1.00  0.00     0.094 A 
ATOM     10  C   UNL     1      42.447  53.337  47.215  1.00  0.00     0.146 A 
ATOM     11  O   UNL     1      42.360  53.686  45.936  1.00  0.00    -0.452 OA
ENDROOT
BRANCH   1  12
ATOM     12  C   UNL     1      41.653  55.026  44.059  1.00  0.00     0.029 A 
ATOM     13  C   UNL     1      42.765  55.600  43.420  1.00  0.00     0.062 A 
ATOM     14  C   UNL     1      42.746  55.845  42.040  1.00  0.00     0.162 A 
ATOM     15  C   UNL     1      40.534  54.668  43.292  1.00  0.00     0.062 A 
ATOM     16  C   UNL     1      41.611  55.505  41.284  1.00  0.00     0.200 A 
ATOM     17  C   UNL     1      40.505  54.910  41.915  1.00  0.00     0.162 A 
BRANCH  14  18
ATOM     18  O   UNL     1      43.852  56.421  41.418  1.00  0.00    -0.504 OA
ATOM     19  H   UNL     1      43.853  57.391  41.127  1.00  0.00     0.293 HD
ENDBRANCH  14  18
BRANCH  16  20
ATOM     20  O   UNL     1      41.572  55.746  39.910  1.00  0.00    -0.502 OA
ATOM     21  H   UNL     1      40.810  55.421  39.327  1.00  0.00     0.293 HD
ENDBRANCH  16  20
BRANCH  17  22
ATOM     22  O   UNL     1      39.368  54.553  41.191  1.00  0.00    -0.504 OA
ATOM     23  H   UNL     1      39.281  53.655  40.733  1.00  0.00     0.293 HD
ENDBRANCH  17  22
ENDBRANCH   1  12
BRANCH   2  24
ATOM     24  O   UNL     1      40.164  56.592  45.995  1.00  0.00    -0.502 OA
ATOM     25  H   UNL     1      40.154  56.894  45.029  1.00  0.00     0.293 HD
ENDBRANCH   2  24
BRANCH   6  26
ATOM     26  O   UNL     1      41.265  54.405  50.584  1.00  0.00    -0.507 OA
ATOM     27  H   UNL     1      40.905  53.945  51.412  1.00  0.00     0.293 HD
ENDBRANCH   6  26
BRANCH   8  28
ATOM     28  O   UNL     1      44.087  50.713  49.228  1.00  0.00    -0.508 OA
ATOM     29  H   UNL     1      44.845  50.766  49.899  1.00  0.00     0.293 HD
ENDBRANCH   8  28
TORSDOF 7
ENDMDL
MODEL 8
REMARK VINA RESULT:    -4.900     13.165     14.948
REMARK INTER + INTRA:          -6.118
REMARK INTER:                  -5.754
REMARK INTRA:                  -0.364
REMARK UNBOUND:                -0.073
REMARK SMILES O=c1c(O)c(-c2cc(O)c(O)c(O)c2)oc2cc(O)cc(O)c12
REMARK SMILES IDX 5 1 3 2 2 3 1 4 23 5 21 6 20 7 18 8 17 9 16 10 15 11 6 12
REMARK SMILES IDX 7 13 8 14 14 15 10 16 12 17 9 18 11 20 13 22 4 24 22 26
REMARK SMILES IDX 19 28
REMARK H PARENT 9 19 11 21 13 23 4 25 22 27 19 29
REMARK Flexibility Score: inf
ROOT
ATOM      1  C   UNL     1      42.060  54.169  45.917  1.00  0.00     0.180 A 
ATOM      2  C   UNL     1      42.770  53.049  46.390  1.00  0.00     0.208 A 
ATOM      3  C   UNL     1      42.895  52.861  47.775  1.00  0.00     0.238 A 
ATOM      4  O   UNL     1      43.520  51.856  48.211  1.00  0.00    -0.285 OA
ATOM      5  C   UNL     1      42.329  53.802  48.660  1.00  0.00     0.111 A 
ATOM      6  C   UNL     1      42.414  53.687  50.069  1.00  0.00     0.134 A 
ATOM      7  C   UNL     1      41.832  54.671  50.882  1.00  0.00     0.093 A 
ATOM      8  C   UNL     1      41.168  55.764  50.315  1.00  0.00     0.123 A 
ATOM      9  C   UNL     1      41.081  55.880  48.927  1.00  0.00     0.094 A 
ATOM     10  C   UNL     1      41.654  54.910  48.099  1.00  0.00     0.146 A 
ATOM     11  O   UNL     1      41.551  55.043  46.781  1.00  0.00    -0.452 OA
ENDROOT
BRANCH   1  12
ATOM     12  C   UNL     1      41.868  54.426  44.471  1.00  0.00     0.029 A 
ATOM     13  C   UNL     1      40.733  53.956  43.789  1.00  0.00     0.062 A 
ATOM     14  C   UNL     1      40.558  54.230  42.425  1.00  0.00     0.162 A 
ATOM     15  C   UNL     1      42.809  55.203  43.778  1.00  0.00     0.062 A 
ATOM     16  C   UNL     1      41.518  54.988  41.733  1.00  0.00     0.200 A 
ATOM     17  C   UNL     1      42.644  55.479  42.417  1.00  0.00     0.162 A 
BRANCH  14  18
ATOM     18  O   UNL     1      39.431  53.753  41.756  1.00  0.00    -0.504 OA
ATOM     19  H   UNL     1      39.100  52.805  41.883  1.00  0.00     0.293 HD
ENDBRANCH  14  18
BRANCH  16  20
ATOM     20  O   UNL     1      41.362  55.266  40.374  1.00  0.00    -0.502 OA
ATOM     21  H   UNL     1      41.542  54.573  39.658  1.00  0.00     0.293 HD
ENDBRANCH  16  20
BRANCH  17  22
ATOM     22  O   UNL     1      43.609  56.242  41.761  1.00  0.00    -0.504 OA
ATOM     23  H   UNL     1      43.508  56.522  40.793  1.00  0.00     0.293 HD
ENDBRANCH  17  22
ENDBRANCH   1  12
BRANCH   2  24
ATOM     24  O   UNL     1      43.363  52.158  45.491  1.00  0.00    -0.502 OA
ATOM     25  H   UNL     1      44.023  51.449  45.787  1.00  0.00     0.293 HD
ENDBRANCH   2  24
BRANCH   6  26
ATOM     26  O   UNL     1      43.070  52.609  50.665  1.00  0.00    -0.507 OA
ATOM     27  H   UNL     1      44.072  52.613  50.816  1.00  0.00     0.293 HD
ENDBRANCH   6  26
BRANCH   8  28
ATOM     28  O   UNL     1      40.591  56.742  51.123  1.00  0.00    -0.508 OA
ATOM     29  H   UNL     1      40.718  57.729  50.934  1.00  0.00     0.293 HD
ENDBRANCH   8  28
TORSDOF 7
ENDMDL
MODEL 9
REMARK VINA RESULT:    -4.893     12.359     15.200
REMARK INTER + INTRA:          -6.110
REMARK INTER:                  -5.825
REMARK INTRA:                  -0.285
REMARK UNBOUND:                -0.073
REMARK SMILES O=c1c(O)c(-c2cc(O)c(O)c(O)c2)oc2cc(O)cc(O)c12
REMARK SMILES IDX 5 1 3 2 2 3 1 4 23 5 21 6 20 7 18 8 17 9 16 10 15 11 6 12
REMARK SMILES IDX 7 13 8 14 14 15 10 16 12 17 9 18 11 20 13 22 4 24 22 26
REMARK SMILES IDX 19 28
REMARK H PARENT 9 19 11 21 13 23 4 25 22 27 19 29
REMARK Flexibility Score: inf
ROOT
ATOM      1  C   UNL     1      42.313  53.799  47.294  1.00  0.00     0.180 A 
ATOM      2  C   UNL     1      41.275  54.646  47.727  1.00  0.00     0.208 A 
ATOM      3  C   UNL     1      40.430  55.227  46.768  1.00  0.00     0.238 A 
ATOM      4  O   UNL     1      39.490  55.979  47.144  1.00  0.00    -0.285 OA
ATOM      5  C   UNL     1      40.649  54.970  45.399  1.00  0.00     0.111 A 
ATOM      6  C   UNL     1      39.846  55.520  44.370  1.00  0.00     0.134 A 
ATOM      7  C   UNL     1      40.135  55.223  43.030  1.00  0.00     0.093 A 
ATOM      8  C   UNL     1      41.209  54.389  42.700  1.00  0.00     0.123 A 
ATOM      9  C   UNL     1      42.002  53.844  43.710  1.00  0.00     0.094 A 
ATOM     10  C   UNL     1      41.730  54.127  45.052  1.00  0.00     0.146 A 
ATOM     11  O   UNL     1      42.499  53.590  45.994  1.00  0.00    -0.452 OA
ENDROOT
BRANCH   1  12
ATOM     12  C   UNL     1      43.233  53.134  48.246  1.00  0.00     0.029 A 
ATOM     13  C   UNL     1      43.150  51.754  48.500  1.00  0.00     0.062 A 
ATOM     14  C   UNL     1      44.045  51.139  49.386  1.00  0.00     0.162 A 
ATOM     15  C   UNL     1      44.246  53.883  48.864  1.00  0.00     0.062 A 
ATOM     16  C   UNL     1      45.042  51.901  50.019  1.00  0.00     0.200 A 
ATOM     17  C   UNL     1      45.142  53.278  49.751  1.00  0.00     0.162 A 
BRANCH  14  18
ATOM     18  O   UNL     1      43.950  49.770  49.636  1.00  0.00    -0.504 OA
ATOM     19  H   UNL     1      44.585  49.107  49.211  1.00  0.00     0.293 HD
ENDBRANCH  14  18
BRANCH  16  20
ATOM     20  O   UNL     1      45.938  51.306  50.908  1.00  0.00    -0.502 OA
ATOM     21  H   UNL     1      45.955  50.306  51.067  1.00  0.00     0.293 HD
ENDBRANCH  16  20
BRANCH  17  22
ATOM     22  O   UNL     1      46.125  54.060  50.357  1.00  0.00    -0.504 OA
ATOM     23  H   UNL     1      46.468  53.867  51.290  1.00  0.00     0.293 HD
ENDBRANCH  17  22
ENDBRANCH   1  12
BRANCH   2  24
ATOM     24  O   UNL     1      41.110  54.924  49.086  1.00  0.00    -0.502 OA
ATOM     25  H   UNL     1      41.747  55.521  49.599  1.00  0.00     0.293 HD
ENDBRANCH   2  24
BRANCH   6  26
ATOM     26  O   UNL     1      38.770  56.356  44.668  1.00  0.00    -0.507 OA
ATOM     27  H   UNL     1      38.906  57.314  44.968  1.00  0.00     0.293 HD
ENDBRANCH   6  26
BRANCH   8  28
ATOM     28  O   UNL     1      41.496  54.095  41.368  1.00  0.00    -0.508 OA
ATOM     29  H   UNL     1      41.810  53.174  41.084  1.00  0.00     0.293 HD
ENDBRANCH   8  28
TORSDOF 7
ENDMDL
