MODEL 1
REMARK VINA RESULT:    -4.173      0.000      0.000
REMARK INTER + INTRA:          -4.606
REMARK INTER:                  -4.783
REMARK INTRA:                   0.177
REMARK UNBOUND:                 0.177
REMARK SMILES CC(C)[C@H]([NH3+])C(=O)[O-]
REMARK SMILES IDX 4 1 5 2 6 6 7 7 8 8 2 9 1 10 3 11
REMARK H PARENT 5 3 5 4 5 5
REMARK Flexibility Score: inf
ROOT
ATOM      1  C   UNL     1      79.163  -0.850  25.128  1.00  0.00     0.230 C 
ENDROOT
BRANCH   1   2
ATOM      2  N   UNL     1      79.639   0.521  25.365  1.00  0.00    -0.350 N 
ATOM      3  H   UNL     1      80.521   0.699  24.834  1.00  0.00     0.345 HD
ATOM      4  H   UNL     1      78.922   1.201  25.020  1.00  0.00     0.345 HD
ATOM      5  H   UNL     1      79.801   0.700  26.381  1.00  0.00     0.345 HD
ENDBRANCH   1   2
BRANCH   1   6
ATOM      6  C   UNL     1      78.022  -0.859  24.141  1.00  0.00     0.099 C 
ATOM      7  O   UNL     1      77.546   0.229  23.722  1.00  0.00    -0.544 OA
ATOM      8  O   UNL     1      77.518  -2.058  23.648  1.00  0.00    -0.544 OA
ENDBRANCH   1   6
BRANCH   1   9
ATOM      9  C   UNL     1      78.766  -1.592  26.440  1.00  0.00     0.047 C 
ATOM     10  C   UNL     1      79.308  -3.028  26.525  1.00  0.00     0.014 C 
ATOM     11  C   UNL     1      77.246  -1.586  26.666  1.00  0.00     0.014 C 
ENDBRANCH   1   9
TORSDOF 3
ENDMDL
MODEL 2
REMARK VINA RESULT:    -4.107      2.326      3.339
REMARK INTER + INTRA:          -4.530
REMARK INTER:                  -4.739
REMARK INTRA:                   0.209
REMARK UNBOUND:                 0.177
REMARK SMILES CC(C)[C@H]([NH3+])C(=O)[O-]
REMARK SMILES IDX 4 1 5 2 6 6 7 7 8 8 2 9 1 10 3 11
REMARK H PARENT 5 3 5 4 5 5
REMARK Flexibility Score: inf
ROOT
ATOM      1  C   UNL     1      77.673  -1.714  25.987  1.00  0.00     0.230 C 
ENDROOT
BRANCH   1   2
ATOM      2  N   UNL     1      77.004  -1.438  27.268  1.00  0.00    -0.350 N 
ATOM      3  H   UNL     1      76.511  -2.292  27.613  1.00  0.00     0.345 HD
ATOM      4  H   UNL     1      77.722  -1.177  27.984  1.00  0.00     0.345 HD
ATOM      5  H   UNL     1      76.322  -0.651  27.182  1.00  0.00     0.345 HD
ENDBRANCH   1   2
BRANCH   1   6
ATOM      6  C   UNL     1      78.912  -2.548  26.198  1.00  0.00     0.099 C 
ATOM      7  O   UNL     1      79.264  -2.866  27.365  1.00  0.00    -0.544 OA
ATOM      8  O   UNL     1      79.650  -3.012  25.114  1.00  0.00    -0.544 OA
ENDBRANCH   1   6
BRANCH   1   9
ATOM      9  C   UNL     1      78.006  -0.420  25.184  1.00  0.00     0.047 C 
ATOM     10  C   UNL     1      77.654  -0.515  23.690  1.00  0.00     0.014 C 
ATOM     11  C   UNL     1      79.474   0.001  25.356  1.00  0.00     0.014 C 
ENDBRANCH   1   9
TORSDOF 3
ENDMDL
MODEL 3
REMARK VINA RESULT:    -3.996      1.928      2.752
REMARK INTER + INTRA:          -4.403
REMARK INTER:                  -4.509
REMARK INTRA:                   0.106
REMARK UNBOUND:                 0.177
REMARK SMILES CC(C)[C@H]([NH3+])C(=O)[O-]
REMARK SMILES IDX 4 1 5 2 6 6 7 7 8 8 2 9 1 10 3 11
REMARK H PARENT 5 3 5 4 5 5
REMARK Flexibility Score: inf
ROOT
ATOM      1  C   UNL     1      78.953  -0.754  26.161  1.00  0.00     0.230 C 
ENDROOT
BRANCH   1   2
ATOM      2  N   UNL     1      79.789   0.154  25.360  1.00  0.00    -0.350 N 
ATOM      3  H   UNL     1      79.462   1.141  25.466  1.00  0.00     0.345 HD
ATOM      4  H   UNL     1      80.777   0.111  25.705  1.00  0.00     0.345 HD
ATOM      5  H   UNL     1      79.781  -0.109  24.349  1.00  0.00     0.345 HD
ENDBRANCH   1   2
BRANCH   1   6
ATOM      6  C   UNL     1      79.446  -2.175  26.047  1.00  0.00     0.099 C 
ATOM      7  O   UNL     1      79.304  -2.969  27.014  1.00  0.00    -0.544 OA
ATOM      8  O   UNL     1      80.015  -2.637  24.865  1.00  0.00    -0.544 OA
ENDBRANCH   1   6
BRANCH   1   9
ATOM      9  C   UNL     1      77.439  -0.661  25.803  1.00  0.00     0.047 C 
ATOM     10  C   UNL     1      76.507  -0.925  26.997  1.00  0.00     0.014 C 
ATOM     11  C   UNL     1      77.069  -1.580  24.629  1.00  0.00     0.014 C 
ENDBRANCH   1   9
TORSDOF 3
ENDMDL
MODEL 4
REMARK VINA RESULT:    -3.958      2.226      2.821
REMARK INTER + INTRA:          -4.359
REMARK INTER:                  -4.545
REMARK INTRA:                   0.185
REMARK UNBOUND:                 0.177
REMARK SMILES CC(C)[C@H]([NH3+])C(=O)[O-]
REMARK SMILES IDX 4 1 5 2 6 6 7 7 8 8 2 9 1 10 3 11
REMARK H PARENT 5 3 5 4 5 5
REMARK Flexibility Score: inf
ROOT
ATOM      1  C   UNL     1      79.201  -1.603  25.730  1.00  0.00     0.230 C 
ENDROOT
BRANCH   1   2
ATOM      2  N   UNL     1      79.608  -2.382  26.910  1.00  0.00    -0.350 N 
ATOM      3  H   UNL     1      80.545  -2.069  27.250  1.00  0.00     0.345 HD
ATOM      4  H   UNL     1      78.922  -2.222  27.685  1.00  0.00     0.345 HD
ATOM      5  H   UNL     1      79.637  -3.405  26.701  1.00  0.00     0.345 HD
ENDBRANCH   1   2
BRANCH   1   6
ATOM      6  C   UNL     1      79.534  -0.142  25.913  1.00  0.00     0.099 C 
ATOM      7  O   UNL     1      80.142   0.482  25.003  1.00  0.00    -0.544 OA
ATOM      8  O   UNL     1      79.137   0.539  27.058  1.00  0.00    -0.544 OA
ENDBRANCH   1   6
BRANCH   1   9
ATOM      9  C   UNL     1      77.697  -1.788  25.368  1.00  0.00     0.047 C 
ATOM     10  C   UNL     1      77.288  -1.089  24.060  1.00  0.00     0.014 C 
ATOM     11  C   UNL     1      76.772  -1.349  26.513  1.00  0.00     0.014 C 
ENDBRANCH   1   9
TORSDOF 3
ENDMDL
MODEL 5
REMARK VINA RESULT:    -3.944      1.705      2.496
REMARK INTER + INTRA:          -4.344
REMARK INTER:                  -4.387
REMARK INTRA:                   0.043
REMARK UNBOUND:                 0.177
REMARK SMILES CC(C)[C@H]([NH3+])C(=O)[O-]
REMARK SMILES IDX 4 1 5 2 6 6 7 7 8 8 2 9 1 10 3 11
REMARK H PARENT 5 3 5 4 5 5
REMARK Flexibility Score: inf
ROOT
ATOM      1  C   UNL     1      77.715  -0.762  25.954  1.00  0.00     0.230 C 
ENDROOT
BRANCH   1   2
ATOM      2  N   UNL     1      76.900  -1.513  26.921  1.00  0.00    -0.350 N 
ATOM      3  H   UNL     1      77.121  -1.211  27.897  1.00  0.00     0.345 HD
ATOM      4  H   UNL     1      75.887  -1.311  26.751  1.00  0.00     0.345 HD
ATOM      5  H   UNL     1      77.051  -2.543  26.832  1.00  0.00     0.345 HD
ENDBRANCH   1   2
BRANCH   1   6
ATOM      6  C   UNL     1      77.396  -1.186  24.541  1.00  0.00     0.099 C 
ATOM      7  O   UNL     1      76.902  -2.324  24.323  1.00  0.00    -0.544 OA
ATOM      8  O   UNL     1      77.598  -0.316  23.476  1.00  0.00    -0.544 OA
ENDBRANCH   1   6
BRANCH   1   9
ATOM      9  C   UNL     1      79.245  -0.871  26.233  1.00  0.00     0.047 C 
ATOM     10  C   UNL     1      80.026   0.409  25.893  1.00  0.00     0.014 C 
ATOM     11  C   UNL     1      79.874  -2.079  25.522  1.00  0.00     0.014 C 
ENDBRANCH   1   9
TORSDOF 3
ENDMDL
MODEL 6
REMARK VINA RESULT:    -3.823      2.175      2.849
REMARK INTER + INTRA:          -4.205
REMARK INTER:                  -4.393
REMARK INTRA:                   0.188
REMARK UNBOUND:                 0.177
REMARK SMILES CC(C)[C@H]([NH3+])C(=O)[O-]
REMARK SMILES IDX 4 1 5 2 6 6 7 7 8 8 2 9 1 10 3 11
REMARK H PARENT 5 3 5 4 5 5
REMARK Flexibility Score: inf
ROOT
ATOM      1  C   UNL     1      77.640  -1.283  25.177  1.00  0.00     0.230 C 
ENDROOT
BRANCH   1   2
ATOM      2  N   UNL     1      77.209  -0.238  24.236  1.00  0.00    -0.350 N 
ATOM      3  H   UNL     1      76.439   0.334  24.652  1.00  0.00     0.345 HD
ATOM      4  H   UNL     1      78.011   0.407  24.043  1.00  0.00     0.345 HD
ATOM      5  H   UNL     1      76.890  -0.647  23.329  1.00  0.00     0.345 HD
ENDBRANCH   1   2
BRANCH   1   6
ATOM      6  C   UNL     1      77.131  -0.994  26.568  1.00  0.00     0.099 C 
ATOM      7  O   UNL     1      76.498  -1.879  27.202  1.00  0.00    -0.544 OA
ATOM      8  O   UNL     1      77.392   0.227  27.181  1.00  0.00    -0.544 OA
ENDBRANCH   1   6
BRANCH   1   9
ATOM      9  C   UNL     1      79.184  -1.496  25.185  1.00  0.00     0.047 C 
ATOM     10  C   UNL     1      79.642  -2.648  26.095  1.00  0.00     0.014 C 
ATOM     11  C   UNL     1      79.940  -0.207  25.542  1.00  0.00     0.014 C 
ENDBRANCH   1   9
TORSDOF 3
ENDMDL
MODEL 7
REMARK VINA RESULT:    -3.528     14.651     15.672
REMARK INTER + INTRA:          -3.866
REMARK INTER:                  -3.819
REMARK INTRA:                  -0.047
REMARK UNBOUND:                 0.177
REMARK SMILES CC(C)[C@H]([NH3+])C(=O)[O-]
REMARK SMILES IDX 4 1 5 2 6 6 7 7 8 8 2 9 1 10 3 11
REMARK H PARENT 5 3 5 4 5 5
REMARK Flexibility Score: inf
ROOT
ATOM      1  C   UNL     1      68.063  -5.289  36.142  1.00  0.00     0.230 C 
ENDROOT
BRANCH   1   2
ATOM      2  N   UNL     1      68.131  -3.821  36.216  1.00  0.00    -0.350 N 
ATOM      3  H   UNL     1      69.095  -3.488  35.989  1.00  0.00     0.345 HD
ATOM      4  H   UNL     1      67.480  -3.408  35.507  1.00  0.00     0.345 HD
ATOM      5  H   UNL     1      67.854  -3.472  37.161  1.00  0.00     0.345 HD
ENDBRANCH   1   2
BRANCH   1   6
ATOM      6  C   UNL     1      68.736  -5.916  37.337  1.00  0.00     0.099 C 
ATOM      7  O   UNL     1      69.812  -6.554  37.189  1.00  0.00    -0.544 OA
ATOM      8  O   UNL     1      68.207  -5.761  38.614  1.00  0.00    -0.544 OA
ENDBRANCH   1   6
BRANCH   1   9
ATOM      9  C   UNL     1      68.645  -5.859  34.814  1.00  0.00     0.047 C 
ATOM     10  C   UNL     1      68.731  -4.821  33.683  1.00  0.00     0.014 C 
ATOM     11  C   UNL     1      67.875  -7.099  34.336  1.00  0.00     0.014 C 
ENDBRANCH   1   9
TORSDOF 3
ENDMDL
MODEL 8
REMARK VINA RESULT:    -3.445      2.096      3.038
REMARK INTER + INTRA:          -3.771
REMARK INTER:                  -4.013
REMARK INTRA:                   0.242
REMARK UNBOUND:                 0.177
REMARK SMILES CC(C)[C@H]([NH3+])C(=O)[O-]
REMARK SMILES IDX 4 1 5 2 6 6 7 7 8 8 2 9 1 10 3 11
REMARK H PARENT 5 3 5 4 5 5
REMARK Flexibility Score: inf
ROOT
ATOM      1  C   UNL     1      78.263  -0.507  25.579  1.00  0.00     0.230 C 
ENDROOT
BRANCH   1   2
ATOM      2  N   UNL     1      79.597   0.086  25.758  1.00  0.00    -0.350 N 
ATOM      3  H   UNL     1      79.576   0.813  26.508  1.00  0.00     0.345 HD
ATOM      4  H   UNL     1      80.270  -0.658  26.058  1.00  0.00     0.345 HD
ATOM      5  H   UNL     1      79.949   0.511  24.871  1.00  0.00     0.345 HD
ENDBRANCH   1   2
BRANCH   1   6
ATOM      6  C   UNL     1      78.017  -1.590  26.601  1.00  0.00     0.099 C 
ATOM      7  O   UNL     1      76.914  -1.645  27.205  1.00  0.00    -0.544 OA
ATOM      8  O   UNL     1      78.981  -2.561  26.853  1.00  0.00    -0.544 OA
ENDBRANCH   1   6
BRANCH   1   9
ATOM      9  C   UNL     1      78.023  -1.042  24.135  1.00  0.00     0.047 C 
ATOM     10  C   UNL     1      77.273  -0.053  23.228  1.00  0.00     0.014 C 
ATOM     11  C   UNL     1      77.310  -2.403  24.138  1.00  0.00     0.014 C 
ENDBRANCH   1   9
TORSDOF 3
ENDMDL
MODEL 9
REMARK VINA RESULT:    -3.407      1.758      2.244
REMARK INTER + INTRA:          -3.728
REMARK INTER:                  -3.974
REMARK INTRA:                   0.246
REMARK UNBOUND:                 0.177
REMARK SMILES CC(C)[C@H]([NH3+])C(=O)[O-]
REMARK SMILES IDX 4 1 5 2 6 6 7 7 8 8 2 9 1 10 3 11
REMARK H PARENT 5 3 5 4 5 5
REMARK Flexibility Score: inf
ROOT
ATOM      1  C   UNL     1      78.494  -1.208  26.338  1.00  0.00     0.230 C 
ENDROOT
BRANCH   1   2
ATOM      2  N   UNL     1      77.084  -1.159  26.755  1.00  0.00    -0.350 N 
ATOM      3  H   UNL     1      76.647  -2.105  26.679  1.00  0.00     0.345 HD
ATOM      4  H   UNL     1      77.029  -0.866  27.759  1.00  0.00     0.345 HD
ATOM      5  H   UNL     1      76.539  -0.476  26.182  1.00  0.00     0.345 HD
ENDBRANCH   1   2
BRANCH   1   6
ATOM      6  C   UNL     1      78.751  -0.247  25.204  1.00  0.00     0.099 C 
ATOM      7  O   UNL     1      79.790   0.465  25.207  1.00  0.00    -0.544 OA
ATOM      8  O   UNL     1      77.874  -0.168  24.127  1.00  0.00    -0.544 OA
ENDBRANCH   1   6
BRANCH   1   9
ATOM      9  C   UNL     1      78.968  -2.645  25.966  1.00  0.00     0.047 C 
ATOM     10  C   UNL     1      79.705  -3.366  27.106  1.00  0.00     0.014 C 
ATOM     11  C   UNL     1      79.827  -2.654  24.692  1.00  0.00     0.014 C 
ENDBRANCH   1   9
TORSDOF 3
ENDMDL
