MODEL 1
REMARK VINA RESULT:    -4.195      0.000      0.000
REMARK INTER + INTRA:          -4.738
REMARK INTER:                  -4.686
REMARK INTRA:                  -0.052
REMARK UNBOUND:                -0.052
REMARK SMILES COc1cc2ccc(=O)oc2c(O)c1O
REMARK SMILES IDX 3 1 14 2 12 3 11 4 5 5 4 6 6 7 7 8 8 9 9 10 10 11 2 12 1 13
REMARK SMILES IDX 15 14 13 16
REMARK H PARENT 15 15 13 17
REMARK Flexibility Score: inf
ROOT
ATOM      1  C   UNL     1      -5.458 -17.371  -6.621  1.00  0.00     0.165 A 
ATOM      2  C   UNL     1      -4.296 -18.002  -7.096  1.00  0.00     0.204 A 
ATOM      3  C   UNL     1      -4.319 -18.698  -8.330  1.00  0.00     0.205 A 
ATOM      4  C   UNL     1      -5.508 -18.751  -9.072  1.00  0.00     0.184 A 
ATOM      5  C   UNL     1      -6.673 -18.118  -8.591  1.00  0.00     0.025 A 
ATOM      6  C   UNL     1      -6.645 -17.432  -7.373  1.00  0.00     0.062 A 
ATOM      7  C   UNL     1      -7.839 -18.194  -9.359  1.00  0.00     0.020 A 
ATOM      8  C   UNL     1      -7.822 -18.888 -10.568  1.00  0.00     0.094 A 
ATOM      9  C   UNL     1      -6.630 -19.493 -10.982  1.00  0.00     0.336 A 
ATOM     10  O   UNL     1      -6.592 -20.125 -12.070  1.00  0.00    -0.246 OA
ATOM     11  O   UNL     1      -5.535 -19.404 -10.232  1.00  0.00    -0.419 OA
ENDROOT
BRANCH   1  12
ATOM     12  O   UNL     1      -5.391 -16.692  -5.393  1.00  0.00    -0.493 OA
ATOM     13  C   UNL     1      -6.450 -15.916  -4.839  1.00  0.00     0.278 C 
ENDBRANCH   1  12
BRANCH   2  14
ATOM     14  O   UNL     1      -3.142 -17.912  -6.312  1.00  0.00    -0.502 OA
ATOM     15  H   UNL     1      -2.650 -18.708  -5.932  1.00  0.00     0.293 HD
ENDBRANCH   2  14
BRANCH   3  16
ATOM     16  O   UNL     1      -3.194 -19.342  -8.851  1.00  0.00    -0.502 OA
ATOM     17  H   UNL     1      -3.129 -19.702  -9.791  1.00  0.00     0.293 HD
ENDBRANCH   3  16
TORSDOF 3
ENDMDL
MODEL 2
REMARK VINA RESULT:    -3.932      1.564      2.764
REMARK INTER + INTRA:          -4.443
REMARK INTER:                  -4.377
REMARK INTRA:                  -0.067
REMARK UNBOUND:                -0.052
REMARK SMILES COc1cc2ccc(=O)oc2c(O)c1O
REMARK SMILES IDX 3 1 14 2 12 3 11 4 5 5 4 6 6 7 7 8 8 9 9 10 10 11 2 12 1 13
REMARK SMILES IDX 15 14 13 16
REMARK H PARENT 15 15 13 17
REMARK Flexibility Score: inf
ROOT
ATOM      1  C   UNL     1      -4.661 -17.353  -6.638  1.00  0.00     0.165 A 
ATOM      2  C   UNL     1      -5.972 -16.853  -6.562  1.00  0.00     0.204 A 
ATOM      3  C   UNL     1      -6.919 -17.189  -7.561  1.00  0.00     0.205 A 
ATOM      4  C   UNL     1      -6.539 -18.023  -8.622  1.00  0.00     0.184 A 
ATOM      5  C   UNL     1      -5.222 -18.522  -8.695  1.00  0.00     0.025 A 
ATOM      6  C   UNL     1      -4.291 -18.188  -7.707  1.00  0.00     0.062 A 
ATOM      7  C   UNL     1      -4.881 -19.351  -9.769  1.00  0.00     0.020 A 
ATOM      8  C   UNL     1      -5.841 -19.659 -10.731  1.00  0.00     0.094 A 
ATOM      9  C   UNL     1      -7.128 -19.127 -10.595  1.00  0.00     0.336 A 
ATOM     10  O   UNL     1      -8.010 -19.392 -11.453  1.00  0.00    -0.246 OA
ATOM     11  O   UNL     1      -7.425 -18.342  -9.564  1.00  0.00    -0.419 OA
ENDROOT
BRANCH   1  12
ATOM     12  O   UNL     1      -3.754 -16.995  -5.627  1.00  0.00    -0.493 OA
ATOM     13  C   UNL     1      -3.109 -17.919  -4.754  1.00  0.00     0.278 C 
ENDBRANCH   1  12
BRANCH   2  14
ATOM     14  O   UNL     1      -6.290 -16.027  -5.480  1.00  0.00    -0.502 OA
ATOM     15  H   UNL     1      -7.059 -15.374  -5.471  1.00  0.00     0.293 HD
ENDBRANCH   2  14
BRANCH   3  16
ATOM     16  O   UNL     1      -8.236 -16.721  -7.536  1.00  0.00    -0.502 OA
ATOM     17  H   UNL     1      -8.537 -15.901  -7.032  1.00  0.00     0.293 HD
ENDBRANCH   3  16
TORSDOF 3
ENDMDL
MODEL 3
REMARK VINA RESULT:    -3.926      1.805      2.945
REMARK INTER + INTRA:          -4.437
REMARK INTER:                  -4.369
REMARK INTRA:                  -0.069
REMARK UNBOUND:                -0.052
REMARK SMILES COc1cc2ccc(=O)oc2c(O)c1O
REMARK SMILES IDX 3 1 14 2 12 3 11 4 5 5 4 6 6 7 7 8 8 9 9 10 10 11 2 12 1 13
REMARK SMILES IDX 15 14 13 16
REMARK H PARENT 15 15 13 17
REMARK Flexibility Score: inf
ROOT
ATOM      1  C   UNL     1      -5.896 -17.945  -7.111  1.00  0.00     0.165 A 
ATOM      2  C   UNL     1      -7.145 -17.325  -7.283  1.00  0.00     0.204 A 
ATOM      3  C   UNL     1      -7.878 -17.527  -8.479  1.00  0.00     0.205 A 
ATOM      4  C   UNL     1      -7.349 -18.346  -9.486  1.00  0.00     0.184 A 
ATOM      5  C   UNL     1      -6.095 -18.966  -9.310  1.00  0.00     0.025 A 
ATOM      6  C   UNL     1      -5.374 -18.765  -8.128  1.00  0.00     0.062 A 
ATOM      7  C   UNL     1      -5.600 -19.776 -10.337  1.00  0.00     0.020 A 
ATOM      8  C   UNL     1      -6.351 -19.949 -11.497  1.00  0.00     0.094 A 
ATOM      9  C   UNL     1      -7.587 -19.303 -11.604  1.00  0.00     0.336 A 
ATOM     10  O   UNL     1      -8.283 -19.444 -12.644  1.00  0.00    -0.246 OA
ATOM     11  O   UNL     1      -8.034 -18.538 -10.612  1.00  0.00    -0.419 OA
ENDROOT
BRANCH   1  12
ATOM     12  O   UNL     1      -5.202 -17.720  -5.911  1.00  0.00    -0.493 OA
ATOM     13  C   UNL     1      -3.967 -17.016  -5.809  1.00  0.00     0.278 C 
ENDBRANCH   1  12
BRANCH   2  14
ATOM     14  O   UNL     1      -7.619 -16.520  -6.244  1.00  0.00    -0.502 OA
ATOM     15  H   UNL     1      -8.219 -16.847  -5.501  1.00  0.00     0.293 HD
ENDBRANCH   2  14
BRANCH   3  16
ATOM     16  O   UNL     1      -9.125 -16.936  -8.704  1.00  0.00    -0.502 OA
ATOM     17  H   UNL     1      -9.859 -17.352  -9.257  1.00  0.00     0.293 HD
ENDBRANCH   3  16
TORSDOF 3
ENDMDL
MODEL 4
REMARK VINA RESULT:    -3.922      1.328      4.785
REMARK INTER + INTRA:          -4.432
REMARK INTER:                  -4.363
REMARK INTRA:                  -0.069
REMARK UNBOUND:                -0.052
REMARK SMILES COc1cc2ccc(=O)oc2c(O)c1O
REMARK SMILES IDX 3 1 14 2 12 3 11 4 5 5 4 6 6 7 7 8 8 9 9 10 10 11 2 12 1 13
REMARK SMILES IDX 15 14 13 16
REMARK H PARENT 15 15 13 17
REMARK Flexibility Score: inf
ROOT
ATOM      1  C   UNL     1      -6.561 -17.948  -8.854  1.00  0.00     0.165 A 
ATOM      2  C   UNL     1      -5.529 -18.888  -9.013  1.00  0.00     0.204 A 
ATOM      3  C   UNL     1      -4.483 -18.961  -8.059  1.00  0.00     0.205 A 
ATOM      4  C   UNL     1      -4.487 -18.091  -6.960  1.00  0.00     0.184 A 
ATOM      5  C   UNL     1      -5.524 -17.147  -6.806  1.00  0.00     0.025 A 
ATOM      6  C   UNL     1      -6.554 -17.078  -7.748  1.00  0.00     0.062 A 
ATOM      7  C   UNL     1      -5.492 -16.296  -5.696  1.00  0.00     0.020 A 
ATOM      8  C   UNL     1      -4.446 -16.399  -4.781  1.00  0.00     0.094 A 
ATOM      9  C   UNL     1      -3.451 -17.358  -4.998  1.00  0.00     0.336 A 
ATOM     10  O   UNL     1      -2.497 -17.468  -4.184  1.00  0.00    -0.246 OA
ATOM     11  O   UNL     1      -3.506 -18.155  -6.061  1.00  0.00    -0.419 OA
ENDROOT
BRANCH   1  12
ATOM     12  O   UNL     1      -7.578 -17.908  -9.822  1.00  0.00    -0.493 OA
ATOM     13  C   UNL     1      -8.883 -18.453  -9.648  1.00  0.00     0.278 C 
ENDBRANCH   1  12
BRANCH   2  14
ATOM     14  O   UNL     1      -5.582 -19.728 -10.128  1.00  0.00    -0.502 OA
ATOM     15  H   UNL     1      -6.239 -19.623 -10.887  1.00  0.00     0.293 HD
ENDBRANCH   2  14
BRANCH   3  16
ATOM     16  O   UNL     1      -3.433 -19.877  -8.165  1.00  0.00    -0.502 OA
ATOM     17  H   UNL     1      -2.632 -19.896  -7.552  1.00  0.00     0.293 HD
ENDBRANCH   3  16
TORSDOF 3
ENDMDL
MODEL 5
REMARK VINA RESULT:    -3.726      1.929      3.291
REMARK INTER + INTRA:          -4.214
REMARK INTER:                  -4.144
REMARK INTRA:                  -0.070
REMARK UNBOUND:                -0.052
REMARK SMILES COc1cc2ccc(=O)oc2c(O)c1O
REMARK SMILES IDX 3 1 14 2 12 3 11 4 5 5 4 6 6 7 7 8 8 9 9 10 10 11 2 12 1 13
REMARK SMILES IDX 15 14 13 16
REMARK H PARENT 15 15 13 17
REMARK Flexibility Score: inf
ROOT
ATOM      1  C   UNL     1      -4.691 -15.950  -5.616  1.00  0.00     0.165 A 
ATOM      2  C   UNL     1      -6.079 -16.130  -5.494  1.00  0.00     0.204 A 
ATOM      3  C   UNL     1      -6.754 -17.036  -6.350  1.00  0.00     0.205 A 
ATOM      4  C   UNL     1      -6.029 -17.747  -7.316  1.00  0.00     0.184 A 
ATOM      5  C   UNL     1      -4.636 -17.563  -7.435  1.00  0.00     0.025 A 
ATOM      6  C   UNL     1      -3.973 -16.669  -6.588  1.00  0.00     0.062 A 
ATOM      7  C   UNL     1      -3.947 -18.291  -8.411  1.00  0.00     0.020 A 
ATOM      8  C   UNL     1      -4.647 -19.171  -9.233  1.00  0.00     0.094 A 
ATOM      9  C   UNL     1      -6.029 -19.303  -9.059  1.00  0.00     0.336 A 
ATOM     10  O   UNL     1      -6.682 -20.092  -9.791  1.00  0.00    -0.246 OA
ATOM     11  O   UNL     1      -6.659 -18.599  -8.123  1.00  0.00    -0.419 OA
ENDROOT
BRANCH   1  12
ATOM     12  O   UNL     1      -4.060 -15.044  -4.747  1.00  0.00    -0.493 OA
ATOM     13  C   UNL     1      -3.249 -15.417  -3.637  1.00  0.00     0.278 C 
ENDBRANCH   1  12
BRANCH   2  14
ATOM     14  O   UNL     1      -6.746 -15.393  -4.513  1.00  0.00    -0.502 OA
ATOM     15  H   UNL     1      -7.672 -15.606  -4.173  1.00  0.00     0.293 HD
ENDBRANCH   2  14
BRANCH   3  16
ATOM     16  O   UNL     1      -8.133 -17.255  -6.274  1.00  0.00    -0.502 OA
ATOM     17  H   UNL     1      -8.754 -16.755  -5.656  1.00  0.00     0.293 HD
ENDBRANCH   3  16
TORSDOF 3
ENDMDL
MODEL 6
REMARK VINA RESULT:    -3.636     15.967     16.906
REMARK INTER + INTRA:          -4.113
REMARK INTER:                  -4.178
REMARK INTRA:                   0.065
REMARK UNBOUND:                -0.052
REMARK SMILES COc1cc2ccc(=O)oc2c(O)c1O
REMARK SMILES IDX 3 1 14 2 12 3 11 4 5 5 4 6 6 7 7 8 8 9 9 10 10 11 2 12 1 13
REMARK SMILES IDX 15 14 13 16
REMARK H PARENT 15 15 13 17
REMARK Flexibility Score: inf
ROOT
ATOM      1  C   UNL     1      -7.037  -2.180  -6.644  1.00  0.00     0.165 A 
ATOM      2  C   UNL     1      -5.923  -1.586  -7.260  1.00  0.00     0.204 A 
ATOM      3  C   UNL     1      -4.657  -1.623  -6.623  1.00  0.00     0.205 A 
ATOM      4  C   UNL     1      -4.526  -2.255  -5.379  1.00  0.00     0.184 A 
ATOM      5  C   UNL     1      -5.647  -2.849  -4.764  1.00  0.00     0.025 A 
ATOM      6  C   UNL     1      -6.894  -2.811  -5.395  1.00  0.00     0.062 A 
ATOM      7  C   UNL     1      -5.476  -3.470  -3.522  1.00  0.00     0.020 A 
ATOM      8  C   UNL     1      -4.215  -3.485  -2.929  1.00  0.00     0.094 A 
ATOM      9  C   UNL     1      -3.148  -2.874  -3.597  1.00  0.00     0.336 A 
ATOM     10  O   UNL     1      -2.000  -2.875  -3.080  1.00  0.00    -0.246 OA
ATOM     11  O   UNL     1      -3.338  -2.291  -4.777  1.00  0.00    -0.419 OA
ENDROOT
BRANCH   1  12
ATOM     12  O   UNL     1      -8.273  -2.122  -7.308  1.00  0.00    -0.493 OA
ATOM     13  C   UNL     1      -9.125  -0.980  -7.335  1.00  0.00     0.278 C 
ENDBRANCH   1  12
BRANCH   2  14
ATOM     14  O   UNL     1      -6.118  -0.972  -8.500  1.00  0.00    -0.502 OA
ATOM     15  H   UNL     1      -6.502  -1.436  -9.309  1.00  0.00     0.293 HD
ENDBRANCH   2  14
BRANCH   3  16
ATOM     16  O   UNL     1      -3.515  -1.049  -7.190  1.00  0.00    -0.502 OA
ATOM     17  H   UNL     1      -2.579  -1.403  -7.063  1.00  0.00     0.293 HD
ENDBRANCH   3  16
TORSDOF 3
ENDMDL
MODEL 7
REMARK VINA RESULT:    -3.597      2.113      5.834
REMARK INTER + INTRA:          -4.070
REMARK INTER:                  -4.016
REMARK INTRA:                  -0.054
REMARK UNBOUND:                -0.052
REMARK SMILES COc1cc2ccc(=O)oc2c(O)c1O
REMARK SMILES IDX 3 1 14 2 12 3 11 4 5 5 4 6 6 7 7 8 8 9 9 10 10 11 2 12 1 13
REMARK SMILES IDX 15 14 13 16
REMARK H PARENT 15 15 13 17
REMARK Flexibility Score: inf
ROOT
ATOM      1  C   UNL     1      -5.178 -17.850  -8.139  1.00  0.00     0.165 A 
ATOM      2  C   UNL     1      -6.542 -17.535  -8.028  1.00  0.00     0.204 A 
ATOM      3  C   UNL     1      -7.013 -16.802  -6.909  1.00  0.00     0.205 A 
ATOM      4  C   UNL     1      -6.109 -16.397  -5.918  1.00  0.00     0.184 A 
ATOM      5  C   UNL     1      -4.740 -16.716  -6.033  1.00  0.00     0.025 A 
ATOM      6  C   UNL     1      -4.279 -17.438  -7.138  1.00  0.00     0.062 A 
ATOM      7  C   UNL     1      -3.869 -16.294  -5.023  1.00  0.00     0.020 A 
ATOM      8  C   UNL     1      -4.370 -15.576  -3.939  1.00  0.00     0.094 A 
ATOM      9  C   UNL     1      -5.740 -15.296  -3.890  1.00  0.00     0.336 A 
ATOM     10  O   UNL     1      -6.214 -14.649  -2.920  1.00  0.00    -0.246 OA
ATOM     11  O   UNL     1      -6.546 -15.709  -4.864  1.00  0.00    -0.419 OA
ENDROOT
BRANCH   1  12
ATOM     12  O   UNL     1      -4.753 -18.577  -9.263  1.00  0.00    -0.493 OA
ATOM     13  C   UNL     1      -3.559 -19.351  -9.323  1.00  0.00     0.278 C 
ENDBRANCH   1  12
BRANCH   2  14
ATOM     14  O   UNL     1      -7.393 -17.967  -9.048  1.00  0.00    -0.502 OA
ATOM     15  H   UNL     1      -8.097 -18.681  -8.937  1.00  0.00     0.293 HD
ENDBRANCH   2  14
BRANCH   3  16
ATOM     16  O   UNL     1      -8.358 -16.461  -6.747  1.00  0.00    -0.502 OA
ATOM     17  H   UNL     1      -8.984 -16.910  -6.096  1.00  0.00     0.293 HD
ENDBRANCH   3  16
TORSDOF 3
ENDMDL
MODEL 8
REMARK VINA RESULT:    -3.514     15.069     16.621
REMARK INTER + INTRA:          -3.977
REMARK INTER:                  -3.915
REMARK INTRA:                  -0.062
REMARK UNBOUND:                -0.052
REMARK SMILES COc1cc2ccc(=O)oc2c(O)c1O
REMARK SMILES IDX 3 1 14 2 12 3 11 4 5 5 4 6 6 7 7 8 8 9 9 10 10 11 2 12 1 13
REMARK SMILES IDX 15 14 13 16
REMARK H PARENT 15 15 13 17
REMARK Flexibility Score: inf
ROOT
ATOM      1  C   UNL     1      -5.147  -2.794  -4.844  1.00  0.00     0.165 A 
ATOM      2  C   UNL     1      -4.200  -2.126  -5.637  1.00  0.00     0.204 A 
ATOM      3  C   UNL     1      -4.609  -1.450  -6.814  1.00  0.00     0.205 A 
ATOM      4  C   UNL     1      -5.962  -1.455  -7.179  1.00  0.00     0.184 A 
ATOM      5  C   UNL     1      -6.910  -2.128  -6.381  1.00  0.00     0.025 A 
ATOM      6  C   UNL     1      -6.503  -2.792  -5.220  1.00  0.00     0.062 A 
ATOM      7  C   UNL     1      -8.251  -2.109  -6.779  1.00  0.00     0.020 A 
ATOM      8  C   UNL     1      -8.613  -1.435  -7.943  1.00  0.00     0.094 A 
ATOM      9  C   UNL     1      -7.619  -0.790  -8.686  1.00  0.00     0.336 A 
ATOM     10  O   UNL     1      -7.923  -0.174  -9.741  1.00  0.00    -0.246 OA
ATOM     11  O   UNL     1      -6.351  -0.822  -8.285  1.00  0.00    -0.419 OA
ENDROOT
BRANCH   1  12
ATOM     12  O   UNL     1      -4.700  -3.450  -3.685  1.00  0.00    -0.493 OA
ATOM     13  C   UNL     1      -5.014  -4.798  -3.346  1.00  0.00     0.278 C 
ENDBRANCH   1  12
BRANCH   2  14
ATOM     14  O   UNL     1      -2.866  -2.157  -5.220  1.00  0.00    -0.502 OA
ATOM     15  H   UNL     1      -2.075  -2.066  -5.839  1.00  0.00     0.293 HD
ENDBRANCH   2  14
BRANCH   3  16
ATOM     16  O   UNL     1      -3.710  -0.769  -7.639  1.00  0.00    -0.502 OA
ATOM     17  H   UNL     1      -3.422  -1.090  -8.552  1.00  0.00     0.293 HD
ENDBRANCH   3  16
TORSDOF 3
ENDMDL
