MODEL 1
REMARK VINA RESULT:    -3.598      0.000      0.000
REMARK INTER + INTRA:          -4.834
REMARK INTER:                  -4.649
REMARK INTRA:                  -0.185
REMARK UNBOUND:                -0.185
REMARK SMILES CCCCCCC(=O)[O-]
REMARK SMILES IDX 5 1 6 2 7 3 8 4 9 5 4 6 3 7 2 8 1 9
REMARK H PARENT
REMARK Flexibility Score: inf
ROOT
ATOM      1  C   UNL     1      15.096  45.035   0.233  1.00  0.00     0.006 C 
ENDROOT
BRANCH   1   2
ATOM      2  C   UNL     1      13.565  45.075   0.240  1.00  0.00     0.053 C 
BRANCH   2   3
ATOM      3  C   UNL     1      13.005  43.691   0.337  1.00  0.00     0.041 C 
ATOM      4  O   UNL     1      13.269  42.969   1.334  1.00  0.00    -0.550 OA
ATOM      5  O   UNL     1      12.149  43.217  -0.650  1.00  0.00    -0.550 OA
ENDBRANCH   2   3
ENDBRANCH   1   2
BRANCH   1   6
ATOM      6  C   UNL     1      15.672  46.173  -0.622  1.00  0.00     0.000 C 
BRANCH   6   7
ATOM      7  C   UNL     1      14.583  47.020  -1.305  1.00  0.00    -0.000 C 
BRANCH   7   8
ATOM      8  C   UNL     1      15.088  47.933  -2.437  1.00  0.00    -0.003 C 
ATOM      9  C   UNL     1      16.600  47.853  -2.640  1.00  0.00     0.004 C 
ENDBRANCH   7   8
ENDBRANCH   6   7
ENDBRANCH   1   6
TORSDOF 5
ENDMDL
MODEL 2
REMARK VINA RESULT:    -3.530      1.101      1.722
REMARK INTER + INTRA:          -4.746
REMARK INTER:                  -4.517
REMARK INTRA:                  -0.229
REMARK UNBOUND:                -0.185
REMARK SMILES CCCCCCC(=O)[O-]
REMARK SMILES IDX 5 1 6 2 7 3 8 4 9 5 4 6 3 7 2 8 1 9
REMARK H PARENT
REMARK Flexibility Score: inf
ROOT
ATOM      1  C   UNL     1      14.488  44.573   0.563  1.00  0.00     0.006 C 
ENDROOT
BRANCH   1   2
ATOM      2  C   UNL     1      13.343  45.337  -0.108  1.00  0.00     0.053 C 
BRANCH   2   3
ATOM      3  C   UNL     1      12.295  44.389  -0.597  1.00  0.00     0.041 C 
ATOM      4  O   UNL     1      11.312  44.816  -1.259  1.00  0.00    -0.550 OA
ATOM      5  O   UNL     1      12.428  43.025  -0.365  1.00  0.00    -0.550 OA
ENDBRANCH   2   3
ENDBRANCH   1   2
BRANCH   1   6
ATOM      6  C   UNL     1      15.850  45.149   0.149  1.00  0.00     0.000 C 
BRANCH   6   7
ATOM      7  C   UNL     1      15.801  46.662  -0.132  1.00  0.00    -0.000 C 
BRANCH   7   8
ATOM      8  C   UNL     1      16.229  47.070  -1.553  1.00  0.00    -0.003 C 
ATOM      9  C   UNL     1      15.139  47.824  -2.314  1.00  0.00     0.004 C 
ENDBRANCH   7   8
ENDBRANCH   6   7
ENDBRANCH   1   6
TORSDOF 5
ENDMDL
MODEL 3
REMARK VINA RESULT:    -3.522      3.379      5.063
REMARK INTER + INTRA:          -4.737
REMARK INTER:                  -4.573
REMARK INTRA:                  -0.163
REMARK UNBOUND:                -0.185
REMARK SMILES CCCCCCC(=O)[O-]
REMARK SMILES IDX 5 1 6 2 7 3 8 4 9 5 4 6 3 7 2 8 1 9
REMARK H PARENT
REMARK Flexibility Score: inf
ROOT
ATOM      1  C   UNL     1      15.051  46.309  -1.003  1.00  0.00     0.006 C 
ENDROOT
BRANCH   1   2
ATOM      2  C   UNL     1      14.765  47.624  -1.736  1.00  0.00     0.053 C 
BRANCH   2   3
ATOM      3  C   UNL     1      15.736  47.822  -2.857  1.00  0.00     0.041 C 
ATOM      4  O   UNL     1      16.972  47.687  -2.656  1.00  0.00    -0.550 OA
ATOM      5  O   UNL     1      15.273  48.106  -4.135  1.00  0.00    -0.550 OA
ENDBRANCH   2   3
ENDBRANCH   1   2
BRANCH   1   6
ATOM      6  C   UNL     1      13.857  45.896  -0.131  1.00  0.00     0.000 C 
BRANCH   6   7
ATOM      7  C   UNL     1      13.925  44.425   0.320  1.00  0.00    -0.000 C 
BRANCH   7   8
ATOM      8  C   UNL     1      12.672  43.591  -0.003  1.00  0.00    -0.003 C 
ATOM      9  C   UNL     1      11.723  44.288  -0.976  1.00  0.00     0.004 C 
ENDBRANCH   7   8
ENDBRANCH   6   7
ENDBRANCH   1   6
TORSDOF 5
ENDMDL
MODEL 4
REMARK VINA RESULT:    -3.415      2.575      4.535
REMARK INTER + INTRA:          -4.599
REMARK INTER:                  -4.414
REMARK INTRA:                  -0.184
REMARK UNBOUND:                -0.185
REMARK SMILES CCCCCCC(=O)[O-]
REMARK SMILES IDX 5 1 6 2 7 3 8 4 9 5 4 6 3 7 2 8 1 9
REMARK H PARENT
REMARK Flexibility Score: inf
ROOT
ATOM      1  C   UNL     1      14.111  46.912  -1.134  1.00  0.00     0.006 C 
ENDROOT
BRANCH   1   2
ATOM      2  C   UNL     1      15.528  46.589  -1.617  1.00  0.00     0.053 C 
BRANCH   2   3
ATOM      3  C   UNL     1      16.446  46.384  -0.454  1.00  0.00     0.041 C 
ATOM      4  O   UNL     1      16.713  47.342   0.319  1.00  0.00    -0.550 OA
ATOM      5  O   UNL     1      16.967  45.122  -0.193  1.00  0.00    -0.550 OA
ENDBRANCH   2   3
ENDBRANCH   1   2
BRANCH   1   6
ATOM      6  C   UNL     1      13.578  45.802  -0.217  1.00  0.00     0.000 C 
BRANCH   6   7
ATOM      7  C   UNL     1      12.363  45.065  -0.810  1.00  0.00    -0.000 C 
BRANCH   7   8
ATOM      8  C   UNL     1      12.279  43.569  -0.458  1.00  0.00    -0.003 C 
ATOM      9  C   UNL     1      13.079  43.202   0.791  1.00  0.00     0.004 C 
ENDBRANCH   7   8
ENDBRANCH   6   7
ENDBRANCH   1   6
TORSDOF 5
ENDMDL
MODEL 5
REMARK VINA RESULT:    -3.240     11.205     12.417
REMARK INTER + INTRA:          -4.372
REMARK INTER:                  -4.206
REMARK INTRA:                  -0.167
REMARK UNBOUND:                -0.185
REMARK SMILES CCCCCCC(=O)[O-]
REMARK SMILES IDX 5 1 6 2 7 3 8 4 9 5 4 6 3 7 2 8 1 9
REMARK H PARENT
REMARK Flexibility Score: inf
ROOT
ATOM      1  C   UNL     1      14.444  38.753   9.223  1.00  0.00     0.006 C 
ENDROOT
BRANCH   1   2
ATOM      2  C   UNL     1      14.135  37.764  10.352  1.00  0.00     0.053 C 
BRANCH   2   3
ATOM      3  C   UNL     1      15.306  37.636  11.274  1.00  0.00     0.041 C 
ATOM      4  O   UNL     1      15.763  38.651  11.862  1.00  0.00    -0.550 OA
ATOM      5  O   UNL     1      15.862  36.387  11.523  1.00  0.00    -0.550 OA
ENDBRANCH   2   3
ENDBRANCH   1   2
BRANCH   1   6
ATOM      6  C   UNL     1      13.806  38.297   7.904  1.00  0.00     0.000 C 
BRANCH   6   7
ATOM      7  C   UNL     1      14.606  38.742   6.666  1.00  0.00    -0.000 C 
BRANCH   7   8
ATOM      8  C   UNL     1      16.066  39.140   6.947  1.00  0.00    -0.003 C 
ATOM      9  C   UNL     1      17.076  38.316   6.151  1.00  0.00     0.004 C 
ENDBRANCH   7   8
ENDBRANCH   6   7
ENDBRANCH   1   6
TORSDOF 5
ENDMDL
MODEL 6
REMARK VINA RESULT:    -3.159     11.441     13.306
REMARK INTER + INTRA:          -4.268
REMARK INTER:                  -4.114
REMARK INTRA:                  -0.154
REMARK UNBOUND:                -0.185
REMARK SMILES CCCCCCC(=O)[O-]
REMARK SMILES IDX 5 1 6 2 7 3 8 4 9 5 4 6 3 7 2 8 1 9
REMARK H PARENT
REMARK Flexibility Score: inf
ROOT
ATOM      1  C   UNL     1      14.110  37.893  10.421  1.00  0.00     0.006 C 
ENDROOT
BRANCH   1   2
ATOM      2  C   UNL     1      15.150  37.940  11.544  1.00  0.00     0.053 C 
BRANCH   2   3
ATOM      3  C   UNL     1      14.479  38.009  12.879  1.00  0.00     0.041 C 
ATOM      4  O   UNL     1      13.362  38.578  12.998  1.00  0.00    -0.550 OA
ATOM      5  O   UNL     1      15.064  37.402  13.984  1.00  0.00    -0.550 OA
ENDBRANCH   2   3
ENDBRANCH   1   2
BRANCH   1   6
ATOM      6  C   UNL     1      14.537  38.774   9.239  1.00  0.00     0.000 C 
BRANCH   6   7
ATOM      7  C   UNL     1      13.858  38.373   7.916  1.00  0.00    -0.000 C 
BRANCH   7   8
ATOM      8  C   UNL     1      14.670  38.694   6.648  1.00  0.00    -0.003 C 
ATOM      9  C   UNL     1      16.151  38.945   6.934  1.00  0.00     0.004 C 
ENDBRANCH   7   8
ENDBRANCH   6   7
ENDBRANCH   1   6
TORSDOF 5
ENDMDL
MODEL 7
REMARK VINA RESULT:    -3.059     10.792     13.123
REMARK INTER + INTRA:          -4.138
REMARK INTER:                  -3.999
REMARK INTRA:                  -0.139
REMARK UNBOUND:                -0.185
REMARK SMILES CCCCCCC(=O)[O-]
REMARK SMILES IDX 5 1 6 2 7 3 8 4 9 5 4 6 3 7 2 8 1 9
REMARK H PARENT
REMARK Flexibility Score: inf
ROOT
ATOM      1  C   UNL     1      14.678  38.921   9.458  1.00  0.00     0.006 C 
ENDROOT
BRANCH   1   2
ATOM      2  C   UNL     1      14.228  38.663   8.017  1.00  0.00     0.053 C 
BRANCH   2   3
ATOM      3  C   UNL     1      15.202  39.256   7.048  1.00  0.00     0.041 C 
ATOM      4  O   UNL     1      15.356  40.504   6.990  1.00  0.00    -0.550 OA
ATOM      5  O   UNL     1      15.976  38.428   6.245  1.00  0.00    -0.550 OA
ENDBRANCH   2   3
ENDBRANCH   1   2
BRANCH   1   6
ATOM      6  C   UNL     1      14.101  37.865  10.411  1.00  0.00     0.000 C 
BRANCH   6   7
ATOM      7  C   UNL     1      15.148  37.308  11.394  1.00  0.00    -0.000 C 
BRANCH   7   8
ATOM      8  C   UNL     1      15.052  37.865  12.826  1.00  0.00    -0.003 C 
ATOM      9  C   UNL     1      13.694  38.494  13.134  1.00  0.00     0.004 C 
ENDBRANCH   7   8
ENDBRANCH   6   7
ENDBRANCH   1   6
TORSDOF 5
ENDMDL
MODEL 8
REMARK VINA RESULT:    -2.986      9.666     11.146
REMARK INTER + INTRA:          -4.043
REMARK INTER:                  -3.671
REMARK INTRA:                  -0.372
REMARK UNBOUND:                -0.185
REMARK SMILES CCCCCCC(=O)[O-]
REMARK SMILES IDX 5 1 6 2 7 3 8 4 9 5 4 6 3 7 2 8 1 9
REMARK H PARENT
REMARK Flexibility Score: inf
ROOT
ATOM      1  C   UNL     1      16.342  40.351   9.954  1.00  0.00     0.006 C 
ENDROOT
BRANCH   1   2
ATOM      2  C   UNL     1      17.022  41.457   9.142  1.00  0.00     0.053 C 
BRANCH   2   3
ATOM      3  C   UNL     1      16.124  41.927   8.041  1.00  0.00     0.041 C 
ATOM      4  O   UNL     1      16.470  41.788   6.838  1.00  0.00    -0.550 OA
ATOM      5  O   UNL     1      14.882  42.473   8.342  1.00  0.00    -0.550 OA
ENDBRANCH   2   3
ENDBRANCH   1   2
BRANCH   1   6
ATOM      6  C   UNL     1      15.989  39.152   9.063  1.00  0.00     0.000 C 
BRANCH   6   7
ATOM      7  C   UNL     1      14.508  38.744   9.165  1.00  0.00    -0.000 C 
BRANCH   7   8
ATOM      8  C   UNL     1      13.837  38.403   7.823  1.00  0.00    -0.003 C 
ATOM      9  C   UNL     1      14.744  38.653   6.619  1.00  0.00     0.004 C 
ENDBRANCH   7   8
ENDBRANCH   6   7
ENDBRANCH   1   6
TORSDOF 5
ENDMDL
MODEL 9
REMARK VINA RESULT:    -2.789     11.259     13.405
REMARK INTER + INTRA:          -3.789
REMARK INTER:                  -3.567
REMARK INTRA:                  -0.221
REMARK UNBOUND:                -0.185
REMARK SMILES CCCCCCC(=O)[O-]
REMARK SMILES IDX 5 1 6 2 7 3 8 4 9 5 4 6 3 7 2 8 1 9
REMARK H PARENT
REMARK Flexibility Score: inf
ROOT
ATOM      1  C   UNL     1      14.113  37.950  10.071  1.00  0.00     0.006 C 
ENDROOT
BRANCH   1   2
ATOM      2  C   UNL     1      14.752  39.033   9.196  1.00  0.00     0.053 C 
BRANCH   2   3
ATOM      3  C   UNL     1      14.503  38.753   7.748  1.00  0.00     0.041 C 
ATOM      4  O   UNL     1      15.350  39.095   6.882  1.00  0.00    -0.550 OA
ATOM      5  O   UNL     1      13.358  38.068   7.359  1.00  0.00    -0.550 OA
ENDBRANCH   2   3
ENDBRANCH   1   2
BRANCH   1   6
ATOM      6  C   UNL     1      14.669  38.000  11.501  1.00  0.00     0.000 C 
BRANCH   6   7
ATOM      7  C   UNL     1      16.164  38.362  11.551  1.00  0.00    -0.000 C 
BRANCH   7   8
ATOM      8  C   UNL     1      17.125  37.172  11.376  1.00  0.00    -0.003 C 
ATOM      9  C   UNL     1      16.633  35.900  12.065  1.00  0.00     0.004 C 
ENDBRANCH   7   8
ENDBRANCH   6   7
ENDBRANCH   1   6
TORSDOF 5
ENDMDL
