MODEL 1
REMARK VINA RESULT:    -4.053      0.000      0.000
REMARK INTER + INTRA:          -5.206
REMARK INTER:                  -5.001
REMARK INTRA:                  -0.205
REMARK UNBOUND:                -0.205
REMARK SMILES CCCCCC(=O)[O-]
REMARK SMILES IDX 4 1 5 2 6 3 7 4 8 5 3 6 2 7 1 8
REMARK H PARENT
REMARK Flexibility Score: inf
ROOT
ATOM      1  C   UNL     1      15.249  74.259  70.694  1.00  0.00     0.006 C 
ENDROOT
BRANCH   1   2
ATOM      2  C   UNL     1      14.354  73.484  69.719  1.00  0.00     0.053 C 
BRANCH   2   3
ATOM      3  C   UNL     1      15.068  73.251  68.426  1.00  0.00     0.041 C 
ATOM      4  O   UNL     1      15.226  74.197  67.610  1.00  0.00    -0.550 OA
ATOM      5  O   UNL     1      15.514  71.977  68.099  1.00  0.00    -0.550 OA
ENDBRANCH   2   3
ENDBRANCH   1   2
BRANCH   1   6
ATOM      6  C   UNL     1      14.586  75.541  71.227  1.00  0.00     0.000 C 
BRANCH   6   7
ATOM      7  C   UNL     1      13.400  76.052  70.389  1.00  0.00    -0.003 C 
ATOM      8  C   UNL     1      13.743  77.288  69.558  1.00  0.00     0.004 C 
ENDBRANCH   6   7
ENDBRANCH   1   6
TORSDOF 4
ENDMDL
MODEL 2
REMARK VINA RESULT:    -3.972      2.682      4.114
REMARK INTER + INTRA:          -5.106
REMARK INTER:                  -4.935
REMARK INTRA:                  -0.171
REMARK UNBOUND:                -0.205
REMARK SMILES CCCCCC(=O)[O-]
REMARK SMILES IDX 4 1 5 2 6 3 7 4 8 5 3 6 2 7 1 8
REMARK H PARENT
REMARK Flexibility Score: inf
ROOT
ATOM      1  C   UNL     1      13.591  74.988  68.445  1.00  0.00     0.006 C 
ENDROOT
BRANCH   1   2
ATOM      2  C   UNL     1      13.475  75.382  69.923  1.00  0.00     0.053 C 
BRANCH   2   3
ATOM      3  C   UNL     1      14.288  76.606  70.203  1.00  0.00     0.041 C 
ATOM      4  O   UNL     1      14.060  77.675  69.577  1.00  0.00    -0.550 OA
ATOM      5  O   UNL     1      15.329  76.554  71.121  1.00  0.00    -0.550 OA
ENDBRANCH   2   3
ENDBRANCH   1   2
BRANCH   1   6
ATOM      6  C   UNL     1      14.927  74.301  68.111  1.00  0.00     0.000 C 
BRANCH   6   7
ATOM      7  C   UNL     1      15.294  73.122  69.030  1.00  0.00    -0.003 C 
ATOM      8  C   UNL     1      15.557  71.826  68.265  1.00  0.00     0.004 C 
ENDBRANCH   6   7
ENDBRANCH   1   6
TORSDOF 4
ENDMDL
MODEL 3
REMARK VINA RESULT:    -3.938      1.555      2.508
REMARK INTER + INTRA:          -5.064
REMARK INTER:                  -4.906
REMARK INTRA:                  -0.158
REMARK UNBOUND:                -0.205
REMARK SMILES CCCCCC(=O)[O-]
REMARK SMILES IDX 4 1 5 2 6 3 7 4 8 5 3 6 2 7 1 8
REMARK H PARENT
REMARK Flexibility Score: inf
ROOT
ATOM      1  C   UNL     1      13.433  75.910  70.477  1.00  0.00     0.006 C 
ENDROOT
BRANCH   1   2
ATOM      2  C   UNL     1      13.225  75.365  69.058  1.00  0.00     0.053 C 
BRANCH   2   3
ATOM      3  C   UNL     1      14.151  74.220  68.796  1.00  0.00     0.041 C 
ATOM      4  O   UNL     1      14.150  73.218  69.558  1.00  0.00    -0.550 OA
ATOM      5  O   UNL     1      15.050  74.282  67.740  1.00  0.00    -0.550 OA
ENDBRANCH   2   3
ENDBRANCH   1   2
BRANCH   1   6
ATOM      6  C   UNL     1      14.835  76.509  70.689  1.00  0.00     0.000 C 
BRANCH   6   7
ATOM      7  C   UNL     1      15.666  75.832  71.794  1.00  0.00    -0.003 C 
ATOM      8  C   UNL     1      16.454  76.827  72.645  1.00  0.00     0.004 C 
ENDBRANCH   6   7
ENDBRANCH   1   6
TORSDOF 4
ENDMDL
MODEL 4
REMARK VINA RESULT:    -3.900      2.670      3.910
REMARK INTER + INTRA:          -5.017
REMARK INTER:                  -4.772
REMARK INTRA:                  -0.245
REMARK UNBOUND:                -0.205
REMARK SMILES CCCCCC(=O)[O-]
REMARK SMILES IDX 4 1 5 2 6 3 7 4 8 5 3 6 2 7 1 8
REMARK H PARENT
REMARK Flexibility Score: inf
ROOT
ATOM      1  C   UNL     1      13.142  75.508  70.327  1.00  0.00     0.006 C 
ENDROOT
BRANCH   1   2
ATOM      2  C   UNL     1      14.206  76.384  71.002  1.00  0.00     0.053 C 
BRANCH   2   3
ATOM      3  C   UNL     1      15.057  75.561  71.916  1.00  0.00     0.041 C 
ATOM      4  O   UNL     1      16.110  75.020  71.485  1.00  0.00    -0.550 OA
ATOM      5  O   UNL     1      14.662  75.350  73.230  1.00  0.00    -0.550 OA
ENDBRANCH   2   3
ENDBRANCH   1   2
BRANCH   1   6
ATOM      6  C   UNL     1      13.340  75.391  68.805  1.00  0.00     0.000 C 
BRANCH   6   7
ATOM      7  C   UNL     1      14.473  74.442  68.373  1.00  0.00    -0.003 C 
ATOM      8  C   UNL     1      14.402  73.076  69.053  1.00  0.00     0.004 C 
ENDBRANCH   6   7
ENDBRANCH   1   6
TORSDOF 4
ENDMDL
MODEL 5
REMARK VINA RESULT:    -3.880      2.252      3.004
REMARK INTER + INTRA:          -4.993
REMARK INTER:                  -4.773
REMARK INTRA:                  -0.220
REMARK UNBOUND:                -0.205
REMARK SMILES CCCCCC(=O)[O-]
REMARK SMILES IDX 4 1 5 2 6 3 7 4 8 5 3 6 2 7 1 8
REMARK H PARENT
REMARK Flexibility Score: inf
ROOT
ATOM      1  C   UNL     1      15.374  74.368  69.693  1.00  0.00     0.006 C 
ENDROOT
BRANCH   1   2
ATOM      2  C   UNL     1      13.864  74.624  69.793  1.00  0.00     0.053 C 
BRANCH   2   3
ATOM      3  C   UNL     1      13.487  75.839  69.008  1.00  0.00     0.041 C 
ATOM      4  O   UNL     1      13.721  76.988  69.467  1.00  0.00    -0.550 OA
ATOM      5  O   UNL     1      12.832  75.704  67.791  1.00  0.00    -0.550 OA
ENDBRANCH   2   3
ENDBRANCH   1   2
BRANCH   1   6
ATOM      6  C   UNL     1      16.071  74.350  71.065  1.00  0.00     0.000 C 
BRANCH   6   7
ATOM      7  C   UNL     1      15.359  75.163  72.162  1.00  0.00    -0.003 C 
ATOM      8  C   UNL     1      16.017  76.517  72.425  1.00  0.00     0.004 C 
ENDBRANCH   6   7
ENDBRANCH   1   6
TORSDOF 4
ENDMDL
MODEL 6
REMARK VINA RESULT:    -3.859      2.961      3.407
REMARK INTER + INTRA:          -4.967
REMARK INTER:                  -4.731
REMARK INTRA:                  -0.236
REMARK UNBOUND:                -0.205
REMARK SMILES CCCCCC(=O)[O-]
REMARK SMILES IDX 4 1 5 2 6 3 7 4 8 5 3 6 2 7 1 8
REMARK H PARENT
REMARK Flexibility Score: inf
ROOT
ATOM      1  C   UNL     1      15.489  74.674  69.695  1.00  0.00     0.006 C 
ENDROOT
BRANCH   1   2
ATOM      2  C   UNL     1      16.021  74.351  71.098  1.00  0.00     0.053 C 
BRANCH   2   3
ATOM      3  C   UNL     1      15.591  75.398  72.075  1.00  0.00     0.041 C 
ATOM      4  O   UNL     1      16.070  76.561  72.010  1.00  0.00    -0.550 OA
ATOM      5  O   UNL     1      14.698  75.076  73.089  1.00  0.00    -0.550 OA
ENDBRANCH   2   3
ENDBRANCH   1   2
BRANCH   1   6
ATOM      6  C   UNL     1      13.980  74.408  69.551  1.00  0.00     0.000 C 
BRANCH   6   7
ATOM      7  C   UNL     1      13.183  75.546  68.889  1.00  0.00    -0.003 C 
ATOM      8  C   UNL     1      13.588  76.931  69.391  1.00  0.00     0.004 C 
ENDBRANCH   6   7
ENDBRANCH   1   6
TORSDOF 4
ENDMDL
MODEL 7
REMARK VINA RESULT:    -3.828      1.179      1.834
REMARK INTER + INTRA:          -4.928
REMARK INTER:                  -4.808
REMARK INTRA:                  -0.121
REMARK UNBOUND:                -0.205
REMARK SMILES CCCCCC(=O)[O-]
REMARK SMILES IDX 4 1 5 2 6 3 7 4 8 5 3 6 2 7 1 8
REMARK H PARENT
REMARK Flexibility Score: inf
ROOT
ATOM      1  C   UNL     1      14.110  74.787  70.351  1.00  0.00     0.006 C 
ENDROOT
BRANCH   1   2
ATOM      2  C   UNL     1      15.340  73.929  70.025  1.00  0.00     0.053 C 
BRANCH   2   3
ATOM      3  C   UNL     1      15.261  73.411  68.624  1.00  0.00     0.041 C 
ATOM      4  O   UNL     1      15.137  74.211  67.659  1.00  0.00    -0.550 OA
ATOM      5  O   UNL     1      15.273  72.043  68.388  1.00  0.00    -0.550 OA
ENDBRANCH   2   3
ENDBRANCH   1   2
BRANCH   1   6
ATOM      6  C   UNL     1      14.475  76.143  70.979  1.00  0.00     0.000 C 
BRANCH   6   7
ATOM      7  C   UNL     1      14.998  76.065  72.425  1.00  0.00    -0.003 C 
ATOM      8  C   UNL     1      16.383  76.689  72.595  1.00  0.00     0.004 C 
ENDBRANCH   6   7
ENDBRANCH   1   6
TORSDOF 4
ENDMDL
MODEL 8
REMARK VINA RESULT:    -3.593      3.288      4.526
REMARK INTER + INTRA:          -4.639
REMARK INTER:                  -4.586
REMARK INTRA:                  -0.053
REMARK UNBOUND:                -0.205
REMARK SMILES CCCCCC(=O)[O-]
REMARK SMILES IDX 4 1 5 2 6 3 7 4 8 5 3 6 2 7 1 8
REMARK H PARENT
REMARK Flexibility Score: inf
ROOT
ATOM      1  C   UNL     1      15.468  74.235  70.983  1.00  0.00     0.006 C 
ENDROOT
BRANCH   1   2
ATOM      2  C   UNL     1      15.247  75.512  71.806  1.00  0.00     0.053 C 
BRANCH   2   3
ATOM      3  C   UNL     1      16.531  75.959  72.430  1.00  0.00     0.041 C 
ATOM      4  O   UNL     1      17.342  75.112  72.887  1.00  0.00    -0.550 OA
ATOM      5  O   UNL     1      16.808  77.314  72.553  1.00  0.00    -0.550 OA
ENDBRANCH   2   3
ENDBRANCH   1   2
BRANCH   1   6
ATOM      6  C   UNL     1      14.399  74.033  69.894  1.00  0.00     0.000 C 
BRANCH   6   7
ATOM      7  C   UNL     1      14.952  73.652  68.509  1.00  0.00    -0.003 C 
ATOM      8  C   UNL     1      15.384  72.189  68.418  1.00  0.00     0.004 C 
ENDBRANCH   6   7
ENDBRANCH   1   6
TORSDOF 4
ENDMDL
MODEL 9
REMARK VINA RESULT:    -3.585      2.885      3.917
REMARK INTER + INTRA:          -4.628
REMARK INTER:                  -4.531
REMARK INTRA:                  -0.097
REMARK UNBOUND:                -0.205
REMARK SMILES CCCCCC(=O)[O-]
REMARK SMILES IDX 4 1 5 2 6 3 7 4 8 5 3 6 2 7 1 8
REMARK H PARENT
REMARK Flexibility Score: inf
ROOT
ATOM      1  C   UNL     1      16.149  75.601  72.355  1.00  0.00     0.006 C 
ENDROOT
BRANCH   1   2
ATOM      2  C   UNL     1      14.746  75.638  71.734  1.00  0.00     0.053 C 
BRANCH   2   3
ATOM      3  C   UNL     1      14.739  74.932  70.416  1.00  0.00     0.041 C 
ATOM      4  O   UNL     1      15.814  74.507  69.918  1.00  0.00    -0.550 OA
ATOM      5  O   UNL     1      13.550  74.788  69.712  1.00  0.00    -0.550 OA
ENDBRANCH   2   3
ENDBRANCH   1   2
BRANCH   1   6
ATOM      6  C   UNL     1      16.669  76.996  72.745  1.00  0.00     0.000 C 
BRANCH   6   7
ATOM      7  C   UNL     1      18.169  77.055  73.085  1.00  0.00    -0.003 C 
ATOM      8  C   UNL     1      18.803  75.673  73.235  1.00  0.00     0.004 C 
ENDBRANCH   6   7
ENDBRANCH   1   6
TORSDOF 4
ENDMDL
