MODEL 1
REMARK VINA RESULT:    -4.561      0.000      0.000
REMARK INTER + INTRA:          -5.359
REMARK INTER:                  -5.227
REMARK INTRA:                  -0.132
REMARK UNBOUND:                -0.132
REMARK SMILES COc1cc(C(C)=O)ccc1O
REMARK SMILES IDX 5 1 4 2 3 3 11 4 10 5 9 6 6 7 7 8 8 9 2 10 1 11 12 12
REMARK H PARENT 12 13
REMARK Flexibility Score: inf
ROOT
ATOM      1  C   UNL     1       9.379 -29.516  15.615  1.00  0.00     0.021 A 
ATOM      2  C   UNL     1       8.468 -30.569  15.833  1.00  0.00     0.062 A 
ATOM      3  C   UNL     1       7.927 -30.806  17.113  1.00  0.00     0.161 A 
ATOM      4  C   UNL     1       8.307 -29.978  18.183  1.00  0.00     0.157 A 
ATOM      5  C   UNL     1       9.211 -28.934  17.972  1.00  0.00     0.051 A 
ATOM      6  C   UNL     1       9.743 -28.702  16.703  1.00  0.00     0.016 A 
ENDROOT
BRANCH   1   7
ATOM      7  C   UNL     1       9.938 -29.282  14.255  1.00  0.00     0.159 C 
ATOM      8  C   UNL     1      11.357 -28.844  14.045  1.00  0.00     0.093 C 
ATOM      9  O   UNL     1       9.209 -29.453  13.240  1.00  0.00    -0.295 OA
ENDBRANCH   1   7
BRANCH   3  10
ATOM     10  O   UNL     1       7.018 -31.848  17.354  1.00  0.00    -0.493 OA
ATOM     11  C   UNL     1       7.380 -33.212  17.541  1.00  0.00     0.278 C 
ENDBRANCH   3  10
BRANCH   4  12
ATOM     12  O   UNL     1       7.798 -30.178  19.466  1.00  0.00    -0.504 OA
ATOM     13  H   UNL     1       7.967 -31.031  19.987  1.00  0.00     0.293 HD
ENDBRANCH   4  12
TORSDOF 3
ENDMDL
MODEL 2
REMARK VINA RESULT:    -4.490      1.874      3.346
REMARK INTER + INTRA:          -5.278
REMARK INTER:                  -5.163
REMARK INTRA:                  -0.115
REMARK UNBOUND:                -0.132
REMARK SMILES COc1cc(C(C)=O)ccc1O
REMARK SMILES IDX 5 1 4 2 3 3 11 4 10 5 9 6 6 7 7 8 8 9 2 10 1 11 12 12
REMARK H PARENT 12 13
REMARK Flexibility Score: inf
ROOT
ATOM      1  C   UNL     1       7.297 -30.190  15.159  1.00  0.00     0.021 A 
ATOM      2  C   UNL     1       8.375 -29.518  15.769  1.00  0.00     0.062 A 
ATOM      3  C   UNL     1       8.559 -29.563  17.166  1.00  0.00     0.161 A 
ATOM      4  C   UNL     1       7.650 -30.289  17.956  1.00  0.00     0.157 A 
ATOM      5  C   UNL     1       6.580 -30.955  17.355  1.00  0.00     0.051 A 
ATOM      6  C   UNL     1       6.402 -30.909  15.971  1.00  0.00     0.016 A 
ENDROOT
BRANCH   1   7
ATOM      7  C   UNL     1       7.121 -30.130  13.682  1.00  0.00     0.159 C 
ATOM      8  C   UNL     1       5.997 -30.840  12.987  1.00  0.00     0.093 C 
ATOM      9  O   UNL     1       7.934 -29.467  12.981  1.00  0.00    -0.295 OA
ENDBRANCH   1   7
BRANCH   3  10
ATOM     10  O   UNL     1       9.625 -28.903  17.797  1.00  0.00    -0.493 OA
ATOM     11  C   UNL     1      10.449 -27.920  17.178  1.00  0.00     0.278 C 
ENDBRANCH   3  10
BRANCH   4  12
ATOM     12  O   UNL     1       7.794 -30.359  19.341  1.00  0.00    -0.504 OA
ATOM     13  H   UNL     1       7.791 -29.532  19.927  1.00  0.00     0.293 HD
ENDBRANCH   4  12
TORSDOF 3
ENDMDL
MODEL 3
REMARK VINA RESULT:    -4.414      1.690      2.007
REMARK INTER + INTRA:          -5.191
REMARK INTER:                  -5.078
REMARK INTRA:                  -0.113
REMARK UNBOUND:                -0.132
REMARK SMILES COc1cc(C(C)=O)ccc1O
REMARK SMILES IDX 5 1 4 2 3 3 11 4 10 5 9 6 6 7 7 8 8 9 2 10 1 11 12 12
REMARK H PARENT 12 13
REMARK Flexibility Score: inf
ROOT
ATOM      1  C   UNL     1       9.716 -29.197  15.349  1.00  0.00     0.021 A 
ATOM      2  C   UNL     1       8.580 -29.713  16.004  1.00  0.00     0.062 A 
ATOM      3  C   UNL     1       8.321 -29.406  17.355  1.00  0.00     0.161 A 
ATOM      4  C   UNL     1       9.213 -28.575  18.054  1.00  0.00     0.157 A 
ATOM      5  C   UNL     1      10.341 -28.061  17.409  1.00  0.00     0.051 A 
ATOM      6  C   UNL     1      10.593 -28.367  16.070  1.00  0.00     0.016 A 
ENDROOT
BRANCH   1   7
ATOM      7  C   UNL     1       9.971 -29.533  13.921  1.00  0.00     0.159 C 
ATOM      8  C   UNL     1       8.855 -29.684  12.930  1.00  0.00     0.093 C 
ATOM      9  O   UNL     1      11.155 -29.700  13.519  1.00  0.00    -0.295 OA
ENDBRANCH   1   7
BRANCH   3  10
ATOM     10  O   UNL     1       7.196 -29.908  18.029  1.00  0.00    -0.493 OA
ATOM     11  C   UNL     1       5.875 -29.395  17.894  1.00  0.00     0.278 C 
ENDBRANCH   3  10
BRANCH   4  12
ATOM     12  O   UNL     1       8.996 -28.247  19.392  1.00  0.00    -0.504 OA
ATOM     13  H   UNL     1       8.081 -27.986  19.743  1.00  0.00     0.293 HD
ENDBRANCH   4  12
TORSDOF 3
ENDMDL
MODEL 4
REMARK VINA RESULT:    -4.413      1.434      4.778
REMARK INTER + INTRA:          -5.190
REMARK INTER:                  -5.099
REMARK INTRA:                  -0.091
REMARK UNBOUND:                -0.132
REMARK SMILES COc1cc(C(C)=O)ccc1O
REMARK SMILES IDX 5 1 4 2 3 3 11 4 10 5 9 6 6 7 7 8 8 9 2 10 1 11 12 12
REMARK H PARENT 12 13
REMARK Flexibility Score: inf
ROOT
ATOM      1  C   UNL     1       8.133 -29.734  16.657  1.00  0.00     0.021 A 
ATOM      2  C   UNL     1       9.252 -29.401  15.869  1.00  0.00     0.062 A 
ATOM      3  C   UNL     1       9.198 -29.481  14.462  1.00  0.00     0.161 A 
ATOM      4  C   UNL     1       8.008 -29.902  13.844  1.00  0.00     0.157 A 
ATOM      5  C   UNL     1       6.896 -30.234  14.622  1.00  0.00     0.051 A 
ATOM      6  C   UNL     1       6.954 -30.152  16.014  1.00  0.00     0.016 A 
ENDROOT
BRANCH   1   7
ATOM      7  C   UNL     1       8.212 -29.642  18.141  1.00  0.00     0.159 C 
ATOM      8  C   UNL     1       9.236 -28.790  18.829  1.00  0.00     0.093 C 
ATOM      9  O   UNL     1       7.400 -30.295  18.853  1.00  0.00    -0.295 OA
ENDBRANCH   1   7
BRANCH   3  10
ATOM     10  O   UNL     1      10.300 -29.155  13.656  1.00  0.00    -0.493 OA
ATOM     11  C   UNL     1      11.552 -28.687  14.146  1.00  0.00     0.278 C 
ENDBRANCH   3  10
BRANCH   4  12
ATOM     12  O   UNL     1       7.910 -29.997  12.456  1.00  0.00    -0.504 OA
ATOM     13  H   UNL     1       7.309 -29.387  11.913  1.00  0.00     0.293 HD
ENDBRANCH   4  12
TORSDOF 3
ENDMDL
MODEL 5
REMARK VINA RESULT:    -4.332      1.722      2.794
REMARK INTER + INTRA:          -5.096
REMARK INTER:                  -4.985
REMARK INTRA:                  -0.111
REMARK UNBOUND:                -0.132
REMARK SMILES COc1cc(C(C)=O)ccc1O
REMARK SMILES IDX 5 1 4 2 3 3 11 4 10 5 9 6 6 7 7 8 8 9 2 10 1 11 12 12
REMARK H PARENT 12 13
REMARK Flexibility Score: inf
ROOT
ATOM      1  C   UNL     1       9.317 -29.654  14.668  1.00  0.00     0.021 A 
ATOM      2  C   UNL     1       9.367 -29.364  16.046  1.00  0.00     0.062 A 
ATOM      3  C   UNL     1       8.228 -29.519  16.861  1.00  0.00     0.161 A 
ATOM      4  C   UNL     1       7.026 -29.967  16.285  1.00  0.00     0.157 A 
ATOM      5  C   UNL     1       6.971 -30.255  14.919  1.00  0.00     0.051 A 
ATOM      6  C   UNL     1       8.103 -30.101  14.116  1.00  0.00     0.016 A 
ENDROOT
BRANCH   1   7
ATOM      7  C   UNL     1      10.532 -29.485  13.825  1.00  0.00     0.159 C 
ATOM      8  C   UNL     1      10.726 -30.251  12.550  1.00  0.00     0.093 C 
ATOM      9  O   UNL     1      11.434 -28.678  14.181  1.00  0.00    -0.295 OA
ENDBRANCH   1   7
BRANCH   3  10
ATOM     10  O   UNL     1       8.254 -29.236  18.236  1.00  0.00    -0.493 OA
ATOM     11  C   UNL     1       9.400 -28.782  18.948  1.00  0.00     0.278 C 
ENDBRANCH   3  10
BRANCH   4  12
ATOM     12  O   UNL     1       5.875 -30.132  17.054  1.00  0.00    -0.504 OA
ATOM     13  H   UNL     1       5.069 -29.526  16.957  1.00  0.00     0.293 HD
ENDBRANCH   4  12
TORSDOF 3
ENDMDL
MODEL 6
REMARK VINA RESULT:    -4.325      1.549      4.392
REMARK INTER + INTRA:          -5.089
REMARK INTER:                  -4.974
REMARK INTRA:                  -0.115
REMARK UNBOUND:                -0.132
REMARK SMILES COc1cc(C(C)=O)ccc1O
REMARK SMILES IDX 5 1 4 2 3 3 11 4 10 5 9 6 6 7 7 8 8 9 2 10 1 11 12 12
REMARK H PARENT 12 13
REMARK Flexibility Score: inf
ROOT
ATOM      1  C   UNL     1       8.363 -29.353  17.402  1.00  0.00     0.021 A 
ATOM      2  C   UNL     1       8.471 -29.740  16.051  1.00  0.00     0.062 A 
ATOM      3  C   UNL     1       9.557 -29.313  15.260  1.00  0.00     0.161 A 
ATOM      4  C   UNL     1      10.542 -28.489  15.832  1.00  0.00     0.157 A 
ATOM      5  C   UNL     1      10.439 -28.103  17.170  1.00  0.00     0.051 A 
ATOM      6  C   UNL     1       9.362 -28.529  17.950  1.00  0.00     0.016 A 
ENDROOT
BRANCH   1   7
ATOM      7  C   UNL     1       7.209 -29.816  18.220  1.00  0.00     0.159 C 
ATOM      8  C   UNL     1       5.893 -29.096  18.213  1.00  0.00     0.093 C 
ATOM      9  O   UNL     1       7.326 -30.840  18.947  1.00  0.00    -0.295 OA
ENDBRANCH   1   7
BRANCH   3  10
ATOM     10  O   UNL     1       9.687 -29.685  13.912  1.00  0.00    -0.493 OA
ATOM     11  C   UNL     1      10.229 -30.922  13.462  1.00  0.00     0.278 C 
ENDBRANCH   3  10
BRANCH   4  12
ATOM     12  O   UNL     1      11.632 -28.043  15.085  1.00  0.00    -0.504 OA
ATOM     13  H   UNL     1      12.555 -28.452  15.179  1.00  0.00     0.293 HD
ENDBRANCH   4  12
TORSDOF 3
ENDMDL
MODEL 7
REMARK VINA RESULT:    -4.131      1.592      4.250
REMARK INTER + INTRA:          -4.867
REMARK INTER:                  -4.741
REMARK INTRA:                  -0.126
REMARK UNBOUND:                -0.132
REMARK SMILES COc1cc(C(C)=O)ccc1O
REMARK SMILES IDX 5 1 4 2 3 3 11 4 10 5 9 6 6 7 7 8 8 9 2 10 1 11 12 12
REMARK H PARENT 12 13
REMARK Flexibility Score: inf
ROOT
ATOM      1  C   UNL     1       7.671 -31.340  16.502  1.00  0.00     0.021 A 
ATOM      2  C   UNL     1       8.228 -30.852  15.303  1.00  0.00     0.062 A 
ATOM      3  C   UNL     1       9.024 -29.689  15.296  1.00  0.00     0.161 A 
ATOM      4  C   UNL     1       9.262 -29.010  16.503  1.00  0.00     0.157 A 
ATOM      5  C   UNL     1       8.711 -29.490  17.694  1.00  0.00     0.051 A 
ATOM      6  C   UNL     1       7.924 -30.642  17.697  1.00  0.00     0.016 A 
ENDROOT
BRANCH   1   7
ATOM      7  C   UNL     1       6.832 -32.569  16.489  1.00  0.00     0.159 C 
ATOM      8  C   UNL     1       7.033 -33.678  17.479  1.00  0.00     0.093 C 
ATOM      9  O   UNL     1       5.922 -32.698  15.624  1.00  0.00    -0.295 OA
ENDBRANCH   1   7
BRANCH   3  10
ATOM     10  O   UNL     1       9.590 -29.184  14.114  1.00  0.00    -0.493 OA
ATOM     11  C   UNL     1      10.831 -29.613  13.561  1.00  0.00     0.278 C 
ENDBRANCH   3  10
BRANCH   4  12
ATOM     12  O   UNL     1      10.043 -27.856  16.541  1.00  0.00    -0.504 OA
ATOM     13  H   UNL     1      10.275 -27.388  17.410  1.00  0.00     0.293 HD
ENDBRANCH   4  12
TORSDOF 3
ENDMDL
MODEL 8
REMARK VINA RESULT:    -4.090      2.273      4.054
REMARK INTER + INTRA:          -4.819
REMARK INTER:                  -4.729
REMARK INTRA:                  -0.091
REMARK UNBOUND:                -0.132
REMARK SMILES COc1cc(C(C)=O)ccc1O
REMARK SMILES IDX 5 1 4 2 3 3 11 4 10 5 9 6 6 7 7 8 8 9 2 10 1 11 12 12
REMARK H PARENT 12 13
REMARK Flexibility Score: inf
ROOT
ATOM      1  C   UNL     1       8.008 -30.055  13.974  1.00  0.00     0.021 A 
ATOM      2  C   UNL     1       8.209 -29.728  15.330  1.00  0.00     0.062 A 
ATOM      3  C   UNL     1       9.416 -29.141  15.762  1.00  0.00     0.161 A 
ATOM      4  C   UNL     1      10.429 -28.883  14.824  1.00  0.00     0.157 A 
ATOM      5  C   UNL     1      10.235 -29.207  13.479  1.00  0.00     0.051 A 
ATOM      6  C   UNL     1       9.039 -29.786  13.055  1.00  0.00     0.016 A 
ENDROOT
BRANCH   1   7
ATOM      7  C   UNL     1       6.727 -30.674  13.537  1.00  0.00     0.159 C 
ATOM      8  C   UNL     1       5.875 -31.479  14.474  1.00  0.00     0.093 C 
ATOM      9  O   UNL     1       6.333 -30.527  12.348  1.00  0.00    -0.295 OA
ENDBRANCH   1   7
BRANCH   3  10
ATOM     10  O   UNL     1       9.639 -28.806  17.108  1.00  0.00    -0.493 OA
ATOM     11  C   UNL     1       8.801 -29.201  18.190  1.00  0.00     0.278 C 
ENDBRANCH   3  10
BRANCH   4  12
ATOM     12  O   UNL     1      11.639 -28.305  15.209  1.00  0.00    -0.504 OA
ATOM     13  H   UNL     1      11.884 -28.163  16.182  1.00  0.00     0.293 HD
ENDBRANCH   4  12
TORSDOF 3
ENDMDL
MODEL 9
REMARK VINA RESULT:    -3.917      1.742      4.311
REMARK INTER + INTRA:          -4.621
REMARK INTER:                  -4.554
REMARK INTRA:                  -0.067
REMARK UNBOUND:                -0.132
REMARK SMILES COc1cc(C(C)=O)ccc1O
REMARK SMILES IDX 5 1 4 2 3 3 11 4 10 5 9 6 6 7 7 8 8 9 2 10 1 11 12 12
REMARK H PARENT 12 13
REMARK Flexibility Score: inf
ROOT
ATOM      1  C   UNL     1       7.631 -32.148  16.093  1.00  0.00     0.021 A 
ATOM      2  C   UNL     1       7.593 -31.291  17.210  1.00  0.00     0.062 A 
ATOM      3  C   UNL     1       8.206 -30.022  17.171  1.00  0.00     0.161 A 
ATOM      4  C   UNL     1       8.865 -29.613  15.999  1.00  0.00     0.157 A 
ATOM      5  C   UNL     1       8.906 -30.460  14.889  1.00  0.00     0.051 A 
ATOM      6  C   UNL     1       8.296 -31.715  14.932  1.00  0.00     0.016 A 
ENDROOT
BRANCH   1   7
ATOM      7  C   UNL     1       6.976 -33.484  16.155  1.00  0.00     0.159 C 
ATOM      8  C   UNL     1       6.789 -34.333  14.933  1.00  0.00     0.093 C 
ATOM      9  O   UNL     1       6.560 -33.927  17.260  1.00  0.00    -0.295 OA
ENDBRANCH   1   7
BRANCH   3  10
ATOM     10  O   UNL     1       8.182 -29.150  18.272  1.00  0.00    -0.493 OA
ATOM     11  C   UNL     1       9.259 -28.968  19.185  1.00  0.00     0.278 C 
ENDBRANCH   3  10
BRANCH   4  12
ATOM     12  O   UNL     1       9.486 -28.367  15.918  1.00  0.00    -0.504 OA
ATOM     13  H   UNL     1       8.965 -27.499  15.969  1.00  0.00     0.293 HD
ENDBRANCH   4  12
TORSDOF 3
ENDMDL
