MODEL 1
REMARK VINA RESULT:    -6.465      0.000      0.000
REMARK INTER + INTRA:          -7.221
REMARK INTER:                  -7.221
REMARK INTRA:                   0.000
REMARK UNBOUND:                 0.000
REMARK SMILES Oc1cc(O)c2c(ccc3ccc(O)c(O)c32)c1
REMARK SMILES IDX 9 1 8 2 7 3 18 4 2 5 3 6 4 7 6 8 17 9 10 10 11 11 12 12
REMARK SMILES IDX 13 13 15 14 16 15 1 17 5 19 14 21
REMARK H PARENT 16 16 1 18 5 20 14 22
REMARK Flexibility Score: inf
ROOT
ATOM      1  C   UNL     1      32.119  26.821  13.012  1.00  0.00     0.009 A 
ATOM      2  C   UNL     1      32.125  25.536  13.539  1.00  0.00     0.009 A 
ATOM      3  C   UNL     1      31.079  24.652  13.258  1.00  0.00    -0.010 A 
ATOM      4  C   UNL     1      31.147  23.335  13.740  1.00  0.00     0.055 A 
ATOM      5  C   UNL     1      30.189  22.396  13.366  1.00  0.00     0.119 A 
ATOM      6  C   UNL     1      29.192  22.750  12.457  1.00  0.00     0.093 A 
ATOM      7  C   UNL     1      29.120  24.053  11.945  1.00  0.00     0.127 A 
ATOM      8  C   UNL     1      29.983  25.067  12.448  1.00  0.00     0.035 A 
ATOM      9  C   UNL     1      29.873  26.456  12.110  1.00  0.00     0.039 A 
ATOM     10  C   UNL     1      31.005  27.295  12.311  1.00  0.00    -0.014 A 
ATOM     11  C   UNL     1      31.000  28.617  11.848  1.00  0.00     0.013 A 
ATOM     12  C   UNL     1      29.861  29.150  11.256  1.00  0.00     0.051 A 
ATOM     13  C   UNL     1      28.685  28.400  11.199  1.00  0.00     0.158 A 
ATOM     14  C   UNL     1      28.665  27.077  11.679  1.00  0.00     0.166 A 
ENDROOT
BRANCH  14  15
ATOM     15  O   UNL     1      27.436  26.430  11.821  1.00  0.00    -0.504 OA
ATOM     16  H   UNL     1      27.003  26.270  12.722  1.00  0.00     0.293 HD
ENDBRANCH  14  15
BRANCH   5  17
ATOM     17  O   UNL     1      30.261  21.101  13.876  1.00  0.00    -0.508 OA
ATOM     18  H   UNL     1      31.129  20.579  13.874  1.00  0.00     0.293 HD
ENDBRANCH   5  17
BRANCH   7  19
ATOM     19  O   UNL     1      28.264  24.295  10.871  1.00  0.00    -0.507 OA
ATOM     20  H   UNL     1      27.602  25.063  10.875  1.00  0.00     0.293 HD
ENDBRANCH   7  19
BRANCH  13  21
ATOM     21  O   UNL     1      27.520  28.976  10.691  1.00  0.00    -0.504 OA
ATOM     22  H   UNL     1      26.621  28.841  11.139  1.00  0.00     0.293 HD
ENDBRANCH  13  21
TORSDOF 4
ENDMDL
MODEL 2
REMARK VINA RESULT:    -6.191      2.167      5.335
REMARK INTER + INTRA:          -6.915
REMARK INTER:                  -6.915
REMARK INTRA:                   0.000
REMARK UNBOUND:                 0.000
REMARK SMILES Oc1cc(O)c2c(ccc3ccc(O)c(O)c32)c1
REMARK SMILES IDX 9 1 8 2 7 3 18 4 2 5 3 6 4 7 6 8 17 9 10 10 11 11 12 12
REMARK SMILES IDX 13 13 15 14 16 15 1 17 5 19 14 21
REMARK H PARENT 16 16 1 18 5 20 14 22
REMARK Flexibility Score: inf
ROOT
ATOM      1  C   UNL     1      31.800  25.622  10.043  1.00  0.00     0.009 A 
ATOM      2  C   UNL     1      32.124  26.929   9.705  1.00  0.00     0.009 A 
ATOM      3  C   UNL     1      31.376  27.997  10.210  1.00  0.00    -0.010 A 
ATOM      4  C   UNL     1      31.771  29.311   9.914  1.00  0.00     0.055 A 
ATOM      5  C   UNL     1      31.128  30.393  10.508  1.00  0.00     0.119 A 
ATOM      6  C   UNL     1      30.126  30.167  11.452  1.00  0.00     0.093 A 
ATOM      7  C   UNL     1      29.731  28.862  11.781  1.00  0.00     0.127 A 
ATOM      8  C   UNL     1      30.256  27.755  11.056  1.00  0.00     0.035 A 
ATOM      9  C   UNL     1      29.792  26.406  11.205  1.00  0.00     0.039 A 
ATOM     10  C   UNL     1      30.640  25.346  10.777  1.00  0.00    -0.014 A 
ATOM     11  C   UNL     1      30.303  24.013  11.047  1.00  0.00     0.013 A 
ATOM     12  C   UNL     1      29.096  23.706  11.667  1.00  0.00     0.051 A 
ATOM     13  C   UNL     1      28.174  24.716  11.944  1.00  0.00     0.158 A 
ATOM     14  C   UNL     1      28.488  26.059  11.660  1.00  0.00     0.166 A 
ENDROOT
BRANCH  14  15
ATOM     15  O   UNL     1      27.475  27.017  11.732  1.00  0.00    -0.504 OA
ATOM     16  H   UNL     1      27.242  27.504  12.590  1.00  0.00     0.293 HD
ENDBRANCH  14  15
BRANCH   5  17
ATOM     17  O   UNL     1      31.520  31.690  10.183  1.00  0.00    -0.508 OA
ATOM     18  H   UNL     1      31.286  32.478  10.775  1.00  0.00     0.293 HD
ENDBRANCH   5  17
BRANCH   7  19
ATOM     19  O   UNL     1      28.904  28.681  12.888  1.00  0.00    -0.507 OA
ATOM     20  H   UNL     1      27.921  28.928  12.869  1.00  0.00     0.293 HD
ENDBRANCH   7  19
BRANCH  13  21
ATOM     21  O   UNL     1      26.928  24.388  12.478  1.00  0.00    -0.504 OA
ATOM     22  H   UNL     1      26.398  23.592  12.142  1.00  0.00     0.293 HD
ENDBRANCH  13  21
TORSDOF 4
ENDMDL
MODEL 3
REMARK VINA RESULT:    -5.980      1.978      3.043
REMARK INTER + INTRA:          -6.680
REMARK INTER:                  -6.680
REMARK INTRA:                   0.000
REMARK UNBOUND:                 0.000
REMARK SMILES Oc1cc(O)c2c(ccc3ccc(O)c(O)c32)c1
REMARK SMILES IDX 9 1 8 2 7 3 18 4 2 5 3 6 4 7 6 8 17 9 10 10 11 11 12 12
REMARK SMILES IDX 13 13 15 14 16 15 1 17 5 19 14 21
REMARK H PARENT 16 16 1 18 5 20 14 22
REMARK Flexibility Score: inf
ROOT
ATOM      1  C   UNL     1      27.485  25.021  12.055  1.00  0.00     0.009 A 
ATOM      2  C   UNL     1      27.883  23.750  12.444  1.00  0.00     0.009 A 
ATOM      3  C   UNL     1      29.188  23.524  12.893  1.00  0.00    -0.010 A 
ATOM      4  C   UNL     1      29.542  22.246  13.353  1.00  0.00     0.055 A 
ATOM      5  C   UNL     1      30.790  22.024  13.929  1.00  0.00     0.119 A 
ATOM      6  C   UNL     1      31.670  23.092  14.106  1.00  0.00     0.093 A 
ATOM      7  C   UNL     1      31.326  24.381  13.676  1.00  0.00     0.127 A 
ATOM      8  C   UNL     1      30.131  24.591  12.931  1.00  0.00     0.035 A 
ATOM      9  C   UNL     1      29.780  25.834  12.309  1.00  0.00     0.039 A 
ATOM     10  C   UNL     1      28.417  26.062  11.972  1.00  0.00    -0.014 A 
ATOM     11  C   UNL     1      28.000  27.318  11.511  1.00  0.00     0.013 A 
ATOM     12  C   UNL     1      28.927  28.334  11.304  1.00  0.00     0.051 A 
ATOM     13  C   UNL     1      30.290  28.082  11.468  1.00  0.00     0.158 A 
ATOM     14  C   UNL     1      30.728  26.819  11.909  1.00  0.00     0.166 A 
ENDROOT
BRANCH  14  15
ATOM     15  O   UNL     1      32.091  26.520  11.848  1.00  0.00    -0.504 OA
ATOM     16  H   UNL     1      32.514  26.059  11.051  1.00  0.00     0.293 HD
ENDBRANCH  14  15
BRANCH   5  17
ATOM     17  O   UNL     1      31.132  20.742  14.357  1.00  0.00    -0.508 OA
ATOM     18  H   UNL     1      31.926  20.248  13.969  1.00  0.00     0.293 HD
ENDBRANCH   5  17
BRANCH   7  19
ATOM     19  O   UNL     1      32.125  25.449  14.083  1.00  0.00    -0.507 OA
ATOM     20  H   UNL     1      33.122  25.473  13.900  1.00  0.00     0.293 HD
ENDBRANCH   7  19
BRANCH  13  21
ATOM     21  O   UNL     1      31.219  29.077  11.165  1.00  0.00    -0.504 OA
ATOM     22  H   UNL     1      31.205  29.978  11.631  1.00  0.00     0.293 HD
ENDBRANCH  13  21
TORSDOF 4
ENDMDL
MODEL 4
REMARK VINA RESULT:    -5.804      2.369      5.738
REMARK INTER + INTRA:          -6.482
REMARK INTER:                  -6.482
REMARK INTRA:                   0.000
REMARK UNBOUND:                 0.000
REMARK SMILES Oc1cc(O)c2c(ccc3ccc(O)c(O)c32)c1
REMARK SMILES IDX 9 1 8 2 7 3 18 4 2 5 3 6 4 7 6 8 17 9 10 10 11 11 12 12
REMARK SMILES IDX 13 13 15 14 16 15 1 17 5 19 14 21
REMARK H PARENT 16 16 1 18 5 20 14 22
REMARK Flexibility Score: inf
ROOT
ATOM      1  C   UNL     1      27.678  27.357  12.030  1.00  0.00     0.009 A 
ATOM      2  C   UNL     1      28.224  28.625  11.884  1.00  0.00     0.009 A 
ATOM      3  C   UNL     1      29.526  28.784  11.399  1.00  0.00    -0.010 A 
ATOM      4  C   UNL     1      30.027  30.078  11.190  1.00  0.00     0.055 A 
ATOM      5  C   UNL     1      31.266  30.267  10.585  1.00  0.00     0.119 A 
ATOM      6  C   UNL     1      31.987  29.164  10.127  1.00  0.00     0.093 A 
ATOM      7  C   UNL     1      31.495  27.863  10.304  1.00  0.00     0.127 A 
ATOM      8  C   UNL     1      30.317  27.644  11.073  1.00  0.00     0.035 A 
ATOM      9  C   UNL     1      29.832  26.348  11.448  1.00  0.00     0.039 A 
ATOM     10  C   UNL     1      28.466  26.218  11.827  1.00  0.00    -0.014 A 
ATOM     11  C   UNL     1      27.907  24.952  12.046  1.00  0.00     0.013 A 
ATOM     12  C   UNL     1      28.699  23.812  11.970  1.00  0.00     0.051 A 
ATOM     13  C   UNL     1      30.075  23.927  11.765  1.00  0.00     0.158 A 
ATOM     14  C   UNL     1      30.657  25.193  11.565  1.00  0.00     0.166 A 
ENDROOT
BRANCH  14  15
ATOM     15  O   UNL     1      32.049  25.305  11.589  1.00  0.00    -0.504 OA
ATOM     16  H   UNL     1      32.524  26.193  11.705  1.00  0.00     0.293 HD
ENDBRANCH  14  15
BRANCH   5  17
ATOM     17  O   UNL     1      31.755  31.560  10.408  1.00  0.00    -0.508 OA
ATOM     18  H   UNL     1      31.749  32.236  11.163  1.00  0.00     0.293 HD
ENDBRANCH   5  17
BRANCH   7  19
ATOM     19  O   UNL     1      32.125  26.820   9.628  1.00  0.00    -0.507 OA
ATOM     20  H   UNL     1      31.683  25.916   9.505  1.00  0.00     0.293 HD
ENDBRANCH   7  19
BRANCH  13  21
ATOM     21  O   UNL     1      30.876  22.785  11.786  1.00  0.00    -0.504 OA
ATOM     22  H   UNL     1      31.888  22.846  11.818  1.00  0.00     0.293 HD
ENDBRANCH  13  21
TORSDOF 4
ENDMDL
MODEL 5
REMARK VINA RESULT:    -5.785      2.019      2.675
REMARK INTER + INTRA:          -6.461
REMARK INTER:                  -6.461
REMARK INTRA:                   0.000
REMARK UNBOUND:                 0.000
REMARK SMILES Oc1cc(O)c2c(ccc3ccc(O)c(O)c32)c1
REMARK SMILES IDX 9 1 8 2 7 3 18 4 2 5 3 6 4 7 6 8 17 9 10 10 11 11 12 12
REMARK SMILES IDX 13 13 15 14 16 15 1 17 5 19 14 21
REMARK H PARENT 16 16 1 18 5 20 14 22
REMARK Flexibility Score: inf
ROOT
ATOM      1  C   UNL     1      32.109  26.077   9.761  1.00  0.00     0.009 A 
ATOM      2  C   UNL     1      31.610  24.963  10.423  1.00  0.00     0.009 A 
ATOM      3  C   UNL     1      30.451  25.063  11.200  1.00  0.00    -0.010 A 
ATOM      4  C   UNL     1      29.926  23.906  11.797  1.00  0.00     0.055 A 
ATOM      5  C   UNL     1      28.704  23.949  12.464  1.00  0.00     0.119 A 
ATOM      6  C   UNL     1      27.968  25.134  12.484  1.00  0.00     0.093 A 
ATOM      7  C   UNL     1      28.464  26.295  11.873  1.00  0.00     0.127 A 
ATOM      8  C   UNL     1      29.784  26.313  11.341  1.00  0.00     0.035 A 
ATOM      9  C   UNL     1      30.435  27.493  10.850  1.00  0.00     0.039 A 
ATOM     10  C   UNL     1      31.544  27.339   9.971  1.00  0.00    -0.014 A 
ATOM     11  C   UNL     1      32.110  28.455   9.340  1.00  0.00     0.013 A 
ATOM     12  C   UNL     1      31.645  29.735   9.626  1.00  0.00     0.051 A 
ATOM     13  C   UNL     1      30.673  29.923  10.609  1.00  0.00     0.158 A 
ATOM     14  C   UNL     1      30.108  28.815  11.268  1.00  0.00     0.166 A 
ENDROOT
BRANCH  14  15
ATOM     15  O   UNL     1      29.313  29.034  12.394  1.00  0.00    -0.504 OA
ATOM     16  H   UNL     1      28.806  29.898  12.547  1.00  0.00     0.293 HD
ENDBRANCH  14  15
BRANCH   5  17
ATOM     17  O   UNL     1      28.211  22.795  13.071  1.00  0.00    -0.508 OA
ATOM     18  H   UNL     1      28.028  22.758  14.066  1.00  0.00     0.293 HD
ENDBRANCH   5  17
BRANCH   7  19
ATOM     19  O   UNL     1      27.600  27.377  11.712  1.00  0.00    -0.507 OA
ATOM     20  H   UNL     1      26.791  27.332  11.103  1.00  0.00     0.293 HD
ENDBRANCH   7  19
BRANCH  13  21
ATOM     21  O   UNL     1      30.281  31.216  10.957  1.00  0.00    -0.504 OA
ATOM     22  H   UNL     1      30.554  32.021  10.404  1.00  0.00     0.293 HD
ENDBRANCH  13  21
TORSDOF 4
ENDMDL
MODEL 6
REMARK VINA RESULT:    -4.670      2.541      5.991
REMARK INTER + INTRA:          -5.217
REMARK INTER:                  -5.217
REMARK INTRA:                   0.000
REMARK UNBOUND:                 0.000
REMARK SMILES Oc1cc(O)c2c(ccc3ccc(O)c(O)c32)c1
REMARK SMILES IDX 9 1 8 2 7 3 18 4 2 5 3 6 4 7 6 8 17 9 10 10 11 11 12 12
REMARK SMILES IDX 13 13 15 14 16 15 1 17 5 19 14 21
REMARK H PARENT 16 16 1 18 5 20 14 22
REMARK Flexibility Score: inf
ROOT
ATOM      1  C   UNL     1      32.125  22.806   9.766  1.00  0.00     0.009 A 
ATOM      2  C   UNL     1      31.962  24.178   9.626  1.00  0.00     0.009 A 
ATOM      3  C   UNL     1      31.753  24.983  10.750  1.00  0.00    -0.010 A 
ATOM      4  C   UNL     1      31.667  26.375  10.589  1.00  0.00     0.055 A 
ATOM      5  C   UNL     1      31.593  27.211  11.700  1.00  0.00     0.119 A 
ATOM      6  C   UNL     1      31.668  26.666  12.982  1.00  0.00     0.093 A 
ATOM      7  C   UNL     1      31.778  25.280  13.165  1.00  0.00     0.127 A 
ATOM      8  C   UNL     1      31.680  24.402  12.049  1.00  0.00     0.035 A 
ATOM      9  C   UNL     1      31.613  22.974  12.154  1.00  0.00     0.039 A 
ATOM     10  C   UNL     1      31.944  22.193  11.011  1.00  0.00    -0.014 A 
ATOM     11  C   UNL     1      32.050  20.799  11.109  1.00  0.00     0.013 A 
ATOM     12  C   UNL     1      31.756  20.155  12.306  1.00  0.00     0.051 A 
ATOM     13  C   UNL     1      31.268  20.883  13.392  1.00  0.00     0.158 A 
ATOM     14  C   UNL     1      31.135  22.282  13.304  1.00  0.00     0.166 A 
ENDROOT
BRANCH  14  15
ATOM     15  O   UNL     1      30.439  22.957  14.309  1.00  0.00    -0.504 OA
ATOM     16  H   UNL     1      29.451  23.172  14.240  1.00  0.00     0.293 HD
ENDBRANCH  14  15
BRANCH   5  17
ATOM     17  O   UNL     1      31.484  28.589  11.517  1.00  0.00    -0.508 OA
ATOM     18  H   UNL     1      32.002  29.241  12.093  1.00  0.00     0.293 HD
ENDBRANCH   5  17
BRANCH   7  19
ATOM     19  O   UNL     1      32.086  24.804  14.439  1.00  0.00    -0.507 OA
ATOM     20  H   UNL     1      31.392  24.358  15.027  1.00  0.00     0.293 HD
ENDBRANCH   7  19
BRANCH  13  21
ATOM     21  O   UNL     1      30.885  20.217  14.556  1.00  0.00    -0.504 OA
ATOM     22  H   UNL     1      30.280  19.404  14.530  1.00  0.00     0.293 HD
ENDBRANCH  13  21
TORSDOF 4
ENDMDL
MODEL 7
REMARK VINA RESULT:    -4.442      2.447      5.830
REMARK INTER + INTRA:          -4.961
REMARK INTER:                  -4.961
REMARK INTRA:                   0.000
REMARK UNBOUND:                 0.000
REMARK SMILES Oc1cc(O)c2c(ccc3ccc(O)c(O)c32)c1
REMARK SMILES IDX 9 1 8 2 7 3 18 4 2 5 3 6 4 7 6 8 17 9 10 10 11 11 12 12
REMARK SMILES IDX 13 13 15 14 16 15 1 17 5 19 14 21
REMARK H PARENT 16 16 1 18 5 20 14 22
REMARK Flexibility Score: inf
ROOT
ATOM      1  C   UNL     1      31.640  23.269  14.547  1.00  0.00     0.009 A 
ATOM      2  C   UNL     1      31.696  24.620  14.233  1.00  0.00     0.009 A 
ATOM      3  C   UNL     1      31.539  25.045  12.910  1.00  0.00    -0.010 A 
ATOM      4  C   UNL     1      31.524  26.421  12.630  1.00  0.00     0.055 A 
ATOM      5  C   UNL     1      31.237  26.877  11.347  1.00  0.00     0.119 A 
ATOM      6  C   UNL     1      30.901  25.963  10.347  1.00  0.00     0.093 A 
ATOM      7  C   UNL     1      30.887  24.586  10.611  1.00  0.00     0.127 A 
ATOM      8  C   UNL     1      31.345  24.095  11.866  1.00  0.00     0.035 A 
ATOM      9  C   UNL     1      31.525  22.705  12.168  1.00  0.00     0.039 A 
ATOM     10  C   UNL     1      31.566  22.307  13.533  1.00  0.00    -0.014 A 
ATOM     11  C   UNL     1      31.578  20.948  13.877  1.00  0.00     0.013 A 
ATOM     12  C   UNL     1      31.628  19.974  12.887  1.00  0.00     0.051 A 
ATOM     13  C   UNL     1      31.757  20.343  11.547  1.00  0.00     0.158 A 
ATOM     14  C   UNL     1      31.769  21.703  11.185  1.00  0.00     0.166 A 
ENDROOT
BRANCH  14  15
ATOM     15  O   UNL     1      32.124  22.050   9.880  1.00  0.00    -0.504 OA
ATOM     16  H   UNL     1      31.441  22.305   9.176  1.00  0.00     0.293 HD
ENDBRANCH  14  15
BRANCH   5  17
ATOM     17  O   UNL     1      31.251  28.246  11.084  1.00  0.00    -0.508 OA
ATOM     18  H   UNL     1      30.393  28.772  10.976  1.00  0.00     0.293 HD
ENDBRANCH   5  17
BRANCH   7  19
ATOM     19  O   UNL     1      30.321  23.737   9.662  1.00  0.00    -0.507 OA
ATOM     20  H   UNL     1      30.888  23.134   9.076  1.00  0.00     0.293 HD
ENDBRANCH   7  19
BRANCH  13  21
ATOM     21  O   UNL     1      31.903  19.359  10.569  1.00  0.00    -0.504 OA
ATOM     22  H   UNL     1      31.699  19.544   9.593  1.00  0.00     0.293 HD
ENDBRANCH  13  21
TORSDOF 4
ENDMDL
MODEL 8
REMARK VINA RESULT:    -4.385      1.672      1.907
REMARK INTER + INTRA:          -4.898
REMARK INTER:                  -4.898
REMARK INTRA:                   0.000
REMARK UNBOUND:                 0.000
REMARK SMILES Oc1cc(O)c2c(ccc3ccc(O)c(O)c32)c1
REMARK SMILES IDX 9 1 8 2 7 3 18 4 2 5 3 6 4 7 6 8 17 9 10 10 11 11 12 12
REMARK SMILES IDX 13 13 15 14 16 15 1 17 5 19 14 21
REMARK H PARENT 16 16 1 18 5 20 14 22
REMARK Flexibility Score: inf
ROOT
ATOM      1  C   UNL     1      31.973  25.852  14.111  1.00  0.00     0.009 A 
ATOM      2  C   UNL     1      32.122  24.484  14.295  1.00  0.00     0.009 A 
ATOM      3  C   UNL     1      31.756  23.590  13.284  1.00  0.00    -0.010 A 
ATOM      4  C   UNL     1      31.987  22.218  13.465  1.00  0.00     0.055 A 
ATOM      5  C   UNL     1      31.757  21.319  12.427  1.00  0.00     0.119 A 
ATOM      6  C   UNL     1      31.353  21.794  11.179  1.00  0.00     0.093 A 
ATOM      7  C   UNL     1      31.139  23.163  10.969  1.00  0.00     0.127 A 
ATOM      8  C   UNL     1      31.201  24.072  12.063  1.00  0.00     0.035 A 
ATOM      9  C   UNL     1      30.836  25.456  11.979  1.00  0.00     0.039 A 
ATOM     10  C   UNL     1      31.327  26.348  12.973  1.00  0.00    -0.014 A 
ATOM     11  C   UNL     1      31.132  27.730  12.846  1.00  0.00     0.013 A 
ATOM     12  C   UNL     1      30.388  28.240  11.787  1.00  0.00     0.051 A 
ATOM     13  C   UNL     1      29.756  27.373  10.894  1.00  0.00     0.158 A 
ATOM     14  C   UNL     1      29.923  25.981  11.020  1.00  0.00     0.166 A 
ENDROOT
BRANCH  14  15
ATOM     15  O   UNL     1      29.109  25.134  10.266  1.00  0.00    -0.504 OA
ATOM     16  H   UNL     1      29.263  24.961   9.280  1.00  0.00     0.293 HD
ENDBRANCH  14  15
BRANCH   5  17
ATOM     17  O   UNL     1      31.970  19.957  12.636  1.00  0.00    -0.508 OA
ATOM     18  H   UNL     1      32.478  19.393  11.966  1.00  0.00     0.293 HD
ENDBRANCH   5  17
BRANCH   7  19
ATOM     19  O   UNL     1      30.970  23.613   9.660  1.00  0.00    -0.507 OA
ATOM     20  H   UNL     1      30.327  24.362   9.429  1.00  0.00     0.293 HD
ENDBRANCH   7  19
BRANCH  13  21
ATOM     21  O   UNL     1      28.933  27.890   9.893  1.00  0.00    -0.504 OA
ATOM     22  H   UNL     1      27.935  28.005  10.031  1.00  0.00     0.293 HD
ENDBRANCH  13  21
TORSDOF 4
ENDMDL
MODEL 9
REMARK VINA RESULT:    -4.293      1.127      5.026
REMARK INTER + INTRA:          -4.795
REMARK INTER:                  -4.795
REMARK INTRA:                   0.000
REMARK UNBOUND:                 0.000
REMARK SMILES Oc1cc(O)c2c(ccc3ccc(O)c(O)c32)c1
REMARK SMILES IDX 9 1 8 2 7 3 18 4 2 5 3 6 4 7 6 8 17 9 10 10 11 11 12 12
REMARK SMILES IDX 13 13 15 14 16 15 1 17 5 19 14 21
REMARK H PARENT 16 16 1 18 5 20 14 22
REMARK Flexibility Score: inf
ROOT
ATOM      1  C   UNL     1      32.124  25.647  13.201  1.00  0.00     0.009 A 
ATOM      2  C   UNL     1      31.503  26.699  12.543  1.00  0.00     0.009 A 
ATOM      3  C   UNL     1      30.151  26.616  12.193  1.00  0.00    -0.010 A 
ATOM      4  C   UNL     1      29.528  27.722  11.597  1.00  0.00     0.055 A 
ATOM      5  C   UNL     1      28.156  27.717  11.360  1.00  0.00     0.119 A 
ATOM      6  C   UNL     1      27.387  26.630  11.775  1.00  0.00     0.093 A 
ATOM      7  C   UNL     1      27.986  25.524  12.394  1.00  0.00     0.127 A 
ATOM      8  C   UNL     1      29.404  25.438  12.486  1.00  0.00     0.035 A 
ATOM      9  C   UNL     1      30.110  24.279  12.948  1.00  0.00     0.039 A 
ATOM     10  C   UNL     1      31.450  24.437  13.400  1.00  0.00    -0.014 A 
ATOM     11  C   UNL     1      32.125  23.370  14.008  1.00  0.00     0.013 A 
ATOM     12  C   UNL     1      31.520  22.122  14.107  1.00  0.00     0.051 A 
ATOM     13  C   UNL     1      30.273  21.899  13.522  1.00  0.00     0.158 A 
ATOM     14  C   UNL     1      29.590  22.954  12.888  1.00  0.00     0.166 A 
ENDROOT
BRANCH  14  15
ATOM     15  O   UNL     1      28.462  22.661  12.120  1.00  0.00    -0.504 OA
ATOM     16  H   UNL     1      28.366  21.801  11.594  1.00  0.00     0.293 HD
ENDBRANCH  14  15
BRANCH   5  17
ATOM     17  O   UNL     1      27.560  28.817  10.744  1.00  0.00    -0.508 OA
ATOM     18  H   UNL     1      27.973  29.740  10.796  1.00  0.00     0.293 HD
ENDBRANCH   5  17
BRANCH   7  19
ATOM     19  O   UNL     1      27.160  24.579  13.000  1.00  0.00    -0.507 OA
ATOM     20  H   UNL     1      27.443  23.611  13.111  1.00  0.00     0.293 HD
ENDBRANCH   7  19
BRANCH  13  21
ATOM     21  O   UNL     1      29.716  20.620  13.543  1.00  0.00    -0.504 OA
ATOM     22  H   UNL     1      29.560  20.122  14.412  1.00  0.00     0.293 HD
ENDBRANCH  13  21
TORSDOF 4
ENDMDL
