MODEL 1
REMARK VINA RESULT:    -3.725      0.000      0.000
REMARK INTER + INTRA:          -4.587
REMARK INTER:                  -4.378
REMARK INTRA:                  -0.209
REMARK UNBOUND:                -0.209
REMARK SMILES [NH3+][C@@H](CO)C(=O)[O-]
REMARK SMILES IDX 3 1 2 2 1 3 5 7 6 8 7 9 4 10
REMARK H PARENT 1 4 1 5 1 6 4 11
REMARK Flexibility Score: inf
ROOT
ATOM      1  C   UNL     1     -25.149   7.797 -14.643  1.00  0.00     0.227 C 
ENDROOT
BRANCH   1   2
ATOM      2  C   UNL     1     -24.833   6.394 -14.094  1.00  0.00     0.253 C 
BRANCH   2   3
ATOM      3  N   UNL     1     -24.444   6.446 -12.679  1.00  0.00    -0.348 N 
ATOM      4  H   UNL     1     -25.156   5.945 -12.099  1.00  0.00     0.345 HD
ATOM      5  H   UNL     1     -23.510   6.001 -12.527  1.00  0.00     0.345 HD
ATOM      6  H   UNL     1     -24.404   7.441 -12.358  1.00  0.00     0.345 HD
ENDBRANCH   2   3
BRANCH   2   7
ATOM      7  C   UNL     1     -23.771   5.718 -14.920  1.00  0.00     0.102 C 
ATOM      8  O   UNL     1     -23.983   4.591 -15.440  1.00  0.00    -0.544 OA
ATOM      9  O   UNL     1     -22.530   6.321 -15.080  1.00  0.00    -0.544 OA
ENDBRANCH   2   7
ENDBRANCH   1   2
BRANCH   1  10
ATOM     10  O   UNL     1     -24.011   8.620 -14.631  1.00  0.00    -0.390 OA
ATOM     11  H   UNL     1     -23.952   9.045 -15.527  1.00  0.00     0.210 HD
ENDBRANCH   1  10
TORSDOF 4
ENDMDL
MODEL 2
REMARK VINA RESULT:    -3.676      2.640      3.735
REMARK INTER + INTRA:          -4.530
REMARK INTER:                  -4.319
REMARK INTRA:                  -0.211
REMARK UNBOUND:                -0.209
REMARK SMILES [NH3+][C@@H](CO)C(=O)[O-]
REMARK SMILES IDX 3 1 2 2 1 3 5 7 6 8 7 9 4 10
REMARK H PARENT 1 4 1 5 1 6 4 11
REMARK Flexibility Score: inf
ROOT
ATOM      1  C   UNL     1     -23.178   4.294 -17.443  1.00  0.00     0.227 C 
ENDROOT
BRANCH   1   2
ATOM      2  C   UNL     1     -23.326   4.194 -15.914  1.00  0.00     0.253 C 
BRANCH   2   3
ATOM      3  N   UNL     1     -23.543   2.807 -15.483  1.00  0.00    -0.348 N 
ATOM      4  H   UNL     1     -24.506   2.501 -15.753  1.00  0.00     0.345 HD
ATOM      5  H   UNL     1     -22.847   2.162 -15.923  1.00  0.00     0.345 HD
ATOM      6  H   UNL     1     -23.458   2.741 -14.442  1.00  0.00     0.345 HD
ENDBRANCH   2   3
BRANCH   2   7
ATOM      7  C   UNL     1     -24.431   5.091 -15.420  1.00  0.00     0.102 C 
ATOM      8  O   UNL     1     -25.610   4.945 -15.837  1.00  0.00    -0.544 OA
ATOM      9  O   UNL     1     -24.144   6.116 -14.529  1.00  0.00    -0.544 OA
ENDBRANCH   2   7
ENDBRANCH   1   2
BRANCH   1  10
ATOM     10  O   UNL     1     -24.359   3.909 -18.098  1.00  0.00    -0.390 OA
ATOM     11  H   UNL     1     -25.107   4.378 -17.645  1.00  0.00     0.210 HD
ENDBRANCH   1  10
TORSDOF 4
ENDMDL
MODEL 3
REMARK VINA RESULT:    -3.652      1.569      2.145
REMARK INTER + INTRA:          -4.501
REMARK INTER:                  -4.495
REMARK INTRA:                  -0.006
REMARK UNBOUND:                -0.209
REMARK SMILES [NH3+][C@@H](CO)C(=O)[O-]
REMARK SMILES IDX 3 1 2 2 1 3 5 7 6 8 7 9 4 10
REMARK H PARENT 1 4 1 5 1 6 4 11
REMARK Flexibility Score: inf
ROOT
ATOM      1  C   UNL     1     -22.233   6.274 -15.263  1.00  0.00     0.227 C 
ENDROOT
BRANCH   1   2
ATOM      2  C   UNL     1     -23.709   6.126 -14.850  1.00  0.00     0.253 C 
BRANCH   2   3
ATOM      3  N   UNL     1     -23.857   6.083 -13.390  1.00  0.00    -0.348 N 
ATOM      4  H   UNL     1     -23.371   6.904 -12.962  1.00  0.00     0.345 HD
ATOM      5  H   UNL     1     -24.865   6.103 -13.112  1.00  0.00     0.345 HD
ATOM      6  H   UNL     1     -23.417   5.211 -13.014  1.00  0.00     0.345 HD
ENDBRANCH   2   3
BRANCH   2   7
ATOM      7  C   UNL     1     -24.328   4.912 -15.491  1.00  0.00     0.102 C 
ATOM      8  O   UNL     1     -25.536   4.922 -15.849  1.00  0.00    -0.544 OA
ATOM      9  O   UNL     1     -23.577   3.756 -15.654  1.00  0.00    -0.544 OA
ENDBRANCH   2   7
ENDBRANCH   1   2
BRANCH   1  10
ATOM     10  O   UNL     1     -21.851   7.624 -15.321  1.00  0.00    -0.390 OA
ATOM     11  H   UNL     1     -21.271   7.794 -14.533  1.00  0.00     0.210 HD
ENDBRANCH   1  10
TORSDOF 4
ENDMDL
MODEL 4
REMARK VINA RESULT:    -3.613      1.620      1.924
REMARK INTER + INTRA:          -4.456
REMARK INTER:                  -4.439
REMARK INTRA:                  -0.016
REMARK UNBOUND:                -0.209
REMARK SMILES [NH3+][C@@H](CO)C(=O)[O-]
REMARK SMILES IDX 3 1 2 2 1 3 5 7 6 8 7 9 4 10
REMARK H PARENT 1 4 1 5 1 6 4 11
REMARK Flexibility Score: inf
ROOT
ATOM      1  C   UNL     1     -24.943   6.915 -14.399  1.00  0.00     0.227 C 
ENDROOT
BRANCH   1   2
ATOM      2  C   UNL     1     -23.867   5.821 -14.521  1.00  0.00     0.253 C 
BRANCH   2   3
ATOM      3  N   UNL     1     -22.560   6.389 -14.874  1.00  0.00    -0.348 N 
ATOM      4  H   UNL     1     -22.676   7.387 -15.162  1.00  0.00     0.345 HD
ATOM      5  H   UNL     1     -21.899   6.345 -14.065  1.00  0.00     0.345 HD
ATOM      6  H   UNL     1     -22.150   5.862 -15.679  1.00  0.00     0.345 HD
ENDBRANCH   2   3
BRANCH   2   7
ATOM      7  C   UNL     1     -24.282   4.766 -15.513  1.00  0.00     0.102 C 
ATOM      8  O   UNL     1     -23.478   3.861 -15.861  1.00  0.00    -0.544 OA
ATOM      9  O   UNL     1     -25.548   4.812 -16.083  1.00  0.00    -0.544 OA
ENDBRANCH   2   7
ENDBRANCH   1   2
BRANCH   1  10
ATOM     10  O   UNL     1     -24.386   8.198 -14.529  1.00  0.00    -0.390 OA
ATOM     11  H   UNL     1     -24.290   8.565 -13.612  1.00  0.00     0.210 HD
ENDBRANCH   1  10
TORSDOF 4
ENDMDL
MODEL 5
REMARK VINA RESULT:    -3.595      2.180      3.329
REMARK INTER + INTRA:          -4.435
REMARK INTER:                  -4.422
REMARK INTRA:                  -0.013
REMARK UNBOUND:                -0.209
REMARK SMILES [NH3+][C@@H](CO)C(=O)[O-]
REMARK SMILES IDX 3 1 2 2 1 3 5 7 6 8 7 9 4 10
REMARK H PARENT 1 4 1 5 1 6 4 11
REMARK Flexibility Score: inf
ROOT
ATOM      1  C   UNL     1     -23.217   4.304 -16.722  1.00  0.00     0.227 C 
ENDROOT
BRANCH   1   2
ATOM      2  C   UNL     1     -24.079   4.644 -15.493  1.00  0.00     0.253 C 
BRANCH   2   3
ATOM      3  N   UNL     1     -25.501   4.742 -15.843  1.00  0.00    -0.348 N 
ATOM      4  H   UNL     1     -25.666   4.295 -16.774  1.00  0.00     0.345 HD
ATOM      5  H   UNL     1     -26.100   4.268 -15.129  1.00  0.00     0.345 HD
ATOM      6  H   UNL     1     -25.782   5.748 -15.909  1.00  0.00     0.345 HD
ENDBRANCH   2   3
BRANCH   2   7
ATOM      7  C   UNL     1     -23.598   5.908 -14.831  1.00  0.00     0.102 C 
ATOM      8  O   UNL     1     -24.329   6.520 -14.007  1.00  0.00    -0.544 OA
ATOM      9  O   UNL     1     -22.354   6.431 -15.159  1.00  0.00    -0.544 OA
ENDBRANCH   2   7
ENDBRANCH   1   2
BRANCH   1  10
ATOM     10  O   UNL     1     -24.014   3.990 -17.835  1.00  0.00    -0.390 OA
ATOM     11  H   UNL     1     -23.737   4.597 -18.570  1.00  0.00     0.210 HD
ENDBRANCH   1  10
TORSDOF 4
ENDMDL
MODEL 6
REMARK VINA RESULT:    -3.518      2.348      3.027
REMARK INTER + INTRA:          -4.344
REMARK INTER:                  -4.337
REMARK INTRA:                  -0.007
REMARK UNBOUND:                -0.209
REMARK SMILES [NH3+][C@@H](CO)C(=O)[O-]
REMARK SMILES IDX 3 1 2 2 1 3 5 7 6 8 7 9 4 10
REMARK H PARENT 1 4 1 5 1 6 4 11
REMARK Flexibility Score: inf
ROOT
ATOM      1  C   UNL     1     -25.800   5.052 -15.832  1.00  0.00     0.227 C 
ENDROOT
BRANCH   1   2
ATOM      2  C   UNL     1     -24.286   4.778 -15.812  1.00  0.00     0.253 C 
BRANCH   2   3
ATOM      3  N   UNL     1     -23.996   3.387 -15.440  1.00  0.00    -0.348 N 
ATOM      4  H   UNL     1     -22.973   3.279 -15.250  1.00  0.00     0.345 HD
ATOM      5  H   UNL     1     -24.531   3.105 -14.587  1.00  0.00     0.345 HD
ATOM      6  H   UNL     1     -24.251   2.749 -16.229  1.00  0.00     0.345 HD
ENDBRANCH   2   3
BRANCH   2   7
ATOM      7  C   UNL     1     -23.576   5.740 -14.897  1.00  0.00     0.102 C 
ATOM      8  O   UNL     1     -24.118   6.127 -13.827  1.00  0.00    -0.544 OA
ATOM      9  O   UNL     1     -22.329   6.240 -15.251  1.00  0.00    -0.544 OA
ENDBRANCH   2   7
ENDBRANCH   1   2
BRANCH   1  10
ATOM     10  O   UNL     1     -26.362   4.736 -17.080  1.00  0.00    -0.390 OA
ATOM     11  H   UNL     1     -26.691   3.801 -17.019  1.00  0.00     0.210 HD
ENDBRANCH   1  10
TORSDOF 4
ENDMDL
MODEL 7
REMARK VINA RESULT:    -3.426      1.929      3.110
REMARK INTER + INTRA:          -4.236
REMARK INTER:                  -3.936
REMARK INTRA:                  -0.300
REMARK UNBOUND:                -0.209
REMARK SMILES [NH3+][C@@H](CO)C(=O)[O-]
REMARK SMILES IDX 3 1 2 2 1 3 5 7 6 8 7 9 4 10
REMARK H PARENT 1 4 1 5 1 6 4 11
REMARK Flexibility Score: inf
ROOT
ATOM      1  C   UNL     1     -23.533   4.581 -15.697  1.00  0.00     0.227 C 
ENDROOT
BRANCH   1   2
ATOM      2  C   UNL     1     -23.378   6.055 -15.284  1.00  0.00     0.253 C 
BRANCH   2   3
ATOM      3  N   UNL     1     -22.037   6.326 -14.749  1.00  0.00    -0.348 N 
ATOM      4  H   UNL     1     -21.695   5.491 -14.220  1.00  0.00     0.345 HD
ATOM      5  H   UNL     1     -21.361   6.541 -15.517  1.00  0.00     0.345 HD
ATOM      6  H   UNL     1     -22.075   7.137 -14.090  1.00  0.00     0.345 HD
ENDBRANCH   2   3
BRANCH   2   7
ATOM      7  C   UNL     1     -24.443   6.454 -14.297  1.00  0.00     0.102 C 
ATOM      8  O   UNL     1     -25.437   7.134 -14.666  1.00  0.00    -0.544 OA
ATOM      9  O   UNL     1     -24.312   6.105 -12.959  1.00  0.00    -0.544 OA
ENDBRANCH   2   7
ENDBRANCH   1   2
BRANCH   1  10
ATOM     10  O   UNL     1     -24.855   4.137 -15.527  1.00  0.00    -0.390 OA
ATOM     11  H   UNL     1     -25.435   4.942 -15.550  1.00  0.00     0.210 HD
ENDBRANCH   1  10
TORSDOF 4
ENDMDL
MODEL 8
REMARK VINA RESULT:    -3.375      2.296      2.809
REMARK INTER + INTRA:          -4.176
REMARK INTER:                  -3.985
REMARK INTRA:                  -0.191
REMARK UNBOUND:                -0.209
REMARK SMILES [NH3+][C@@H](CO)C(=O)[O-]
REMARK SMILES IDX 3 1 2 2 1 3 5 7 6 8 7 9 4 10
REMARK H PARENT 1 4 1 5 1 6 4 11
REMARK Flexibility Score: inf
ROOT
ATOM      1  C   UNL     1     -22.649   5.743 -15.637  1.00  0.00     0.227 C 
ENDROOT
BRANCH   1   2
ATOM      2  C   UNL     1     -23.828   4.863 -15.185  1.00  0.00     0.253 C 
BRANCH   2   3
ATOM      3  N   UNL     1     -23.947   3.656 -16.013  1.00  0.00    -0.348 N 
ATOM      4  H   UNL     1     -23.453   2.860 -15.548  1.00  0.00     0.345 HD
ATOM      5  H   UNL     1     -24.950   3.395 -16.157  1.00  0.00     0.345 HD
ATOM      6  H   UNL     1     -23.500   3.819 -16.944  1.00  0.00     0.345 HD
ENDBRANCH   2   3
BRANCH   2   7
ATOM      7  C   UNL     1     -25.115   5.645 -15.184  1.00  0.00     0.102 C 
ATOM      8  O   UNL     1     -26.101   5.260 -15.866  1.00  0.00    -0.544 OA
ATOM      9  O   UNL     1     -25.206   6.826 -14.458  1.00  0.00    -0.544 OA
ENDBRANCH   2   7
ENDBRANCH   1   2
BRANCH   1  10
ATOM     10  O   UNL     1     -22.523   6.885 -14.830  1.00  0.00    -0.390 OA
ATOM     11  H   UNL     1     -23.403   7.345 -14.841  1.00  0.00     0.210 HD
ENDBRANCH   1  10
TORSDOF 4
ENDMDL
MODEL 9
REMARK VINA RESULT:    -3.299      1.830      2.415
REMARK INTER + INTRA:          -4.087
REMARK INTER:                  -4.079
REMARK INTRA:                  -0.007
REMARK UNBOUND:                -0.209
REMARK SMILES [NH3+][C@@H](CO)C(=O)[O-]
REMARK SMILES IDX 3 1 2 2 1 3 5 7 6 8 7 9 4 10
REMARK H PARENT 1 4 1 5 1 6 4 11
REMARK Flexibility Score: inf
ROOT
ATOM      1  C   UNL     1     -25.118   5.145 -15.461  1.00  0.00     0.227 C 
ENDROOT
BRANCH   1   2
ATOM      2  C   UNL     1     -23.930   5.739 -14.682  1.00  0.00     0.253 C 
BRANCH   2   3
ATOM      3  N   UNL     1     -24.254   7.063 -14.136  1.00  0.00    -0.348 N 
ATOM      4  H   UNL     1     -24.787   7.616 -14.846  1.00  0.00     0.345 HD
ATOM      5  H   UNL     1     -24.830   6.982 -13.267  1.00  0.00     0.345 HD
ATOM      6  H   UNL     1     -23.372   7.580 -13.914  1.00  0.00     0.345 HD
ENDBRANCH   2   3
BRANCH   2   7
ATOM      7  C   UNL     1     -22.696   5.798 -15.544  1.00  0.00     0.102 C 
ATOM      8  O   UNL     1     -21.795   6.649 -15.317  1.00  0.00    -0.544 OA
ATOM      9  O   UNL     1     -22.565   4.935 -16.624  1.00  0.00    -0.544 OA
ENDBRANCH   2   7
ENDBRANCH   1   2
BRANCH   1  10
ATOM     10  O   UNL     1     -26.337   5.699 -15.038  1.00  0.00    -0.390 OA
ATOM     11  H   UNL     1     -26.540   6.453 -15.651  1.00  0.00     0.210 HD
ENDBRANCH   1  10
TORSDOF 4
ENDMDL
