MODEL 1
REMARK VINA RESULT:    -3.826      0.000      0.000
REMARK INTER + INTRA:          -3.960
REMARK INTER:                  -4.721
REMARK INTRA:                   0.761
REMARK UNBOUND:                 0.761
REMARK SMILES CC1=CC=CC(C)(C)CC1=O
REMARK SMILES IDX 1 1 2 2 3 3 10 4 11 5 9 6 4 8 5 9 6 10 7 11 8 12
REMARK H PARENT
REMARK Flexibility Score: 80.00
ROOT
ATOM      1  C   UNL     1      54.866  32.176  32.419  1.00  0.00     0.048 C 
ATOM      2  C   UNL     1      53.586  32.586  31.730  1.00  0.00    -0.008 C 
ATOM      3  C   UNL     1      53.498  33.854  31.275  1.00  0.00     0.007 C 
ENDROOT
BRANCH   2   4
ATOM      4  C   UNL     1      52.496  31.580  31.677  1.00  0.00     0.159 C 
ATOM      5  O   UNL     1      52.604  30.529  32.366  1.00  0.00    -0.295 OA
BRANCH   4   6
ATOM      6  C   UNL     1      51.268  31.736  30.833  1.00  0.00     0.091 CG0
ATOM      7  G   UNL     1      50.446  32.999  31.181  1.00  0.00     0.000 G0
ENDBRANCH   4   6
ENDBRANCH   2   4
BRANCH   3   8
ATOM      8  C   UNL     1      52.379  34.545  30.593  1.00  0.00    -0.003 C 
ATOM      9  C   UNL     1      51.083  34.210  30.547  1.00  0.00    -0.020 C 
BRANCH   9  10
ATOM     10  C   UNL     1      50.447  32.994  31.177  1.00  0.00    -0.010 CG0
ATOM     11  C   UNL     1      49.034  32.818  30.575  1.00  0.00     0.016 C 
ATOM     12  C   UNL     1      50.294  33.207  32.700  1.00  0.00     0.016 C 
ATOM     13  G   UNL     1      51.275  31.736  30.831  1.00  0.00     0.000 G0
ENDBRANCH   9  10
ENDBRANCH   3   8
TORSDOF 0
ENDMDL
MODEL 2
REMARK VINA RESULT:    -3.771      1.391      2.251
REMARK INTER + INTRA:          -3.891
REMARK INTER:                  -4.650
REMARK INTRA:                   0.759
REMARK UNBOUND:                 0.761
REMARK SMILES CC1=CC=CC(C)(C)CC1=O
REMARK SMILES IDX 1 1 2 2 3 3 10 4 11 5 9 6 4 8 5 9 6 10 7 11 8 12
REMARK H PARENT
REMARK Flexibility Score: 80.00
ROOT
ATOM      1  C   UNL     1      54.649  31.479  32.115  1.00  0.00     0.048 C 
ATOM      2  C   UNL     1      53.175  31.707  31.877  1.00  0.00    -0.008 C 
ATOM      3  C   UNL     1      52.548  30.891  31.003  1.00  0.00     0.007 C 
ENDROOT
BRANCH   2   4
ATOM      4  C   UNL     1      52.549  32.861  32.571  1.00  0.00     0.159 C 
ATOM      5  O   UNL     1      53.295  33.708  33.135  1.00  0.00    -0.295 OA
BRANCH   4   6
ATOM      6  C   UNL     1      51.068  33.073  32.650  1.00  0.00     0.091 CG0
ATOM      7  G   UNL     1      50.399  33.228  31.266  1.00  0.00     0.000 G0
ENDBRANCH   4   6
ENDBRANCH   2   4
BRANCH   3   8
ATOM      8  C   UNL     1      51.137  30.884  30.551  1.00  0.00    -0.003 C 
ATOM      9  C   UNL     1      50.219  31.856  30.636  1.00  0.00    -0.020 C 
BRANCH   9  10
ATOM     10  C   UNL     1      50.408  33.218  31.259  1.00  0.00    -0.010 CG0
ATOM     11  C   UNL     1      49.016  33.859  31.460  1.00  0.00     0.016 C 
ATOM     12  C   UNL     1      51.219  34.127  30.307  1.00  0.00     0.016 C 
ATOM     13  G   UNL     1      51.072  33.068  32.647  1.00  0.00     0.000 G0
ENDBRANCH   9  10
ENDBRANCH   3   8
TORSDOF 0
ENDMDL
MODEL 3
REMARK VINA RESULT:    -3.500     10.750     12.853
REMARK INTER + INTRA:          -3.557
REMARK INTER:                  -4.313
REMARK INTRA:                   0.756
REMARK UNBOUND:                 0.761
REMARK SMILES CC1=CC=CC(C)(C)CC1=O
REMARK SMILES IDX 1 1 2 2 3 3 10 4 11 5 9 6 4 8 5 9 6 10 7 11 8 12
REMARK H PARENT
REMARK Flexibility Score: 80.00
ROOT
ATOM      1  C   UNL     1      56.504  25.308  34.251  1.00  0.00     0.048 C 
ATOM      2  C   UNL     1      57.111  24.228  35.115  1.00  0.00    -0.008 C 
ATOM      3  C   UNL     1      56.271  23.348  35.700  1.00  0.00     0.007 C 
ENDROOT
BRANCH   2   4
ATOM      4  C   UNL     1      58.582  24.267  35.312  1.00  0.00     0.159 C 
ATOM      5  O   UNL     1      59.218  25.293  34.943  1.00  0.00    -0.295 OA
BRANCH   4   6
ATOM      6  C   UNL     1      59.365  23.143  35.917  1.00  0.00     0.091 CG0
ATOM      7  G   UNL     1      58.936  22.811  37.364  1.00  0.00     0.000 G0
ENDBRANCH   4   6
ENDBRANCH   2   4
BRANCH   3   8
ATOM      8  C   UNL     1      56.561  22.214  36.608  1.00  0.00    -0.003 C 
ATOM      9  C   UNL     1      57.664  21.970  37.329  1.00  0.00    -0.020 C 
BRANCH   9  10
ATOM     10  C   UNL     1      58.920  22.809  37.358  1.00  0.00    -0.010 CG0
ATOM     11  C   UNL     1      60.044  21.976  38.016  1.00  0.00     0.016 C 
ATOM     12  C   UNL     1      58.692  24.070  38.222  1.00  0.00     0.016 C 
ATOM     13  G   UNL     1      59.355  23.146  35.914  1.00  0.00     0.000 G0
ENDBRANCH   9  10
ENDBRANCH   3   8
TORSDOF 0
ENDMDL
MODEL 4
REMARK VINA RESULT:    -3.387      3.227      4.878
REMARK INTER + INTRA:          -3.417
REMARK INTER:                  -4.170
REMARK INTRA:                   0.752
REMARK UNBOUND:                 0.761
REMARK SMILES CC1=CC=CC(C)(C)CC1=O
REMARK SMILES IDX 1 1 2 2 3 3 10 4 11 5 9 6 4 8 5 9 6 10 7 11 8 12
REMARK H PARENT
REMARK Flexibility Score: 80.00
ROOT
ATOM      1  C   UNL     1      53.326  30.507  32.437  1.00  0.00     0.048 C 
ATOM      2  C   UNL     1      54.317  31.602  32.120  1.00  0.00    -0.008 C 
ATOM      3  C   UNL     1      55.524  31.234  31.638  1.00  0.00     0.007 C 
ENDROOT
BRANCH   2   4
ATOM      4  C   UNL     1      53.910  32.994  32.436  1.00  0.00     0.159 C 
ATOM      5  O   UNL     1      52.855  33.183  33.102  1.00  0.00    -0.295 OA
BRANCH   4   6
ATOM      6  C   UNL     1      54.681  34.201  31.995  1.00  0.00     0.091 CG0
ATOM      7  G   UNL     1      56.137  34.216  32.511  1.00  0.00     0.000 G0
ENDBRANCH   4   6
ENDBRANCH   2   4
BRANCH   3   8
ATOM      8  C   UNL     1      56.693  32.064  31.266  1.00  0.00    -0.003 C 
ATOM      9  C   UNL     1      56.985  33.321  31.625  1.00  0.00    -0.020 C 
BRANCH   9  10
ATOM     10  C   UNL     1      56.146  34.223  32.498  1.00  0.00    -0.010 CG0
ATOM     11  C   UNL     1      56.673  35.668  32.351  1.00  0.00     0.016 C 
ATOM     12  C   UNL     1      56.295  33.810  33.980  1.00  0.00     0.016 C 
ATOM     13  G   UNL     1      54.678  34.195  32.017  1.00  0.00     0.000 G0
ENDBRANCH   9  10
ENDBRANCH   3   8
TORSDOF 0
ENDMDL
MODEL 5
REMARK VINA RESULT:    -3.326      1.820      3.183
REMARK INTER + INTRA:          -3.343
REMARK INTER:                  -4.108
REMARK INTRA:                   0.766
REMARK UNBOUND:                 0.761
REMARK SMILES CC1=CC=CC(C)(C)CC1=O
REMARK SMILES IDX 1 1 2 2 3 3 10 4 11 5 9 6 4 8 5 9 6 10 7 11 8 12
REMARK H PARENT
REMARK Flexibility Score: 80.00
ROOT
ATOM      1  C   UNL     1      50.596  30.572  30.601  1.00  0.00     0.048 C 
ATOM      2  C   UNL     1      51.367  31.848  30.840  1.00  0.00    -0.008 C 
ATOM      3  C   UNL     1      52.603  31.743  31.374  1.00  0.00     0.007 C 
ENDROOT
BRANCH   2   4
ATOM      4  C   UNL     1      50.672  33.124  30.538  1.00  0.00     0.159 C 
ATOM      5  O   UNL     1      49.437  33.097  30.276  1.00  0.00    -0.295 OA
BRANCH   4   6
ATOM      6  C   UNL     1      51.360  34.455  30.513  1.00  0.00     0.091 CG0
ATOM      7  G   UNL     1      52.045  34.812  31.851  1.00  0.00     0.000 G0
ENDBRANCH   4   6
ENDBRANCH   2   4
BRANCH   3   8
ATOM      8  C   UNL     1      53.575  32.799  31.741  1.00  0.00    -0.003 C 
ATOM      9  C   UNL     1      53.361  34.104  31.957  1.00  0.00    -0.020 C 
BRANCH   9  10
ATOM     10  C   UNL     1      52.041  34.829  31.842  1.00  0.00    -0.010 CG0
ATOM     11  C   UNL     1      52.322  36.349  31.827  1.00  0.00     0.016 C 
ATOM     12  C   UNL     1      51.160  34.518  33.073  1.00  0.00     0.016 C 
ATOM     13  G   UNL     1      51.356  34.454  30.508  1.00  0.00     0.000 G0
ENDBRANCH   9  10
ENDBRANCH   3   8
TORSDOF 0
ENDMDL
MODEL 6
REMARK VINA RESULT:    -3.311      2.366      3.879
REMARK INTER + INTRA:          -3.324
REMARK INTER:                  -4.075
REMARK INTRA:                   0.751
REMARK UNBOUND:                 0.761
REMARK SMILES CC1=CC=CC(C)(C)CC1=O
REMARK SMILES IDX 1 1 2 2 3 3 10 4 11 5 9 6 4 8 5 9 6 10 7 11 8 12
REMARK H PARENT
REMARK Flexibility Score: 80.00
ROOT
ATOM      1  C   UNL     1      49.771  37.453  32.628  1.00  0.00     0.048 C 
ATOM      2  C   UNL     1      49.851  36.132  31.900  1.00  0.00    -0.008 C 
ATOM      3  C   UNL     1      48.689  35.540  31.548  1.00  0.00     0.007 C 
ENDROOT
BRANCH   2   4
ATOM      4  C   UNL     1      51.203  35.552  31.698  1.00  0.00     0.159 C 
ATOM      5  O   UNL     1      52.181  36.063  32.309  1.00  0.00    -0.295 OA
BRANCH   4   6
ATOM      6  C   UNL     1      51.477  34.392  30.790  1.00  0.00     0.091 CG0
ATOM      7  G   UNL     1      50.712  33.110  31.192  1.00  0.00     0.000 G0
ENDBRANCH   4   6
ENDBRANCH   2   4
BRANCH   3   8
ATOM      8  C   UNL     1      48.449  34.251  30.859  1.00  0.00    -0.003 C 
ATOM      9  C   UNL     1      49.276  33.208  30.706  1.00  0.00    -0.020 C 
BRANCH   9  10
ATOM     10  C   UNL     1      50.703  33.116  31.191  1.00  0.00    -0.010 CG0
ATOM     11  C   UNL     1      51.379  31.918  30.486  1.00  0.00     0.016 C 
ATOM     12  C   UNL     1      50.728  32.850  32.713  1.00  0.00     0.016 C 
ATOM     13  G   UNL     1      51.470  34.399  30.798  1.00  0.00     0.000 G0
ENDBRANCH   9  10
ENDBRANCH   3   8
TORSDOF 0
ENDMDL
MODEL 7
REMARK VINA RESULT:    -3.246      1.953      2.954
REMARK INTER + INTRA:          -3.244
REMARK INTER:                  -4.000
REMARK INTRA:                   0.756
REMARK UNBOUND:                 0.761
REMARK SMILES CC1=CC=CC(C)(C)CC1=O
REMARK SMILES IDX 1 1 2 2 3 3 10 4 11 5 9 6 4 8 5 9 6 10 7 11 8 12
REMARK H PARENT
REMARK Flexibility Score: 80.00
ROOT
ATOM      1  C   UNL     1      53.966  30.823  31.259  1.00  0.00     0.048 C 
ATOM      2  C   UNL     1      53.053  31.917  31.758  1.00  0.00    -0.008 C 
ATOM      3  C   UNL     1      51.738  31.632  31.872  1.00  0.00     0.007 C 
ENDROOT
BRANCH   2   4
ATOM      4  C   UNL     1      53.666  33.245  32.012  1.00  0.00     0.159 C 
ATOM      5  O   UNL     1      54.846  33.456  31.619  1.00  0.00    -0.295 OA
BRANCH   4   6
ATOM      6  C   UNL     1      52.961  34.358  32.726  1.00  0.00     0.091 CG0
ATOM      7  G   UNL     1      51.647  34.789  32.036  1.00  0.00     0.000 G0
ENDBRANCH   4   6
ENDBRANCH   2   4
BRANCH   3   8
ATOM      8  C   UNL     1      50.611  32.493  32.302  1.00  0.00    -0.003 C 
ATOM      9  C   UNL     1      50.547  33.830  32.367  1.00  0.00    -0.020 C 
BRANCH   9  10
ATOM     10  C   UNL     1      51.656  34.799  32.034  1.00  0.00    -0.010 CG0
ATOM     11  C   UNL     1      51.271  36.188  32.592  1.00  0.00     0.016 C 
ATOM     12  C   UNL     1      51.804  34.925  30.500  1.00  0.00     0.016 C 
ATOM     13  G   UNL     1      52.964  34.350  32.724  1.00  0.00     0.000 G0
ENDBRANCH   9  10
ENDBRANCH   3   8
TORSDOF 0
ENDMDL
MODEL 8
REMARK VINA RESULT:    -3.140      2.700      3.779
REMARK INTER + INTRA:          -3.113
REMARK INTER:                  -3.855
REMARK INTRA:                   0.742
REMARK UNBOUND:                 0.761
REMARK SMILES CC1=CC=CC(C)(C)CC1=O
REMARK SMILES IDX 1 1 2 2 3 3 10 4 11 5 9 6 4 8 5 9 6 10 7 11 8 12
REMARK H PARENT
REMARK Flexibility Score: 80.00
ROOT
ATOM      1  C   UNL     1      57.433  31.976  31.330  1.00  0.00     0.048 C 
ATOM      2  C   UNL     1      56.032  32.211  31.842  1.00  0.00    -0.008 C 
ATOM      3  C   UNL     1      55.141  31.203  31.716  1.00  0.00     0.007 C 
ENDROOT
BRANCH   2   4
ATOM      4  C   UNL     1      55.725  33.562  32.376  1.00  0.00     0.159 C 
ATOM      5  O   UNL     1      56.561  34.490  32.199  1.00  0.00    -0.295 OA
BRANCH   4   6
ATOM      6  C   UNL     1      54.473  33.887  33.132  1.00  0.00     0.091 CG0
ATOM      7  G   UNL     1      53.186  33.639  32.314  1.00  0.00     0.000 G0
ENDBRANCH   4   6
ENDBRANCH   2   4
BRANCH   3   8
ATOM      8  C   UNL     1      53.710  31.145  32.095  1.00  0.00    -0.003 C 
ATOM      9  C   UNL     1      52.861  32.151  32.345  1.00  0.00    -0.020 C 
BRANCH   9  10
ATOM     10  C   UNL     1      53.187  33.625  32.327  1.00  0.00    -0.010 CG0
ATOM     11  C   UNL     1      52.041  34.383  33.036  1.00  0.00     0.016 C 
ATOM     12  C   UNL     1      53.263  34.132  30.869  1.00  0.00     0.016 C 
ATOM     13  G   UNL     1      54.491  33.880  33.116  1.00  0.00     0.000 G0
ENDBRANCH   9  10
ENDBRANCH   3   8
TORSDOF 0
ENDMDL
MODEL 9
REMARK VINA RESULT:    -3.020      2.724      3.732
REMARK INTER + INTRA:          -2.965
REMARK INTER:                  -3.715
REMARK INTRA:                   0.750
REMARK UNBOUND:                 0.761
REMARK SMILES CC1=CC=CC(C)(C)CC1=O
REMARK SMILES IDX 1 1 2 2 3 3 10 4 11 5 9 6 4 8 5 9 6 10 7 11 8 12
REMARK H PARENT
REMARK Flexibility Score: 80.00
ROOT
ATOM      1  C   UNL     1      51.347  32.287  30.388  1.00  0.00     0.048 C 
ATOM      2  C   UNL     1      51.399  33.763  30.703  1.00  0.00    -0.008 C 
ATOM      3  C   UNL     1      52.615  34.325  30.871  1.00  0.00     0.007 C 
ENDROOT
BRANCH   2   4
ATOM      4  C   UNL     1      50.101  34.463  30.877  1.00  0.00     0.159 C 
ATOM      5  O   UNL     1      49.045  33.776  30.952  1.00  0.00    -0.295 OA
BRANCH   4   6
ATOM      6  C   UNL     1      49.970  35.953  30.958  1.00  0.00     0.091 CG0
ATOM      7  G   UNL     1      50.768  36.572  32.128  1.00  0.00     0.000 G0
ENDBRANCH   4   6
ENDBRANCH   2   4
BRANCH   3   8
ATOM      8  C   UNL     1      52.980  35.721  31.207  1.00  0.00    -0.003 C 
ATOM      9  C   UNL     1      52.223  36.685  31.748  1.00  0.00    -0.020 C 
BRANCH   9  10
ATOM     10  C   UNL     1      50.765  36.575  32.125  1.00  0.00    -0.010 CG0
ATOM     11  C   UNL     1      50.215  38.002  32.355  1.00  0.00     0.016 C 
ATOM     12  C   UNL     1      50.619  35.788  33.446  1.00  0.00     0.016 C 
ATOM     13  G   UNL     1      49.973  35.938  30.960  1.00  0.00     0.000 G0
ENDBRANCH   9  10
ENDBRANCH   3   8
TORSDOF 0
ENDMDL
