MODEL 1
REMARK VINA RESULT:    -5.725      0.000      0.000
REMARK INTER + INTRA:          -6.469
REMARK INTER:                  -6.227
REMARK INTRA:                  -0.242
REMARK UNBOUND:                -0.242
REMARK SMILES C[C@@H]1[C@H]2C3=CC[C@H]4[C@]5(C)CC[C@@H](O)C(C)(C)[C@H]5CC[C@]4(C)[C@@]3(C)CC[C@@]2(C(=O)[O-])CC[C@@H]1C
REMARK SMILES IDX 26 1 30 2 25 3 3 4 31 5 24 6 4 7 2 8 32 9 22 10 5 11 1 12
REMARK SMILES IDX 33 13 23 14 20 15 6 16 7 17 19 18 21 19 8 20 18 21 17 22
REMARK SMILES IDX 10 23 9 24 14 25 11 26 12 27 15 28 16 29 27 30 28 31 29 32
REMARK SMILES IDX 13 33
REMARK H PARENT 13 34
REMARK Flexibility Score: inf
ROOT
ATOM      1  C   UNL     1      24.485  -6.313  18.999  1.00  0.00     0.017 C 
ATOM      2  C   UNL     1      25.933  -6.840  19.285  1.00  0.00     0.014 C 
ATOM      3  C   UNL     1      24.635  -4.928  18.268  1.00  0.00     0.014 C 
ATOM      4  C   UNL     1      23.635  -6.245  20.356  1.00  0.00     0.030 C 
ATOM      5  C   UNL     1      25.938  -7.946  20.331  1.00  0.00     0.004 C 
ATOM      6  C   UNL     1      24.011  -3.743  19.011  1.00  0.00     0.013 C 
ATOM      7  C   UNL     1      22.502  -5.188  20.348  1.00  0.00    -0.063 C 
ATOM      8  C   UNL     1      24.579  -6.144  21.611  1.00  0.00    -0.003 C 
ATOM      9  C   UNL     1      25.513  -7.406  21.716  1.00  0.00    -0.011 C 
ATOM     10  C   UNL     1      22.524  -3.982  19.401  1.00  0.00    -0.006 C 
ATOM     11  C   UNL     1      21.430  -5.394  21.148  1.00  0.00    -0.027 C 
ATOM     12  C   UNL     1      23.873  -5.871  22.956  1.00  0.00     0.008 C 
ATOM     13  C   UNL     1      24.922  -8.568  22.540  1.00  0.00     0.008 C 
ATOM     14  C   UNL     1      21.748  -4.390  18.100  1.00  0.00     0.017 C 
ATOM     15  C   UNL     1      21.866  -2.685  20.106  1.00  0.00    -0.020 C 
ATOM     16  C   UNL     1      20.483  -4.312  21.594  1.00  0.00     0.032 C 
ATOM     17  C   UNL     1      20.434  -3.074  20.664  1.00  0.00     0.006 C 
ATOM     18  C   UNL     1      21.703  -1.510  19.087  1.00  0.00     0.008 C 
ATOM     19  C   UNL     1      22.804  -2.182  21.247  1.00  0.00     0.012 C 
ATOM     20  C   UNL     1      19.509  -1.881  21.182  1.00  0.00    -0.025 C 
ATOM     21  C   UNL     1      20.854  -0.336  19.607  1.00  0.00     0.005 C 
ATOM     22  C   UNL     1      19.439  -0.817  20.021  1.00  0.00     0.003 C 
ATOM     23  C   UNL     1      18.064  -2.433  21.408  1.00  0.00     0.010 C 
ATOM     24  C   UNL     1      20.020  -1.284  22.537  1.00  0.00     0.012 C 
ATOM     25  C   UNL     1      18.356   0.325  20.183  1.00  0.00    -0.006 C 
ATOM     26  C   UNL     1      17.001  -1.343  21.616  1.00  0.00     0.033 C 
ATOM     27  C   UNL     1      16.967  -0.337  20.457  1.00  0.00     0.120 C 
ATOM     28  C   UNL     1      18.709   1.353  21.289  1.00  0.00     0.014 C 
ATOM     29  C   UNL     1      18.225   1.119  18.852  1.00  0.00     0.014 C 
ENDROOT
BRANCH   1  30
ATOM     30  C   UNL     1      23.832  -7.295  18.020  1.00  0.00     0.048 C 
ATOM     31  O   UNL     1      23.940  -7.111  16.776  1.00  0.00    -0.550 OA
ATOM     32  O   UNL     1      23.081  -8.379  18.463  1.00  0.00    -0.550 OA
ENDBRANCH   1  30
BRANCH  27  33
ATOM     33  O   UNL     1      15.999   0.647  20.724  1.00  0.00    -0.393 OA
ATOM     34  H   UNL     1      16.118   0.923  21.671  1.00  0.00     0.210 HD
ENDBRANCH  27  33
TORSDOF 2
ENDMDL
MODEL 2
REMARK VINA RESULT:    -5.369      2.363      7.848
REMARK INTER + INTRA:          -6.082
REMARK INTER:                  -5.865
REMARK INTRA:                  -0.216
REMARK UNBOUND:                -0.242
REMARK SMILES C[C@@H]1[C@H]2C3=CC[C@H]4[C@]5(C)CC[C@@H](O)C(C)(C)[C@H]5CC[C@]4(C)[C@@]3(C)CC[C@@]2(C(=O)[O-])CC[C@@H]1C
REMARK SMILES IDX 26 1 30 2 25 3 3 4 31 5 24 6 4 7 2 8 32 9 22 10 5 11 1 12
REMARK SMILES IDX 33 13 23 14 20 15 6 16 7 17 19 18 21 19 8 20 18 21 17 22
REMARK SMILES IDX 10 23 9 24 14 25 11 26 12 27 15 28 16 29 27 30 28 31 29 32
REMARK SMILES IDX 13 33
REMARK H PARENT 13 34
REMARK Flexibility Score: inf
ROOT
ATOM      1  C   UNL     1      21.200   0.069  19.770  1.00  0.00     0.017 C 
ATOM      2  C   UNL     1      21.310   1.468  20.467  1.00  0.00     0.014 C 
ATOM      3  C   UNL     1      20.328  -0.846  20.707  1.00  0.00     0.014 C 
ATOM      4  C   UNL     1      22.658  -0.518  19.460  1.00  0.00     0.030 C 
ATOM      5  C   UNL     1      22.442   2.304  19.886  1.00  0.00     0.004 C 
ATOM      6  C   UNL     1      21.043  -2.098  21.223  1.00  0.00     0.013 C 
ATOM      7  C   UNL     1      22.723  -2.066  19.398  1.00  0.00    -0.063 C 
ATOM      8  C   UNL     1      23.740   0.119  20.408  1.00  0.00    -0.003 C 
ATOM      9  C   UNL     1      23.819   1.677  20.205  1.00  0.00    -0.011 C 
ATOM     10  C   UNL     1      21.675  -2.950  20.084  1.00  0.00    -0.006 C 
ATOM     11  C   UNL     1      23.693  -2.634  18.646  1.00  0.00    -0.027 C 
ATOM     12  C   UNL     1      25.144  -0.515  20.339  1.00  0.00     0.008 C 
ATOM     13  C   UNL     1      24.828   2.127  19.129  1.00  0.00     0.008 C 
ATOM     14  C   UNL     1      20.552  -3.252  19.032  1.00  0.00     0.017 C 
ATOM     15  C   UNL     1      22.348  -4.308  20.647  1.00  0.00    -0.020 C 
ATOM     16  C   UNL     1      24.175  -4.052  18.811  1.00  0.00     0.032 C 
ATOM     17  C   UNL     1      23.152  -5.008  19.473  1.00  0.00     0.006 C 
ATOM     18  C   UNL     1      21.260  -5.303  21.170  1.00  0.00     0.008 C 
ATOM     19  C   UNL     1      23.280  -3.967  21.850  1.00  0.00     0.012 C 
ATOM     20  C   UNL     1      23.691  -6.485  19.744  1.00  0.00    -0.025 C 
ATOM     21  C   UNL     1      21.791  -6.713  21.481  1.00  0.00     0.005 C 
ATOM     22  C   UNL     1      22.459  -7.341  20.230  1.00  0.00     0.003 C 
ATOM     23  C   UNL     1      24.185  -7.092  18.390  1.00  0.00     0.010 C 
ATOM     24  C   UNL     1      24.890  -6.501  20.752  1.00  0.00     0.012 C 
ATOM     25  C   UNL     1      22.677  -8.907  20.293  1.00  0.00    -0.006 C 
ATOM     26  C   UNL     1      24.449  -8.605  18.439  1.00  0.00     0.033 C 
ATOM     27  C   UNL     1      23.220  -9.393  18.910  1.00  0.00     0.120 C 
ATOM     28  C   UNL     1      23.615  -9.351  21.445  1.00  0.00     0.014 C 
ATOM     29  C   UNL     1      21.312  -9.619  20.519  1.00  0.00     0.014 C 
ENDROOT
BRANCH   1  30
ATOM     30  C   UNL     1      20.428   0.276  18.462  1.00  0.00     0.048 C 
ATOM     31  O   UNL     1      20.895  -0.167  17.377  1.00  0.00    -0.550 OA
ATOM     32  O   UNL     1      19.230   0.981  18.424  1.00  0.00    -0.550 OA
ENDBRANCH   1  30
BRANCH  27  33
ATOM     33  O   UNL     1      23.538 -10.762  18.962  1.00  0.00    -0.393 OA
ATOM     34  H   UNL     1      24.429 -10.870  18.536  1.00  0.00     0.210 HD
ENDBRANCH  27  33
TORSDOF 2
ENDMDL
MODEL 3
REMARK VINA RESULT:    -5.348      1.957      7.989
REMARK INTER + INTRA:          -6.059
REMARK INTER:                  -5.860
REMARK INTRA:                  -0.199
REMARK UNBOUND:                -0.242
REMARK SMILES C[C@@H]1[C@H]2C3=CC[C@H]4[C@]5(C)CC[C@@H](O)C(C)(C)[C@H]5CC[C@]4(C)[C@@]3(C)CC[C@@]2(C(=O)[O-])CC[C@@H]1C
REMARK SMILES IDX 26 1 30 2 25 3 3 4 31 5 24 6 4 7 2 8 32 9 22 10 5 11 1 12
REMARK SMILES IDX 33 13 23 14 20 15 6 16 7 17 19 18 21 19 8 20 18 21 17 22
REMARK SMILES IDX 10 23 9 24 14 25 11 26 12 27 15 28 16 29 27 30 28 31 29 32
REMARK SMILES IDX 13 33
REMARK H PARENT 13 34
REMARK Flexibility Score: inf
ROOT
ATOM      1  C   UNL     1      20.057   0.564  20.249  1.00  0.00     0.017 C 
ATOM      2  C   UNL     1      20.257   2.022  20.789  1.00  0.00     0.014 C 
ATOM      3  C   UNL     1      19.638  -0.328  21.475  1.00  0.00     0.014 C 
ATOM      4  C   UNL     1      21.380   0.060  19.498  1.00  0.00     0.030 C 
ATOM      5  C   UNL     1      21.046   2.885  19.815  1.00  0.00     0.004 C 
ATOM      6  C   UNL     1      20.600  -1.477  21.787  1.00  0.00     0.013 C 
ATOM      7  C   UNL     1      21.570  -1.479  19.504  1.00  0.00    -0.063 C 
ATOM      8  C   UNL     1      22.648   0.852  19.988  1.00  0.00    -0.003 C 
ATOM      9  C   UNL     1      22.504   2.388  19.684  1.00  0.00    -0.011 C 
ATOM     10  C   UNL     1      20.899  -2.375  20.551  1.00  0.00    -0.006 C 
ATOM     11  C   UNL     1      22.285  -2.037  18.501  1.00  0.00    -0.027 C 
ATOM     12  C   UNL     1      24.004   0.317  19.484  1.00  0.00     0.008 C 
ATOM     13  C   UNL     1      23.052   2.818  18.308  1.00  0.00     0.008 C 
ATOM     14  C   UNL     1      19.525  -2.845  19.959  1.00  0.00     0.017 C 
ATOM     15  C   UNL     1      21.848  -3.629  20.928  1.00  0.00    -0.020 C 
ATOM     16  C   UNL     1      22.928  -3.397  18.572  1.00  0.00     0.032 C 
ATOM     17  C   UNL     1      22.280  -4.365  19.593  1.00  0.00     0.006 C 
ATOM     18  C   UNL     1      21.096  -4.651  21.842  1.00  0.00     0.008 C 
ATOM     19  C   UNL     1      23.088  -3.120  21.725  1.00  0.00     0.012 C 
ATOM     20  C   UNL     1      23.018  -5.771  19.747  1.00  0.00    -0.025 C 
ATOM     21  C   UNL     1      21.832  -5.988  22.033  1.00  0.00     0.005 C 
ATOM     22  C   UNL     1      22.105  -6.670  20.667  1.00  0.00     0.003 C 
ATOM     23  C   UNL     1      23.091  -6.453  18.342  1.00  0.00     0.010 C 
ATOM     24  C   UNL     1      24.479  -5.615  20.290  1.00  0.00     0.012 C 
ATOM     25  C   UNL     1      22.482  -8.205  20.740  1.00  0.00    -0.006 C 
ATOM     26  C   UNL     1      23.501  -7.933  18.383  1.00  0.00     0.033 C 
ATOM     27  C   UNL     1      22.580  -8.766  19.284  1.00  0.00     0.120 C 
ATOM     28  C   UNL     1      23.787  -8.481  21.531  1.00  0.00     0.014 C 
ATOM     29  C   UNL     1      21.345  -8.992  21.453  1.00  0.00     0.014 C 
ENDROOT
BRANCH   1  30
ATOM     30  C   UNL     1      18.879   0.604  19.269  1.00  0.00     0.048 C 
ATOM     31  O   UNL     1      17.729   0.252  19.650  1.00  0.00    -0.550 OA
ATOM     32  O   UNL     1      19.045   0.983  17.941  1.00  0.00    -0.550 OA
ENDBRANCH   1  30
BRANCH  27  33
ATOM     33  O   UNL     1      23.028 -10.099  19.301  1.00  0.00    -0.393 OA
ATOM     34  H   UNL     1      22.224 -10.675  19.396  1.00  0.00     0.210 HD
ENDBRANCH  27  33
TORSDOF 2
ENDMDL
MODEL 4
REMARK VINA RESULT:    -5.272      2.599      7.504
REMARK INTER + INTRA:          -5.976
REMARK INTER:                  -5.739
REMARK INTRA:                  -0.237
REMARK UNBOUND:                -0.242
REMARK SMILES C[C@@H]1[C@H]2C3=CC[C@H]4[C@]5(C)CC[C@@H](O)C(C)(C)[C@H]5CC[C@]4(C)[C@@]3(C)CC[C@@]2(C(=O)[O-])CC[C@@H]1C
REMARK SMILES IDX 26 1 30 2 25 3 3 4 31 5 24 6 4 7 2 8 32 9 22 10 5 11 1 12
REMARK SMILES IDX 33 13 23 14 20 15 6 16 7 17 19 18 21 19 8 20 18 21 17 22
REMARK SMILES IDX 10 23 9 24 14 25 11 26 12 27 15 28 16 29 27 30 28 31 29 32
REMARK SMILES IDX 13 33
REMARK H PARENT 13 34
REMARK Flexibility Score: inf
ROOT
ATOM      1  C   UNL     1      21.509   0.230  19.622  1.00  0.00     0.017 C 
ATOM      2  C   UNL     1      21.953   1.681  20.016  1.00  0.00     0.014 C 
ATOM      3  C   UNL     1      20.614  -0.313  20.796  1.00  0.00     0.014 C 
ATOM      4  C   UNL     1      22.790  -0.679  19.305  1.00  0.00     0.030 C 
ATOM      5  C   UNL     1      23.133   2.160  19.183  1.00  0.00     0.004 C 
ATOM      6  C   UNL     1      21.154  -1.570  21.482  1.00  0.00     0.013 C 
ATOM      7  C   UNL     1      22.572  -2.195  19.544  1.00  0.00    -0.063 C 
ATOM      8  C   UNL     1      24.078  -0.111  20.008  1.00  0.00    -0.003 C 
ATOM      9  C   UNL     1      24.406   1.340  19.494  1.00  0.00    -0.011 C 
ATOM     10  C   UNL     1      21.478  -2.719  20.483  1.00  0.00    -0.006 C 
ATOM     11  C   UNL     1      23.324  -3.068  18.835  1.00  0.00    -0.027 C 
ATOM     12  C   UNL     1      25.328  -1.013  19.940  1.00  0.00     0.008 C 
ATOM     13  C   UNL     1      25.336   1.384  18.265  1.00  0.00     0.008 C 
ATOM     14  C   UNL     1      20.196  -2.974  19.616  1.00  0.00     0.017 C 
ATOM     15  C   UNL     1      21.965  -4.062  21.240  1.00  0.00    -0.020 C 
ATOM     16  C   UNL     1      23.563  -4.501  19.233  1.00  0.00     0.032 C 
ATOM     17  C   UNL     1      22.478  -5.103  20.161  1.00  0.00     0.006 C 
ATOM     18  C   UNL     1      20.792  -4.713  22.044  1.00  0.00     0.008 C 
ATOM     19  C   UNL     1      23.086  -3.704  22.264  1.00  0.00     0.012 C 
ATOM     20  C   UNL     1      22.776  -6.586  20.668  1.00  0.00    -0.025 C 
ATOM     21  C   UNL     1      21.098  -6.122  22.579  1.00  0.00     0.005 C 
ATOM     22  C   UNL     1      21.482  -7.082  21.422  1.00  0.00     0.003 C 
ATOM     23  C   UNL     1      22.981  -7.508  19.422  1.00  0.00     0.010 C 
ATOM     24  C   UNL     1      24.070  -6.660  21.548  1.00  0.00     0.012 C 
ATOM     25  C   UNL     1      21.425  -8.624  21.773  1.00  0.00    -0.006 C 
ATOM     26  C   UNL     1      22.976  -9.010  19.745  1.00  0.00     0.033 C 
ATOM     27  C   UNL     1      21.696  -9.444  20.471  1.00  0.00     0.120 C 
ATOM     28  C   UNL     1      22.407  -9.033  22.902  1.00  0.00     0.014 C 
ATOM     29  C   UNL     1      19.996  -9.000  22.257  1.00  0.00     0.014 C 
ENDROOT
BRANCH   1  30
ATOM     30  C   UNL     1      20.629   0.351  18.373  1.00  0.00     0.048 C 
ATOM     31  O   UNL     1      20.933  -0.278  17.323  1.00  0.00    -0.550 OA
ATOM     32  O   UNL     1      19.509   1.176  18.345  1.00  0.00    -0.550 OA
ENDBRANCH   1  30
BRANCH  27  33
ATOM     33  O   UNL     1      21.770 -10.818  20.763  1.00  0.00    -0.393 OA
ATOM     34  H   UNL     1      22.734 -11.049  20.829  1.00  0.00     0.210 HD
ENDBRANCH  27  33
TORSDOF 2
ENDMDL
MODEL 5
REMARK VINA RESULT:    -5.174      1.393      8.311
REMARK INTER + INTRA:          -5.869
REMARK INTER:                  -5.616
REMARK INTRA:                  -0.253
REMARK UNBOUND:                -0.242
REMARK SMILES C[C@@H]1[C@H]2C3=CC[C@H]4[C@]5(C)CC[C@@H](O)C(C)(C)[C@H]5CC[C@]4(C)[C@@]3(C)CC[C@@]2(C(=O)[O-])CC[C@@H]1C
REMARK SMILES IDX 26 1 30 2 25 3 3 4 31 5 24 6 4 7 2 8 32 9 22 10 5 11 1 12
REMARK SMILES IDX 33 13 23 14 20 15 6 16 7 17 19 18 21 19 8 20 18 21 17 22
REMARK SMILES IDX 10 23 9 24 14 25 11 26 12 27 15 28 16 29 27 30 28 31 29 32
REMARK SMILES IDX 13 33
REMARK H PARENT 13 34
REMARK Flexibility Score: inf
ROOT
ATOM      1  C   UNL     1      18.413  -0.807  21.619  1.00  0.00     0.017 C 
ATOM      2  C   UNL     1      18.119   0.714  21.856  1.00  0.00     0.014 C 
ATOM      3  C   UNL     1      19.233  -1.317  22.861  1.00  0.00     0.014 C 
ATOM      4  C   UNL     1      19.157  -1.020  20.215  1.00  0.00     0.030 C 
ATOM      5  C   UNL     1      17.702   1.419  20.573  1.00  0.00     0.004 C 
ATOM      6  C   UNL     1      20.626  -1.859  22.528  1.00  0.00     0.013 C 
ATOM      7  C   UNL     1      20.052  -2.285  20.153  1.00  0.00    -0.063 C 
ATOM      8  C   UNL     1      19.892   0.293  19.757  1.00  0.00    -0.003 C 
ATOM      9  C   UNL     1      18.869   1.472  19.560  1.00  0.00    -0.011 C 
ATOM     10  C   UNL     1      20.606  -2.950  21.418  1.00  0.00    -0.006 C 
ATOM     11  C   UNL     1      20.273  -2.851  18.944  1.00  0.00    -0.027 C 
ATOM     12  C   UNL     1      20.807   0.149  18.523  1.00  0.00     0.008 C 
ATOM     13  C   UNL     1      18.285   1.576  18.137  1.00  0.00     0.008 C 
ATOM     14  C   UNL     1      19.584  -4.058  21.854  1.00  0.00     0.017 C 
ATOM     15  C   UNL     1      22.076  -3.566  21.148  1.00  0.00    -0.020 C 
ATOM     16  C   UNL     1      21.423  -3.773  18.637  1.00  0.00     0.032 C 
ATOM     17  C   UNL     1      22.014  -4.502  19.870  1.00  0.00     0.006 C 
ATOM     18  C   UNL     1      22.565  -4.416  22.366  1.00  0.00     0.008 C 
ATOM     19  C   UNL     1      23.099  -2.404  20.953  1.00  0.00     0.012 C 
ATOM     20  C   UNL     1      23.296  -5.403  19.567  1.00  0.00    -0.025 C 
ATOM     21  C   UNL     1      23.832  -5.244  22.090  1.00  0.00     0.005 C 
ATOM     22  C   UNL     1      23.617  -6.201  20.889  1.00  0.00     0.003 C 
ATOM     23  C   UNL     1      22.924  -6.445  18.463  1.00  0.00     0.010 C 
ATOM     24  C   UNL     1      24.505  -4.553  19.049  1.00  0.00     0.012 C 
ATOM     25  C   UNL     1      24.673  -7.372  20.759  1.00  0.00    -0.006 C 
ATOM     26  C   UNL     1      23.958  -7.567  18.285  1.00  0.00     0.033 C 
ATOM     27  C   UNL     1      24.231  -8.317  19.595  1.00  0.00     0.120 C 
ATOM     28  C   UNL     1      26.125  -6.870  20.545  1.00  0.00     0.014 C 
ATOM     29  C   UNL     1      24.676  -8.225  22.060  1.00  0.00     0.014 C 
ENDROOT
BRANCH   1  30
ATOM     30  C   UNL     1      17.063  -1.532  21.614  1.00  0.00     0.048 C 
ATOM     31  O   UNL     1      16.308  -1.466  22.622  1.00  0.00    -0.550 OA
ATOM     32  O   UNL     1      16.653  -2.307  20.533  1.00  0.00    -0.550 OA
ENDBRANCH   1  30
BRANCH  27  33
ATOM     33  O   UNL     1      25.206  -9.306  19.370  1.00  0.00    -0.393 OA
ATOM     34  H   UNL     1      25.396  -9.310  18.395  1.00  0.00     0.210 HD
ENDBRANCH  27  33
TORSDOF 2
ENDMDL
MODEL 6
REMARK VINA RESULT:    -4.963      1.906      2.897
REMARK INTER + INTRA:          -5.640
REMARK INTER:                  -5.388
REMARK INTRA:                  -0.252
REMARK UNBOUND:                -0.242
REMARK SMILES C[C@@H]1[C@H]2C3=CC[C@H]4[C@]5(C)CC[C@@H](O)C(C)(C)[C@H]5CC[C@]4(C)[C@@]3(C)CC[C@@]2(C(=O)[O-])CC[C@@H]1C
REMARK SMILES IDX 26 1 30 2 25 3 3 4 31 5 24 6 4 7 2 8 32 9 22 10 5 11 1 12
REMARK SMILES IDX 33 13 23 14 20 15 6 16 7 17 19 18 21 19 8 20 18 21 17 22
REMARK SMILES IDX 10 23 9 24 14 25 11 26 12 27 15 28 16 29 27 30 28 31 29 32
REMARK SMILES IDX 13 33
REMARK H PARENT 13 34
REMARK Flexibility Score: inf
ROOT
ATOM      1  C   UNL     1      24.377  -8.627  19.915  1.00  0.00     0.017 C 
ATOM      2  C   UNL     1      25.248  -9.670  20.696  1.00  0.00     0.014 C 
ATOM      3  C   UNL     1      25.370  -7.607  19.246  1.00  0.00     0.014 C 
ATOM      4  C   UNL     1      23.306  -7.947  20.894  1.00  0.00     0.030 C 
ATOM      5  C   UNL     1      24.423 -10.454  21.708  1.00  0.00     0.004 C 
ATOM      6  C   UNL     1      25.195  -6.155  19.697  1.00  0.00     0.013 C 
ATOM      7  C   UNL     1      22.866  -6.523  20.468  1.00  0.00    -0.063 C 
ATOM      8  C   UNL     1      23.771  -8.039  22.394  1.00  0.00    -0.003 C 
ATOM      9  C   UNL     1      23.920  -9.538  22.847  1.00  0.00    -0.011 C 
ATOM     10  C   UNL     1      23.731  -5.645  19.556  1.00  0.00    -0.006 C 
ATOM     11  C   UNL     1      21.643  -6.090  20.855  1.00  0.00    -0.027 C 
ATOM     12  C   UNL     1      22.920  -7.243  23.406  1.00  0.00     0.008 C 
ATOM     13  C   UNL     1      22.638 -10.152  23.445  1.00  0.00     0.008 C 
ATOM     14  C   UNL     1      23.274  -5.906  18.079  1.00  0.00     0.017 C 
ATOM     15  C   UNL     1      23.591  -4.085  19.959  1.00  0.00    -0.020 C 
ATOM     16  C   UNL     1      21.237  -4.642  20.919  1.00  0.00     0.032 C 
ATOM     17  C   UNL     1      22.054  -3.700  19.998  1.00  0.00     0.006 C 
ATOM     18  C   UNL     1      24.309  -3.167  18.916  1.00  0.00     0.008 C 
ATOM     19  C   UNL     1      24.275  -3.841  21.339  1.00  0.00     0.012 C 
ATOM     20  C   UNL     1      21.697  -2.152  20.136  1.00  0.00    -0.025 C 
ATOM     21  C   UNL     1      24.006  -1.667  19.081  1.00  0.00     0.005 C 
ATOM     22  C   UNL     1      22.482  -1.398  18.994  1.00  0.00     0.003 C 
ATOM     23  C   UNL     1      20.169  -1.965  19.863  1.00  0.00     0.010 C 
ATOM     24  C   UNL     1      22.008  -1.599  21.568  1.00  0.00     0.012 C 
ATOM     25  C   UNL     1      22.074   0.111  18.744  1.00  0.00    -0.006 C 
ATOM     26  C   UNL     1      19.740  -0.504  19.664  1.00  0.00     0.033 C 
ATOM     27  C   UNL     1      20.526   0.183  18.539  1.00  0.00     0.120 C 
ATOM     28  C   UNL     1      22.529   1.066  19.878  1.00  0.00     0.014 C 
ATOM     29  C   UNL     1      22.730   0.622  17.430  1.00  0.00     0.014 C 
ENDROOT
BRANCH   1  30
ATOM     30  C   UNL     1      23.657  -9.388  18.796  1.00  0.00     0.048 C 
ATOM     31  O   UNL     1      22.429  -9.658  18.905  1.00  0.00    -0.550 OA
ATOM     32  O   UNL     1      24.331  -9.835  17.664  1.00  0.00    -0.550 OA
ENDBRANCH   1  30
BRANCH  27  33
ATOM     33  O   UNL     1      20.108   1.522  18.431  1.00  0.00    -0.393 OA
ATOM     34  H   UNL     1      20.883   2.043  18.093  1.00  0.00     0.210 HD
ENDBRANCH  27  33
TORSDOF 2
ENDMDL
MODEL 7
REMARK VINA RESULT:    -4.923      2.853      3.987
REMARK INTER + INTRA:          -5.597
REMARK INTER:                  -5.368
REMARK INTRA:                  -0.229
REMARK UNBOUND:                -0.242
REMARK SMILES C[C@@H]1[C@H]2C3=CC[C@H]4[C@]5(C)CC[C@@H](O)C(C)(C)[C@H]5CC[C@]4(C)[C@@]3(C)CC[C@@]2(C(=O)[O-])CC[C@@H]1C
REMARK SMILES IDX 26 1 30 2 25 3 3 4 31 5 24 6 4 7 2 8 32 9 22 10 5 11 1 12
REMARK SMILES IDX 33 13 23 14 20 15 6 16 7 17 19 18 21 19 8 20 18 21 17 22
REMARK SMILES IDX 10 23 9 24 14 25 11 26 12 27 15 28 16 29 27 30 28 31 29 32
REMARK SMILES IDX 13 33
REMARK H PARENT 13 34
REMARK Flexibility Score: inf
ROOT
ATOM      1  C   UNL     1      24.481  -8.144  19.294  1.00  0.00     0.017 C 
ATOM      2  C   UNL     1      24.636  -9.417  20.195  1.00  0.00     0.014 C 
ATOM      3  C   UNL     1      25.772  -7.270  19.505  1.00  0.00     0.014 C 
ATOM      4  C   UNL     1      23.114  -7.380  19.636  1.00  0.00     0.030 C 
ATOM      5  C   UNL     1      23.308 -10.132  20.401  1.00  0.00     0.004 C 
ATOM      6  C   UNL     1      25.511  -5.871  20.069  1.00  0.00     0.013 C 
ATOM      7  C   UNL     1      23.141  -5.859  19.338  1.00  0.00    -0.063 C 
ATOM      8  C   UNL     1      22.619  -7.728  21.089  1.00  0.00    -0.003 C 
ATOM      9  C   UNL     1      22.333  -9.268  21.233  1.00  0.00    -0.011 C 
ATOM     10  C   UNL     1      24.454  -5.072  19.253  1.00  0.00    -0.006 C 
ATOM     11  C   UNL     1      21.968  -5.242  19.066  1.00  0.00    -0.027 C 
ATOM     12  C   UNL     1      21.424  -6.897  21.601  1.00  0.00     0.008 C 
ATOM     13  C   UNL     1      20.888  -9.682  20.888  1.00  0.00     0.008 C 
ATOM     14  C   UNL     1      24.908  -5.073  17.752  1.00  0.00     0.017 C 
ATOM     15  C   UNL     1      24.261  -3.570  19.819  1.00  0.00    -0.020 C 
ATOM     16  C   UNL     1      21.742  -3.758  19.188  1.00  0.00     0.032 C 
ATOM     17  C   UNL     1      23.027  -2.898  19.083  1.00  0.00     0.006 C 
ATOM     18  C   UNL     1      25.533  -2.700  19.555  1.00  0.00     0.008 C 
ATOM     19  C   UNL     1      24.044  -3.619  21.362  1.00  0.00     0.012 C 
ATOM     20  C   UNL     1      22.810  -1.335  19.312  1.00  0.00    -0.025 C 
ATOM     21  C   UNL     1      25.339  -1.198  19.827  1.00  0.00     0.005 C 
ATOM     22  C   UNL     1      24.177  -0.627  18.972  1.00  0.00     0.003 C 
ATOM     23  C   UNL     1      21.744  -0.824  18.288  1.00  0.00     0.010 C 
ATOM     24  C   UNL     1      22.291  -1.016  20.755  1.00  0.00     0.012 C 
ATOM     25  C   UNL     1      24.137   0.951  18.851  1.00  0.00    -0.006 C 
ATOM     26  C   UNL     1      21.653   0.707  18.188  1.00  0.00     0.033 C 
ATOM     27  C   UNL     1      23.006   1.347  17.848  1.00  0.00     0.120 C 
ATOM     28  C   UNL     1      23.948   1.666  20.214  1.00  0.00     0.014 C 
ATOM     29  C   UNL     1      25.476   1.466  18.251  1.00  0.00     0.014 C 
ENDROOT
BRANCH   1  30
ATOM     30  C   UNL     1      24.466  -8.621  17.837  1.00  0.00     0.048 C 
ATOM     31  O   UNL     1      25.377  -9.384  17.414  1.00  0.00    -0.550 OA
ATOM     32  O   UNL     1      23.488  -8.202  16.941  1.00  0.00    -0.550 OA
ENDBRANCH   1  30
BRANCH  27  33
ATOM     33  O   UNL     1      22.859   2.745  17.802  1.00  0.00    -0.393 OA
ATOM     34  H   UNL     1      23.671   3.108  17.359  1.00  0.00     0.210 HD
ENDBRANCH  27  33
TORSDOF 2
ENDMDL
MODEL 8
REMARK VINA RESULT:    -4.915      2.957      5.076
REMARK INTER + INTRA:          -5.587
REMARK INTER:                  -5.362
REMARK INTRA:                  -0.226
REMARK UNBOUND:                -0.242
REMARK SMILES C[C@@H]1[C@H]2C3=CC[C@H]4[C@]5(C)CC[C@@H](O)C(C)(C)[C@H]5CC[C@]4(C)[C@@]3(C)CC[C@@]2(C(=O)[O-])CC[C@@H]1C
REMARK SMILES IDX 26 1 30 2 25 3 3 4 31 5 24 6 4 7 2 8 32 9 22 10 5 11 1 12
REMARK SMILES IDX 33 13 23 14 20 15 6 16 7 17 19 18 21 19 8 20 18 21 17 22
REMARK SMILES IDX 10 23 9 24 14 25 11 26 12 27 15 28 16 29 27 30 28 31 29 32
REMARK SMILES IDX 13 33
REMARK H PARENT 13 34
REMARK Flexibility Score: inf
ROOT
ATOM      1  C   UNL     1      23.717 -11.765  21.600  1.00  0.00     0.017 C 
ATOM      2  C   UNL     1      24.867 -12.738  22.035  1.00  0.00     0.014 C 
ATOM      3  C   UNL     1      24.172 -11.087  20.256  1.00  0.00     0.014 C 
ATOM      4  C   UNL     1      23.390 -10.726  22.775  1.00  0.00     0.030 C 
ATOM      5  C   UNL     1      24.746 -13.141  23.498  1.00  0.00     0.004 C 
ATOM      6  C   UNL     1      24.296  -9.563  20.318  1.00  0.00     0.013 C 
ATOM      7  C   UNL     1      22.801  -9.377  22.289  1.00  0.00    -0.063 C 
ATOM      8  C   UNL     1      24.617 -10.562  23.746  1.00  0.00    -0.003 C 
ATOM      9  C   UNL     1      24.980 -11.931  24.431  1.00  0.00    -0.011 C 
ATOM     10  C   UNL     1      23.012  -8.869  20.858  1.00  0.00    -0.006 C 
ATOM     11  C   UNL     1      22.012  -8.681  23.140  1.00  0.00    -0.027 C 
ATOM     12  C   UNL     1      24.491  -9.439  24.797  1.00  0.00     0.008 C 
ATOM     13  C   UNL     1      24.251 -12.187  25.766  1.00  0.00     0.008 C 
ATOM     14  C   UNL     1      21.800  -9.368  19.996  1.00  0.00     0.017 C 
ATOM     15  C   UNL     1      23.138  -7.257  20.833  1.00  0.00    -0.020 C 
ATOM     16  C   UNL     1      21.727  -7.207  23.020  1.00  0.00     0.032 C 
ATOM     17  C   UNL     1      21.893  -6.632  21.591  1.00  0.00     0.006 C 
ATOM     18  C   UNL     1      23.154  -6.714  19.367  1.00  0.00     0.008 C 
ATOM     19  C   UNL     1      24.482  -6.830  21.500  1.00  0.00     0.012 C 
ATOM     20  C   UNL     1      21.691  -5.054  21.474  1.00  0.00    -0.025 C 
ATOM     21  C   UNL     1      23.012  -5.186  19.257  1.00  0.00     0.005 C 
ATOM     22  C   UNL     1      21.705  -4.702  19.937  1.00  0.00     0.003 C 
ATOM     23  C   UNL     1      20.277  -4.689  22.031  1.00  0.00     0.010 C 
ATOM     24  C   UNL     1      22.760  -4.259  22.300  1.00  0.00     0.012 C 
ATOM     25  C   UNL     1      21.243  -3.238  19.551  1.00  0.00    -0.006 C 
ATOM     26  C   UNL     1      19.825  -3.257  21.709  1.00  0.00     0.033 C 
ATOM     27  C   UNL     1      19.849  -2.966  20.202  1.00  0.00     0.120 C 
ATOM     28  C   UNL     1      22.267  -2.145  19.951  1.00  0.00     0.014 C 
ATOM     29  C   UNL     1      21.050  -3.138  18.010  1.00  0.00     0.014 C 
ENDROOT
BRANCH   1  30
ATOM     30  C   UNL     1      22.485 -12.626  21.302  1.00  0.00     0.048 C 
ATOM     31  O   UNL     1      22.582 -13.622  20.533  1.00  0.00    -0.550 OA
ATOM     32  O   UNL     1      21.234 -12.320  21.828  1.00  0.00    -0.550 OA
ENDBRANCH   1  30
BRANCH  27  33
ATOM     33  O   UNL     1      19.455  -1.634  19.980  1.00  0.00    -0.393 OA
ATOM     34  H   UNL     1      20.193  -1.192  19.483  1.00  0.00     0.210 HD
ENDBRANCH  27  33
TORSDOF 2
ENDMDL
MODEL 9
REMARK VINA RESULT:    -4.890      2.041      8.223
REMARK INTER + INTRA:          -5.561
REMARK INTER:                  -5.307
REMARK INTRA:                  -0.254
REMARK UNBOUND:                -0.242
REMARK SMILES C[C@@H]1[C@H]2C3=CC[C@H]4[C@]5(C)CC[C@@H](O)C(C)(C)[C@H]5CC[C@]4(C)[C@@]3(C)CC[C@@]2(C(=O)[O-])CC[C@@H]1C
REMARK SMILES IDX 26 1 30 2 25 3 3 4 31 5 24 6 4 7 2 8 32 9 22 10 5 11 1 12
REMARK SMILES IDX 33 13 23 14 20 15 6 16 7 17 19 18 21 19 8 20 18 21 17 22
REMARK SMILES IDX 10 23 9 24 14 25 11 26 12 27 15 28 16 29 27 30 28 31 29 32
REMARK SMILES IDX 13 33
REMARK H PARENT 13 34
REMARK Flexibility Score: inf
ROOT
ATOM      1  C   UNL     1      19.865   1.334  19.358  1.00  0.00     0.017 C 
ATOM      2  C   UNL     1      18.582   2.011  18.762  1.00  0.00     0.014 C 
ATOM      3  C   UNL     1      20.690   0.764  18.145  1.00  0.00     0.014 C 
ATOM      4  C   UNL     1      19.460   0.231  20.447  1.00  0.00     0.030 C 
ATOM      5  C   UNL     1      17.514   2.235  19.823  1.00  0.00     0.004 C 
ATOM      6  C   UNL     1      20.902  -0.752  18.173  1.00  0.00     0.013 C 
ATOM      7  C   UNL     1      20.497  -0.910  20.615  1.00  0.00    -0.063 C 
ATOM      8  C   UNL     1      17.992  -0.285  20.214  1.00  0.00    -0.003 C 
ATOM      9  C   UNL     1      16.955   0.892  20.345  1.00  0.00    -0.011 C 
ATOM     10  C   UNL     1      21.506  -1.258  19.515  1.00  0.00    -0.006 C 
ATOM     11  C   UNL     1      20.552  -1.551  21.805  1.00  0.00    -0.027 C 
ATOM     12  C   UNL     1      17.564  -1.491  21.076  1.00  0.00     0.008 C 
ATOM     13  C   UNL     1      16.411   1.103  21.772  1.00  0.00     0.008 C 
ATOM     14  C   UNL     1      22.811  -0.433  19.793  1.00  0.00     0.017 C 
ATOM     15  C   UNL     1      21.799  -2.848  19.486  1.00  0.00    -0.020 C 
ATOM     16  C   UNL     1      21.153  -2.917  22.006  1.00  0.00     0.032 C 
ATOM     17  C   UNL     1      22.205  -3.323  20.943  1.00  0.00     0.006 C 
ATOM     18  C   UNL     1      22.969  -3.189  18.505  1.00  0.00     0.008 C 
ATOM     19  C   UNL     1      20.532  -3.601  18.974  1.00  0.00     0.012 C 
ATOM     20  C   UNL     1      22.771  -4.807  21.091  1.00  0.00    -0.025 C 
ATOM     21  C   UNL     1      23.480  -4.636  18.611  1.00  0.00     0.005 C 
ATOM     22  C   UNL     1      23.952  -4.952  20.055  1.00  0.00     0.003 C 
ATOM     23  C   UNL     1      23.376  -4.970  22.523  1.00  0.00     0.010 C 
ATOM     24  C   UNL     1      21.652  -5.887  20.907  1.00  0.00     0.012 C 
ATOM     25  C   UNL     1      24.858  -6.241  20.204  1.00  0.00    -0.006 C 
ATOM     26  C   UNL     1      24.222  -6.239  22.707  1.00  0.00     0.033 C 
ATOM     27  C   UNL     1      25.360  -6.331  21.681  1.00  0.00     0.120 C 
ATOM     28  C   UNL     1      24.142  -7.549  19.780  1.00  0.00     0.014 C 
ATOM     29  C   UNL     1      26.120  -6.103  19.305  1.00  0.00     0.014 C 
ENDROOT
BRANCH   1  30
ATOM     30  C   UNL     1      20.695   2.442  20.015  1.00  0.00     0.048 C 
ATOM     31  O   UNL     1      21.501   3.122  19.322  1.00  0.00    -0.550 OA
ATOM     32  O   UNL     1      20.619   2.701  21.380  1.00  0.00    -0.550 OA
ENDBRANCH   1  30
BRANCH  27  33
ATOM     33  O   UNL     1      26.073  -7.526  21.885  1.00  0.00    -0.393 OA
ATOM     34  H   UNL     1      26.625  -7.677  21.073  1.00  0.00     0.210 HD
ENDBRANCH  27  33
TORSDOF 2
ENDMDL
