MODEL 1
REMARK VINA RESULT:    -2.972      0.000      0.000
REMARK INTER + INTRA:          -3.590
REMARK INTER:                  -3.493
REMARK INTRA:                  -0.098
REMARK UNBOUND:                -0.098
REMARK SMILES CCCCC(=O)[O-]
REMARK SMILES IDX 4 1 5 2 6 3 7 4 3 5 2 6 1 7
REMARK H PARENT
REMARK Flexibility Score: inf
ROOT
ATOM      1  C   UNL     1      11.586  62.103   7.922  1.00  0.00     0.053 C 
ENDROOT
BRANCH   1   2
ATOM      2  C   UNL     1      12.756  62.877   7.402  1.00  0.00     0.041 C 
ATOM      3  O   UNL     1      13.092  62.783   6.192  1.00  0.00    -0.550 OA
ATOM      4  O   UNL     1      13.447  63.740   8.243  1.00  0.00    -0.550 OA
ENDBRANCH   1   2
BRANCH   1   5
ATOM      5  C   UNL     1      10.926  62.847   9.085  1.00  0.00     0.006 C 
BRANCH   5   6
ATOM      6  C   UNL     1       9.600  63.481   8.650  1.00  0.00    -0.003 C 
ATOM      7  C   UNL     1       9.765  64.972   8.374  1.00  0.00     0.004 C 
ENDBRANCH   5   6
ENDBRANCH   1   5
TORSDOF 3
ENDMDL
MODEL 2
REMARK VINA RESULT:    -2.959      2.344      3.355
REMARK INTER + INTRA:          -3.575
REMARK INTER:                  -3.508
REMARK INTRA:                  -0.067
REMARK UNBOUND:                -0.098
REMARK SMILES CCCCC(=O)[O-]
REMARK SMILES IDX 4 1 5 2 6 3 7 4 3 5 2 6 1 7
REMARK H PARENT
REMARK Flexibility Score: inf
ROOT
ATOM      1  C   UNL     1      11.128  63.373   8.005  1.00  0.00     0.053 C 
ENDROOT
BRANCH   1   2
ATOM      2  C   UNL     1      11.076  63.365   9.500  1.00  0.00     0.041 C 
ATOM      3  O   UNL     1      10.651  62.351  10.115  1.00  0.00    -0.550 OA
ATOM      4  O   UNL     1      11.542  64.460  10.218  1.00  0.00    -0.550 OA
ENDBRANCH   1   2
BRANCH   1   5
ATOM      5  C   UNL     1      12.142  62.343   7.499  1.00  0.00     0.006 C 
BRANCH   5   6
ATOM      6  C   UNL     1      13.028  62.940   6.399  1.00  0.00    -0.003 C 
ATOM      7  C   UNL     1      13.735  64.202   6.884  1.00  0.00     0.004 C 
ENDBRANCH   5   6
ENDBRANCH   1   5
TORSDOF 3
ENDMDL
MODEL 3
REMARK VINA RESULT:    -2.939      2.347      3.429
REMARK INTER + INTRA:          -3.553
REMARK INTER:                  -3.455
REMARK INTRA:                  -0.098
REMARK UNBOUND:                -0.098
REMARK SMILES CCCCC(=O)[O-]
REMARK SMILES IDX 4 1 5 2 6 3 7 4 3 5 2 6 1 7
REMARK H PARENT
REMARK Flexibility Score: inf
ROOT
ATOM      1  C   UNL     1      11.100  63.064   8.931  1.00  0.00     0.053 C 
ENDROOT
BRANCH   1   2
ATOM      2  C   UNL     1       9.871  63.772   8.455  1.00  0.00     0.041 C 
ATOM      3  O   UNL     1       8.735  63.258   8.632  1.00  0.00    -0.550 OA
ATOM      4  O   UNL     1       9.976  65.022   7.858  1.00  0.00    -0.550 OA
ENDBRANCH   1   2
BRANCH   1   5
ATOM      5  C   UNL     1      11.634  62.127   7.844  1.00  0.00     0.006 C 
BRANCH   5   6
ATOM      6  C   UNL     1      12.736  62.808   7.024  1.00  0.00    -0.003 C 
ATOM      7  C   UNL     1      13.488  63.839   7.860  1.00  0.00     0.004 C 
ENDBRANCH   5   6
ENDBRANCH   1   5
TORSDOF 3
ENDMDL
MODEL 4
REMARK VINA RESULT:    -2.857      1.425      1.856
REMARK INTER + INTRA:          -3.456
REMARK INTER:                  -3.429
REMARK INTRA:                  -0.027
REMARK UNBOUND:                -0.098
REMARK SMILES CCCCC(=O)[O-]
REMARK SMILES IDX 4 1 5 2 6 3 7 4 3 5 2 6 1 7
REMARK H PARENT
REMARK Flexibility Score: inf
ROOT
ATOM      1  C   UNL     1      12.820  62.795   6.576  1.00  0.00     0.053 C 
ENDROOT
BRANCH   1   2
ATOM      2  C   UNL     1      13.521  63.983   7.154  1.00  0.00     0.041 C 
ATOM      3  O   UNL     1      13.664  65.030   6.469  1.00  0.00    -0.550 OA
ATOM      4  O   UNL     1      13.975  63.952   8.466  1.00  0.00    -0.550 OA
ENDBRANCH   1   2
BRANCH   1   5
ATOM      5  C   UNL     1      11.972  62.101   7.646  1.00  0.00     0.006 C 
BRANCH   5   6
ATOM      6  C   UNL     1      10.863  63.029   8.155  1.00  0.00    -0.003 C 
ATOM      7  C   UNL     1      10.662  62.876   9.659  1.00  0.00     0.004 C 
ENDBRANCH   5   6
ENDBRANCH   1   5
TORSDOF 3
ENDMDL
MODEL 5
REMARK VINA RESULT:    -2.825      2.245      3.330
REMARK INTER + INTRA:          -3.419
REMARK INTER:                  -3.322
REMARK INTRA:                  -0.096
REMARK UNBOUND:                -0.098
REMARK SMILES CCCCC(=O)[O-]
REMARK SMILES IDX 4 1 5 2 6 3 7 4 3 5 2 6 1 7
REMARK H PARENT
REMARK Flexibility Score: inf
ROOT
ATOM      1  C   UNL     1      11.640  62.167   7.791  1.00  0.00     0.053 C 
ENDROOT
BRANCH   1   2
ATOM      2  C   UNL     1      10.752  62.852   8.781  1.00  0.00     0.041 C 
ATOM      3  O   UNL     1      10.713  62.459   9.977  1.00  0.00    -0.550 OA
ATOM      4  O   UNL     1      10.004  63.957   8.395  1.00  0.00    -0.550 OA
ENDBRANCH   1   2
BRANCH   1   5
ATOM      5  C   UNL     1      12.897  63.002   7.531  1.00  0.00     0.006 C 
BRANCH   5   6
ATOM      6  C   UNL     1      13.038  63.330   6.040  1.00  0.00    -0.003 C 
ATOM      7  C   UNL     1      12.525  64.733   5.732  1.00  0.00     0.004 C 
ENDBRANCH   5   6
ENDBRANCH   1   5
TORSDOF 3
ENDMDL
MODEL 6
REMARK VINA RESULT:    -2.711      1.829      2.623
REMARK INTER + INTRA:          -3.284
REMARK INTER:                  -3.211
REMARK INTRA:                  -0.073
REMARK UNBOUND:                -0.098
REMARK SMILES CCCCC(=O)[O-]
REMARK SMILES IDX 4 1 5 2 6 3 7 4 3 5 2 6 1 7
REMARK H PARENT
REMARK Flexibility Score: inf
ROOT
ATOM      1  C   UNL     1      13.120  64.028   7.302  1.00  0.00     0.053 C 
ENDROOT
BRANCH   1   2
ATOM      2  C   UNL     1      13.042  64.968   6.140  1.00  0.00     0.041 C 
ATOM      3  O   UNL     1      12.522  64.595   5.056  1.00  0.00    -0.550 OA
ATOM      4  O   UNL     1      13.502  66.273   6.270  1.00  0.00    -0.550 OA
ENDBRANCH   1   2
BRANCH   1   5
ATOM      5  C   UNL     1      12.758  62.606   6.865  1.00  0.00     0.006 C 
BRANCH   5   6
ATOM      6  C   UNL     1      11.635  62.033   7.737  1.00  0.00    -0.003 C 
ATOM      7  C   UNL     1      11.008  63.114   8.612  1.00  0.00     0.004 C 
ENDBRANCH   5   6
ENDBRANCH   1   5
TORSDOF 3
ENDMDL
MODEL 7
REMARK VINA RESULT:    -2.711      2.205      3.161
REMARK INTER + INTRA:          -3.284
REMARK INTER:                  -3.225
REMARK INTRA:                  -0.059
REMARK UNBOUND:                -0.098
REMARK SMILES CCCCC(=O)[O-]
REMARK SMILES IDX 4 1 5 2 6 3 7 4 3 5 2 6 1 7
REMARK H PARENT
REMARK Flexibility Score: inf
ROOT
ATOM      1  C   UNL     1      13.021  63.122   6.481  1.00  0.00     0.053 C 
ENDROOT
BRANCH   1   2
ATOM      2  C   UNL     1      12.196  62.720   7.663  1.00  0.00     0.041 C 
ATOM      3  O   UNL     1      11.576  61.624   7.660  1.00  0.00    -0.550 OA
ATOM      4  O   UNL     1      12.150  63.535   8.787  1.00  0.00    -0.550 OA
ENDBRANCH   1   2
BRANCH   1   5
ATOM      5  C   UNL     1      13.783  64.417   6.775  1.00  0.00     0.006 C 
BRANCH   5   6
ATOM      6  C   UNL     1      13.051  65.630   6.187  1.00  0.00    -0.003 C 
ATOM      7  C   UNL     1      12.252  65.244   4.947  1.00  0.00     0.004 C 
ENDBRANCH   5   6
ENDBRANCH   1   5
TORSDOF 3
ENDMDL
MODEL 8
REMARK VINA RESULT:    -2.519      1.988      3.140
REMARK INTER + INTRA:          -3.058
REMARK INTER:                  -2.951
REMARK INTRA:                  -0.107
REMARK UNBOUND:                -0.098
REMARK SMILES CCCCC(=O)[O-]
REMARK SMILES IDX 4 1 5 2 6 3 7 4 3 5 2 6 1 7
REMARK H PARENT
REMARK Flexibility Score: inf
ROOT
ATOM      1  C   UNL     1      12.035  64.772   8.274  1.00  0.00     0.053 C 
ENDROOT
BRANCH   1   2
ATOM      2  C   UNL     1      12.771  64.810   9.576  1.00  0.00     0.041 C 
ATOM      3  O   UNL     1      13.994  64.515   9.622  1.00  0.00    -0.550 OA
ATOM      4  O   UNL     1      12.117  65.217  10.732  1.00  0.00    -0.550 OA
ENDBRANCH   1   2
BRANCH   1   5
ATOM      5  C   UNL     1      11.157  63.521   8.191  1.00  0.00     0.006 C 
BRANCH   5   6
ATOM      6  C   UNL     1      11.967  62.313   7.704  1.00  0.00    -0.003 C 
ATOM      7  C   UNL     1      12.867  62.689   6.531  1.00  0.00     0.004 C 
ENDBRANCH   5   6
ENDBRANCH   1   5
TORSDOF 3
ENDMDL
MODEL 9
REMARK VINA RESULT:    -2.459      2.742      3.749
REMARK INTER + INTRA:          -2.988
REMARK INTER:                  -2.970
REMARK INTRA:                  -0.018
REMARK UNBOUND:                -0.098
REMARK SMILES CCCCC(=O)[O-]
REMARK SMILES IDX 4 1 5 2 6 3 7 4 3 5 2 6 1 7
REMARK H PARENT
REMARK Flexibility Score: inf
ROOT
ATOM      1  C   UNL     1      13.449  64.633   6.491  1.00  0.00     0.053 C 
ENDROOT
BRANCH   1   2
ATOM      2  C   UNL     1      13.262  63.613   7.569  1.00  0.00     0.041 C 
ATOM      3  O   UNL     1      13.617  63.867   8.750  1.00  0.00    -0.550 OA
ATOM      4  O   UNL     1      12.652  62.399   7.279  1.00  0.00    -0.550 OA
ENDBRANCH   1   2
BRANCH   1   5
ATOM      5  C   UNL     1      12.093  65.095   5.950  1.00  0.00     0.006 C 
BRANCH   5   6
ATOM      6  C   UNL     1      12.263  65.904   4.659  1.00  0.00    -0.003 C 
ATOM      7  C   UNL     1      11.938  65.060   3.431  1.00  0.00     0.004 C 
ENDBRANCH   5   6
ENDBRANCH   1   5
TORSDOF 3
ENDMDL
