MODEL 1
REMARK VINA RESULT:    -8.498      0.000      0.000
REMARK INTER + INTRA:          -9.492
REMARK INTER:                  -9.492
REMARK INTRA:                   0.000
REMARK UNBOUND:                 0.000
REMARK SMILES Oc1cc(O)c2c(c1)CCc1cc(O)c(O)cc1-2
REMARK SMILES IDX 10 1 9 2 7 3 6 4 18 5 17 6 15 7 13 8 12 9 11 10 4 11 3 12
REMARK SMILES IDX 2 13 8 14 14 15 5 17 1 19 16 21
REMARK H PARENT 14 16 5 18 1 20 16 22
REMARK Flexibility Score: inf
ROOT
ATOM      1  C   UNL     1       0.956  45.146   1.566  1.00  0.00     0.041 C 
ATOM      2  C   UNL     1       1.745  44.235   0.619  1.00  0.00     0.041 C 
ATOM      3  C   UNL     1       1.359  44.500  -0.816  1.00  0.00    -0.032 A 
ATOM      4  C   UNL     1       0.019  44.825  -1.140  1.00  0.00     0.027 A 
ATOM      5  C   UNL     1      -0.985  44.866  -0.028  1.00  0.00    -0.007 A 
ATOM      6  C   UNL     1      -2.362  44.652  -0.241  1.00  0.00     0.059 A 
ATOM      7  C   UNL     1      -3.268  44.703   0.826  1.00  0.00     0.158 A 
ATOM      8  C   UNL     1      -2.807  44.940   2.125  1.00  0.00     0.157 A 
ATOM      9  C   UNL     1      -1.437  45.096   2.359  1.00  0.00     0.054 A 
ATOM     10  C   UNL     1      -0.523  45.026   1.297  1.00  0.00    -0.036 A 
ATOM     11  C   UNL     1      -0.291  45.170  -2.479  1.00  0.00     0.127 A 
ATOM     12  C   UNL     1       0.689  45.056  -3.476  1.00  0.00     0.093 A 
ATOM     13  C   UNL     1       1.988  44.656  -3.155  1.00  0.00     0.119 A 
ATOM     14  C   UNL     1       2.322  44.386  -1.827  1.00  0.00     0.050 A 
ENDROOT
BRANCH   8  15
ATOM     15  O   UNL     1      -3.715  45.007   3.180  1.00  0.00    -0.504 OA
ATOM     16  H   UNL     1      -4.453  44.321   3.290  1.00  0.00     0.293 HD
ENDBRANCH   8  15
BRANCH  11  17
ATOM     17  O   UNL     1      -1.550  45.661  -2.824  1.00  0.00    -0.507 OA
ATOM     18  H   UNL     1      -2.359  45.523  -2.229  1.00  0.00     0.293 HD
ENDBRANCH  11  17
BRANCH  13  19
ATOM     19  O   UNL     1       2.960  44.536  -4.145  1.00  0.00    -0.508 OA
ATOM     20  H   UNL     1       3.942  44.690  -3.944  1.00  0.00     0.293 HD
ENDBRANCH  13  19
BRANCH   7  21
ATOM     21  O   UNL     1      -4.631  44.509   0.605  1.00  0.00    -0.504 OA
ATOM     22  H   UNL     1      -5.236  45.271   0.319  1.00  0.00     0.293 HD
ENDBRANCH   7  21
TORSDOF 4
ENDMDL
MODEL 2
REMARK VINA RESULT:    -8.342      1.034      5.484
REMARK INTER + INTRA:          -9.318
REMARK INTER:                  -9.318
REMARK INTRA:                   0.000
REMARK UNBOUND:                 0.000
REMARK SMILES Oc1cc(O)c2c(c1)CCc1cc(O)c(O)cc1-2
REMARK SMILES IDX 10 1 9 2 7 3 6 4 18 5 17 6 15 7 13 8 12 9 11 10 4 11 3 12
REMARK SMILES IDX 2 13 8 14 14 15 5 17 1 19 16 21
REMARK H PARENT 14 16 5 18 1 20 16 22
REMARK Flexibility Score: inf
ROOT
ATOM      1  C   UNL     1       1.893  44.344   1.294  1.00  0.00     0.041 C 
ATOM      2  C   UNL     1       1.007  45.272   2.133  1.00  0.00     0.041 C 
ATOM      3  C   UNL     1      -0.446  45.090   1.770  1.00  0.00    -0.032 A 
ATOM      4  C   UNL     1      -0.814  44.826   0.428  1.00  0.00     0.027 A 
ATOM      5  C   UNL     1       0.274  44.766  -0.602  1.00  0.00    -0.007 A 
ATOM      6  C   UNL     1       0.043  45.036  -1.966  1.00  0.00     0.059 A 
ATOM      7  C   UNL     1       1.088  44.965  -2.897  1.00  0.00     0.158 A 
ATOM      8  C   UNL     1       2.383  44.649  -2.472  1.00  0.00     0.157 A 
ATOM      9  C   UNL     1       2.638  44.437  -1.114  1.00  0.00     0.054 A 
ATOM     10  C   UNL     1       1.599  44.526  -0.174  1.00  0.00    -0.036 A 
ATOM     11  C   UNL     1      -2.174  44.557   0.136  1.00  0.00     0.127 A 
ATOM     12  C   UNL     1      -3.144  44.685   1.141  1.00  0.00     0.093 A 
ATOM     13  C   UNL     1      -2.776  45.025   2.446  1.00  0.00     0.119 A 
ATOM     14  C   UNL     1      -1.431  45.219   2.759  1.00  0.00     0.050 A 
ENDROOT
BRANCH   8  15
ATOM     15  O   UNL     1       3.414  44.563  -3.406  1.00  0.00    -0.504 OA
ATOM     16  H   UNL     1       3.719  43.673  -3.780  1.00  0.00     0.293 HD
ENDBRANCH   8  15
BRANCH  11  17
ATOM     17  O   UNL     1      -2.568  44.125  -1.130  1.00  0.00    -0.507 OA
ATOM     18  H   UNL     1      -2.280  43.229  -1.503  1.00  0.00     0.293 HD
ENDBRANCH  11  17
BRANCH  13  19
ATOM     19  O   UNL     1      -3.739  45.159   3.443  1.00  0.00    -0.508 OA
ATOM     20  H   UNL     1      -3.713  45.926   4.106  1.00  0.00     0.293 HD
ENDBRANCH  13  19
BRANCH   7  21
ATOM     21  O   UNL     1       0.848  45.215  -4.247  1.00  0.00    -0.504 OA
ATOM     22  H   UNL     1       1.403  45.883  -4.770  1.00  0.00     0.293 HD
ENDBRANCH   7  21
TORSDOF 4
ENDMDL
MODEL 3
REMARK VINA RESULT:    -8.235      0.947      1.078
REMARK INTER + INTRA:          -9.198
REMARK INTER:                  -9.198
REMARK INTRA:                   0.000
REMARK UNBOUND:                 0.000
REMARK SMILES Oc1cc(O)c2c(c1)CCc1cc(O)c(O)cc1-2
REMARK SMILES IDX 10 1 9 2 7 3 6 4 18 5 17 6 15 7 13 8 12 9 11 10 4 11 3 12
REMARK SMILES IDX 2 13 8 14 14 15 5 17 1 19 16 21
REMARK H PARENT 14 16 5 18 1 20 16 22
REMARK Flexibility Score: inf
ROOT
ATOM      1  C   UNL     1       1.717  45.521   2.171  1.00  0.00     0.041 C 
ATOM      2  C   UNL     1       2.505  44.514   1.325  1.00  0.00     0.041 C 
ATOM      3  C   UNL     1       2.024  44.532  -0.105  1.00  0.00    -0.032 A 
ATOM      4  C   UNL     1       0.652  44.736  -0.389  1.00  0.00     0.027 A 
ATOM      5  C   UNL     1      -0.290  44.899   0.765  1.00  0.00    -0.007 A 
ATOM      6  C   UNL     1      -1.662  44.586   0.676  1.00  0.00     0.059 A 
ATOM      7  C   UNL     1      -2.509  44.758   1.779  1.00  0.00     0.158 A 
ATOM      8  C   UNL     1      -1.991  45.218   2.994  1.00  0.00     0.157 A 
ATOM      9  C   UNL     1      -0.621  45.476   3.114  1.00  0.00     0.054 A 
ATOM     10  C   UNL     1       0.235  45.288   2.018  1.00  0.00    -0.036 A 
ATOM     11  C   UNL     1       0.248  44.852  -1.743  1.00  0.00     0.127 A 
ATOM     12  C   UNL     1       1.176  44.633  -2.771  1.00  0.00     0.093 A 
ATOM     13  C   UNL     1       2.513  44.353  -2.476  1.00  0.00     0.119 A 
ATOM     14  C   UNL     1       2.935  44.310  -1.147  1.00  0.00     0.050 A 
ENDROOT
BRANCH   8  15
ATOM     15  O   UNL     1      -2.842  45.403   4.082  1.00  0.00    -0.504 OA
ATOM     16  H   UNL     1      -2.490  45.684   4.990  1.00  0.00     0.293 HD
ENDBRANCH   8  15
BRANCH  11  17
ATOM     17  O   UNL     1      -1.055  45.220  -2.077  1.00  0.00    -0.507 OA
ATOM     18  H   UNL     1      -1.797  45.247  -1.388  1.00  0.00     0.293 HD
ENDBRANCH  11  17
BRANCH  13  19
ATOM     19  O   UNL     1       3.434  44.129  -3.496  1.00  0.00    -0.508 OA
ATOM     20  H   UNL     1       3.526  44.770  -4.277  1.00  0.00     0.293 HD
ENDBRANCH  13  19
BRANCH   7  21
ATOM     21  O   UNL     1      -3.868  44.465   1.677  1.00  0.00    -0.504 OA
ATOM     22  H   UNL     1      -4.478  44.486   2.486  1.00  0.00     0.293 HD
ENDBRANCH   7  21
TORSDOF 4
ENDMDL
MODEL 4
REMARK VINA RESULT:    -8.002      2.523      6.246
REMARK INTER + INTRA:          -8.938
REMARK INTER:                  -8.938
REMARK INTRA:                   0.000
REMARK UNBOUND:                 0.000
REMARK SMILES Oc1cc(O)c2c(c1)CCc1cc(O)c(O)cc1-2
REMARK SMILES IDX 10 1 9 2 7 3 6 4 18 5 17 6 15 7 13 8 12 9 11 10 4 11 3 12
REMARK SMILES IDX 2 13 8 14 14 15 5 17 1 19 16 21
REMARK H PARENT 14 16 5 18 1 20 16 22
REMARK Flexibility Score: inf
ROOT
ATOM      1  C   UNL     1       0.557  45.388   2.285  1.00  0.00     0.041 C 
ATOM      2  C   UNL     1       0.460  46.443   3.393  1.00  0.00     0.041 C 
ATOM      3  C   UNL     1      -0.637  46.090   4.367  1.00  0.00    -0.032 A 
ATOM      4  C   UNL     1      -1.826  45.475   3.904  1.00  0.00     0.027 A 
ATOM      5  C   UNL     1      -1.961  45.223   2.432  1.00  0.00    -0.007 A 
ATOM      6  C   UNL     1      -3.213  45.127   1.791  1.00  0.00     0.059 A 
ATOM      7  C   UNL     1      -3.294  44.885   0.413  1.00  0.00     0.158 A 
ATOM      8  C   UNL     1      -2.126  44.764  -0.347  1.00  0.00     0.157 A 
ATOM      9  C   UNL     1      -0.878  44.915   0.267  1.00  0.00     0.054 A 
ATOM     10  C   UNL     1      -0.791  45.177   1.642  1.00  0.00    -0.036 A 
ATOM     11  C   UNL     1      -2.792  45.062   4.854  1.00  0.00     0.127 A 
ATOM     12  C   UNL     1      -2.623  45.382   6.209  1.00  0.00     0.093 A 
ATOM     13  C   UNL     1      -1.481  46.061   6.643  1.00  0.00     0.119 A 
ATOM     14  C   UNL     1      -0.489  46.406   5.724  1.00  0.00     0.050 A 
ENDROOT
BRANCH   8  15
ATOM     15  O   UNL     1      -2.214  44.507  -1.714  1.00  0.00    -0.504 OA
ATOM     16  H   UNL     1      -1.408  44.586  -2.322  1.00  0.00     0.293 HD
ENDBRANCH   8  15
BRANCH  11  17
ATOM     17  O   UNL     1      -3.899  44.303   4.473  1.00  0.00    -0.507 OA
ATOM     18  H   UNL     1      -4.808  44.723   4.320  1.00  0.00     0.293 HD
ENDBRANCH  11  17
BRANCH  13  19
ATOM     19  O   UNL     1      -1.314  46.384   7.987  1.00  0.00    -0.508 OA
ATOM     20  H   UNL     1      -0.392  46.464   8.402  1.00  0.00     0.293 HD
ENDBRANCH  13  19
BRANCH   7  21
ATOM     21  O   UNL     1      -4.536  44.773  -0.211  1.00  0.00    -0.504 OA
ATOM     22  H   UNL     1      -5.365  45.209   0.175  1.00  0.00     0.293 HD
ENDBRANCH   7  21
TORSDOF 4
ENDMDL
MODEL 5
REMARK VINA RESULT:    -7.957      2.533      4.541
REMARK INTER + INTRA:          -8.887
REMARK INTER:                  -8.887
REMARK INTRA:                   0.000
REMARK UNBOUND:                 0.000
REMARK SMILES Oc1cc(O)c2c(c1)CCc1cc(O)c(O)cc1-2
REMARK SMILES IDX 10 1 9 2 7 3 6 4 18 5 17 6 15 7 13 8 12 9 11 10 4 11 3 12
REMARK SMILES IDX 2 13 8 14 14 15 5 17 1 19 16 21
REMARK H PARENT 14 16 5 18 1 20 16 22
REMARK Flexibility Score: inf
ROOT
ATOM      1  C   UNL     1       0.452  46.548   3.379  1.00  0.00     0.041 C 
ATOM      2  C   UNL     1       0.636  45.525   2.252  1.00  0.00     0.041 C 
ATOM      3  C   UNL     1      -0.676  45.264   1.554  1.00  0.00    -0.032 A 
ATOM      4  C   UNL     1      -1.883  45.253   2.296  1.00  0.00     0.027 A 
ATOM      5  C   UNL     1      -1.803  45.476   3.776  1.00  0.00    -0.007 A 
ATOM      6  C   UNL     1      -2.777  44.989   4.671  1.00  0.00     0.059 A 
ATOM      7  C   UNL     1      -2.666  45.225   6.047  1.00  0.00     0.158 A 
ATOM      8  C   UNL     1      -1.566  45.927   6.551  1.00  0.00     0.157 A 
ATOM      9  C   UNL     1      -0.562  46.365   5.681  1.00  0.00     0.054 A 
ATOM     10  C   UNL     1      -0.658  46.115   4.303  1.00  0.00    -0.036 A 
ATOM     11  C   UNL     1      -3.108  45.107   1.598  1.00  0.00     0.127 A 
ATOM     12  C   UNL     1      -3.102  44.847   0.220  1.00  0.00     0.093 A 
ATOM     13  C   UNL     1      -1.898  44.780  -0.487  1.00  0.00     0.119 A 
ATOM     14  C   UNL     1      -0.691  44.996   0.179  1.00  0.00     0.050 A 
ENDROOT
BRANCH   8  15
ATOM     15  O   UNL     1      -1.470  46.173   7.920  1.00  0.00    -0.504 OA
ATOM     16  H   UNL     1      -1.298  45.426   8.582  1.00  0.00     0.293 HD
ENDBRANCH   8  15
BRANCH  11  17
ATOM     17  O   UNL     1      -4.331  45.259   2.250  1.00  0.00    -0.507 OA
ATOM     18  H   UNL     1      -4.922  46.067   2.097  1.00  0.00     0.293 HD
ENDBRANCH  11  17
BRANCH  13  19
ATOM     19  O   UNL     1      -1.890  44.515  -1.854  1.00  0.00    -0.508 OA
ATOM     20  H   UNL     1      -2.532  44.979  -2.487  1.00  0.00     0.293 HD
ENDBRANCH  13  19
BRANCH   7  21
ATOM     21  O   UNL     1      -3.643  44.756   6.924  1.00  0.00    -0.504 OA
ATOM     22  H   UNL     1      -4.331  45.378   7.334  1.00  0.00     0.293 HD
ENDBRANCH   7  21
TORSDOF 4
ENDMDL
MODEL 6
REMARK VINA RESULT:    -7.635      2.352      6.116
REMARK INTER + INTRA:          -8.528
REMARK INTER:                  -8.528
REMARK INTRA:                   0.000
REMARK UNBOUND:                 0.000
REMARK SMILES Oc1cc(O)c2c(c1)CCc1cc(O)c(O)cc1-2
REMARK SMILES IDX 10 1 9 2 7 3 6 4 18 5 17 6 15 7 13 8 12 9 11 10 4 11 3 12
REMARK SMILES IDX 2 13 8 14 14 15 5 17 1 19 16 21
REMARK H PARENT 14 16 5 18 1 20 16 22
REMARK Flexibility Score: inf
ROOT
ATOM      1  C   UNL     1       1.630  45.354   2.681  1.00  0.00     0.041 C 
ATOM      2  C   UNL     1       1.208  46.429   3.690  1.00  0.00     0.041 C 
ATOM      3  C   UNL     1      -0.133  46.091   4.295  1.00  0.00    -0.032 A 
ATOM      4  C   UNL     1      -1.130  45.468   3.505  1.00  0.00     0.027 A 
ATOM      5  C   UNL     1      -0.817  45.190   2.066  1.00  0.00    -0.007 A 
ATOM      6  C   UNL     1      -1.817  45.082   1.079  1.00  0.00     0.059 A 
ATOM      7  C   UNL     1      -1.481  44.816  -0.255  1.00  0.00     0.158 A 
ATOM      8  C   UNL     1      -0.139  44.683  -0.626  1.00  0.00     0.157 A 
ATOM      9  C   UNL     1       0.867  44.845   0.332  1.00  0.00     0.054 A 
ATOM     10  C   UNL     1       0.537  45.131   1.666  1.00  0.00    -0.036 A 
ATOM     11  C   UNL     1      -2.339  45.071   4.127  1.00  0.00     0.127 A 
ATOM     12  C   UNL     1      -2.584  45.414   5.465  1.00  0.00     0.093 A 
ATOM     13  C   UNL     1      -1.622  46.101   6.211  1.00  0.00     0.119 A 
ATOM     14  C   UNL     1      -0.399  46.431   5.628  1.00  0.00     0.050 A 
ENDROOT
BRANCH   8  15
ATOM     15  O   UNL     1       0.187  44.401  -1.951  1.00  0.00    -0.504 OA
ATOM     16  H   UNL     1       0.655  45.081  -2.538  1.00  0.00     0.293 HD
ENDBRANCH   8  15
BRANCH  11  17
ATOM     17  O   UNL     1      -3.283  44.304   3.444  1.00  0.00    -0.507 OA
ATOM     18  H   UNL     1      -4.239  44.617   3.323  1.00  0.00     0.293 HD
ENDBRANCH  11  17
BRANCH  13  19
ATOM     19  O   UNL     1      -1.867  46.448   7.537  1.00  0.00    -0.508 OA
ATOM     20  H   UNL     1      -2.811  46.559   7.891  1.00  0.00     0.293 HD
ENDBRANCH  13  19
BRANCH   7  21
ATOM     21  O   UNL     1      -2.478  44.692  -1.222  1.00  0.00    -0.504 OA
ATOM     22  H   UNL     1      -2.615  43.829  -1.735  1.00  0.00     0.293 HD
ENDBRANCH   7  21
TORSDOF 4
ENDMDL
MODEL 7
REMARK VINA RESULT:    -7.622      2.272      3.563
REMARK INTER + INTRA:          -8.513
REMARK INTER:                  -8.513
REMARK INTRA:                   0.000
REMARK UNBOUND:                 0.000
REMARK SMILES Oc1cc(O)c2c(c1)CCc1cc(O)c(O)cc1-2
REMARK SMILES IDX 10 1 9 2 7 3 6 4 18 5 17 6 15 7 13 8 12 9 11 10 4 11 3 12
REMARK SMILES IDX 2 13 8 14 14 15 5 17 1 19 16 21
REMARK H PARENT 14 16 5 18 1 20 16 22
REMARK Flexibility Score: inf
ROOT
ATOM      1  C   UNL     1      -2.111  44.368   0.884  1.00  0.00     0.041 C 
ATOM      2  C   UNL     1      -1.590  44.962  -0.429  1.00  0.00     0.041 C 
ATOM      3  C   UNL     1      -0.090  44.816  -0.519  1.00  0.00    -0.032 A 
ATOM      4  C   UNL     1       0.704  44.936   0.648  1.00  0.00     0.027 A 
ATOM      5  C   UNL     1       0.013  45.237   1.943  1.00  0.00    -0.007 A 
ATOM      6  C   UNL     1       0.661  45.881   3.017  1.00  0.00     0.059 A 
ATOM      7  C   UNL     1      -0.021  46.140   4.213  1.00  0.00     0.158 A 
ATOM      8  C   UNL     1      -1.368  45.784   4.342  1.00  0.00     0.157 A 
ATOM      9  C   UNL     1      -2.039  45.198   3.264  1.00  0.00     0.054 A 
ATOM     10  C   UNL     1      -1.366  44.954   2.057  1.00  0.00    -0.036 A 
ATOM     11  C   UNL     1       2.097  44.692   0.549  1.00  0.00     0.127 A 
ATOM     12  C   UNL     1       2.681  44.469  -0.706  1.00  0.00     0.093 A 
ATOM     13  C   UNL     1       1.895  44.433  -1.861  1.00  0.00     0.119 A 
ATOM     14  C   UNL     1       0.513  44.599  -1.764  1.00  0.00     0.050 A 
ENDROOT
BRANCH   8  15
ATOM     15  O   UNL     1      -2.036  46.029   5.541  1.00  0.00    -0.504 OA
ATOM     16  H   UNL     1      -2.520  46.902   5.709  1.00  0.00     0.293 HD
ENDBRANCH   8  15
BRANCH  11  17
ATOM     17  O   UNL     1       2.899  44.628   1.688  1.00  0.00    -0.507 OA
ATOM     18  H   UNL     1       3.538  45.375   1.934  1.00  0.00     0.293 HD
ENDBRANCH  11  17
BRANCH  13  19
ATOM     19  O   UNL     1       2.475  44.219  -3.109  1.00  0.00    -0.508 OA
ATOM     20  H   UNL     1       3.426  44.508  -3.308  1.00  0.00     0.293 HD
ENDBRANCH  13  19
BRANCH   7  21
ATOM     21  O   UNL     1       0.632  46.760   5.277  1.00  0.00    -0.504 OA
ATOM     22  H   UNL     1       0.123  47.109   6.081  1.00  0.00     0.293 HD
ENDBRANCH   7  21
TORSDOF 4
ENDMDL
MODEL 8
REMARK VINA RESULT:    -7.456      2.664      6.596
REMARK INTER + INTRA:          -8.328
REMARK INTER:                  -8.328
REMARK INTRA:                   0.000
REMARK UNBOUND:                 0.000
REMARK SMILES Oc1cc(O)c2c(c1)CCc1cc(O)c(O)cc1-2
REMARK SMILES IDX 10 1 9 2 7 3 6 4 18 5 17 6 15 7 13 8 12 9 11 10 4 11 3 12
REMARK SMILES IDX 2 13 8 14 14 15 5 17 1 19 16 21
REMARK H PARENT 14 16 5 18 1 20 16 22
REMARK Flexibility Score: inf
ROOT
ATOM      1  C   UNL     1      -2.668  45.192   1.346  1.00  0.00     0.041 C 
ATOM      2  C   UNL     1      -2.890  44.611   2.747  1.00  0.00     0.041 C 
ATOM      3  C   UNL     1      -1.956  45.254   3.743  1.00  0.00    -0.032 A 
ATOM      4  C   UNL     1      -0.642  45.612   3.353  1.00  0.00     0.027 A 
ATOM      5  C   UNL     1      -0.215  45.304   1.949  1.00  0.00    -0.007 A 
ATOM      6  C   UNL     1       1.135  45.111   1.592  1.00  0.00     0.059 A 
ATOM      7  C   UNL     1       1.491  44.829   0.266  1.00  0.00     0.158 A 
ATOM      8  C   UNL     1       0.500  44.709  -0.714  1.00  0.00     0.157 A 
ATOM      9  C   UNL     1      -0.847  44.839  -0.362  1.00  0.00     0.054 A 
ATOM     10  C   UNL     1      -1.211  45.102   0.967  1.00  0.00    -0.036 A 
ATOM     11  C   UNL     1       0.176  46.307   4.278  1.00  0.00     0.127 A 
ATOM     12  C   UNL     1      -0.272  46.512   5.591  1.00  0.00     0.093 A 
ATOM     13  C   UNL     1      -1.541  46.082   5.986  1.00  0.00     0.119 A 
ATOM     14  C   UNL     1      -2.382  45.462   5.061  1.00  0.00     0.050 A 
ENDROOT
BRANCH   8  15
ATOM     15  O   UNL     1       0.863  44.445  -2.034  1.00  0.00    -0.504 OA
ATOM     16  H   UNL     1       0.524  43.626  -2.524  1.00  0.00     0.293 HD
ENDBRANCH   8  15
BRANCH  11  17
ATOM     17  O   UNL     1       1.410  46.832   3.896  1.00  0.00    -0.507 OA
ATOM     18  H   UNL     1       2.239  46.716   4.466  1.00  0.00     0.293 HD
ENDBRANCH  11  17
BRANCH  13  19
ATOM     19  O   UNL     1      -1.984  46.278   7.292  1.00  0.00    -0.508 OA
ATOM     20  H   UNL     1      -2.757  45.746   7.675  1.00  0.00     0.293 HD
ENDBRANCH  13  19
BRANCH   7  21
ATOM     21  O   UNL     1       2.830  44.659  -0.083  1.00  0.00    -0.504 OA
ATOM     22  H   UNL     1       3.409  45.442  -0.364  1.00  0.00     0.293 HD
ENDBRANCH   7  21
TORSDOF 4
ENDMDL
MODEL 9
REMARK VINA RESULT:    -7.293      1.543      6.103
REMARK INTER + INTRA:          -8.145
REMARK INTER:                  -8.145
REMARK INTRA:                   0.000
REMARK UNBOUND:                 0.000
REMARK SMILES Oc1cc(O)c2c(c1)CCc1cc(O)c(O)cc1-2
REMARK SMILES IDX 10 1 9 2 7 3 6 4 18 5 17 6 15 7 13 8 12 9 11 10 4 11 3 12
REMARK SMILES IDX 2 13 8 14 14 15 5 17 1 19 16 21
REMARK H PARENT 14 16 5 18 1 20 16 22
REMARK Flexibility Score: inf
ROOT
ATOM      1  C   UNL     1      -1.249  45.305  -2.310  1.00  0.00     0.041 C 
ATOM      2  C   UNL     1      -2.217  44.525  -1.412  1.00  0.00     0.041 C 
ATOM      3  C   UNL     1      -1.861  44.715   0.042  1.00  0.00    -0.032 A 
ATOM      4  C   UNL     1      -0.503  44.820   0.431  1.00  0.00     0.027 A 
ATOM      5  C   UNL     1       0.546  44.706  -0.634  1.00  0.00    -0.007 A 
ATOM      6  C   UNL     1       1.860  44.273  -0.362  1.00  0.00     0.059 A 
ATOM      7  C   UNL     1       2.811  44.186  -1.387  1.00  0.00     0.158 A 
ATOM      8  C   UNL     1       2.455  44.504  -2.701  1.00  0.00     0.157 A 
ATOM      9  C   UNL     1       1.140  44.878  -2.995  1.00  0.00     0.054 A 
ATOM     10  C   UNL     1       0.178  44.948  -1.976  1.00  0.00    -0.036 A 
ATOM     11  C   UNL     1      -0.204  45.101   1.787  1.00  0.00     0.127 A 
ATOM     12  C   UNL     1      -1.236  45.139   2.737  1.00  0.00     0.093 A 
ATOM     13  C   UNL     1      -2.566  44.953   2.352  1.00  0.00     0.119 A 
ATOM     14  C   UNL     1      -2.876  44.750   1.007  1.00  0.00     0.050 A 
ENDROOT
BRANCH   8  15
ATOM     15  O   UNL     1       3.411  44.431  -3.713  1.00  0.00    -0.504 OA
ATOM     16  H   UNL     1       4.209  43.810  -3.646  1.00  0.00     0.293 HD
ENDBRANCH   8  15
BRANCH  11  17
ATOM     17  O   UNL     1       1.099  45.382   2.195  1.00  0.00    -0.507 OA
ATOM     18  H   UNL     1       1.760  44.648   2.417  1.00  0.00     0.293 HD
ENDBRANCH  11  17
BRANCH  13  19
ATOM     19  O   UNL     1      -3.590  44.985   3.295  1.00  0.00    -0.508 OA
ATOM     20  H   UNL     1      -3.724  45.783   3.906  1.00  0.00     0.293 HD
ENDBRANCH  13  19
BRANCH   7  21
ATOM     21  O   UNL     1       4.114  43.775  -1.106  1.00  0.00    -0.504 OA
ATOM     22  H   UNL     1       4.721  44.313  -0.498  1.00  0.00     0.293 HD
ENDBRANCH   7  21
TORSDOF 4
ENDMDL
