MODEL 1
REMARK VINA RESULT:    -4.332      0.000      0.000
REMARK INTER + INTRA:          -5.790
REMARK INTER:                  -5.599
REMARK INTRA:                  -0.191
REMARK UNBOUND:                -0.191
REMARK SMILES CCCCCCC(C)=O
REMARK SMILES IDX 4 1 3 2 2 3 1 4 5 5 6 6 7 7 9 8 8 9
REMARK H PARENT
REMARK Flexibility Score: inf
ROOT
ATOM      1  C   UNL     1      16.798  35.819  11.950  1.00  0.00     0.000 C 
ENDROOT
BRANCH   1   2
ATOM      2  C   UNL     1      17.463  34.594  12.610  1.00  0.00    -0.000 C 
BRANCH   2   3
ATOM      3  C   UNL     1      16.513  33.698  13.423  1.00  0.00    -0.003 C 
ATOM      4  C   UNL     1      15.782  34.455  14.532  1.00  0.00     0.004 C 
ENDBRANCH   2   3
ENDBRANCH   1   2
BRANCH   1   5
ATOM      5  C   UNL     1      17.226  36.087  10.496  1.00  0.00     0.008 C 
BRANCH   5   6
ATOM      6  C   UNL     1      18.252  35.070   9.978  1.00  0.00     0.075 C 
BRANCH   6   7
ATOM      7  C   UNL     1      18.596  35.349   8.539  1.00  0.00     0.129 C 
ATOM      8  O   UNL     1      19.152  34.486   7.876  1.00  0.00    -0.300 OA
ATOM      9  C   UNL     1      18.264  36.662   7.895  1.00  0.00     0.087 C 
ENDBRANCH   6   7
ENDBRANCH   5   6
ENDBRANCH   1   5
TORSDOF 5
ENDMDL
MODEL 2
REMARK VINA RESULT:    -4.320      2.323      5.070
REMARK INTER + INTRA:          -5.775
REMARK INTER:                  -5.557
REMARK INTRA:                  -0.218
REMARK UNBOUND:                -0.191
REMARK SMILES CCCCCCC(C)=O
REMARK SMILES IDX 4 1 3 2 2 3 1 4 5 5 6 6 7 7 9 8 8 9
REMARK H PARENT
REMARK Flexibility Score: inf
ROOT
ATOM      1  C   UNL     1      15.850  36.529  10.887  1.00  0.00     0.000 C 
ENDROOT
BRANCH   1   2
ATOM      2  C   UNL     1      17.205  36.649  10.160  1.00  0.00    -0.000 C 
BRANCH   2   3
ATOM      3  C   UNL     1      17.315  35.844   8.853  1.00  0.00    -0.003 C 
ATOM      4  C   UNL     1      18.716  35.278   8.618  1.00  0.00     0.004 C 
ENDBRANCH   2   3
ENDBRANCH   1   2
BRANCH   1   5
ATOM      5  C   UNL     1      15.939  36.093  12.360  1.00  0.00     0.008 C 
BRANCH   5   6
ATOM      6  C   UNL     1      16.896  34.913  12.577  1.00  0.00     0.075 C 
BRANCH   6   7
ATOM      7  C   UNL     1      16.368  33.991  13.644  1.00  0.00     0.129 C 
ATOM      8  O   UNL     1      16.578  32.790  13.560  1.00  0.00    -0.300 OA
ATOM      9  C   UNL     1      15.594  34.514  14.819  1.00  0.00     0.087 C 
ENDBRANCH   6   7
ENDBRANCH   5   6
ENDBRANCH   1   5
TORSDOF 5
ENDMDL
MODEL 3
REMARK VINA RESULT:    -4.242      2.893      4.879
REMARK INTER + INTRA:          -5.673
REMARK INTER:                  -5.498
REMARK INTRA:                  -0.175
REMARK UNBOUND:                -0.191
REMARK SMILES CCCCCCC(C)=O
REMARK SMILES IDX 4 1 3 2 2 3 1 4 5 5 6 6 7 7 9 8 8 9
REMARK H PARENT
REMARK Flexibility Score: inf
ROOT
ATOM      1  C   UNL     1      18.889  34.364   9.837  1.00  0.00     0.000 C 
ENDROOT
BRANCH   1   2
ATOM      2  C   UNL     1      20.309  34.147  10.396  1.00  0.00    -0.000 C 
BRANCH   2   3
ATOM      3  C   UNL     1      20.927  32.772  10.085  1.00  0.00    -0.003 C 
ATOM      4  C   UNL     1      21.526  32.095  11.318  1.00  0.00     0.004 C 
ENDBRANCH   2   3
ENDBRANCH   1   2
BRANCH   1   5
ATOM      5  C   UNL     1      17.957  35.197  10.735  1.00  0.00     0.008 C 
BRANCH   5   6
ATOM      6  C   UNL     1      17.928  34.703  12.188  1.00  0.00     0.075 C 
BRANCH   6   7
ATOM      7  C   UNL     1      16.594  34.995  12.821  1.00  0.00     0.129 C 
ATOM      8  O   UNL     1      15.902  35.899  12.378  1.00  0.00    -0.300 OA
ATOM      9  C   UNL     1      16.087  34.192  13.983  1.00  0.00     0.087 C 
ENDBRANCH   6   7
ENDBRANCH   5   6
ENDBRANCH   1   5
TORSDOF 5
ENDMDL
MODEL 4
REMARK VINA RESULT:    -4.175      2.859      5.176
REMARK INTER + INTRA:          -5.586
REMARK INTER:                  -5.346
REMARK INTRA:                  -0.240
REMARK UNBOUND:                -0.191
REMARK SMILES CCCCCCC(C)=O
REMARK SMILES IDX 4 1 3 2 2 3 1 4 5 5 6 6 7 7 9 8 8 9
REMARK H PARENT
REMARK Flexibility Score: inf
ROOT
ATOM      1  C   UNL     1      17.343  35.873  10.566  1.00  0.00     0.000 C 
ENDROOT
BRANCH   1   2
ATOM      2  C   UNL     1      18.285  35.110   9.612  1.00  0.00    -0.000 C 
BRANCH   2   3
ATOM      3  C   UNL     1      19.446  34.370  10.300  1.00  0.00    -0.003 C 
ATOM      4  C   UNL     1      20.582  34.021   9.339  1.00  0.00     0.004 C 
ENDBRANCH   2   3
ENDBRANCH   1   2
BRANCH   1   5
ATOM      5  C   UNL     1      17.466  35.484  12.050  1.00  0.00     0.008 C 
BRANCH   5   6
ATOM      6  C   UNL     1      16.115  35.462  12.776  1.00  0.00     0.075 C 
BRANCH   6   7
ATOM      7  C   UNL     1      16.081  34.359  13.801  1.00  0.00     0.129 C 
ATOM      8  O   UNL     1      15.615  34.582  14.909  1.00  0.00    -0.300 OA
ATOM      9  C   UNL     1      16.599  32.986  13.491  1.00  0.00     0.087 C 
ENDBRANCH   6   7
ENDBRANCH   5   6
ENDBRANCH   1   5
TORSDOF 5
ENDMDL
MODEL 5
REMARK VINA RESULT:    -4.167      2.625      3.144
REMARK INTER + INTRA:          -5.577
REMARK INTER:                  -5.397
REMARK INTRA:                  -0.180
REMARK UNBOUND:                -0.191
REMARK SMILES CCCCCCC(C)=O
REMARK SMILES IDX 4 1 3 2 2 3 1 4 5 5 6 6 7 7 9 8 8 9
REMARK H PARENT
REMARK Flexibility Score: inf
ROOT
ATOM      1  C   UNL     1      18.600  34.743  11.817  1.00  0.00     0.000 C 
ENDROOT
BRANCH   1   2
ATOM      2  C   UNL     1      17.270  35.516  11.924  1.00  0.00    -0.000 C 
BRANCH   2   3
ATOM      3  C   UNL     1      16.345  35.063  13.068  1.00  0.00    -0.003 C 
ATOM      4  C   UNL     1      16.540  33.595  13.446  1.00  0.00     0.004 C 
ENDBRANCH   2   3
ENDBRANCH   1   2
BRANCH   1   5
ATOM      5  C   UNL     1      18.983  34.301  10.394  1.00  0.00     0.008 C 
BRANCH   5   6
ATOM      6  C   UNL     1      20.500  34.209  10.184  1.00  0.00     0.075 C 
BRANCH   6   7
ATOM      7  C   UNL     1      20.952  32.772  10.196  1.00  0.00     0.129 C 
ATOM      8  O   UNL     1      21.323  32.267  11.245  1.00  0.00    -0.300 OA
ATOM      9  C   UNL     1      20.948  31.940   8.947  1.00  0.00     0.087 C 
ENDBRANCH   6   7
ENDBRANCH   5   6
ENDBRANCH   1   5
TORSDOF 5
ENDMDL
MODEL 6
REMARK VINA RESULT:    -4.164      3.043      4.522
REMARK INTER + INTRA:          -5.573
REMARK INTER:                  -5.399
REMARK INTRA:                  -0.174
REMARK UNBOUND:                -0.191
REMARK SMILES CCCCCCC(C)=O
REMARK SMILES IDX 4 1 3 2 2 3 1 4 5 5 6 6 7 7 9 8 8 9
REMARK H PARENT
REMARK Flexibility Score: inf
ROOT
ATOM      1  C   UNL     1      19.108  34.370   9.523  1.00  0.00     0.000 C 
ENDROOT
BRANCH   1   2
ATOM      2  C   UNL     1      20.284  34.008  10.452  1.00  0.00    -0.000 C 
BRANCH   2   3
ATOM      3  C   UNL     1      20.927  32.636  10.182  1.00  0.00    -0.003 C 
ATOM      4  C   UNL     1      21.578  32.028  11.424  1.00  0.00     0.004 C 
ENDBRANCH   2   3
ENDBRANCH   1   2
BRANCH   1   5
ATOM      5  C   UNL     1      18.041  35.284  10.151  1.00  0.00     0.008 C 
BRANCH   5   6
ATOM      6  C   UNL     1      17.940  35.126  11.674  1.00  0.00     0.075 C 
BRANCH   6   7
ATOM      7  C   UNL     1      16.670  35.749  12.190  1.00  0.00     0.129 C 
ATOM      8  O   UNL     1      16.054  35.200  13.092  1.00  0.00    -0.300 OA
ATOM      9  C   UNL     1      16.144  37.036  11.627  1.00  0.00     0.087 C 
ENDBRANCH   6   7
ENDBRANCH   5   6
ENDBRANCH   1   5
TORSDOF 5
ENDMDL
MODEL 7
REMARK VINA RESULT:    -4.085      2.226      3.214
REMARK INTER + INTRA:          -5.471
REMARK INTER:                  -5.258
REMARK INTRA:                  -0.213
REMARK UNBOUND:                -0.191
REMARK SMILES CCCCCCC(C)=O
REMARK SMILES IDX 4 1 3 2 2 3 1 4 5 5 6 6 7 7 9 8 8 9
REMARK H PARENT
REMARK Flexibility Score: inf
ROOT
ATOM      1  C   UNL     1      18.640  34.711  11.485  1.00  0.00     0.000 C 
ENDROOT
BRANCH   1   2
ATOM      2  C   UNL     1      17.419  35.459  12.055  1.00  0.00    -0.000 C 
BRANCH   2   3
ATOM      3  C   UNL     1      16.644  36.312  11.035  1.00  0.00    -0.003 C 
ATOM      4  C   UNL     1      15.653  37.273  11.692  1.00  0.00     0.004 C 
ENDBRANCH   2   3
ENDBRANCH   1   2
BRANCH   1   5
ATOM      5  C   UNL     1      18.679  34.606   9.949  1.00  0.00     0.008 C 
BRANCH   5   6
ATOM      6  C   UNL     1      20.093  34.362   9.403  1.00  0.00     0.075 C 
BRANCH   6   7
ATOM      7  C   UNL     1      20.350  32.888   9.233  1.00  0.00     0.129 C 
ATOM      8  O   UNL     1      19.767  32.274   8.352  1.00  0.00    -0.300 OA
ATOM      9  C   UNL     1      21.315  32.155  10.117  1.00  0.00     0.087 C 
ENDBRANCH   6   7
ENDBRANCH   5   6
ENDBRANCH   1   5
TORSDOF 5
ENDMDL
MODEL 8
REMARK VINA RESULT:    -3.950     12.566     15.279
REMARK INTER + INTRA:          -5.297
REMARK INTER:                  -4.983
REMARK INTRA:                  -0.313
REMARK UNBOUND:                -0.191
REMARK SMILES CCCCCCC(C)=O
REMARK SMILES IDX 4 1 3 2 2 3 1 4 5 5 6 6 7 7 9 8 8 9
REMARK H PARENT
REMARK Flexibility Score: inf
ROOT
ATOM      1  C   UNL     1      18.042  34.705  25.043  1.00  0.00     0.000 C 
ENDROOT
BRANCH   1   2
ATOM      2  C   UNL     1      17.952  35.812  23.973  1.00  0.00    -0.000 C 
BRANCH   2   3
ATOM      3  C   UNL     1      16.605  35.893  23.233  1.00  0.00    -0.003 C 
ATOM      4  C   UNL     1      16.698  36.645  21.906  1.00  0.00     0.004 C 
ENDBRANCH   2   3
ENDBRANCH   1   2
BRANCH   1   5
ATOM      5  C   UNL     1      16.700  34.045  25.411  1.00  0.00     0.008 C 
BRANCH   5   6
ATOM      6  C   UNL     1      16.284  34.308  26.864  1.00  0.00     0.075 C 
BRANCH   6   7
ATOM      7  C   UNL     1      14.846  34.749  26.933  1.00  0.00     0.129 C 
ATOM      8  O   UNL     1      14.239  34.657  27.990  1.00  0.00    -0.300 OA
ATOM      9  C   UNL     1      14.140  35.310  25.734  1.00  0.00     0.087 C 
ENDBRANCH   6   7
ENDBRANCH   5   6
ENDBRANCH   1   5
TORSDOF 5
ENDMDL
MODEL 9
REMARK VINA RESULT:    -3.873     14.424     15.972
REMARK INTER + INTRA:          -5.197
REMARK INTER:                  -4.969
REMARK INTRA:                  -0.228
REMARK UNBOUND:                -0.191
REMARK SMILES CCCCCCC(C)=O
REMARK SMILES IDX 4 1 3 2 2 3 1 4 5 5 6 6 7 7 9 8 8 9
REMARK H PARENT
REMARK Flexibility Score: inf
ROOT
ATOM      1  C   UNL     1      18.024  33.243  28.116  1.00  0.00     0.000 C 
ENDROOT
BRANCH   1   2
ATOM      2  C   UNL     1      18.813  32.144  27.377  1.00  0.00    -0.000 C 
BRANCH   2   3
ATOM      3  C   UNL     1      20.338  32.192  27.579  1.00  0.00    -0.003 C 
ATOM      4  C   UNL     1      21.114  32.199  26.262  1.00  0.00     0.004 C 
ENDBRANCH   2   3
ENDBRANCH   1   2
BRANCH   1   5
ATOM      5  C   UNL     1      16.914  33.916  27.287  1.00  0.00     0.008 C 
BRANCH   5   6
ATOM      6  C   UNL     1      17.225  33.946  25.785  1.00  0.00     0.075 C 
BRANCH   6   7
ATOM      7  C   UNL     1      16.237  34.817  25.056  1.00  0.00     0.129 C 
ATOM      8  O   UNL     1      16.585  35.401  24.040  1.00  0.00    -0.300 OA
ATOM      9  C   UNL     1      14.827  34.979  25.542  1.00  0.00     0.087 C 
ENDBRANCH   6   7
ENDBRANCH   5   6
ENDBRANCH   1   5
TORSDOF 5
ENDMDL
