MODEL 1
REMARK VINA RESULT:    -2.559      0.000      0.000
REMARK INTER + INTRA:          -5.085
REMARK INTER:                  -3.905
REMARK INTRA:                  -1.180
REMARK UNBOUND:                -1.180
REMARK SMILES CC(=O)CCC=C(C)CCC=C(C)CCC=C(C)C
REMARK SMILES IDX 10 1 11 2 12 3 13 4 14 5 15 6 16 7 18 8 17 9 19 10 9 11 7 12
REMARK SMILES IDX 6 13 8 14 5 15 4 16 2 17 3 18 1 19
REMARK H PARENT
REMARK Flexibility Score: inf
ROOT
ATOM      1  C   UNL     1     134.480  51.147  27.693  1.00  0.00     0.032 C 
ENDROOT
BRANCH   1   2
ATOM      2  C   UNL     1     134.843  50.188  28.798  1.00  0.00    -0.028 C 
ATOM      3  C   UNL     1     134.551  50.374  30.105  1.00  0.00    -0.077 C 
ATOM      4  C   UNL     1     134.943  49.295  31.083  1.00  0.00     0.039 C 
BRANCH   3   5
ATOM      5  C   UNL     1     133.875  51.628  30.630  1.00  0.00     0.034 C 
BRANCH   5   6
ATOM      6  C   UNL     1     134.890  52.727  30.981  1.00  0.00     0.032 C 
BRANCH   6   7
ATOM      7  C   UNL     1     134.363  54.096  30.620  1.00  0.00    -0.028 C 
ATOM      8  C   UNL     1     136.009  54.437  28.761  1.00  0.00     0.039 C 
ATOM      9  C   UNL     1     134.871  54.886  29.647  1.00  0.00    -0.080 C 
ATOM     10  C   UNL     1     134.274  56.255  29.452  1.00  0.00     0.039 C 
ENDBRANCH   6   7
ENDBRANCH   5   6
ENDBRANCH   3   5
ENDBRANCH   1   2
BRANCH   1  11
ATOM     11  C   UNL     1     134.845  50.565  26.322  1.00  0.00     0.034 C 
BRANCH  11  12
ATOM     12  C   UNL     1     134.763  51.635  25.257  1.00  0.00    -0.077 C 
ATOM     13  C   UNL     1     134.946  51.285  23.964  1.00  0.00    -0.028 C 
ATOM     14  C   UNL     1     134.472  53.060  25.665  1.00  0.00     0.039 C 
BRANCH  13  15
ATOM     15  C   UNL     1     134.778  52.221  22.792  1.00  0.00     0.035 C 
BRANCH  15  16
ATOM     16  C   UNL     1     133.941  51.574  21.681  1.00  0.00     0.079 C 
BRANCH  16  17
ATOM     17  C   UNL     1     134.549  51.809  20.322  1.00  0.00     0.130 C 
ATOM     18  O   UNL     1     133.876  52.326  19.443  1.00  0.00    -0.300 OA
ATOM     19  C   UNL     1     135.969  51.427  20.025  1.00  0.00     0.087 C 
ENDBRANCH  16  17
ENDBRANCH  15  16
ENDBRANCH  13  15
ENDBRANCH  11  12
ENDBRANCH   1  11
TORSDOF 9
ENDMDL
MODEL 2
REMARK VINA RESULT:    -1.359      1.578      2.712
REMARK INTER + INTRA:          -3.254
REMARK INTER:                  -4.352
REMARK INTRA:                   1.099
REMARK UNBOUND:                -1.180
REMARK SMILES CC(=O)CCC=C(C)CCC=C(C)CCC=C(C)C
REMARK SMILES IDX 10 1 11 2 12 3 13 4 14 5 15 6 16 7 18 8 17 9 19 10 9 11 7 12
REMARK SMILES IDX 6 13 8 14 5 15 4 16 2 17 3 18 1 19
REMARK H PARENT
REMARK Flexibility Score: inf
ROOT
ATOM      1  C   UNL     1     134.312  53.217  25.277  1.00  0.00     0.032 C 
ENDROOT
BRANCH   1   2
ATOM      2  C   UNL     1     134.497  52.091  26.262  1.00  0.00    -0.028 C 
ATOM      3  C   UNL     1     134.524  52.240  27.606  1.00  0.00    -0.077 C 
ATOM      4  C   UNL     1     134.671  51.005  28.457  1.00  0.00     0.039 C 
BRANCH   3   5
ATOM      5  C   UNL     1     134.443  53.594  28.289  1.00  0.00     0.034 C 
BRANCH   5   6
ATOM      6  C   UNL     1     135.624  53.834  29.240  1.00  0.00     0.032 C 
BRANCH   6   7
ATOM      7  C   UNL     1     135.184  54.559  30.491  1.00  0.00    -0.028 C 
ATOM      8  C   UNL     1     133.875  56.293  29.241  1.00  0.00     0.039 C 
ATOM      9  C   UNL     1     134.424  55.677  30.506  1.00  0.00    -0.080 C 
ATOM     10  C   UNL     1     134.123  56.319  31.835  1.00  0.00     0.039 C 
ENDBRANCH   6   7
ENDBRANCH   5   6
ENDBRANCH   3   5
ENDBRANCH   1   2
BRANCH   1  11
ATOM     11  C   UNL     1     135.337  53.124  24.141  1.00  0.00     0.034 C 
BRANCH  11  12
ATOM     12  C   UNL     1     134.775  52.322  22.990  1.00  0.00    -0.077 C 
ATOM     13  C   UNL     1     134.347  52.976  21.886  1.00  0.00    -0.028 C 
ATOM     14  C   UNL     1     134.714  50.817  23.100  1.00  0.00     0.039 C 
BRANCH  13  15
ATOM     15  C   UNL     1     133.875  52.301  20.621  1.00  0.00     0.035 C 
BRANCH  15  16
ATOM     16  C   UNL     1     135.059  51.811  19.778  1.00  0.00     0.079 C 
BRANCH  16  17
ATOM     17  C   UNL     1     135.332  50.346  20.007  1.00  0.00     0.130 C 
ATOM     18  O   UNL     1     136.374  49.857  19.597  1.00  0.00    -0.300 OA
ATOM     19  C   UNL     1     134.352  49.473  20.735  1.00  0.00     0.087 C 
ENDBRANCH  16  17
ENDBRANCH  15  16
ENDBRANCH  13  15
ENDBRANCH  11  12
ENDBRANCH   1  11
TORSDOF 9
ENDMDL
MODEL 3
REMARK VINA RESULT:    -1.193      1.323      3.590
REMARK INTER + INTRA:          -3.001
REMARK INTER:                  -2.443
REMARK INTRA:                  -0.557
REMARK UNBOUND:                -1.180
REMARK SMILES CC(=O)CCC=C(C)CCC=C(C)CCC=C(C)C
REMARK SMILES IDX 10 1 11 2 12 3 13 4 14 5 15 6 16 7 18 8 17 9 19 10 9 11 7 12
REMARK SMILES IDX 6 13 8 14 5 15 4 16 2 17 3 18 1 19
REMARK H PARENT
REMARK Flexibility Score: inf
ROOT
ATOM      1  C   UNL     1     136.224  52.979  26.793  1.00  0.00     0.032 C 
ENDROOT
BRANCH   1   2
ATOM      2  C   UNL     1     135.950  53.940  27.921  1.00  0.00    -0.028 C 
ATOM      3  C   UNL     1     134.929  53.825  28.800  1.00  0.00    -0.077 C 
ATOM      4  C   UNL     1     134.819  54.847  29.903  1.00  0.00     0.039 C 
BRANCH   3   5
ATOM      5  C   UNL     1     133.877  52.734  28.705  1.00  0.00     0.034 C 
BRANCH   5   6
ATOM      6  C   UNL     1     134.484  51.331  28.850  1.00  0.00     0.032 C 
BRANCH   6   7
ATOM      7  C   UNL     1     133.987  50.644  30.101  1.00  0.00    -0.028 C 
ATOM      8  C   UNL     1     135.763  48.876  30.051  1.00  0.00     0.039 C 
ATOM      9  C   UNL     1     134.533  49.528  30.636  1.00  0.00    -0.080 C 
ATOM     10  C   UNL     1     133.880  48.925  31.853  1.00  0.00     0.039 C 
ENDBRANCH   6   7
ENDBRANCH   5   6
ENDBRANCH   3   5
ENDBRANCH   1   2
BRANCH   1  11
ATOM     11  C   UNL     1     135.153  53.096  25.702  1.00  0.00     0.034 C 
BRANCH  11  12
ATOM     12  C   UNL     1     135.079  51.819  24.897  1.00  0.00    -0.077 C 
ATOM     13  C   UNL     1     134.442  51.835  23.704  1.00  0.00    -0.028 C 
ATOM     14  C   UNL     1     135.723  50.566  25.442  1.00  0.00     0.039 C 
BRANCH  13  15
ATOM     15  C   UNL     1     134.393  50.671  22.745  1.00  0.00     0.035 C 
BRANCH  15  16
ATOM     16  C   UNL     1     133.930  51.118  21.353  1.00  0.00     0.079 C 
BRANCH  16  17
ATOM     17  C   UNL     1     134.996  50.885  20.312  1.00  0.00     0.130 C 
ATOM     18  O   UNL     1     135.377  49.747  20.085  1.00  0.00    -0.300 OA
ATOM     19  C   UNL     1     135.597  52.025  19.543  1.00  0.00     0.087 C 
ENDBRANCH  16  17
ENDBRANCH  15  16
ENDBRANCH  13  15
ENDBRANCH  11  12
ENDBRANCH   1  11
TORSDOF 9
ENDMDL
MODEL 4
REMARK VINA RESULT:    -0.763      1.547      2.794
REMARK INTER + INTRA:          -2.344
REMARK INTER:                  -1.899
REMARK INTRA:                  -0.445
REMARK UNBOUND:                -1.180
REMARK SMILES CC(=O)CCC=C(C)CCC=C(C)CCC=C(C)C
REMARK SMILES IDX 10 1 11 2 12 3 13 4 14 5 15 6 16 7 18 8 17 9 19 10 9 11 7 12
REMARK SMILES IDX 6 13 8 14 5 15 4 16 2 17 3 18 1 19
REMARK H PARENT
REMARK Flexibility Score: inf
ROOT
ATOM      1  C   UNL     1     135.124  53.399  25.041  1.00  0.00     0.032 C 
ENDROOT
BRANCH   1   2
ATOM      2  C   UNL     1     134.700  52.216  25.875  1.00  0.00    -0.028 C 
ATOM      3  C   UNL     1     134.627  52.213  27.225  1.00  0.00    -0.077 C 
ATOM      4  C   UNL     1     134.139  50.961  27.909  1.00  0.00     0.039 C 
BRANCH   3   5
ATOM      5  C   UNL     1     135.041  53.400  28.078  1.00  0.00     0.034 C 
BRANCH   5   6
ATOM      6  C   UNL     1     133.881  53.929  28.933  1.00  0.00     0.032 C 
BRANCH   6   7
ATOM      7  C   UNL     1     133.877  53.296  30.305  1.00  0.00    -0.028 C 
ATOM      8  C   UNL     1     134.570  55.401  31.476  1.00  0.00     0.039 C 
ATOM      9  C   UNL     1     134.209  53.935  31.450  1.00  0.00    -0.080 C 
ATOM     10  C   UNL     1     134.217  53.146  32.733  1.00  0.00     0.039 C 
ENDBRANCH   6   7
ENDBRANCH   5   6
ENDBRANCH   3   5
ENDBRANCH   1   2
BRANCH   1  11
ATOM     11  C   UNL     1     136.219  53.001  24.044  1.00  0.00     0.034 C 
BRANCH  11  12
ATOM     12  C   UNL     1     135.972  51.604  23.522  1.00  0.00    -0.077 C 
ATOM     13  C   UNL     1     134.775  51.318  22.963  1.00  0.00    -0.028 C 
ATOM     14  C   UNL     1     137.070  50.572  23.632  1.00  0.00     0.039 C 
BRANCH  13  15
ATOM     15  C   UNL     1     134.433  50.007  22.298  1.00  0.00     0.035 C 
BRANCH  15  16
ATOM     16  C   UNL     1     133.878  50.229  20.885  1.00  0.00     0.079 C 
BRANCH  16  17
ATOM     17  C   UNL     1     134.623  51.322  20.163  1.00  0.00     0.130 C 
ATOM     18  O   UNL     1     134.034  52.345  19.846  1.00  0.00    -0.300 OA
ATOM     19  C   UNL     1     136.080  51.184  19.828  1.00  0.00     0.087 C 
ENDBRANCH  16  17
ENDBRANCH  15  16
ENDBRANCH  13  15
ENDBRANCH  11  12
ENDBRANCH   1  11
TORSDOF 9
ENDMDL
MODEL 5
REMARK VINA RESULT:    -0.539      1.661      2.432
REMARK INTER + INTRA:          -2.003
REMARK INTER:                  -2.398
REMARK INTRA:                   0.395
REMARK UNBOUND:                -1.180
REMARK SMILES CC(=O)CCC=C(C)CCC=C(C)CCC=C(C)C
REMARK SMILES IDX 10 1 11 2 12 3 13 4 14 5 15 6 16 7 18 8 17 9 19 10 9 11 7 12
REMARK SMILES IDX 6 13 8 14 5 15 4 16 2 17 3 18 1 19
REMARK H PARENT
REMARK Flexibility Score: inf
ROOT
ATOM      1  C   UNL     1     136.445  49.590  25.691  1.00  0.00     0.032 C 
ENDROOT
BRANCH   1   2
ATOM      2  C   UNL     1     135.312  49.603  26.685  1.00  0.00    -0.028 C 
ATOM      3  C   UNL     1     135.090  50.587  27.586  1.00  0.00    -0.077 C 
ATOM      4  C   UNL     1     133.882  50.473  28.482  1.00  0.00     0.039 C 
BRANCH   3   5
ATOM      5  C   UNL     1     136.016  51.778  27.754  1.00  0.00     0.034 C 
BRANCH   5   6
ATOM      6  C   UNL     1     135.253  53.111  27.733  1.00  0.00     0.032 C 
BRANCH   6   7
ATOM      7  C   UNL     1     134.402  53.276  28.970  1.00  0.00    -0.028 C 
ATOM      8  C   UNL     1     136.214  54.404  30.284  1.00  0.00     0.039 C 
ATOM      9  C   UNL     1     134.827  53.829  30.129  1.00  0.00    -0.080 C 
ATOM     10  C   UNL     1     133.875  53.863  31.296  1.00  0.00     0.039 C 
ENDBRANCH   6   7
ENDBRANCH   5   6
ENDBRANCH   3   5
ENDBRANCH   1   2
BRANCH   1  11
ATOM     11  C   UNL     1     136.371  50.807  24.761  1.00  0.00     0.034 C 
BRANCH  11  12
ATOM     12  C   UNL     1     135.327  50.588  23.690  1.00  0.00    -0.077 C 
ATOM     13  C   UNL     1     135.698  50.004  22.528  1.00  0.00    -0.028 C 
ATOM     14  C   UNL     1     133.903  51.020  23.948  1.00  0.00     0.039 C 
BRANCH  13  15
ATOM     15  C   UNL     1     134.745  49.618  21.423  1.00  0.00     0.035 C 
BRANCH  15  16
ATOM     16  C   UNL     1     133.879  50.809  20.995  1.00  0.00     0.079 C 
BRANCH  16  17
ATOM     17  C   UNL     1     134.722  52.008  20.641  1.00  0.00     0.130 C 
ATOM     18  O   UNL     1     135.593  51.902  19.791  1.00  0.00    -0.300 OA
ATOM     19  C   UNL     1     134.508  53.336  21.306  1.00  0.00     0.087 C 
ENDBRANCH  16  17
ENDBRANCH  15  16
ENDBRANCH  13  15
ENDBRANCH  11  12
ENDBRANCH   1  11
TORSDOF 9
ENDMDL
MODEL 6
REMARK VINA RESULT:    -0.145      1.517      3.627
REMARK INTER + INTRA:          -1.401
REMARK INTER:                  -0.678
REMARK INTRA:                  -0.723
REMARK UNBOUND:                -1.180
REMARK SMILES CC(=O)CCC=C(C)CCC=C(C)CCC=C(C)C
REMARK SMILES IDX 10 1 11 2 12 3 13 4 14 5 15 6 16 7 18 8 17 9 19 10 9 11 7 12
REMARK SMILES IDX 6 13 8 14 5 15 4 16 2 17 3 18 1 19
REMARK H PARENT
REMARK Flexibility Score: inf
ROOT
ATOM      1  C   UNL     1     135.971  52.608  26.721  1.00  0.00     0.032 C 
ENDROOT
BRANCH   1   2
ATOM      2  C   UNL     1     135.152  53.241  27.818  1.00  0.00    -0.028 C 
ATOM      3  C   UNL     1     134.901  52.669  29.018  1.00  0.00    -0.077 C 
ATOM      4  C   UNL     1     134.101  53.453  30.027  1.00  0.00     0.039 C 
BRANCH   3   5
ATOM      5  C   UNL     1     135.362  51.268  29.378  1.00  0.00     0.034 C 
BRANCH   5   6
ATOM      6  C   UNL     1     134.239  50.233  29.225  1.00  0.00     0.032 C 
BRANCH   6   7
ATOM      7  C   UNL     1     133.876  50.026  27.773  1.00  0.00    -0.028 C 
ATOM      8  C   UNL     1     136.077  48.980  27.186  1.00  0.00     0.039 C 
ATOM      9  C   UNL     1     134.698  49.491  26.842  1.00  0.00    -0.080 C 
ATOM     10  C   UNL     1     134.211  49.411  25.419  1.00  0.00     0.039 C 
ENDBRANCH   6   7
ENDBRANCH   5   6
ENDBRANCH   3   5
ENDBRANCH   1   2
BRANCH   1  11
ATOM     11  C   UNL     1     135.780  53.356  25.396  1.00  0.00     0.034 C 
BRANCH  11  12
ATOM     12  C   UNL     1     135.476  52.381  24.281  1.00  0.00    -0.077 C 
ATOM     13  C   UNL     1     134.454  52.652  23.438  1.00  0.00    -0.028 C 
ATOM     14  C   UNL     1     136.325  51.141  24.135  1.00  0.00     0.039 C 
BRANCH  13  15
ATOM     15  C   UNL     1     134.113  51.834  22.217  1.00  0.00     0.035 C 
BRANCH  15  16
ATOM     16  C   UNL     1     133.884  52.731  20.994  1.00  0.00     0.079 C 
BRANCH  16  17
ATOM     17  C   UNL     1     134.655  52.240  19.795  1.00  0.00     0.130 C 
ATOM     18  O   UNL     1     135.809  51.864  19.933  1.00  0.00    -0.300 OA
ATOM     19  C   UNL     1     134.032  52.197  18.430  1.00  0.00     0.087 C 
ENDBRANCH  16  17
ENDBRANCH  15  16
ENDBRANCH  13  15
ENDBRANCH  11  12
ENDBRANCH   1  11
TORSDOF 9
ENDMDL
