MODEL 1
REMARK VINA RESULT:     5.647      0.000      0.000
REMARK INTER + INTRA:          10.660
REMARK INTER:                  10.269
REMARK INTRA:                   0.391
REMARK UNBOUND:                 0.391
REMARK SMILES CCCCCCCCCCCCCCCC(=O)[O-]
REMARK SMILES IDX 9 1 10 2 11 3 12 4 13 5 14 6 15 7 16 8 17 9 18 10 8 11 7 12
REMARK SMILES IDX 6 13 5 14 4 15 3 16 2 17 1 18
REMARK H PARENT
REMARK Flexibility Score: inf
ROOT
ATOM      1  C   UNL     1      37.569 -11.395 -21.502  1.00  0.00     0.000 C 
ENDROOT
BRANCH   1   2
ATOM      2  C   UNL     1      37.473 -12.755 -20.799  1.00  0.00     0.000 C 
BRANCH   2   3
ATOM      3  C   UNL     1      36.436 -12.717 -19.667  1.00  0.00     0.000 C 
BRANCH   3   4
ATOM      4  C   UNL     1      36.594 -13.876 -18.668  1.00  0.00     0.000 C 
BRANCH   4   5
ATOM      5  C   UNL     1      35.687 -15.092 -18.931  1.00  0.00     0.000 C 
BRANCH   5   6
ATOM      6  C   UNL     1      36.327 -16.126 -19.870  1.00  0.00     0.006 C 
BRANCH   6   7
ATOM      7  C   UNL     1      37.478 -15.504 -20.666  1.00  0.00     0.053 C 
BRANCH   7   8
ATOM      8  C   UNL     1      37.566 -16.118 -22.027  1.00  0.00     0.041 C 
ATOM      9  O   UNL     1      36.553 -16.152 -22.774  1.00  0.00    -0.550 OA
ATOM     10  O   UNL     1      38.779 -16.609 -22.491  1.00  0.00    -0.550 OA
ENDBRANCH   7   8
ENDBRANCH   6   7
ENDBRANCH   5   6
ENDBRANCH   4   5
ENDBRANCH   3   4
ENDBRANCH   2   3
ENDBRANCH   1   2
BRANCH   1  11
ATOM     11  C   UNL     1      36.415 -10.476 -21.081  1.00  0.00     0.000 C 
BRANCH  11  12
ATOM     12  C   UNL     1      36.943  -9.213 -20.389  1.00  0.00    -0.000 C 
BRANCH  12  13
ATOM     13  C   UNL     1      37.809  -9.574 -19.173  1.00  0.00    -0.000 C 
BRANCH  13  14
ATOM     14  C   UNL     1      39.267  -9.099 -19.311  1.00  0.00    -0.000 C 
BRANCH  14  15
ATOM     15  C   UNL     1      40.067  -9.061 -17.995  1.00  0.00    -0.000 C 
BRANCH  15  16
ATOM     16  C   UNL     1      41.328  -8.190 -18.087  1.00  0.00    -0.000 C 
BRANCH  16  17
ATOM     17  C   UNL     1      42.542  -8.918 -17.497  1.00  0.00    -0.003 C 
ATOM     18  C   UNL     1      42.456 -10.421 -17.744  1.00  0.00     0.004 C 
ENDBRANCH  16  17
ENDBRANCH  15  16
ENDBRANCH  14  15
ENDBRANCH  13  14
ENDBRANCH  12  13
ENDBRANCH  11  12
ENDBRANCH   1  11
TORSDOF 14
ENDMDL
MODEL 2
REMARK VINA RESULT:     5.733      3.305      7.427
REMARK INTER + INTRA:          10.816
REMARK INTER:                   9.896
REMARK INTRA:                   0.919
REMARK UNBOUND:                 0.391
REMARK SMILES CCCCCCCCCCCCCCCC(=O)[O-]
REMARK SMILES IDX 9 1 10 2 11 3 12 4 13 5 14 6 15 7 16 8 17 9 18 10 8 11 7 12
REMARK SMILES IDX 6 13 5 14 4 15 3 16 2 17 1 18
REMARK H PARENT
REMARK Flexibility Score: inf
ROOT
ATOM      1  C   UNL     1      37.520 -11.636 -21.501  1.00  0.00     0.000 C 
ENDROOT
BRANCH   1   2
ATOM      2  C   UNL     1      36.383 -10.696 -21.080  1.00  0.00     0.000 C 
BRANCH   2   3
ATOM      3  C   UNL     1      36.938  -9.428 -20.415  1.00  0.00     0.000 C 
BRANCH   3   4
ATOM      4  C   UNL     1      37.897  -9.731 -19.250  1.00  0.00     0.000 C 
BRANCH   4   5
ATOM      5  C   UNL     1      39.246  -8.992 -19.308  1.00  0.00     0.000 C 
BRANCH   5   6
ATOM      6  C   UNL     1      39.955  -8.931 -17.947  1.00  0.00     0.006 C 
BRANCH   6   7
ATOM      7  C   UNL     1      41.366  -8.354 -18.090  1.00  0.00     0.053 C 
BRANCH   7   8
ATOM      8  C   UNL     1      42.377  -9.295 -17.516  1.00  0.00     0.041 C 
ATOM      9  O   UNL     1      42.432 -10.488 -17.915  1.00  0.00    -0.550 OA
ATOM     10  O   UNL     1      43.293  -8.843 -16.574  1.00  0.00    -0.550 OA
ENDBRANCH   7   8
ENDBRANCH   6   7
ENDBRANCH   5   6
ENDBRANCH   4   5
ENDBRANCH   3   4
ENDBRANCH   2   3
ENDBRANCH   1   2
BRANCH   1  11
ATOM     11  C   UNL     1      37.355 -13.020 -20.861  1.00  0.00     0.000 C 
BRANCH  11  12
ATOM     12  C   UNL     1      36.583 -12.926 -19.539  1.00  0.00    -0.000 C 
BRANCH  12  13
ATOM     13  C   UNL     1      36.320 -14.322 -18.955  1.00  0.00    -0.000 C 
BRANCH  13  14
ATOM     14  C   UNL     1      36.613 -15.456 -19.954  1.00  0.00    -0.000 C 
BRANCH  14  15
ATOM     15  C   UNL     1      37.884 -15.264 -20.803  1.00  0.00    -0.000 C 
BRANCH  15  16
ATOM     16  C   UNL     1      37.909 -16.158 -22.052  1.00  0.00    -0.000 C 
BRANCH  16  17
ATOM     17  C   UNL     1      36.543 -16.166 -22.747  1.00  0.00    -0.003 C 
ATOM     18  C   UNL     1      36.615 -16.875 -24.097  1.00  0.00     0.004 C 
ENDBRANCH  16  17
ENDBRANCH  15  16
ENDBRANCH  14  15
ENDBRANCH  13  14
ENDBRANCH  12  13
ENDBRANCH  11  12
ENDBRANCH   1  11
TORSDOF 14
ENDMDL
MODEL 3
REMARK VINA RESULT:     6.093      3.015      7.008
REMARK INTER + INTRA:          11.470
REMARK INTER:                  11.503
REMARK INTRA:                  -0.033
REMARK UNBOUND:                 0.391
REMARK SMILES CCCCCCCCCCCCCCCC(=O)[O-]
REMARK SMILES IDX 9 1 10 2 11 3 12 4 13 5 14 6 15 7 16 8 17 9 18 10 8 11 7 12
REMARK SMILES IDX 6 13 5 14 4 15 3 16 2 17 1 18
REMARK H PARENT
REMARK Flexibility Score: inf
ROOT
ATOM      1  C   UNL     1      36.303 -10.633 -21.155  1.00  0.00     0.000 C 
ENDROOT
BRANCH   1   2
ATOM      2  C   UNL     1      36.773  -9.347 -20.464  1.00  0.00     0.000 C 
BRANCH   2   3
ATOM      3  C   UNL     1      37.688  -9.666 -19.273  1.00  0.00     0.000 C 
BRANCH   3   4
ATOM      4  C   UNL     1      39.091  -9.048 -19.412  1.00  0.00     0.000 C 
BRANCH   4   5
ATOM      5  C   UNL     1      39.963  -9.120 -18.144  1.00  0.00     0.000 C 
BRANCH   5   6
ATOM      6  C   UNL     1      41.147  -8.142 -18.174  1.00  0.00     0.006 C 
BRANCH   6   7
ATOM      7  C   UNL     1      42.292  -8.641 -17.288  1.00  0.00     0.053 C 
BRANCH   7   8
ATOM      8  C   UNL     1      42.672 -10.039 -17.661  1.00  0.00     0.041 C 
ATOM      9  O   UNL     1      43.669 -10.249 -18.399  1.00  0.00    -0.550 OA
ATOM     10  O   UNL     1      41.953 -11.113 -17.152  1.00  0.00    -0.550 OA
ENDBRANCH   7   8
ENDBRANCH   6   7
ENDBRANCH   5   6
ENDBRANCH   4   5
ENDBRANCH   3   4
ENDBRANCH   2   3
ENDBRANCH   1   2
BRANCH   1  11
ATOM     11  C   UNL     1      37.102 -11.846 -20.662  1.00  0.00     0.000 C 
BRANCH  11  12
ATOM     12  C   UNL     1      38.159 -12.263 -21.692  1.00  0.00    -0.000 C 
BRANCH  12  13
ATOM     13  C   UNL     1      37.836 -13.644 -22.282  1.00  0.00    -0.000 C 
BRANCH  13  14
ATOM     14  C   UNL     1      38.169 -14.801 -21.323  1.00  0.00    -0.000 C 
BRANCH  14  15
ATOM     15  C   UNL     1      37.008 -15.778 -21.054  1.00  0.00    -0.000 C 
BRANCH  15  16
ATOM     16  C   UNL     1      36.402 -15.614 -19.652  1.00  0.00    -0.000 C 
BRANCH  16  17
ATOM     17  C   UNL     1      36.672 -14.210 -19.099  1.00  0.00    -0.003 C 
ATOM     18  C   UNL     1      35.754 -13.896 -17.921  1.00  0.00     0.004 C 
ENDBRANCH  16  17
ENDBRANCH  15  16
ENDBRANCH  14  15
ENDBRANCH  13  14
ENDBRANCH  12  13
ENDBRANCH  11  12
ENDBRANCH   1  11
TORSDOF 14
ENDMDL
MODEL 4
REMARK VINA RESULT:     6.924      1.854      2.568
REMARK INTER + INTRA:          12.981
REMARK INTER:                  12.748
REMARK INTRA:                   0.233
REMARK UNBOUND:                 0.391
REMARK SMILES CCCCCCCCCCCCCCCC(=O)[O-]
REMARK SMILES IDX 9 1 10 2 11 3 12 4 13 5 14 6 15 7 16 8 17 9 18 10 8 11 7 12
REMARK SMILES IDX 6 13 5 14 4 15 3 16 2 17 1 18
REMARK H PARENT
REMARK Flexibility Score: inf
ROOT
ATOM      1  C   UNL     1      36.857 -11.701 -20.772  1.00  0.00     0.000 C 
ENDROOT
BRANCH   1   2
ATOM      2  C   UNL     1      38.091 -12.118 -21.581  1.00  0.00     0.000 C 
BRANCH   2   3
ATOM      3  C   UNL     1      37.751 -13.257 -22.554  1.00  0.00     0.000 C 
BRANCH   3   4
ATOM      4  C   UNL     1      38.457 -14.578 -22.201  1.00  0.00     0.000 C 
BRANCH   4   5
ATOM      5  C   UNL     1      37.532 -15.806 -22.103  1.00  0.00     0.000 C 
BRANCH   5   6
ATOM      6  C   UNL     1      36.854 -15.937 -20.731  1.00  0.00     0.006 C 
BRANCH   6   7
ATOM      7  C   UNL     1      37.077 -14.679 -19.887  1.00  0.00     0.053 C 
BRANCH   7   8
ATOM      8  C   UNL     1      36.107 -14.633 -18.749  1.00  0.00     0.041 C 
ATOM      9  O   UNL     1      35.348 -15.612 -18.523  1.00  0.00    -0.550 OA
ATOM     10  O   UNL     1      36.075 -13.529 -17.907  1.00  0.00    -0.550 OA
ENDBRANCH   7   8
ENDBRANCH   6   7
ENDBRANCH   5   6
ENDBRANCH   4   5
ENDBRANCH   3   4
ENDBRANCH   2   3
ENDBRANCH   1   2
BRANCH   1  11
ATOM     11  C   UNL     1      36.369 -10.309 -21.192  1.00  0.00     0.000 C 
BRANCH  11  12
ATOM     12  C   UNL     1      36.799  -9.244 -20.176  1.00  0.00    -0.000 C 
BRANCH  12  13
ATOM     13  C   UNL     1      37.890  -9.787 -19.240  1.00  0.00    -0.000 C 
BRANCH  13  14
ATOM     14  C   UNL     1      39.191  -8.966 -19.293  1.00  0.00    -0.000 C 
BRANCH  14  15
ATOM     15  C   UNL     1      40.044  -9.014 -18.012  1.00  0.00    -0.000 C 
BRANCH  15  16
ATOM     16  C   UNL     1      41.330  -8.180 -18.118  1.00  0.00    -0.000 C 
BRANCH  16  17
ATOM     17  C   UNL     1      42.502  -8.889 -17.428  1.00  0.00    -0.003 C 
ATOM     18  C   UNL     1      42.482 -10.389 -17.711  1.00  0.00     0.004 C 
ENDBRANCH  16  17
ENDBRANCH  15  16
ENDBRANCH  14  15
ENDBRANCH  13  14
ENDBRANCH  12  13
ENDBRANCH  11  12
ENDBRANCH   1  11
TORSDOF 14
ENDMDL
MODEL 5
REMARK VINA RESULT:     7.347      5.879      9.343
REMARK INTER + INTRA:          13.751
REMARK INTER:                  14.317
REMARK INTRA:                  -0.566
REMARK UNBOUND:                 0.391
REMARK SMILES CCCCCCCCCCCCCCCC(=O)[O-]
REMARK SMILES IDX 9 1 10 2 11 3 12 4 13 5 14 6 15 7 16 8 17 9 18 10 8 11 7 12
REMARK SMILES IDX 6 13 5 14 4 15 3 16 2 17 1 18
REMARK H PARENT
REMARK Flexibility Score: inf
ROOT
ATOM      1  C   UNL     1      37.831  -9.366 -20.188  1.00  0.00     0.000 C 
ENDROOT
BRANCH   1   2
ATOM      2  C   UNL     1      36.941  -8.120 -20.281  1.00  0.00     0.000 C 
BRANCH   2   3
ATOM      3  C   UNL     1      37.490  -7.130 -21.318  1.00  0.00     0.000 C 
BRANCH   3   4
ATOM      4  C   UNL     1      36.615  -5.872 -21.469  1.00  0.00     0.000 C 
BRANCH   4   5
ATOM      5  C   UNL     1      37.253  -4.728 -22.278  1.00  0.00     0.000 C 
BRANCH   5   6
ATOM      6  C   UNL     1      36.410  -3.444 -22.268  1.00  0.00     0.006 C 
BRANCH   6   7
ATOM      7  C   UNL     1      37.304  -2.202 -22.215  1.00  0.00     0.053 C 
BRANCH   7   8
ATOM      8  C   UNL     1      37.781  -1.959 -20.818  1.00  0.00     0.041 C 
ATOM      9  O   UNL     1      36.955  -1.875 -19.872  1.00  0.00    -0.550 OA
ATOM     10  O   UNL     1      39.142  -1.876 -20.553  1.00  0.00    -0.550 OA
ENDBRANCH   7   8
ENDBRANCH   6   7
ENDBRANCH   5   6
ENDBRANCH   4   5
ENDBRANCH   3   4
ENDBRANCH   2   3
ENDBRANCH   1   2
BRANCH   1  11
ATOM     11  C   UNL     1      36.987 -10.628 -19.969  1.00  0.00     0.000 C 
BRANCH  11  12
ATOM     12  C   UNL     1      36.519 -11.216 -21.306  1.00  0.00    -0.000 C 
BRANCH  12  13
ATOM     13  C   UNL     1      37.508 -12.275 -21.817  1.00  0.00    -0.000 C 
BRANCH  13  14
ATOM     14  C   UNL     1      37.997 -13.225 -20.708  1.00  0.00    -0.000 C 
BRANCH  14  15
ATOM     15  C   UNL     1      36.883 -13.976 -19.955  1.00  0.00    -0.000 C 
BRANCH  15  16
ATOM     16  C   UNL     1      36.808 -15.465 -20.327  1.00  0.00    -0.000 C 
BRANCH  16  17
ATOM     17  C   UNL     1      37.702 -15.773 -21.535  1.00  0.00    -0.003 C 
ATOM     18  C   UNL     1      36.868 -16.144 -22.758  1.00  0.00     0.004 C 
ENDBRANCH  16  17
ENDBRANCH  15  16
ENDBRANCH  14  15
ENDBRANCH  13  14
ENDBRANCH  12  13
ENDBRANCH  11  12
ENDBRANCH   1  11
TORSDOF 14
ENDMDL
