MODEL 1
REMARK VINA RESULT:    -4.081      0.000      0.000
REMARK INTER + INTRA:          -7.366
REMARK INTER:                  -6.467
REMARK INTRA:                  -0.900
REMARK UNBOUND:                -0.900
REMARK SMILES CCCCCCCCCCCC(=O)[O-]
REMARK SMILES IDX 7 1 8 2 9 3 10 4 11 5 12 6 13 7 14 8 6 9 5 10 4 11 3 12 2 13
REMARK SMILES IDX 1 14
REMARK H PARENT
REMARK Flexibility Score: inf
ROOT
ATOM      1  C   UNL     1      23.241   5.502  17.549  1.00  0.00     0.000 C 
ENDROOT
BRANCH   1   2
ATOM      2  C   UNL     1      23.055   6.818  16.778  1.00  0.00     0.000 C 
BRANCH   2   3
ATOM      3  C   UNL     1      24.301   7.143  15.940  1.00  0.00     0.000 C 
BRANCH   3   4
ATOM      4  C   UNL     1      25.050   5.882  15.471  1.00  0.00     0.006 C 
BRANCH   4   5
ATOM      5  C   UNL     1      26.561   6.082  15.270  1.00  0.00     0.053 C 
BRANCH   5   6
ATOM      6  C   UNL     1      26.942   6.072  13.822  1.00  0.00     0.041 C 
ATOM      7  O   UNL     1      27.087   4.979  13.213  1.00  0.00    -0.550 OA
ATOM      8  O   UNL     1      27.173   7.268  13.154  1.00  0.00    -0.550 OA
ENDBRANCH   5   6
ENDBRANCH   4   5
ENDBRANCH   3   4
ENDBRANCH   2   3
ENDBRANCH   1   2
BRANCH   1   9
ATOM      9  C   UNL     1      23.114   5.675  19.074  1.00  0.00     0.000 C 
BRANCH   9  10
ATOM     10  C   UNL     1      22.989   4.364  19.872  1.00  0.00    -0.000 C 
BRANCH  10  11
ATOM     11  C   UNL     1      23.435   3.129  19.069  1.00  0.00    -0.000 C 
BRANCH  11  12
ATOM     12  C   UNL     1      24.866   2.685  19.418  1.00  0.00    -0.000 C 
BRANCH  12  13
ATOM     13  C   UNL     1      25.824   2.783  18.222  1.00  0.00    -0.003 C 
ATOM     14  C   UNL     1      27.086   3.556  18.593  1.00  0.00     0.004 C 
ENDBRANCH  12  13
ENDBRANCH  11  12
ENDBRANCH  10  11
ENDBRANCH   9  10
ENDBRANCH   1   9
TORSDOF 10
ENDMDL
MODEL 2
REMARK VINA RESULT:    -4.021      8.199      9.841
REMARK INTER + INTRA:          -7.272
REMARK INTER:                  -5.850
REMARK INTRA:                  -1.422
REMARK UNBOUND:                -0.900
REMARK SMILES CCCCCCCCCCCC(=O)[O-]
REMARK SMILES IDX 7 1 8 2 9 3 10 4 11 5 12 6 13 7 14 8 6 9 5 10 4 11 3 12 2 13
REMARK SMILES IDX 1 14
REMARK H PARENT
REMARK Flexibility Score: inf
ROOT
ATOM      1  C   UNL     1      22.159   7.170  11.401  1.00  0.00     0.000 C 
ENDROOT
BRANCH   1   2
ATOM      2  C   UNL     1      20.640   6.948  11.366  1.00  0.00     0.000 C 
BRANCH   2   3
ATOM      3  C   UNL     1      20.093   7.125   9.941  1.00  0.00     0.000 C 
BRANCH   3   4
ATOM      4  C   UNL     1      18.901   6.197   9.640  1.00  0.00     0.006 C 
BRANCH   4   5
ATOM      5  C   UNL     1      18.612   6.005   8.143  1.00  0.00     0.053 C 
BRANCH   5   6
ATOM      6  C   UNL     1      17.347   6.687   7.721  1.00  0.00     0.041 C 
ATOM      7  O   UNL     1      16.232   6.254   8.116  1.00  0.00    -0.550 OA
ATOM      8  O   UNL     1      17.398   7.778   6.864  1.00  0.00    -0.550 OA
ENDBRANCH   5   6
ENDBRANCH   4   5
ENDBRANCH   3   4
ENDBRANCH   2   3
ENDBRANCH   1   2
BRANCH   1   9
ATOM      9  C   UNL     1      22.741   7.564  10.031  1.00  0.00     0.000 C 
BRANCH   9  10
ATOM     10  C   UNL     1      24.047   6.845   9.644  1.00  0.00    -0.000 C 
BRANCH  10  11
ATOM     11  C   UNL     1      23.956   5.317   9.794  1.00  0.00    -0.000 C 
BRANCH  11  12
ATOM     12  C   UNL     1      23.518   4.621   8.494  1.00  0.00    -0.000 C 
BRANCH  12  13
ATOM     13  C   UNL     1      22.046   4.186   8.522  1.00  0.00    -0.003 C 
ATOM     14  C   UNL     1      21.668   3.617   9.886  1.00  0.00     0.004 C 
ENDBRANCH  12  13
ENDBRANCH  11  12
ENDBRANCH  10  11
ENDBRANCH   9  10
ENDBRANCH   1   9
TORSDOF 10
ENDMDL
MODEL 3
REMARK VINA RESULT:    -3.939      1.823      2.530
REMARK INTER + INTRA:          -7.142
REMARK INTER:                  -6.573
REMARK INTRA:                  -0.568
REMARK UNBOUND:                -0.900
REMARK SMILES CCCCCCCCCCCC(=O)[O-]
REMARK SMILES IDX 7 1 8 2 9 3 10 4 11 5 12 6 13 7 14 8 6 9 5 10 4 11 3 12 2 13
REMARK SMILES IDX 1 14
REMARK H PARENT
REMARK Flexibility Score: inf
ROOT
ATOM      1  C   UNL     1      23.680   5.386  15.786  1.00  0.00     0.000 C 
ENDROOT
BRANCH   1   2
ATOM      2  C   UNL     1      24.105   6.859  15.693  1.00  0.00     0.000 C 
BRANCH   2   3
ATOM      3  C   UNL     1      25.539   6.983  15.156  1.00  0.00     0.000 C 
BRANCH   3   4
ATOM      4  C   UNL     1      26.400   5.744  15.464  1.00  0.00     0.006 C 
BRANCH   4   5
ATOM      5  C   UNL     1      27.530   5.493  14.452  1.00  0.00     0.053 C 
BRANCH   5   6
ATOM      6  C   UNL     1      28.237   6.757  14.072  1.00  0.00     0.041 C 
ATOM      7  O   UNL     1      29.093   7.261  14.847  1.00  0.00    -0.550 OA
ATOM      8  O   UNL     1      27.926   7.397  12.880  1.00  0.00    -0.550 OA
ENDBRANCH   5   6
ENDBRANCH   4   5
ENDBRANCH   3   4
ENDBRANCH   2   3
ENDBRANCH   1   2
BRANCH   1   9
ATOM      9  C   UNL     1      23.006   5.037  17.126  1.00  0.00     0.000 C 
BRANCH   9  10
ATOM     10  C   UNL     1      23.079   6.140  18.200  1.00  0.00    -0.000 C 
BRANCH  10  11
ATOM     11  C   UNL     1      23.129   5.580  19.631  1.00  0.00    -0.000 C 
BRANCH  11  12
ATOM     12  C   UNL     1      23.048   4.045  19.667  1.00  0.00    -0.000 C 
BRANCH  12  13
ATOM     13  C   UNL     1      22.593   3.507  21.032  1.00  0.00    -0.003 C 
ATOM     14  C   UNL     1      23.523   2.402  21.523  1.00  0.00     0.004 C 
ENDBRANCH  12  13
ENDBRANCH  11  12
ENDBRANCH  10  11
ENDBRANCH   9  10
ENDBRANCH   1   9
TORSDOF 10
ENDMDL
MODEL 4
REMARK VINA RESULT:    -3.930      4.623      6.806
REMARK INTER + INTRA:          -7.127
REMARK INTER:                  -5.634
REMARK INTRA:                  -1.493
REMARK UNBOUND:                -0.900
REMARK SMILES CCCCCCCCCCCC(=O)[O-]
REMARK SMILES IDX 7 1 8 2 9 3 10 4 11 5 12 6 13 7 14 8 6 9 5 10 4 11 3 12 2 13
REMARK SMILES IDX 1 14
REMARK H PARENT
REMARK Flexibility Score: inf
ROOT
ATOM      1  C   UNL     1      22.214   5.536  13.233  1.00  0.00     0.000 C 
ENDROOT
BRANCH   1   2
ATOM      2  C   UNL     1      22.596   4.217  12.545  1.00  0.00     0.000 C 
BRANCH   2   3
ATOM      3  C   UNL     1      23.988   3.748  12.993  1.00  0.00     0.000 C 
BRANCH   3   4
ATOM      4  C   UNL     1      25.126   4.409  12.194  1.00  0.00     0.006 C 
BRANCH   4   5
ATOM      5  C   UNL     1      26.238   5.019  13.063  1.00  0.00     0.053 C 
BRANCH   5   6
ATOM      6  C   UNL     1      26.402   6.487  12.818  1.00  0.00     0.041 C 
ATOM      7  O   UNL     1      25.898   7.322  13.615  1.00  0.00    -0.550 OA
ATOM      8  O   UNL     1      27.082   6.934  11.692  1.00  0.00    -0.550 OA
ENDBRANCH   5   6
ENDBRANCH   4   5
ENDBRANCH   3   4
ENDBRANCH   2   3
ENDBRANCH   1   2
BRANCH   1   9
ATOM      9  C   UNL     1      21.761   6.623  12.241  1.00  0.00     0.000 C 
BRANCH   9  10
ATOM     10  C   UNL     1      22.900   7.439  11.600  1.00  0.00    -0.000 C 
BRANCH  10  11
ATOM     11  C   UNL     1      22.937   7.314  10.068  1.00  0.00    -0.000 C 
BRANCH  11  12
ATOM     12  C   UNL     1      24.280   6.768   9.553  1.00  0.00    -0.000 C 
BRANCH  12  13
ATOM     13  C   UNL     1      24.114   5.519   8.675  1.00  0.00    -0.003 C 
ATOM     14  C   UNL     1      22.812   4.793   8.994  1.00  0.00     0.004 C 
ENDBRANCH  12  13
ENDBRANCH  11  12
ENDBRANCH  10  11
ENDBRANCH   9  10
ENDBRANCH   1   9
TORSDOF 10
ENDMDL
MODEL 5
REMARK VINA RESULT:    -3.927      7.988      9.943
REMARK INTER + INTRA:          -7.123
REMARK INTER:                  -5.757
REMARK INTRA:                  -1.366
REMARK UNBOUND:                -0.900
REMARK SMILES CCCCCCCCCCCC(=O)[O-]
REMARK SMILES IDX 7 1 8 2 9 3 10 4 11 5 12 6 13 7 14 8 6 9 5 10 4 11 3 12 2 13
REMARK SMILES IDX 1 14
REMARK H PARENT
REMARK Flexibility Score: inf
ROOT
ATOM      1  C   UNL     1      18.775   4.304   7.761  1.00  0.00     0.000 C 
ENDROOT
BRANCH   1   2
ATOM      2  C   UNL     1      19.389   4.044   9.145  1.00  0.00     0.000 C 
BRANCH   2   3
ATOM      3  C   UNL     1      20.840   4.545   9.203  1.00  0.00     0.000 C 
BRANCH   3   4
ATOM      4  C   UNL     1      21.071   5.574  10.325  1.00  0.00     0.006 C 
BRANCH   4   5
ATOM      5  C   UNL     1      22.275   6.501  10.095  1.00  0.00     0.053 C 
BRANCH   5   6
ATOM      6  C   UNL     1      22.565   7.355  11.291  1.00  0.00     0.041 C 
ATOM      7  O   UNL     1      21.689   8.145  11.731  1.00  0.00    -0.550 OA
ATOM      8  O   UNL     1      23.814   7.303  11.897  1.00  0.00    -0.550 OA
ENDBRANCH   5   6
ENDBRANCH   4   5
ENDBRANCH   3   4
ENDBRANCH   2   3
ENDBRANCH   1   2
BRANCH   1   9
ATOM      9  C   UNL     1      17.593   5.290   7.803  1.00  0.00     0.000 C 
BRANCH   9  10
ATOM     10  C   UNL     1      17.971   6.771   7.612  1.00  0.00    -0.000 C 
BRANCH  10  11
ATOM     11  C   UNL     1      17.434   7.676   8.733  1.00  0.00    -0.000 C 
BRANCH  11  12
ATOM     12  C   UNL     1      18.526   8.086   9.735  1.00  0.00    -0.000 C 
BRANCH  12  13
ATOM     13  C   UNL     1      18.116   7.838  11.193  1.00  0.00    -0.003 C 
ATOM     14  C   UNL     1      17.427   6.486  11.347  1.00  0.00     0.004 C 
ENDBRANCH  12  13
ENDBRANCH  11  12
ENDBRANCH  10  11
ENDBRANCH   9  10
ENDBRANCH   1   9
TORSDOF 10
ENDMDL
MODEL 6
REMARK VINA RESULT:    -3.893     12.071     14.410
REMARK INTER + INTRA:          -7.069
REMARK INTER:                  -5.380
REMARK INTRA:                  -1.689
REMARK UNBOUND:                -0.900
REMARK SMILES CCCCCCCCCCCC(=O)[O-]
REMARK SMILES IDX 7 1 8 2 9 3 10 4 11 5 12 6 13 7 14 8 6 9 5 10 4 11 3 12 2 13
REMARK SMILES IDX 1 14
REMARK H PARENT
REMARK Flexibility Score: inf
ROOT
ATOM      1  C   UNL     1      29.477  -3.808   8.184  1.00  0.00     0.000 C 
ENDROOT
BRANCH   1   2
ATOM      2  C   UNL     1      29.875  -4.426   6.835  1.00  0.00     0.000 C 
BRANCH   2   3
ATOM      3  C   UNL     1      28.904  -3.993   5.726  1.00  0.00     0.000 C 
BRANCH   3   4
ATOM      4  C   UNL     1      29.625  -3.431   4.487  1.00  0.00     0.006 C 
BRANCH   4   5
ATOM      5  C   UNL     1      31.070  -3.928   4.317  1.00  0.00     0.053 C 
BRANCH   5   6
ATOM      6  C   UNL     1      31.958  -2.881   3.718  1.00  0.00     0.041 C 
ATOM      7  O   UNL     1      33.209  -2.972   3.830  1.00  0.00    -0.550 OA
ATOM      8  O   UNL     1      31.403  -1.788   3.066  1.00  0.00    -0.550 OA
ENDBRANCH   5   6
ENDBRANCH   4   5
ENDBRANCH   3   4
ENDBRANCH   2   3
ENDBRANCH   1   2
BRANCH   1   9
ATOM      9  C   UNL     1      28.046  -3.238   8.186  1.00  0.00     0.000 C 
BRANCH   9  10
ATOM     10  C   UNL     1      27.910  -1.817   8.762  1.00  0.00    -0.000 C 
BRANCH  10  11
ATOM     11  C   UNL     1      29.025  -0.868   8.288  1.00  0.00    -0.000 C 
BRANCH  11  12
ATOM     12  C   UNL     1      28.803  -0.371   6.850  1.00  0.00    -0.000 C 
BRANCH  12  13
ATOM     13  C   UNL     1      30.120  -0.129   6.098  1.00  0.00    -0.003 C 
ATOM     14  C   UNL     1      31.273  -0.883   6.753  1.00  0.00     0.004 C 
ENDBRANCH  12  13
ENDBRANCH  11  12
ENDBRANCH  10  11
ENDBRANCH   9  10
ENDBRANCH   1   9
TORSDOF 10
ENDMDL
MODEL 7
REMARK VINA RESULT:    -3.824      8.523     10.302
REMARK INTER + INTRA:          -6.960
REMARK INTER:                  -5.739
REMARK INTRA:                  -1.221
REMARK UNBOUND:                -0.900
REMARK SMILES CCCCCCCCCCCC(=O)[O-]
REMARK SMILES IDX 7 1 8 2 9 3 10 4 11 5 12 6 13 7 14 8 6 9 5 10 4 11 3 12 2 13
REMARK SMILES IDX 1 14
REMARK H PARENT
REMARK Flexibility Score: inf
ROOT
ATOM      1  C   UNL     1      16.477   7.782  11.021  1.00  0.00     0.000 C 
ENDROOT
BRANCH   1   2
ATOM      2  C   UNL     1      17.936   8.257  11.101  1.00  0.00     0.000 C 
BRANCH   2   3
ATOM      3  C   UNL     1      18.902   7.064  11.098  1.00  0.00     0.000 C 
BRANCH   3   4
ATOM      4  C   UNL     1      20.030   7.212  10.060  1.00  0.00     0.006 C 
BRANCH   4   5
ATOM      5  C   UNL     1      21.287   6.383  10.370  1.00  0.00     0.053 C 
BRANCH   5   6
ATOM      6  C   UNL     1      22.435   7.243  10.802  1.00  0.00     0.041 C 
ATOM      7  O   UNL     1      22.225   8.304  11.446  1.00  0.00    -0.550 OA
ATOM      8  O   UNL     1      23.735   6.890  10.462  1.00  0.00    -0.550 OA
ENDBRANCH   5   6
ENDBRANCH   4   5
ENDBRANCH   3   4
ENDBRANCH   2   3
ENDBRANCH   1   2
BRANCH   1   9
ATOM      9  C   UNL     1      15.989   7.580   9.575  1.00  0.00     0.000 C 
BRANCH   9  10
ATOM     10  C   UNL     1      16.811   8.316   8.500  1.00  0.00    -0.000 C 
BRANCH  10  11
ATOM     11  C   UNL     1      17.223   7.403   7.332  1.00  0.00    -0.000 C 
BRANCH  11  12
ATOM     12  C   UNL     1      17.147   5.911   7.695  1.00  0.00    -0.000 C 
BRANCH  12  13
ATOM     13  C   UNL     1      18.514   5.214   7.628  1.00  0.00    -0.003 C 
ATOM     14  C   UNL     1      18.449   3.818   8.239  1.00  0.00     0.004 C 
ENDBRANCH  12  13
ENDBRANCH  11  12
ENDBRANCH  10  11
ENDBRANCH   9  10
ENDBRANCH   1   9
TORSDOF 10
ENDMDL
MODEL 8
REMARK VINA RESULT:    -3.774      4.915      7.269
REMARK INTER + INTRA:          -6.880
REMARK INTER:                  -5.495
REMARK INTRA:                  -1.385
REMARK UNBOUND:                -0.900
REMARK SMILES CCCCCCCCCCCC(=O)[O-]
REMARK SMILES IDX 7 1 8 2 9 3 10 4 11 5 12 6 13 7 14 8 6 9 5 10 4 11 3 12 2 13
REMARK SMILES IDX 1 14
REMARK H PARENT
REMARK Flexibility Score: inf
ROOT
ATOM      1  C   UNL     1      23.569   3.541   9.782  1.00  0.00     0.000 C 
ENDROOT
BRANCH   1   2
ATOM      2  C   UNL     1      23.441   3.533  11.312  1.00  0.00     0.000 C 
BRANCH   2   3
ATOM      3  C   UNL     1      24.718   2.982  11.965  1.00  0.00     0.000 C 
BRANCH   3   4
ATOM      4  C   UNL     1      25.800   4.060  12.163  1.00  0.00     0.006 C 
BRANCH   4   5
ATOM      5  C   UNL     1      25.330   5.289  12.957  1.00  0.00     0.053 C 
BRANCH   5   6
ATOM      6  C   UNL     1      26.220   6.474  12.740  1.00  0.00     0.041 C 
ATOM      7  O   UNL     1      26.468   7.262  13.690  1.00  0.00    -0.550 OA
ATOM      8  O   UNL     1      26.747   6.726  11.480  1.00  0.00    -0.550 OA
ENDBRANCH   5   6
ENDBRANCH   4   5
ENDBRANCH   3   4
ENDBRANCH   2   3
ENDBRANCH   1   2
BRANCH   1   9
ATOM      9  C   UNL     1      23.050   4.842   9.142  1.00  0.00     0.000 C 
BRANCH   9  10
ATOM     10  C   UNL     1      23.945   6.077   9.356  1.00  0.00    -0.000 C 
BRANCH  10  11
ATOM     11  C   UNL     1      23.342   7.089  10.346  1.00  0.00    -0.000 C 
BRANCH  11  12
ATOM     12  C   UNL     1      21.805   7.059  10.357  1.00  0.00    -0.000 C 
BRANCH  12  13
ATOM     13  C   UNL     1      21.218   7.333  11.749  1.00  0.00    -0.003 C 
ATOM     14  C   UNL     1      22.111   6.761  12.845  1.00  0.00     0.004 C 
ENDBRANCH  12  13
ENDBRANCH  11  12
ENDBRANCH  10  11
ENDBRANCH   9  10
ENDBRANCH   1   9
TORSDOF 10
ENDMDL
MODEL 9
REMARK VINA RESULT:    -2.705      1.844      2.591
REMARK INTER + INTRA:          -5.186
REMARK INTER:                  -4.796
REMARK INTRA:                  -0.390
REMARK UNBOUND:                -0.900
REMARK SMILES CCCCCCCCCCCC(=O)[O-]
REMARK SMILES IDX 7 1 8 2 9 3 10 4 11 5 12 6 13 7 14 8 6 9 5 10 4 11 3 12 2 13
REMARK SMILES IDX 1 14
REMARK H PARENT
REMARK Flexibility Score: inf
ROOT
ATOM      1  C   UNL     1      23.563   5.125  17.888  1.00  0.00     0.000 C 
ENDROOT
BRANCH   1   2
ATOM      2  C   UNL     1      23.002   6.460  17.376  1.00  0.00     0.000 C 
BRANCH   2   3
ATOM      3  C   UNL     1      23.293   6.638  15.878  1.00  0.00     0.000 C 
BRANCH   3   4
ATOM      4  C   UNL     1      24.739   7.088  15.601  1.00  0.00     0.006 C 
BRANCH   4   5
ATOM      5  C   UNL     1      25.336   6.532  14.298  1.00  0.00     0.053 C 
BRANCH   5   6
ATOM      6  C   UNL     1      26.810   6.779  14.204  1.00  0.00     0.041 C 
ATOM      7  O   UNL     1      27.527   6.734  15.239  1.00  0.00    -0.550 OA
ATOM      8  O   UNL     1      27.386   7.093  12.980  1.00  0.00    -0.550 OA
ENDBRANCH   5   6
ENDBRANCH   4   5
ENDBRANCH   3   4
ENDBRANCH   2   3
ENDBRANCH   1   2
BRANCH   1   9
ATOM      9  C   UNL     1      23.189   4.839  19.355  1.00  0.00     0.000 C 
BRANCH   9  10
ATOM     10  C   UNL     1      23.465   3.400  19.830  1.00  0.00    -0.000 C 
BRANCH  10  11
ATOM     11  C   UNL     1      22.180   2.618  20.153  1.00  0.00    -0.000 C 
BRANCH  11  12
ATOM     12  C   UNL     1      21.955   2.453  21.665  1.00  0.00    -0.000 C 
BRANCH  12  13
ATOM     13  C   UNL     1      23.220   2.736  22.487  1.00  0.00    -0.003 C 
ATOM     14  C   UNL     1      23.757   1.459  23.125  1.00  0.00     0.004 C 
ENDBRANCH  12  13
ENDBRANCH  11  12
ENDBRANCH  10  11
ENDBRANCH   9  10
ENDBRANCH   1   9
TORSDOF 10
ENDMDL
