MODEL 1
REMARK VINA RESULT:    -3.963      0.000      0.000
REMARK INTER + INTRA:          -8.796
REMARK INTER:                  -6.974
REMARK INTRA:                  -1.822
REMARK UNBOUND:                -1.822
REMARK SMILES CCCCCCC=CCCCCCCCC(=O)[O-]
REMARK SMILES IDX 10 1 11 2 12 3 13 4 14 5 15 6 16 7 17 8 18 9 9 10 8 11 7 12
REMARK SMILES IDX 6 13 5 14 4 15 3 16 2 17 1 18
REMARK H PARENT
REMARK Flexibility Score: inf
ROOT
ATOM      1  C   UNL     1     208.657 195.230 226.106  1.00  0.00     0.004 C 
ENDROOT
BRANCH   1   2
ATOM      2  C   UNL     1     210.059 195.862 226.039  1.00  0.00     0.000 C 
BRANCH   2   3
ATOM      3  C   UNL     1     210.024 197.397 225.993  1.00  0.00     0.000 C 
BRANCH   3   4
ATOM      4  C   UNL     1     210.926 197.934 224.871  1.00  0.00     0.000 C 
BRANCH   4   5
ATOM      5  C   UNL     1     210.308 197.755 223.477  1.00  0.00     0.006 C 
BRANCH   5   6
ATOM      6  C   UNL     1     211.336 197.311 222.427  1.00  0.00     0.053 C 
BRANCH   6   7
ATOM      7  C   UNL     1     211.728 195.884 222.652  1.00  0.00     0.041 C 
ATOM      8  O   UNL     1     212.873 195.603 223.094  1.00  0.00    -0.550 OA
ATOM      9  O   UNL     1     210.811 194.867 222.418  1.00  0.00    -0.550 OA
ENDBRANCH   6   7
ENDBRANCH   5   6
ENDBRANCH   4   5
ENDBRANCH   3   4
ENDBRANCH   2   3
ENDBRANCH   1   2
BRANCH   1  10
ATOM     10  C   UNL     1     207.570 195.985 225.320  1.00  0.00     0.027 C 
BRANCH  10  11
ATOM     11  C   UNL     1     206.349 196.257 226.165  1.00  0.00    -0.031 C 
ATOM     12  C   UNL     1     205.140 196.618 225.694  1.00  0.00    -0.031 C 
BRANCH  12  13
ATOM     13  C   UNL     1     204.799 196.859 224.242  1.00  0.00     0.027 C 
BRANCH  13  14
ATOM     14  C   UNL     1     204.122 195.657 223.559  1.00  0.00     0.004 C 
BRANCH  14  15
ATOM     15  C   UNL     1     203.354 194.723 224.515  1.00  0.00     0.000 C 
BRANCH  15  16
ATOM     16  C   UNL     1     203.716 193.232 224.393  1.00  0.00    -0.000 C 
BRANCH  16  17
ATOM     17  C   UNL     1     205.211 193.001 224.132  1.00  0.00    -0.003 C 
ATOM     18  C   UNL     1     205.951 192.679 225.426  1.00  0.00     0.004 C 
ENDBRANCH  16  17
ENDBRANCH  15  16
ENDBRANCH  14  15
ENDBRANCH  13  14
ENDBRANCH  12  13
ENDBRANCH  10  11
ENDBRANCH   1  10
TORSDOF 13
ENDMDL
MODEL 2
REMARK VINA RESULT:    -3.953      1.472      2.315
REMARK INTER + INTRA:          -8.779
REMARK INTER:                  -7.155
REMARK INTRA:                  -1.624
REMARK UNBOUND:                -1.822
REMARK SMILES CCCCCCC=CCCCCCCCC(=O)[O-]
REMARK SMILES IDX 10 1 11 2 12 3 13 4 14 5 15 6 16 7 17 8 18 9 9 10 8 11 7 12
REMARK SMILES IDX 6 13 5 14 4 15 3 16 2 17 1 18
REMARK H PARENT
REMARK Flexibility Score: inf
ROOT
ATOM      1  C   UNL     1     209.702 195.634 225.334  1.00  0.00     0.004 C 
ENDROOT
BRANCH   1   2
ATOM      2  C   UNL     1     209.639 197.148 225.612  1.00  0.00     0.000 C 
BRANCH   2   3
ATOM      3  C   UNL     1     210.517 197.970 224.657  1.00  0.00     0.000 C 
BRANCH   3   4
ATOM      4  C   UNL     1     210.200 197.634 223.192  1.00  0.00     0.000 C 
BRANCH   4   5
ATOM      5  C   UNL     1     211.459 197.559 222.315  1.00  0.00     0.006 C 
BRANCH   5   6
ATOM      6  C   UNL     1     212.519 196.605 222.884  1.00  0.00     0.053 C 
BRANCH   6   7
ATOM      7  C   UNL     1     213.894 197.111 222.577  1.00  0.00     0.041 C 
ATOM      8  O   UNL     1     214.051 198.091 221.803  1.00  0.00    -0.550 OA
ATOM      9  O   UNL     1     214.999 196.529 223.186  1.00  0.00    -0.550 OA
ENDBRANCH   6   7
ENDBRANCH   5   6
ENDBRANCH   4   5
ENDBRANCH   3   4
ENDBRANCH   2   3
ENDBRANCH   1   2
BRANCH   1  10
ATOM     10  C   UNL     1     208.404 195.025 224.776  1.00  0.00     0.027 C 
BRANCH  10  11
ATOM     11  C   UNL     1     207.563 194.397 225.862  1.00  0.00    -0.031 C 
ATOM     12  C   UNL     1     206.555 195.004 226.516  1.00  0.00    -0.031 C 
BRANCH  12  13
ATOM     13  C   UNL     1     206.112 196.436 226.314  1.00  0.00     0.027 C 
BRANCH  13  14
ATOM     14  C   UNL     1     204.740 196.566 225.630  1.00  0.00     0.004 C 
BRANCH  14  15
ATOM     15  C   UNL     1     204.797 196.711 224.096  1.00  0.00     0.000 C 
BRANCH  15  16
ATOM     16  C   UNL     1     204.381 195.453 223.311  1.00  0.00    -0.000 C 
BRANCH  16  17
ATOM     17  C   UNL     1     203.604 194.445 224.171  1.00  0.00    -0.003 C 
ATOM     18  C   UNL     1     204.315 193.096 224.212  1.00  0.00     0.004 C 
ENDBRANCH  16  17
ENDBRANCH  15  16
ENDBRANCH  14  15
ENDBRANCH  13  14
ENDBRANCH  12  13
ENDBRANCH  10  11
ENDBRANCH   1  10
TORSDOF 13
ENDMDL
MODEL 3
REMARK VINA RESULT:    -3.930      1.705      2.919
REMARK INTER + INTRA:          -8.739
REMARK INTER:                  -6.746
REMARK INTRA:                  -1.993
REMARK UNBOUND:                -1.822
REMARK SMILES CCCCCCC=CCCCCCCCC(=O)[O-]
REMARK SMILES IDX 10 1 11 2 12 3 13 4 14 5 15 6 16 7 17 8 18 9 9 10 8 11 7 12
REMARK SMILES IDX 6 13 5 14 4 15 3 16 2 17 1 18
REMARK H PARENT
REMARK Flexibility Score: inf
ROOT
ATOM      1  C   UNL     1     206.033 196.488 226.265  1.00  0.00     0.004 C 
ENDROOT
BRANCH   1   2
ATOM      2  C   UNL     1     206.680 195.158 226.696  1.00  0.00     0.000 C 
BRANCH   2   3
ATOM      3  C   UNL     1     208.041 194.909 226.028  1.00  0.00     0.000 C 
BRANCH   3   4
ATOM      4  C   UNL     1     208.547 196.177 225.323  1.00  0.00     0.000 C 
BRANCH   4   5
ATOM      5  C   UNL     1     208.730 195.980 223.810  1.00  0.00     0.006 C 
BRANCH   5   6
ATOM      6  C   UNL     1     210.194 195.735 223.420  1.00  0.00     0.053 C 
BRANCH   6   7
ATOM      7  C   UNL     1     210.825 197.005 222.942  1.00  0.00     0.041 C 
ATOM      8  O   UNL     1     212.065 197.055 222.725  1.00  0.00    -0.550 OA
ATOM      9  O   UNL     1     210.036 198.121 222.688  1.00  0.00    -0.550 OA
ENDBRANCH   6   7
ENDBRANCH   5   6
ENDBRANCH   4   5
ENDBRANCH   3   4
ENDBRANCH   2   3
ENDBRANCH   1   2
BRANCH   1  10
ATOM     10  C   UNL     1     204.659 196.348 225.586  1.00  0.00     0.027 C 
BRANCH  10  11
ATOM     11  C   UNL     1     204.715 196.704 224.120  1.00  0.00    -0.031 C 
ATOM     12  C   UNL     1     205.007 195.850 223.120  1.00  0.00    -0.031 C 
BRANCH  12  13
ATOM     13  C   UNL     1     205.374 194.394 223.289  1.00  0.00     0.027 C 
BRANCH  13  14
ATOM     14  C   UNL     1     204.262 193.423 222.854  1.00  0.00     0.004 C 
BRANCH  14  15
ATOM     15  C   UNL     1     203.086 194.084 222.107  1.00  0.00     0.000 C 
BRANCH  15  16
ATOM     16  C   UNL     1     201.730 194.000 222.832  1.00  0.00    -0.000 C 
BRANCH  16  17
ATOM     17  C   UNL     1     201.848 193.427 224.252  1.00  0.00    -0.003 C 
ATOM     18  C   UNL     1     201.114 194.305 225.260  1.00  0.00     0.004 C 
ENDBRANCH  16  17
ENDBRANCH  15  16
ENDBRANCH  14  15
ENDBRANCH  13  14
ENDBRANCH  12  13
ENDBRANCH  10  11
ENDBRANCH   1  10
TORSDOF 13
ENDMDL
MODEL 4
REMARK VINA RESULT:    -3.909      1.309      2.388
REMARK INTER + INTRA:          -8.701
REMARK INTER:                  -6.770
REMARK INTRA:                  -1.931
REMARK UNBOUND:                -1.822
REMARK SMILES CCCCCCC=CCCCCCCCC(=O)[O-]
REMARK SMILES IDX 10 1 11 2 12 3 13 4 14 5 15 6 16 7 17 8 18 9 9 10 8 11 7 12
REMARK SMILES IDX 6 13 5 14 4 15 3 16 2 17 1 18
REMARK H PARENT
REMARK Flexibility Score: inf
ROOT
ATOM      1  C   UNL     1     206.171 196.086 226.419  1.00  0.00     0.004 C 
ENDROOT
BRANCH   1   2
ATOM      2  C   UNL     1     207.382 196.103 225.468  1.00  0.00     0.000 C 
BRANCH   2   3
ATOM      3  C   UNL     1     208.712 195.832 226.186  1.00  0.00     0.000 C 
BRANCH   3   4
ATOM      4  C   UNL     1     209.905 196.169 225.277  1.00  0.00     0.000 C 
BRANCH   4   5
ATOM      5  C   UNL     1     209.476 196.540 223.849  1.00  0.00     0.006 C 
BRANCH   5   6
ATOM      6  C   UNL     1     210.444 197.522 223.178  1.00  0.00     0.053 C 
BRANCH   6   7
ATOM      7  C   UNL     1     211.585 196.784 222.550  1.00  0.00     0.041 C 
ATOM      8  O   UNL     1     212.732 197.301 222.514  1.00  0.00    -0.550 OA
ATOM      9  O   UNL     1     211.390 195.504 222.047  1.00  0.00    -0.550 OA
ENDBRANCH   6   7
ENDBRANCH   5   6
ENDBRANCH   4   5
ENDBRANCH   3   4
ENDBRANCH   2   3
ENDBRANCH   1   2
BRANCH   1  10
ATOM     10  C   UNL     1     204.925 196.821 225.892  1.00  0.00     0.027 C 
BRANCH  10  11
ATOM     11  C   UNL     1     204.752 196.642 224.403  1.00  0.00    -0.031 C 
ATOM     12  C   UNL     1     204.027 195.673 223.813  1.00  0.00    -0.031 C 
BRANCH  12  13
ATOM     13  C   UNL     1     203.295 194.563 224.532  1.00  0.00     0.027 C 
BRANCH  13  14
ATOM     14  C   UNL     1     203.866 193.162 224.250  1.00  0.00     0.004 C 
BRANCH  14  15
ATOM     15  C   UNL     1     205.350 192.984 224.631  1.00  0.00     0.000 C 
BRANCH  15  16
ATOM     16  C   UNL     1     206.323 192.933 223.439  1.00  0.00    -0.000 C 
BRANCH  16  17
ATOM     17  C   UNL     1     207.795 192.889 223.873  1.00  0.00    -0.003 C 
ATOM     18  C   UNL     1     208.723 193.154 222.692  1.00  0.00     0.004 C 
ENDBRANCH  16  17
ENDBRANCH  15  16
ENDBRANCH  14  15
ENDBRANCH  13  14
ENDBRANCH  12  13
ENDBRANCH  10  11
ENDBRANCH   1  10
TORSDOF 13
ENDMDL
MODEL 5
REMARK VINA RESULT:    -3.907      1.234      2.148
REMARK INTER + INTRA:          -8.699
REMARK INTER:                  -6.706
REMARK INTRA:                  -1.993
REMARK UNBOUND:                -1.822
REMARK SMILES CCCCCCC=CCCCCCCCC(=O)[O-]
REMARK SMILES IDX 10 1 11 2 12 3 13 4 14 5 15 6 16 7 17 8 18 9 9 10 8 11 7 12
REMARK SMILES IDX 6 13 5 14 4 15 3 16 2 17 1 18
REMARK H PARENT
REMARK Flexibility Score: inf
ROOT
ATOM      1  C   UNL     1     208.622 194.723 224.158  1.00  0.00     0.004 C 
ENDROOT
BRANCH   1   2
ATOM      2  C   UNL     1     209.781 194.397 225.118  1.00  0.00     0.000 C 
BRANCH   2   3
ATOM      3  C   UNL     1     210.385 195.646 225.777  1.00  0.00     0.000 C 
BRANCH   3   4
ATOM      4  C   UNL     1     209.707 196.923 225.256  1.00  0.00     0.000 C 
BRANCH   4   5
ATOM      5  C   UNL     1     210.681 197.848 224.510  1.00  0.00     0.006 C 
BRANCH   5   6
ATOM      6  C   UNL     1     210.729 197.563 223.003  1.00  0.00     0.053 C 
BRANCH   6   7
ATOM      7  C   UNL     1     212.022 196.904 222.638  1.00  0.00     0.041 C 
ATOM      8  O   UNL     1     213.027 197.601 222.339  1.00  0.00    -0.550 OA
ATOM      9  O   UNL     1     212.131 195.519 222.675  1.00  0.00    -0.550 OA
ENDBRANCH   6   7
ENDBRANCH   5   6
ENDBRANCH   4   5
ENDBRANCH   3   4
ENDBRANCH   2   3
ENDBRANCH   1   2
BRANCH   1  10
ATOM     10  C   UNL     1     207.278 194.067 224.521  1.00  0.00     0.027 C 
BRANCH  10  11
ATOM     11  C   UNL     1     207.031 194.073 226.011  1.00  0.00    -0.031 C 
ATOM     12  C   UNL     1     206.538 195.110 226.715  1.00  0.00    -0.031 C 
BRANCH  12  13
ATOM     13  C   UNL     1     206.187 196.467 226.150  1.00  0.00     0.027 C 
BRANCH  13  14
ATOM     14  C   UNL     1     204.770 196.539 225.553  1.00  0.00     0.004 C 
BRANCH  14  15
ATOM     15  C   UNL     1     204.715 196.451 224.015  1.00  0.00     0.000 C 
BRANCH  15  16
ATOM     16  C   UNL     1     203.759 195.378 223.462  1.00  0.00    -0.000 C 
BRANCH  16  17
ATOM     17  C   UNL     1     203.441 194.279 224.486  1.00  0.00    -0.003 C 
ATOM     18  C   UNL     1     201.942 194.195 224.755  1.00  0.00     0.004 C 
ENDBRANCH  16  17
ENDBRANCH  15  16
ENDBRANCH  14  15
ENDBRANCH  13  14
ENDBRANCH  12  13
ENDBRANCH  10  11
ENDBRANCH   1  10
TORSDOF 13
ENDMDL
MODEL 6
REMARK VINA RESULT:    -3.879      1.697      2.861
REMARK INTER + INTRA:          -8.649
REMARK INTER:                  -6.718
REMARK INTRA:                  -1.931
REMARK UNBOUND:                -1.822
REMARK SMILES CCCCCCC=CCCCCCCCC(=O)[O-]
REMARK SMILES IDX 10 1 11 2 12 3 13 4 14 5 15 6 16 7 17 8 18 9 9 10 8 11 7 12
REMARK SMILES IDX 6 13 5 14 4 15 3 16 2 17 1 18
REMARK H PARENT
REMARK Flexibility Score: inf
ROOT
ATOM      1  C   UNL     1     206.192 196.023 226.357  1.00  0.00     0.004 C 
ENDROOT
BRANCH   1   2
ATOM      2  C   UNL     1     207.343 195.939 225.338  1.00  0.00     0.000 C 
BRANCH   2   3
ATOM      3  C   UNL     1     207.593 194.509 224.834  1.00  0.00     0.000 C 
BRANCH   3   4
ATOM      4  C   UNL     1     208.794 194.467 223.876  1.00  0.00     0.000 C 
BRANCH   4   5
ATOM      5  C   UNL     1     209.424 195.851 223.656  1.00  0.00     0.006 C 
BRANCH   5   6
ATOM      6  C   UNL     1     210.790 195.773 222.960  1.00  0.00     0.053 C 
BRANCH   6   7
ATOM      7  C   UNL     1     211.246 197.139 222.553  1.00  0.00     0.041 C 
ATOM      8  O   UNL     1     212.469 197.367 222.355  1.00  0.00    -0.550 OA
ATOM      9  O   UNL     1     210.315 198.149 222.344  1.00  0.00    -0.550 OA
ENDBRANCH   6   7
ENDBRANCH   5   6
ENDBRANCH   4   5
ENDBRANCH   3   4
ENDBRANCH   2   3
ENDBRANCH   1   2
BRANCH   1  10
ATOM     10  C   UNL     1     204.984 196.861 225.900  1.00  0.00     0.027 C 
BRANCH  10  11
ATOM     11  C   UNL     1     204.796 196.810 224.403  1.00  0.00    -0.031 C 
ATOM     12  C   UNL     1     204.030 195.921 223.743  1.00  0.00    -0.031 C 
BRANCH  12  13
ATOM     13  C   UNL     1     203.256 194.787 224.377  1.00  0.00     0.027 C 
BRANCH  13  14
ATOM     14  C   UNL     1     204.061 193.480 224.492  1.00  0.00     0.004 C 
BRANCH  14  15
ATOM     15  C   UNL     1     204.089 192.626 223.208  1.00  0.00     0.000 C 
BRANCH  15  16
ATOM     16  C   UNL     1     205.497 192.245 222.716  1.00  0.00    -0.000 C 
BRANCH  16  17
ATOM     17  C   UNL     1     206.023 193.189 221.625  1.00  0.00    -0.003 C 
ATOM     18  C   UNL     1     204.874 193.819 220.844  1.00  0.00     0.004 C 
ENDBRANCH  16  17
ENDBRANCH  15  16
ENDBRANCH  14  15
ENDBRANCH  13  14
ENDBRANCH  12  13
ENDBRANCH  10  11
ENDBRANCH   1  10
TORSDOF 13
ENDMDL
MODEL 7
REMARK VINA RESULT:    -3.870      2.764      6.808
REMARK INTER + INTRA:          -8.632
REMARK INTER:                  -6.834
REMARK INTRA:                  -1.799
REMARK UNBOUND:                -1.822
REMARK SMILES CCCCCCC=CCCCCCCCC(=O)[O-]
REMARK SMILES IDX 10 1 11 2 12 3 13 4 14 5 15 6 16 7 17 8 18 9 9 10 8 11 7 12
REMARK SMILES IDX 6 13 5 14 4 15 3 16 2 17 1 18
REMARK H PARENT
REMARK Flexibility Score: inf
ROOT
ATOM      1  C   UNL     1     208.156 195.577 224.503  1.00  0.00     0.004 C 
ENDROOT
BRANCH   1   2
ATOM      2  C   UNL     1     208.021 196.097 225.946  1.00  0.00     0.000 C 
BRANCH   2   3
ATOM      3  C   UNL     1     206.640 195.817 226.557  1.00  0.00     0.000 C 
BRANCH   3   4
ATOM      4  C   UNL     1     205.575 196.746 225.955  1.00  0.00     0.000 C 
BRANCH   4   5
ATOM      5  C   UNL     1     204.444 195.975 225.256  1.00  0.00     0.006 C 
BRANCH   5   6
ATOM      6  C   UNL     1     204.459 196.158 223.733  1.00  0.00     0.053 C 
BRANCH   6   7
ATOM      7  C   UNL     1     204.810 194.870 223.056  1.00  0.00     0.041 C 
ATOM      8  O   UNL     1     205.167 193.873 223.737  1.00  0.00    -0.550 OA
ATOM      9  O   UNL     1     204.695 194.757 221.676  1.00  0.00    -0.550 OA
ENDBRANCH   6   7
ENDBRANCH   5   6
ENDBRANCH   4   5
ENDBRANCH   3   4
ENDBRANCH   2   3
ENDBRANCH   1   2
BRANCH   1  10
ATOM     10  C   UNL     1     209.573 195.678 223.910  1.00  0.00     0.027 C 
BRANCH  10  11
ATOM     11  C   UNL     1     209.823 197.024 223.272  1.00  0.00    -0.031 C 
ATOM     12  C   UNL     1     210.976 197.409 222.692  1.00  0.00    -0.031 C 
BRANCH  12  13
ATOM     13  C   UNL     1     212.239 196.583 222.614  1.00  0.00     0.027 C 
BRANCH  13  14
ATOM     14  C   UNL     1     213.444 197.229 223.322  1.00  0.00     0.004 C 
BRANCH  14  15
ATOM     15  C   UNL     1     213.209 197.573 224.807  1.00  0.00     0.000 C 
BRANCH  15  16
ATOM     16  C   UNL     1     212.708 196.401 225.671  1.00  0.00    -0.000 C 
BRANCH  16  17
ATOM     17  C   UNL     1     211.871 196.863 226.873  1.00  0.00    -0.003 C 
ATOM     18  C   UNL     1     211.116 198.149 226.554  1.00  0.00     0.004 C 
ENDBRANCH  16  17
ENDBRANCH  15  16
ENDBRANCH  14  15
ENDBRANCH  13  14
ENDBRANCH  12  13
ENDBRANCH  10  11
ENDBRANCH   1  10
TORSDOF 13
ENDMDL
MODEL 8
REMARK VINA RESULT:    -3.851      2.620      4.956
REMARK INTER + INTRA:          -8.600
REMARK INTER:                  -6.017
REMARK INTRA:                  -2.583
REMARK UNBOUND:                -1.822
REMARK SMILES CCCCCCC=CCCCCCCCC(=O)[O-]
REMARK SMILES IDX 10 1 11 2 12 3 13 4 14 5 15 6 16 7 17 8 18 9 9 10 8 11 7 12
REMARK SMILES IDX 6 13 5 14 4 15 3 16 2 17 1 18
REMARK H PARENT
REMARK Flexibility Score: inf
ROOT
ATOM      1  C   UNL     1     203.507 194.604 224.589  1.00  0.00     0.004 C 
ENDROOT
BRANCH   1   2
ATOM      2  C   UNL     1     203.973 195.747 223.668  1.00  0.00     0.000 C 
BRANCH   2   3
ATOM      3  C   UNL     1     205.052 196.633 224.309  1.00  0.00     0.000 C 
BRANCH   3   4
ATOM      4  C   UNL     1     204.962 196.585 225.842  1.00  0.00     0.000 C 
BRANCH   4   5
ATOM      5  C   UNL     1     206.252 196.066 226.495  1.00  0.00     0.006 C 
BRANCH   5   6
ATOM      6  C   UNL     1     207.462 196.141 225.553  1.00  0.00     0.053 C 
BRANCH   6   7
ATOM      7  C   UNL     1     208.724 195.843 226.301  1.00  0.00     0.041 C 
ATOM      8  O   UNL     1     209.626 196.716 226.394  1.00  0.00    -0.550 OA
ATOM      9  O   UNL     1     208.882 194.617 226.935  1.00  0.00    -0.550 OA
ENDBRANCH   6   7
ENDBRANCH   5   6
ENDBRANCH   4   5
ENDBRANCH   3   4
ENDBRANCH   2   3
ENDBRANCH   1   2
BRANCH   1  10
ATOM     10  C   UNL     1     203.946 193.197 224.146  1.00  0.00     0.027 C 
BRANCH  10  11
ATOM     11  C   UNL     1     205.226 192.766 224.820  1.00  0.00    -0.031 C 
ATOM     12  C   UNL     1     206.466 192.942 224.325  1.00  0.00    -0.031 C 
BRANCH  12  13
ATOM     13  C   UNL     1     206.797 193.563 222.987  1.00  0.00     0.027 C 
BRANCH  13  14
ATOM     14  C   UNL     1     206.886 192.543 221.839  1.00  0.00     0.004 C 
BRANCH  14  15
ATOM     15  C   UNL     1     205.643 192.487 220.928  1.00  0.00     0.000 C 
BRANCH  15  16
ATOM     16  C   UNL     1     205.019 193.857 220.602  1.00  0.00    -0.000 C 
BRANCH  16  17
ATOM     17  C   UNL     1     203.500 193.783 220.388  1.00  0.00    -0.003 C 
ATOM     18  C   UNL     1     202.972 192.383 220.682  1.00  0.00     0.004 C 
ENDBRANCH  16  17
ENDBRANCH  15  16
ENDBRANCH  14  15
ENDBRANCH  13  14
ENDBRANCH  12  13
ENDBRANCH  10  11
ENDBRANCH   1  10
TORSDOF 13
ENDMDL
MODEL 9
REMARK VINA RESULT:    -3.829      4.525      7.052
REMARK INTER + INTRA:          -8.561
REMARK INTER:                  -6.052
REMARK INTRA:                  -2.509
REMARK UNBOUND:                -1.822
REMARK SMILES CCCCCCC=CCCCCCCCC(=O)[O-]
REMARK SMILES IDX 10 1 11 2 12 3 13 4 14 5 15 6 16 7 17 8 18 9 9 10 8 11 7 12
REMARK SMILES IDX 6 13 5 14 4 15 3 16 2 17 1 18
REMARK H PARENT
REMARK Flexibility Score: inf
ROOT
ATOM      1  C   UNL     1     205.122 196.590 224.231  1.00  0.00     0.004 C 
ENDROOT
BRANCH   1   2
ATOM      2  C   UNL     1     203.954 195.733 223.708  1.00  0.00     0.000 C 
BRANCH   2   3
ATOM      3  C   UNL     1     203.216 194.980 224.825  1.00  0.00     0.000 C 
BRANCH   3   4
ATOM      4  C   UNL     1     202.925 193.530 224.410  1.00  0.00     0.000 C 
BRANCH   4   5
ATOM      5  C   UNL     1     201.428 193.189 224.457  1.00  0.00     0.006 C 
BRANCH   5   6
ATOM      6  C   UNL     1     200.598 194.039 223.485  1.00  0.00     0.053 C 
BRANCH   6   7
ATOM      7  C   UNL     1     200.911 193.668 222.070  1.00  0.00     0.041 C 
ATOM      8  O   UNL     1     201.281 194.549 221.250  1.00  0.00    -0.550 OA
ATOM      9  O   UNL     1     200.840 192.339 221.668  1.00  0.00    -0.550 OA
ENDBRANCH   6   7
ENDBRANCH   5   6
ENDBRANCH   4   5
ENDBRANCH   3   4
ENDBRANCH   2   3
ENDBRANCH   1   2
BRANCH   1  10
ATOM     10  C   UNL     1     205.367 196.491 225.747  1.00  0.00     0.027 C 
BRANCH  10  11
ATOM     11  C   UNL     1     206.770 196.029 226.063  1.00  0.00    -0.031 C 
ATOM     12  C   UNL     1     207.152 194.748 226.221  1.00  0.00    -0.031 C 
BRANCH  12  13
ATOM     13  C   UNL     1     206.239 193.545 226.154  1.00  0.00     0.027 C 
BRANCH  13  14
ATOM     14  C   UNL     1     206.576 192.579 225.004  1.00  0.00     0.004 C 
BRANCH  14  15
ATOM     15  C   UNL     1     207.360 193.214 223.838  1.00  0.00     0.000 C 
BRANCH  15  16
ATOM     16  C   UNL     1     206.523 193.515 222.582  1.00  0.00    -0.000 C 
BRANCH  16  17
ATOM     17  C   UNL     1     205.849 192.263 222.001  1.00  0.00    -0.003 C 
ATOM     18  C   UNL     1     204.530 192.615 221.322  1.00  0.00     0.004 C 
ENDBRANCH  16  17
ENDBRANCH  15  16
ENDBRANCH  14  15
ENDBRANCH  13  14
ENDBRANCH  12  13
ENDBRANCH  10  11
ENDBRANCH   1  10
TORSDOF 13
ENDMDL
