MODEL 1
REMARK VINA RESULT:    -6.032      0.000      0.000
REMARK INTER + INTRA:         -16.645
REMARK INTER:                 -13.789
REMARK INTRA:                  -2.856
REMARK UNBOUND:                -2.856
REMARK SMILES CCCCCCCCCCCCCCCCCCCCCCCC(=O)[O-]
REMARK SMILES IDX 13 1 14 2 15 3 16 4 17 5 18 6 19 7 20 8 21 9 22 10 23 11
REMARK SMILES IDX 24 12 25 13 26 14 12 15 11 16 10 17 9 18 8 19 7 20 6 21 5 22
REMARK SMILES IDX 4 23 3 24 2 25 1 26
REMARK H PARENT
REMARK Flexibility Score: inf
ROOT
ATOM      1  C   UNL     1      10.694   2.590  22.248  1.00  0.00     0.000 C 
ENDROOT
BRANCH   1   2
ATOM      2  C   UNL     1      10.499   2.966  20.768  1.00  0.00     0.000 C 
BRANCH   2   3
ATOM      3  C   UNL     1       9.821   1.884  19.907  1.00  0.00     0.000 C 
BRANCH   3   4
ATOM      4  C   UNL     1       9.444   2.384  18.505  1.00  0.00     0.000 C 
BRANCH   4   5
ATOM      5  C   UNL     1       9.421   3.920  18.458  1.00  0.00     0.000 C 
BRANCH   5   6
ATOM      6  C   UNL     1       8.097   4.508  18.968  1.00  0.00     0.000 C 
BRANCH   6   7
ATOM      7  C   UNL     1       8.249   5.949  19.491  1.00  0.00     0.000 C 
BRANCH   7   8
ATOM      8  C   UNL     1       8.465   5.996  21.019  1.00  0.00     0.000 C 
BRANCH   8   9
ATOM      9  C   UNL     1       9.532   7.016  21.465  1.00  0.00     0.000 C 
BRANCH   9  10
ATOM     10  C   UNL     1      10.981   6.502  21.407  1.00  0.00     0.006 C 
BRANCH  10  11
ATOM     11  C   UNL     1      11.800   7.170  20.292  1.00  0.00     0.053 C 
BRANCH  11  12
ATOM     12  C   UNL     1      12.691   8.243  20.843  1.00  0.00     0.041 C 
ATOM     13  O   UNL     1      12.389   8.822  21.921  1.00  0.00    -0.550 OA
ATOM     14  O   UNL     1      13.815   8.654  20.135  1.00  0.00    -0.550 OA
ENDBRANCH  11  12
ENDBRANCH  10  11
ENDBRANCH   9  10
ENDBRANCH   8   9
ENDBRANCH   7   8
ENDBRANCH   6   7
ENDBRANCH   5   6
ENDBRANCH   4   5
ENDBRANCH   3   4
ENDBRANCH   2   3
ENDBRANCH   1   2
BRANCH   1  15
ATOM     15  C   UNL     1      10.629   1.075  22.498  1.00  0.00     0.000 C 
BRANCH  15  16
ATOM     16  C   UNL     1      11.386   0.699  23.780  1.00  0.00     0.000 C 
BRANCH  16  17
ATOM     17  C   UNL     1      10.456   0.529  24.991  1.00  0.00     0.000 C 
BRANCH  17  18
ATOM     18  C   UNL     1      11.190  -0.022  26.227  1.00  0.00    -0.000 C 
BRANCH  18  19
ATOM     19  C   UNL     1      12.295  -1.024  25.860  1.00  0.00    -0.000 C 
BRANCH  19  20
ATOM     20  C   UNL     1      13.572  -0.831  26.696  1.00  0.00    -0.000 C 
BRANCH  20  21
ATOM     21  C   UNL     1      13.457   0.331  27.708  1.00  0.00    -0.000 C 
BRANCH  21  22
ATOM     22  C   UNL     1      14.399   1.512  27.407  1.00  0.00    -0.000 C 
BRANCH  22  23
ATOM     23  C   UNL     1      15.267   1.346  26.146  1.00  0.00    -0.000 C 
BRANCH  23  24
ATOM     24  C   UNL     1      14.755   2.144  24.925  1.00  0.00    -0.000 C 
BRANCH  24  25
ATOM     25  C   UNL     1      13.532   3.016  25.250  1.00  0.00    -0.003 C 
ATOM     26  C   UNL     1      13.419   4.188  24.279  1.00  0.00     0.004 C 
ENDBRANCH  24  25
ENDBRANCH  23  24
ENDBRANCH  22  23
ENDBRANCH  21  22
ENDBRANCH  20  21
ENDBRANCH  19  20
ENDBRANCH  18  19
ENDBRANCH  17  18
ENDBRANCH  16  17
ENDBRANCH  15  16
ENDBRANCH   1  15
TORSDOF 22
ENDMDL
MODEL 2
REMARK VINA RESULT:    -5.989      2.025      2.738
REMARK INTER + INTRA:         -16.548
REMARK INTER:                 -13.564
REMARK INTRA:                  -2.984
REMARK UNBOUND:                -2.856
REMARK SMILES CCCCCCCCCCCCCCCCCCCCCCCC(=O)[O-]
REMARK SMILES IDX 13 1 14 2 15 3 16 4 17 5 18 6 19 7 20 8 21 9 22 10 23 11
REMARK SMILES IDX 24 12 25 13 26 14 12 15 11 16 10 17 9 18 8 19 7 20 6 21 5 22
REMARK SMILES IDX 4 23 3 24 2 25 1 26
REMARK H PARENT
REMARK Flexibility Score: inf
ROOT
ATOM      1  C   UNL     1      10.362   1.443  21.460  1.00  0.00     0.000 C 
ENDROOT
BRANCH   1   2
ATOM      2  C   UNL     1      10.244   2.742  20.644  1.00  0.00     0.000 C 
BRANCH   2   3
ATOM      3  C   UNL     1       9.844   2.548  19.169  1.00  0.00     0.000 C 
BRANCH   3   4
ATOM      4  C   UNL     1      10.718   3.359  18.201  1.00  0.00     0.000 C 
BRANCH   4   5
ATOM      5  C   UNL     1      11.746   4.206  18.967  1.00  0.00     0.000 C 
BRANCH   5   6
ATOM      6  C   UNL     1      11.927   5.607  18.364  1.00  0.00     0.000 C 
BRANCH   6   7
ATOM      7  C   UNL     1      11.775   6.728  19.409  1.00  0.00     0.000 C 
BRANCH   7   8
ATOM      8  C   UNL     1      11.760   6.182  20.853  1.00  0.00     0.000 C 
BRANCH   8   9
ATOM      9  C   UNL     1      10.711   6.855  21.761  1.00  0.00     0.000 C 
BRANCH   9  10
ATOM     10  C   UNL     1       9.349   7.113  21.092  1.00  0.00     0.006 C 
BRANCH  10  11
ATOM     11  C   UNL     1       8.508   5.835  20.951  1.00  0.00     0.053 C 
BRANCH  11  12
ATOM     12  C   UNL     1       8.037   5.649  19.540  1.00  0.00     0.041 C 
ATOM     13  O   UNL     1       7.347   4.639  19.234  1.00  0.00    -0.550 OA
ATOM     14  O   UNL     1       8.415   6.548  18.549  1.00  0.00    -0.550 OA
ENDBRANCH  11  12
ENDBRANCH  10  11
ENDBRANCH   9  10
ENDBRANCH   8   9
ENDBRANCH   7   8
ENDBRANCH   6   7
ENDBRANCH   5   6
ENDBRANCH   4   5
ENDBRANCH   3   4
ENDBRANCH   2   3
ENDBRANCH   1   2
BRANCH   1  15
ATOM     15  C   UNL     1      11.010   1.654  22.837  1.00  0.00     0.000 C 
BRANCH  15  16
ATOM     16  C   UNL     1      10.922   0.377  23.686  1.00  0.00     0.000 C 
BRANCH  16  17
ATOM     17  C   UNL     1      10.092   0.570  24.964  1.00  0.00     0.000 C 
BRANCH  17  18
ATOM     18  C   UNL     1      10.581  -0.315  26.126  1.00  0.00    -0.000 C 
BRANCH  18  19
ATOM     19  C   UNL     1      12.113  -0.438  26.170  1.00  0.00    -0.000 C 
BRANCH  19  20
ATOM     20  C   UNL     1      12.712   0.080  27.489  1.00  0.00    -0.000 C 
BRANCH  20  21
ATOM     21  C   UNL     1      14.249  -0.069  27.549  1.00  0.00    -0.000 C 
BRANCH  21  22
ATOM     22  C   UNL     1      14.944   0.105  26.186  1.00  0.00    -0.000 C 
BRANCH  22  23
ATOM     23  C   UNL     1      15.543   1.501  25.935  1.00  0.00    -0.000 C 
BRANCH  23  24
ATOM     24  C   UNL     1      14.926   2.239  24.725  1.00  0.00    -0.000 C 
BRANCH  24  25
ATOM     25  C   UNL     1      13.559   2.865  25.040  1.00  0.00    -0.003 C 
ATOM     26  C   UNL     1      13.389   4.202  24.324  1.00  0.00     0.004 C 
ENDBRANCH  24  25
ENDBRANCH  23  24
ENDBRANCH  22  23
ENDBRANCH  21  22
ENDBRANCH  20  21
ENDBRANCH  19  20
ENDBRANCH  18  19
ENDBRANCH  17  18
ENDBRANCH  16  17
ENDBRANCH  15  16
ENDBRANCH   1  15
TORSDOF 22
ENDMDL
MODEL 3
REMARK VINA RESULT:    -5.891      1.320      1.890
REMARK INTER + INTRA:         -16.323
REMARK INTER:                 -13.750
REMARK INTRA:                  -2.573
REMARK UNBOUND:                -2.856
REMARK SMILES CCCCCCCCCCCCCCCCCCCCCCCC(=O)[O-]
REMARK SMILES IDX 13 1 14 2 15 3 16 4 17 5 18 6 19 7 20 8 21 9 22 10 23 11
REMARK SMILES IDX 24 12 25 13 26 14 12 15 11 16 10 17 9 18 8 19 7 20 6 21 5 22
REMARK SMILES IDX 4 23 3 24 2 25 1 26
REMARK H PARENT
REMARK Flexibility Score: inf
ROOT
ATOM      1  C   UNL     1      10.645   2.217  22.056  1.00  0.00     0.000 C 
ENDROOT
BRANCH   1   2
ATOM      2  C   UNL     1      10.197   2.385  20.593  1.00  0.00     0.000 C 
BRANCH   2   3
ATOM      3  C   UNL     1       9.691   3.793  20.226  1.00  0.00     0.000 C 
BRANCH   3   4
ATOM      4  C   UNL     1       8.560   3.771  19.187  1.00  0.00     0.000 C 
BRANCH   4   5
ATOM      5  C   UNL     1       7.945   5.168  19.015  1.00  0.00     0.000 C 
BRANCH   5   6
ATOM      6  C   UNL     1       8.459   5.891  17.760  1.00  0.00     0.000 C 
BRANCH   6   7
ATOM      7  C   UNL     1       8.981   7.308  18.063  1.00  0.00     0.000 C 
BRANCH   7   8
ATOM      8  C   UNL     1      10.468   7.476  17.683  1.00  0.00     0.000 C 
BRANCH   8   9
ATOM      9  C   UNL     1      11.423   6.586  18.502  1.00  0.00     0.000 C 
BRANCH   9  10
ATOM     10  C   UNL     1      12.419   7.354  19.389  1.00  0.00     0.006 C 
BRANCH  10  11
ATOM     11  C   UNL     1      11.750   7.983  20.621  1.00  0.00     0.053 C 
BRANCH  11  12
ATOM     12  C   UNL     1      11.042   6.947  21.442  1.00  0.00     0.041 C 
ATOM     13  O   UNL     1      11.689   5.986  21.938  1.00  0.00    -0.550 OA
ATOM     14  O   UNL     1       9.662   7.001  21.602  1.00  0.00    -0.550 OA
ENDBRANCH  11  12
ENDBRANCH  10  11
ENDBRANCH   9  10
ENDBRANCH   8   9
ENDBRANCH   7   8
ENDBRANCH   6   7
ENDBRANCH   5   6
ENDBRANCH   4   5
ENDBRANCH   3   4
ENDBRANCH   2   3
ENDBRANCH   1   2
BRANCH   1  15
ATOM     15  C   UNL     1      10.625   0.755  22.527  1.00  0.00     0.000 C 
BRANCH  15  16
ATOM     16  C   UNL     1      11.367   0.600  23.863  1.00  0.00     0.000 C 
BRANCH  16  17
ATOM     17  C   UNL     1      10.414   0.423  25.054  1.00  0.00     0.000 C 
BRANCH  17  18
ATOM     18  C   UNL     1      11.118  -0.160  26.293  1.00  0.00    -0.000 C 
BRANCH  18  19
ATOM     19  C   UNL     1      12.373  -0.971  25.932  1.00  0.00    -0.000 C 
BRANCH  19  20
ATOM     20  C   UNL     1      13.513  -0.783  26.947  1.00  0.00    -0.000 C 
BRANCH  20  21
ATOM     21  C   UNL     1      13.382   0.525  27.761  1.00  0.00    -0.000 C 
BRANCH  21  22
ATOM     22  C   UNL     1      14.460   1.574  27.429  1.00  0.00    -0.000 C 
BRANCH  22  23
ATOM     23  C   UNL     1      15.276   1.286  26.155  1.00  0.00    -0.000 C 
BRANCH  23  24
ATOM     24  C   UNL     1      14.754   2.019  24.898  1.00  0.00    -0.000 C 
BRANCH  24  25
ATOM     25  C   UNL     1      13.503   2.867  25.177  1.00  0.00    -0.003 C 
ATOM     26  C   UNL     1      13.527   4.163  24.371  1.00  0.00     0.004 C 
ENDBRANCH  24  25
ENDBRANCH  23  24
ENDBRANCH  22  23
ENDBRANCH  21  22
ENDBRANCH  20  21
ENDBRANCH  19  20
ENDBRANCH  18  19
ENDBRANCH  17  18
ENDBRANCH  16  17
ENDBRANCH  15  16
ENDBRANCH   1  15
TORSDOF 22
ENDMDL
MODEL 4
REMARK VINA RESULT:    -5.881      2.437      8.081
REMARK INTER + INTRA:         -16.301
REMARK INTER:                 -13.086
REMARK INTRA:                  -3.215
REMARK UNBOUND:                -2.856
REMARK SMILES CCCCCCCCCCCCCCCCCCCCCCCC(=O)[O-]
REMARK SMILES IDX 13 1 14 2 15 3 16 4 17 5 18 6 19 7 20 8 21 9 22 10 23 11
REMARK SMILES IDX 24 12 25 13 26 14 12 15 11 16 10 17 9 18 8 19 7 20 6 21 5 22
REMARK SMILES IDX 4 23 3 24 2 25 1 26
REMARK H PARENT
REMARK Flexibility Score: inf
ROOT
ATOM      1  C   UNL     1       9.926   2.698  19.182  1.00  0.00     0.000 C 
ENDROOT
BRANCH   1   2
ATOM      2  C   UNL     1      10.300   2.986  20.648  1.00  0.00     0.000 C 
BRANCH   2   3
ATOM      3  C   UNL     1      10.310   1.753  21.570  1.00  0.00     0.000 C 
BRANCH   3   4
ATOM      4  C   UNL     1      11.079   1.991  22.878  1.00  0.00     0.000 C 
BRANCH   4   5
ATOM      5  C   UNL     1      11.293   0.671  23.636  1.00  0.00     0.000 C 
BRANCH   5   6
ATOM      6  C   UNL     1      10.234   0.434  24.722  1.00  0.00     0.000 C 
BRANCH   6   7
ATOM      7  C   UNL     1      10.835   0.389  26.139  1.00  0.00     0.000 C 
BRANCH   7   8
ATOM      8  C   UNL     1      11.871  -0.746  26.298  1.00  0.00     0.000 C 
BRANCH   8   9
ATOM      9  C   UNL     1      13.002  -0.419  27.294  1.00  0.00     0.000 C 
BRANCH   9  10
ATOM     10  C   UNL     1      14.250   0.224  26.663  1.00  0.00     0.006 C 
BRANCH  10  11
ATOM     11  C   UNL     1      14.173   1.758  26.634  1.00  0.00     0.053 C 
BRANCH  11  12
ATOM     12  C   UNL     1      14.568   2.295  25.291  1.00  0.00     0.041 C 
ATOM     13  O   UNL     1      15.555   1.804  24.680  1.00  0.00    -0.550 OA
ATOM     14  O   UNL     1      13.894   3.381  24.743  1.00  0.00    -0.550 OA
ENDBRANCH  11  12
ENDBRANCH  10  11
ENDBRANCH   9  10
ENDBRANCH   8   9
ENDBRANCH   7   8
ENDBRANCH   6   7
ENDBRANCH   5   6
ENDBRANCH   4   5
ENDBRANCH   3   4
ENDBRANCH   2   3
ENDBRANCH   1   2
BRANCH   1  15
ATOM     15  C   UNL     1      10.928   3.289  18.178  1.00  0.00     0.000 C 
BRANCH  15  16
ATOM     16  C   UNL     1      11.940   4.200  18.887  1.00  0.00     0.000 C 
BRANCH  16  17
ATOM     17  C   UNL     1      12.159   5.530  18.151  1.00  0.00     0.000 C 
BRANCH  17  18
ATOM     18  C   UNL     1      10.870   6.065  17.499  1.00  0.00    -0.000 C 
BRANCH  18  19
ATOM     19  C   UNL     1      10.588   7.531  17.863  1.00  0.00    -0.000 C 
BRANCH  19  20
ATOM     20  C   UNL     1       9.276   7.707  18.647  1.00  0.00    -0.000 C 
BRANCH  20  21
ATOM     21  C   UNL     1       8.639   6.360  19.060  1.00  0.00    -0.000 C 
BRANCH  21  22
ATOM     22  C   UNL     1       8.794   6.031  20.556  1.00  0.00    -0.000 C 
BRANCH  22  23
ATOM     23  C   UNL     1       9.719   6.984  21.338  1.00  0.00    -0.000 C 
BRANCH  23  24
ATOM     24  C   UNL     1      11.124   6.403  21.616  1.00  0.00    -0.000 C 
BRANCH  24  25
ATOM     25  C   UNL     1      12.256   7.379  21.260  1.00  0.00    -0.003 C 
ATOM     26  C   UNL     1      11.911   8.802  21.692  1.00  0.00     0.004 C 
ENDBRANCH  24  25
ENDBRANCH  23  24
ENDBRANCH  22  23
ENDBRANCH  21  22
ENDBRANCH  20  21
ENDBRANCH  19  20
ENDBRANCH  18  19
ENDBRANCH  17  18
ENDBRANCH  16  17
ENDBRANCH  15  16
ENDBRANCH   1  15
TORSDOF 22
ENDMDL
MODEL 5
REMARK VINA RESULT:    -5.864      3.769      8.756
REMARK INTER + INTRA:         -16.263
REMARK INTER:                 -13.568
REMARK INTRA:                  -2.695
REMARK UNBOUND:                -2.856
REMARK SMILES CCCCCCCCCCCCCCCCCCCCCCCC(=O)[O-]
REMARK SMILES IDX 13 1 14 2 15 3 16 4 17 5 18 6 19 7 20 8 21 9 22 10 23 11
REMARK SMILES IDX 24 12 25 13 26 14 12 15 11 16 10 17 9 18 8 19 7 20 6 21 5 22
REMARK SMILES IDX 4 23 3 24 2 25 1 26
REMARK H PARENT
REMARK Flexibility Score: inf
ROOT
ATOM      1  C   UNL     1      10.171   2.789  19.795  1.00  0.00     0.000 C 
ENDROOT
BRANCH   1   2
ATOM      2  C   UNL     1      10.365   3.571  21.107  1.00  0.00     0.000 C 
BRANCH   2   3
ATOM      3  C   UNL     1      10.830   2.722  22.305  1.00  0.00     0.000 C 
BRANCH   3   4
ATOM      4  C   UNL     1      10.508   1.230  22.142  1.00  0.00     0.000 C 
BRANCH   4   5
ATOM      5  C   UNL     1      10.998   0.426  23.356  1.00  0.00     0.000 C 
BRANCH   5   6
ATOM      6  C   UNL     1      10.023   0.490  24.541  1.00  0.00     0.000 C 
BRANCH   6   7
ATOM      7  C   UNL     1      10.686   0.109  25.878  1.00  0.00     0.000 C 
BRANCH   7   8
ATOM      8  C   UNL     1      12.173   0.524  25.931  1.00  0.00     0.000 C 
BRANCH   8   9
ATOM      9  C   UNL     1      12.760   0.550  27.357  1.00  0.00     0.000 C 
BRANCH   9  10
ATOM     10  C   UNL     1      14.298   0.561  27.420  1.00  0.00     0.006 C 
BRANCH  10  11
ATOM     11  C   UNL     1      14.942  -0.240  26.279  1.00  0.00     0.053 C 
BRANCH  11  12
ATOM     12  C   UNL     1      15.145  -1.673  26.670  1.00  0.00     0.041 C 
ATOM     13  O   UNL     1      15.451  -2.528  25.796  1.00  0.00    -0.550 OA
ATOM     14  O   UNL     1      14.931  -2.080  27.983  1.00  0.00    -0.550 OA
ENDBRANCH  11  12
ENDBRANCH  10  11
ENDBRANCH   9  10
ENDBRANCH   8   9
ENDBRANCH   7   8
ENDBRANCH   6   7
ENDBRANCH   5   6
ENDBRANCH   4   5
ENDBRANCH   3   4
ENDBRANCH   2   3
ENDBRANCH   1   2
BRANCH   1  15
ATOM     15  C   UNL     1      10.877   3.441  18.596  1.00  0.00     0.000 C 
BRANCH  15  16
ATOM     16  C   UNL     1      12.067   4.294  19.059  1.00  0.00     0.000 C 
BRANCH  16  17
ATOM     17  C   UNL     1      12.140   5.650  18.343  1.00  0.00     0.000 C 
BRANCH  17  18
ATOM     18  C   UNL     1      10.851   5.980  17.566  1.00  0.00    -0.000 C 
BRANCH  18  19
ATOM     19  C   UNL     1      10.503   7.476  17.608  1.00  0.00    -0.000 C 
BRANCH  19  20
ATOM     20  C   UNL     1       9.318   7.783  18.540  1.00  0.00    -0.000 C 
BRANCH  20  21
ATOM     21  C   UNL     1       8.920   6.578  19.422  1.00  0.00    -0.000 C 
BRANCH  21  22
ATOM     22  C   UNL     1       9.266   6.756  20.911  1.00  0.00    -0.000 C 
BRANCH  22  23
ATOM     23  C   UNL     1      10.321   7.838  21.209  1.00  0.00    -0.000 C 
BRANCH  23  24
ATOM     24  C   UNL     1      11.748   7.282  21.412  1.00  0.00    -0.000 C 
BRANCH  24  25
ATOM     25  C   UNL     1      12.810   8.386  21.530  1.00  0.00    -0.003 C 
ATOM     26  C   UNL     1      13.550   8.580  20.209  1.00  0.00     0.004 C 
ENDBRANCH  24  25
ENDBRANCH  23  24
ENDBRANCH  22  23
ENDBRANCH  21  22
ENDBRANCH  20  21
ENDBRANCH  19  20
ENDBRANCH  18  19
ENDBRANCH  17  18
ENDBRANCH  16  17
ENDBRANCH  15  16
ENDBRANCH   1  15
TORSDOF 22
ENDMDL
MODEL 6
REMARK VINA RESULT:    -5.852      4.087      9.130
REMARK INTER + INTRA:         -16.235
REMARK INTER:                 -13.931
REMARK INTRA:                  -2.305
REMARK UNBOUND:                -2.856
REMARK SMILES CCCCCCCCCCCCCCCCCCCCCCCC(=O)[O-]
REMARK SMILES IDX 13 1 14 2 15 3 16 4 17 5 18 6 19 7 20 8 21 9 22 10 23 11
REMARK SMILES IDX 24 12 25 13 26 14 12 15 11 16 10 17 9 18 8 19 7 20 6 21 5 22
REMARK SMILES IDX 4 23 3 24 2 25 1 26
REMARK H PARENT
REMARK Flexibility Score: inf
ROOT
ATOM      1  C   UNL     1      10.781   3.235  21.770  1.00  0.00     0.000 C 
ENDROOT
BRANCH   1   2
ATOM      2  C   UNL     1      10.628   1.735  22.080  1.00  0.00     0.000 C 
BRANCH   2   3
ATOM      3  C   UNL     1      11.368   1.254  23.342  1.00  0.00     0.000 C 
BRANCH   3   4
ATOM      4  C   UNL     1      10.528   0.294  24.198  1.00  0.00     0.000 C 
BRANCH   4   5
ATOM      5  C   UNL     1      10.659   0.632  25.691  1.00  0.00     0.000 C 
BRANCH   5   6
ATOM      6  C   UNL     1      11.314  -0.499  26.498  1.00  0.00     0.000 C 
BRANCH   6   7
ATOM      7  C   UNL     1      12.545  -1.097  25.792  1.00  0.00     0.000 C 
BRANCH   7   8
ATOM      8  C   UNL     1      13.857  -0.794  26.549  1.00  0.00     0.000 C 
BRANCH   8   9
ATOM      9  C   UNL     1      14.096   0.708  26.803  1.00  0.00     0.000 C 
BRANCH   9  10
ATOM     10  C   UNL     1      14.325   1.084  28.277  1.00  0.00     0.006 C 
BRANCH  10  11
ATOM     11  C   UNL     1      13.634   0.114  29.248  1.00  0.00     0.053 C 
BRANCH  11  12
ATOM     12  C   UNL     1      14.635  -0.749  29.956  1.00  0.00     0.041 C 
ATOM     13  O   UNL     1      14.829  -1.934  29.572  1.00  0.00    -0.550 OA
ATOM     14  O   UNL     1      15.304  -0.274  31.079  1.00  0.00    -0.550 OA
ENDBRANCH  11  12
ENDBRANCH  10  11
ENDBRANCH   9  10
ENDBRANCH   8   9
ENDBRANCH   7   8
ENDBRANCH   6   7
ENDBRANCH   5   6
ENDBRANCH   4   5
ENDBRANCH   3   4
ENDBRANCH   2   3
ENDBRANCH   1   2
BRANCH   1  15
ATOM     15  C   UNL     1       9.873   3.709  20.625  1.00  0.00     0.000 C 
BRANCH  15  16
ATOM     16  C   UNL     1      10.018   2.797  19.398  1.00  0.00     0.000 C 
BRANCH  16  17
ATOM     17  C   UNL     1      10.581   3.534  18.173  1.00  0.00     0.000 C 
BRANCH  17  18
ATOM     18  C   UNL     1      11.902   4.264  18.479  1.00  0.00    -0.000 C 
BRANCH  18  19
ATOM     19  C   UNL     1      11.819   5.774  18.204  1.00  0.00    -0.000 C 
BRANCH  19  20
ATOM     20  C   UNL     1      10.384   6.247  17.917  1.00  0.00    -0.000 C 
BRANCH  20  21
ATOM     21  C   UNL     1       9.973   7.470  18.769  1.00  0.00    -0.000 C 
BRANCH  21  22
ATOM     22  C   UNL     1       9.511   7.109  20.193  1.00  0.00    -0.000 C 
BRANCH  22  23
ATOM     23  C   UNL     1      10.289   7.806  21.325  1.00  0.00    -0.000 C 
BRANCH  23  24
ATOM     24  C   UNL     1      11.749   7.321  21.471  1.00  0.00    -0.000 C 
BRANCH  24  25
ATOM     25  C   UNL     1      12.761   8.476  21.523  1.00  0.00    -0.003 C 
ATOM     26  C   UNL     1      13.568   8.558  20.231  1.00  0.00     0.004 C 
ENDBRANCH  24  25
ENDBRANCH  23  24
ENDBRANCH  22  23
ENDBRANCH  21  22
ENDBRANCH  20  21
ENDBRANCH  19  20
ENDBRANCH  18  19
ENDBRANCH  17  18
ENDBRANCH  16  17
ENDBRANCH  15  16
ENDBRANCH   1  15
TORSDOF 22
ENDMDL
MODEL 7
REMARK VINA RESULT:    -5.834      3.060      4.354
REMARK INTER + INTRA:         -16.192
REMARK INTER:                 -13.694
REMARK INTRA:                  -2.498
REMARK UNBOUND:                -2.856
REMARK SMILES CCCCCCCCCCCCCCCCCCCCCCCC(=O)[O-]
REMARK SMILES IDX 13 1 14 2 15 3 16 4 17 5 18 6 19 7 20 8 21 9 22 10 23 11
REMARK SMILES IDX 24 12 25 13 26 14 12 15 11 16 10 17 9 18 8 19 7 20 6 21 5 22
REMARK SMILES IDX 4 23 3 24 2 25 1 26
REMARK H PARENT
REMARK Flexibility Score: inf
ROOT
ATOM      1  C   UNL     1      10.373   2.758  21.420  1.00  0.00     0.000 C 
ENDROOT
BRANCH   1   2
ATOM      2  C   UNL     1      10.377   4.298  21.385  1.00  0.00     0.000 C 
BRANCH   2   3
ATOM      3  C   UNL     1      11.771   4.940  21.249  1.00  0.00     0.000 C 
BRANCH   3   4
ATOM      4  C   UNL     1      11.739   6.470  21.380  1.00  0.00     0.000 C 
BRANCH   4   5
ATOM      5  C   UNL     1      11.081   7.113  20.150  1.00  0.00     0.000 C 
BRANCH   5   6
ATOM      6  C   UNL     1      11.532   6.467  18.831  1.00  0.00     0.000 C 
BRANCH   6   7
ATOM      7  C   UNL     1      10.494   6.630  17.705  1.00  0.00     0.000 C 
BRANCH   7   8
ATOM      8  C   UNL     1       9.842   5.286  17.313  1.00  0.00     0.000 C 
BRANCH   8   9
ATOM      9  C   UNL     1      10.565   4.052  17.890  1.00  0.00     0.000 C 
BRANCH   9  10
ATOM     10  C   UNL     1       9.923   2.701  17.528  1.00  0.00     0.006 C 
BRANCH  10  11
ATOM     11  C   UNL     1       8.880   2.247  18.559  1.00  0.00     0.053 C 
BRANCH  11  12
ATOM     12  C   UNL     1       8.485   0.817  18.338  1.00  0.00     0.041 C 
ATOM     13  O   UNL     1       8.487   0.006  19.303  1.00  0.00    -0.550 OA
ATOM     14  O   UNL     1       8.184   0.361  17.059  1.00  0.00    -0.550 OA
ENDBRANCH  11  12
ENDBRANCH  10  11
ENDBRANCH   9  10
ENDBRANCH   8   9
ENDBRANCH   7   8
ENDBRANCH   6   7
ENDBRANCH   5   6
ENDBRANCH   4   5
ENDBRANCH   3   4
ENDBRANCH   2   3
ENDBRANCH   1   2
BRANCH   1  15
ATOM     15  C   UNL     1      10.803   2.187  22.780  1.00  0.00     0.000 C 
BRANCH  15  16
ATOM     16  C   UNL     1      10.770   0.651  22.763  1.00  0.00     0.000 C 
BRANCH  16  17
ATOM     17  C   UNL     1      11.363   0.030  24.037  1.00  0.00     0.000 C 
BRANCH  17  18
ATOM     18  C   UNL     1      10.512   0.320  25.287  1.00  0.00    -0.000 C 
BRANCH  18  19
ATOM     19  C   UNL     1      11.049  -0.386  26.543  1.00  0.00    -0.000 C 
BRANCH  19  20
ATOM     20  C   UNL     1      12.586  -0.453  26.574  1.00  0.00    -0.000 C 
BRANCH  20  21
ATOM     21  C   UNL     1      13.195   0.285  27.788  1.00  0.00    -0.000 C 
BRANCH  21  22
ATOM     22  C   UNL     1      14.343   1.243  27.421  1.00  0.00    -0.000 C 
BRANCH  22  23
ATOM     23  C   UNL     1      15.049   0.932  26.088  1.00  0.00    -0.000 C 
BRANCH  23  24
ATOM     24  C   UNL     1      14.986   2.086  25.062  1.00  0.00    -0.000 C 
BRANCH  24  25
ATOM     25  C   UNL     1      13.559   2.608  24.835  1.00  0.00    -0.003 C 
ATOM     26  C   UNL     1      13.563   4.103  24.526  1.00  0.00     0.004 C 
ENDBRANCH  24  25
ENDBRANCH  23  24
ENDBRANCH  22  23
ENDBRANCH  21  22
ENDBRANCH  20  21
ENDBRANCH  19  20
ENDBRANCH  18  19
ENDBRANCH  17  18
ENDBRANCH  16  17
ENDBRANCH  15  16
ENDBRANCH   1  15
TORSDOF 22
ENDMDL
MODEL 8
REMARK VINA RESULT:    -5.803      0.964      1.911
REMARK INTER + INTRA:         -16.123
REMARK INTER:                 -13.559
REMARK INTRA:                  -2.564
REMARK UNBOUND:                -2.856
REMARK SMILES CCCCCCCCCCCCCCCCCCCCCCCC(=O)[O-]
REMARK SMILES IDX 13 1 14 2 15 3 16 4 17 5 18 6 19 7 20 8 21 9 22 10 23 11
REMARK SMILES IDX 24 12 25 13 26 14 12 15 11 16 10 17 9 18 8 19 7 20 6 21 5 22
REMARK SMILES IDX 4 23 3 24 2 25 1 26
REMARK H PARENT
REMARK Flexibility Score: inf
ROOT
ATOM      1  C   UNL     1      11.394   4.289  21.015  1.00  0.00     0.000 C 
ENDROOT
BRANCH   1   2
ATOM      2  C   UNL     1      11.488   4.458  19.487  1.00  0.00     0.000 C 
BRANCH   2   3
ATOM      3  C   UNL     1      10.842   3.325  18.668  1.00  0.00     0.000 C 
BRANCH   3   4
ATOM      4  C   UNL     1       9.484   3.720  18.069  1.00  0.00     0.000 C 
BRANCH   4   5
ATOM      5  C   UNL     1       9.451   5.217  17.724  1.00  0.00     0.000 C 
BRANCH   5   6
ATOM      6  C   UNL     1       8.308   5.962  18.429  1.00  0.00     0.000 C 
BRANCH   6   7
ATOM      7  C   UNL     1       7.912   5.312  19.768  1.00  0.00     0.000 C 
BRANCH   7   8
ATOM      8  C   UNL     1       8.450   6.100  20.982  1.00  0.00     0.000 C 
BRANCH   8   9
ATOM      9  C   UNL     1       9.315   7.318  20.599  1.00  0.00     0.000 C 
BRANCH   9  10
ATOM     10  C   UNL     1      10.187   7.874  21.739  1.00  0.00     0.006 C 
BRANCH  10  11
ATOM     11  C   UNL     1      11.674   7.530  21.567  1.00  0.00     0.053 C 
BRANCH  11  12
ATOM     12  C   UNL     1      12.518   8.769  21.548  1.00  0.00     0.041 C 
ATOM     13  O   UNL     1      12.196   9.762  22.256  1.00  0.00    -0.550 OA
ATOM     14  O   UNL     1      13.617   8.858  20.701  1.00  0.00    -0.550 OA
ENDBRANCH  11  12
ENDBRANCH  10  11
ENDBRANCH   9  10
ENDBRANCH   8   9
ENDBRANCH   7   8
ENDBRANCH   6   7
ENDBRANCH   5   6
ENDBRANCH   4   5
ENDBRANCH   3   4
ENDBRANCH   2   3
ENDBRANCH   1   2
BRANCH   1  15
ATOM     15  C   UNL     1      10.575   3.058  21.435  1.00  0.00     0.000 C 
BRANCH  15  16
ATOM     16  C   UNL     1      11.247   2.328  22.607  1.00  0.00     0.000 C 
BRANCH  16  17
ATOM     17  C   UNL     1      10.620   0.954  22.887  1.00  0.00     0.000 C 
BRANCH  17  18
ATOM     18  C   UNL     1      11.330   0.202  24.029  1.00  0.00    -0.000 C 
BRANCH  18  19
ATOM     19  C   UNL     1      10.611   0.362  25.378  1.00  0.00    -0.000 C 
BRANCH  19  20
ATOM     20  C   UNL     1      11.491  -0.048  26.571  1.00  0.00    -0.000 C 
BRANCH  20  21
ATOM     21  C   UNL     1      12.502  -1.163  26.217  1.00  0.00    -0.000 C 
BRANCH  21  22
ATOM     22  C   UNL     1      13.889  -0.971  26.857  1.00  0.00    -0.000 C 
BRANCH  22  23
ATOM     23  C   UNL     1      13.948   0.087  27.975  1.00  0.00    -0.000 C 
BRANCH  23  24
ATOM     24  C   UNL     1      14.508   1.452  27.516  1.00  0.00    -0.000 C 
BRANCH  24  25
ATOM     25  C   UNL     1      15.129   1.402  26.111  1.00  0.00    -0.003 C 
ATOM     26  C   UNL     1      14.344   2.272  25.132  1.00  0.00     0.004 C 
ENDBRANCH  24  25
ENDBRANCH  23  24
ENDBRANCH  22  23
ENDBRANCH  21  22
ENDBRANCH  20  21
ENDBRANCH  19  20
ENDBRANCH  18  19
ENDBRANCH  17  18
ENDBRANCH  16  17
ENDBRANCH  15  16
ENDBRANCH   1  15
TORSDOF 22
ENDMDL
MODEL 9
REMARK VINA RESULT:    -5.726      2.242      8.358
REMARK INTER + INTRA:         -15.946
REMARK INTER:                 -13.029
REMARK INTRA:                  -2.917
REMARK UNBOUND:                -2.856
REMARK SMILES CCCCCCCCCCCCCCCCCCCCCCCC(=O)[O-]
REMARK SMILES IDX 13 1 14 2 15 3 16 4 17 5 18 6 19 7 20 8 21 9 22 10 23 11
REMARK SMILES IDX 24 12 25 13 26 14 12 15 11 16 10 17 9 18 8 19 7 20 6 21 5 22
REMARK SMILES IDX 4 23 3 24 2 25 1 26
REMARK H PARENT
REMARK Flexibility Score: inf
ROOT
ATOM      1  C   UNL     1      10.066   3.304  21.200  1.00  0.00     0.000 C 
ENDROOT
BRANCH   1   2
ATOM      2  C   UNL     1      11.008   2.598  22.192  1.00  0.00     0.000 C 
BRANCH   2   3
ATOM      3  C   UNL     1      10.622   1.146  22.533  1.00  0.00     0.000 C 
BRANCH   3   4
ATOM      4  C   UNL     1      11.373   0.600  23.756  1.00  0.00     0.000 C 
BRANCH   4   5
ATOM      5  C   UNL     1      10.676   1.017  25.060  1.00  0.00     0.000 C 
BRANCH   5   6
ATOM      6  C   UNL     1      10.645  -0.112  26.103  1.00  0.00     0.000 C 
BRANCH   6   7
ATOM      7  C   UNL     1      11.957  -0.917  26.144  1.00  0.00     0.000 C 
BRANCH   7   8
ATOM      8  C   UNL     1      12.917  -0.414  27.244  1.00  0.00     0.000 C 
BRANCH   8   9
ATOM      9  C   UNL     1      14.406  -0.662  26.931  1.00  0.00     0.000 C 
BRANCH   9  10
ATOM     10  C   UNL     1      15.129   0.519  26.259  1.00  0.00     0.006 C 
BRANCH  10  11
ATOM     11  C   UNL     1      14.361   1.841  26.403  1.00  0.00     0.053 C 
BRANCH  11  12
ATOM     12  C   UNL     1      14.408   2.638  25.134  1.00  0.00     0.041 C 
ATOM     13  O   UNL     1      15.458   2.651  24.436  1.00  0.00    -0.550 OA
ATOM     14  O   UNL     1      13.323   3.421  24.755  1.00  0.00    -0.550 OA
ENDBRANCH  11  12
ENDBRANCH  10  11
ENDBRANCH   9  10
ENDBRANCH   8   9
ENDBRANCH   7   8
ENDBRANCH   6   7
ENDBRANCH   5   6
ENDBRANCH   4   5
ENDBRANCH   3   4
ENDBRANCH   2   3
ENDBRANCH   1   2
BRANCH   1  15
ATOM     15  C   UNL     1       9.910   2.543  19.873  1.00  0.00     0.000 C 
BRANCH  15  16
ATOM     16  C   UNL     1       9.358   3.465  18.776  1.00  0.00     0.000 C 
BRANCH  16  17
ATOM     17  C   UNL     1       7.970   4.028  19.116  1.00  0.00     0.000 C 
BRANCH  17  18
ATOM     18  C   UNL     1       7.935   5.567  19.093  1.00  0.00    -0.000 C 
BRANCH  18  19
ATOM     19  C   UNL     1       8.227   6.145  17.699  1.00  0.00    -0.000 C 
BRANCH  19  20
ATOM     20  C   UNL     1       8.683   7.613  17.749  1.00  0.00    -0.000 C 
BRANCH  20  21
ATOM     21  C   UNL     1      10.213   7.771  17.593  1.00  0.00    -0.000 C 
BRANCH  21  22
ATOM     22  C   UNL     1      10.978   6.435  17.575  1.00  0.00    -0.000 C 
BRANCH  22  23
ATOM     23  C   UNL     1      11.967   6.236  18.739  1.00  0.00    -0.000 C 
BRANCH  23  24
ATOM     24  C   UNL     1      11.834   7.293  19.859  1.00  0.00    -0.000 C 
BRANCH  24  25
ATOM     25  C   UNL     1      11.406   6.688  21.205  1.00  0.00    -0.003 C 
ATOM     26  C   UNL     1       9.975   7.084  21.556  1.00  0.00     0.004 C 
ENDBRANCH  24  25
ENDBRANCH  23  24
ENDBRANCH  22  23
ENDBRANCH  21  22
ENDBRANCH  20  21
ENDBRANCH  19  20
ENDBRANCH  18  19
ENDBRANCH  17  18
ENDBRANCH  16  17
ENDBRANCH  15  16
ENDBRANCH   1  15
TORSDOF 22
ENDMDL
