MODEL 1
REMARK VINA RESULT:    -2.934      0.000      0.000
REMARK INTER + INTRA:          -4.440
REMARK INTER:                  -4.135
REMARK INTRA:                  -0.305
REMARK UNBOUND:                -0.305
REMARK SMILES CCCCCCCCC(=O)[O-]
REMARK SMILES IDX 6 1 7 2 8 3 9 4 10 5 11 6 5 7 4 8 3 9 2 10 1 11
REMARK H PARENT
REMARK Flexibility Score: inf
ROOT
ATOM      1  C   UNL     1       3.958  17.797   8.620  1.00  0.00     0.000 C 
ENDROOT
BRANCH   1   2
ATOM      2  C   UNL     1       4.230  16.801   7.477  1.00  0.00     0.006 C 
BRANCH   2   3
ATOM      3  C   UNL     1       4.130  15.325   7.892  1.00  0.00     0.053 C 
BRANCH   3   4
ATOM      4  C   UNL     1       4.476  14.401   6.766  1.00  0.00     0.041 C 
ATOM      5  O   UNL     1       3.645  13.540   6.374  1.00  0.00    -0.550 OA
ATOM      6  O   UNL     1       5.731  14.466   6.173  1.00  0.00    -0.550 OA
ENDBRANCH   3   4
ENDBRANCH   2   3
ENDBRANCH   1   2
BRANCH   1   7
ATOM      7  C   UNL     1       3.402  19.141   8.119  1.00  0.00     0.000 C 
BRANCH   7   8
ATOM      8  C   UNL     1       2.942  19.077   6.654  1.00  0.00    -0.000 C 
BRANCH   8   9
ATOM      9  C   UNL     1       1.712  19.962   6.385  1.00  0.00    -0.000 C 
BRANCH   9  10
ATOM     10  C   UNL     1       1.891  20.861   5.152  1.00  0.00    -0.003 C 
ATOM     11  C   UNL     1       3.306  20.796   4.576  1.00  0.00     0.004 C 
ENDBRANCH   9  10
ENDBRANCH   8   9
ENDBRANCH   7   8
ENDBRANCH   1   7
TORSDOF 7
ENDMDL
MODEL 2
REMARK VINA RESULT:    -2.883      0.916      1.754
REMARK INTER + INTRA:          -4.368
REMARK INTER:                  -4.189
REMARK INTRA:                  -0.179
REMARK UNBOUND:                -0.305
REMARK SMILES CCCCCCCCC(=O)[O-]
REMARK SMILES IDX 6 1 7 2 8 3 9 4 10 5 11 6 5 7 4 8 3 9 2 10 1 11
REMARK H PARENT
REMARK Flexibility Score: inf
ROOT
ATOM      1  C   UNL     1       3.914  17.727   7.673  1.00  0.00     0.000 C 
ENDROOT
BRANCH   1   2
ATOM      2  C   UNL     1       4.718  16.467   7.301  1.00  0.00     0.006 C 
BRANCH   2   3
ATOM      3  C   UNL     1       3.981  15.146   7.578  1.00  0.00     0.053 C 
BRANCH   3   4
ATOM      4  C   UNL     1       4.338  14.085   6.584  1.00  0.00     0.041 C 
ATOM      5  O   UNL     1       5.285  14.267   5.776  1.00  0.00    -0.550 OA
ATOM      6  O   UNL     1       3.600  12.909   6.527  1.00  0.00    -0.550 OA
ENDBRANCH   3   4
ENDBRANCH   2   3
ENDBRANCH   1   2
BRANCH   1   7
ATOM      7  C   UNL     1       3.689  18.664   6.474  1.00  0.00     0.000 C 
BRANCH   7   8
ATOM      8  C   UNL     1       2.394  19.481   6.600  1.00  0.00    -0.000 C 
BRANCH   8   9
ATOM      9  C   UNL     1       2.188  20.445   5.418  1.00  0.00    -0.000 C 
BRANCH   9  10
ATOM     10  C   UNL     1       0.896  21.265   5.545  1.00  0.00    -0.003 C 
ATOM     11  C   UNL     1      -0.193  20.533   6.331  1.00  0.00     0.004 C 
ENDBRANCH   9  10
ENDBRANCH   8   9
ENDBRANCH   7   8
ENDBRANCH   1   7
TORSDOF 7
ENDMDL
MODEL 3
REMARK VINA RESULT:    -2.870      0.950      1.803
REMARK INTER + INTRA:          -4.349
REMARK INTER:                  -3.955
REMARK INTRA:                  -0.394
REMARK UNBOUND:                -0.305
REMARK SMILES CCCCCCCCC(=O)[O-]
REMARK SMILES IDX 6 1 7 2 8 3 9 4 10 5 11 6 5 7 4 8 3 9 2 10 1 11
REMARK H PARENT
REMARK Flexibility Score: inf
ROOT
ATOM      1  C   UNL     1       4.546  16.900   7.830  1.00  0.00     0.000 C 
ENDROOT
BRANCH   1   2
ATOM      2  C   UNL     1       3.910  15.503   7.701  1.00  0.00     0.006 C 
BRANCH   2   3
ATOM      3  C   UNL     1       4.875  14.417   7.200  1.00  0.00     0.053 C 
BRANCH   3   4
ATOM      4  C   UNL     1       4.422  13.818   5.904  1.00  0.00     0.041 C 
ATOM      5  O   UNL     1       4.764  14.341   4.811  1.00  0.00    -0.550 OA
ATOM      6  O   UNL     1       3.593  12.704   5.904  1.00  0.00    -0.550 OA
ENDBRANCH   3   4
ENDBRANCH   2   3
ENDBRANCH   1   2
BRANCH   1   7
ATOM      7  C   UNL     1       4.995  17.477   6.477  1.00  0.00     0.000 C 
BRANCH   7   8
ATOM      8  C   UNL     1       4.052  18.576   5.964  1.00  0.00    -0.000 C 
BRANCH   8   9
ATOM      9  C   UNL     1       3.030  19.018   7.025  1.00  0.00    -0.000 C 
BRANCH   9  10
ATOM     10  C   UNL     1       1.876  19.838   6.428  1.00  0.00    -0.003 C 
ATOM     11  C   UNL     1       2.286  20.601   5.168  1.00  0.00     0.004 C 
ENDBRANCH   9  10
ENDBRANCH   8   9
ENDBRANCH   7   8
ENDBRANCH   1   7
TORSDOF 7
ENDMDL
MODEL 4
REMARK VINA RESULT:    -2.760      1.685      2.775
REMARK INTER + INTRA:          -4.195
REMARK INTER:                  -3.969
REMARK INTRA:                  -0.226
REMARK UNBOUND:                -0.305
REMARK SMILES CCCCCCCCC(=O)[O-]
REMARK SMILES IDX 6 1 7 2 8 3 9 4 10 5 11 6 5 7 4 8 3 9 2 10 1 11
REMARK H PARENT
REMARK Flexibility Score: inf
ROOT
ATOM      1  C   UNL     1       2.925  19.106   6.705  1.00  0.00     0.000 C 
ENDROOT
BRANCH   1   2
ATOM      2  C   UNL     1       4.092  18.106   6.594  1.00  0.00     0.006 C 
BRANCH   2   3
ATOM      3  C   UNL     1       4.036  16.958   7.614  1.00  0.00     0.053 C 
BRANCH   3   4
ATOM      4  C   UNL     1       4.425  15.647   7.006  1.00  0.00     0.041 C 
ATOM      5  O   UNL     1       5.436  15.570   6.259  1.00  0.00    -0.550 OA
ATOM      6  O   UNL     1       3.650  14.516   7.234  1.00  0.00    -0.550 OA
ENDBRANCH   3   4
ENDBRANCH   2   3
ENDBRANCH   1   2
BRANCH   1   7
ATOM      7  C   UNL     1       2.879  20.099   5.532  1.00  0.00     0.000 C 
BRANCH   7   8
ATOM      8  C   UNL     1       1.531  20.829   5.432  1.00  0.00    -0.000 C 
BRANCH   8   9
ATOM      9  C   UNL     1       0.593  20.499   6.606  1.00  0.00    -0.000 C 
BRANCH   9  10
ATOM     10  C   UNL     1      -0.890  20.558   6.211  1.00  0.00    -0.003 C 
ATOM     11  C   UNL     1      -1.782  21.074   7.340  1.00  0.00     0.004 C 
ENDBRANCH   9  10
ENDBRANCH   8   9
ENDBRANCH   7   8
ENDBRANCH   1   7
TORSDOF 7
ENDMDL
MODEL 5
REMARK VINA RESULT:    -2.748      2.303      3.967
REMARK INTER + INTRA:          -4.177
REMARK INTER:                  -3.732
REMARK INTRA:                  -0.445
REMARK UNBOUND:                -0.305
REMARK SMILES CCCCCCCCC(=O)[O-]
REMARK SMILES IDX 6 1 7 2 8 3 9 4 10 5 11 6 5 7 4 8 3 9 2 10 1 11
REMARK H PARENT
REMARK Flexibility Score: inf
ROOT
ATOM      1  C   UNL     1       3.310  18.903   7.399  1.00  0.00     0.000 C 
ENDROOT
BRANCH   1   2
ATOM      2  C   UNL     1       3.963  17.523   7.188  1.00  0.00     0.006 C 
BRANCH   2   3
ATOM      3  C   UNL     1       4.323  16.792   8.491  1.00  0.00     0.053 C 
BRANCH   3   4
ATOM      4  C   UNL     1       4.330  15.305   8.317  1.00  0.00     0.041 C 
ATOM      5  O   UNL     1       5.109  14.590   8.999  1.00  0.00    -0.550 OA
ATOM      6  O   UNL     1       3.499  14.711   7.374  1.00  0.00    -0.550 OA
ENDBRANCH   3   4
ENDBRANCH   2   3
ENDBRANCH   1   2
BRANCH   1   7
ATOM      7  C   UNL     1       3.423  19.398   8.851  1.00  0.00     0.000 C 
BRANCH   7   8
ATOM      8  C   UNL     1       2.167  20.151   9.315  1.00  0.00    -0.000 C 
BRANCH   8   9
ATOM      9  C   UNL     1       1.738  19.758  10.740  1.00  0.00    -0.000 C 
BRANCH   9  10
ATOM     10  C   UNL     1       2.664  18.704  11.365  1.00  0.00    -0.003 C 
ATOM     11  C   UNL     1       2.210  18.273  12.760  1.00  0.00     0.004 C 
ENDBRANCH   9  10
ENDBRANCH   8   9
ENDBRANCH   7   8
ENDBRANCH   1   7
TORSDOF 7
ENDMDL
MODEL 6
REMARK VINA RESULT:    -2.723      1.913      3.382
REMARK INTER + INTRA:          -4.142
REMARK INTER:                  -3.703
REMARK INTRA:                  -0.440
REMARK UNBOUND:                -0.305
REMARK SMILES CCCCCCCCC(=O)[O-]
REMARK SMILES IDX 6 1 7 2 8 3 9 4 10 5 11 6 5 7 4 8 3 9 2 10 1 11
REMARK H PARENT
REMARK Flexibility Score: inf
ROOT
ATOM      1  C   UNL     1       3.043  19.063   6.596  1.00  0.00     0.000 C 
ENDROOT
BRANCH   1   2
ATOM      2  C   UNL     1       3.614  17.921   7.459  1.00  0.00     0.006 C 
BRANCH   2   3
ATOM      3  C   UNL     1       4.501  16.932   6.686  1.00  0.00     0.053 C 
BRANCH   3   4
ATOM      4  C   UNL     1       4.564  15.595   7.355  1.00  0.00     0.041 C 
ATOM      5  O   UNL     1       3.552  14.845   7.372  1.00  0.00    -0.550 OA
ATOM      6  O   UNL     1       5.731  15.190   7.992  1.00  0.00    -0.550 OA
ENDBRANCH   3   4
ENDBRANCH   2   3
ENDBRANCH   1   2
BRANCH   1   7
ATOM      7  C   UNL     1       2.210  20.065   7.412  1.00  0.00     0.000 C 
BRANCH   7   8
ATOM      8  C   UNL     1       2.729  20.229   8.849  1.00  0.00    -0.000 C 
BRANCH   8   9
ATOM      9  C   UNL     1       1.592  20.434   9.866  1.00  0.00    -0.000 C 
BRANCH   9  10
ATOM     10  C   UNL     1       1.720  19.511  11.087  1.00  0.00    -0.003 C 
ATOM     11  C   UNL     1       3.008  18.686  11.071  1.00  0.00     0.004 C 
ENDBRANCH   9  10
ENDBRANCH   8   9
ENDBRANCH   7   8
ENDBRANCH   1   7
TORSDOF 7
ENDMDL
MODEL 7
REMARK VINA RESULT:    -2.713      1.540      2.296
REMARK INTER + INTRA:          -4.129
REMARK INTER:                  -3.601
REMARK INTRA:                  -0.528
REMARK UNBOUND:                -0.305
REMARK SMILES CCCCCCCCC(=O)[O-]
REMARK SMILES IDX 6 1 7 2 8 3 9 4 10 5 11 6 5 7 4 8 3 9 2 10 1 11
REMARK H PARENT
REMARK Flexibility Score: inf
ROOT
ATOM      1  C   UNL     1       4.125  18.412   9.494  1.00  0.00     0.000 C 
ENDROOT
BRANCH   1   2
ATOM      2  C   UNL     1       4.341  16.895   9.333  1.00  0.00     0.006 C 
BRANCH   2   3
ATOM      3  C   UNL     1       4.160  16.382   7.896  1.00  0.00     0.053 C 
BRANCH   3   4
ATOM      4  C   UNL     1       4.379  14.905   7.795  1.00  0.00     0.041 C 
ATOM      5  O   UNL     1       5.258  14.345   8.501  1.00  0.00    -0.550 OA
ATOM      6  O   UNL     1       3.636  14.151   6.895  1.00  0.00    -0.550 OA
ENDBRANCH   3   4
ENDBRANCH   2   3
ENDBRANCH   1   2
BRANCH   1   7
ATOM      7  C   UNL     1       3.042  18.752  10.531  1.00  0.00     0.000 C 
BRANCH   7   8
ATOM      8  C   UNL     1       2.084  19.850  10.044  1.00  0.00    -0.000 C 
BRANCH   8   9
ATOM      9  C   UNL     1       2.599  20.564   8.782  1.00  0.00    -0.000 C 
BRANCH   9  10
ATOM     10  C   UNL     1       1.639  20.423   7.591  1.00  0.00    -0.003 C 
ATOM     11  C   UNL     1       2.233  19.598   6.449  1.00  0.00     0.004 C 
ENDBRANCH   9  10
ENDBRANCH   8   9
ENDBRANCH   7   8
ENDBRANCH   1   7
TORSDOF 7
ENDMDL
MODEL 8
REMARK VINA RESULT:    -2.631      3.960      4.726
REMARK INTER + INTRA:          -4.012
REMARK INTER:                  -3.399
REMARK INTRA:                  -0.614
REMARK UNBOUND:                -0.305
REMARK SMILES CCCCCCCCC(=O)[O-]
REMARK SMILES IDX 6 1 7 2 8 3 9 4 10 5 11 6 5 7 4 8 3 9 2 10 1 11
REMARK H PARENT
REMARK Flexibility Score: inf
ROOT
ATOM      1  C   UNL     1       3.261  18.564   7.058  1.00  0.00     0.000 C 
ENDROOT
BRANCH   1   2
ATOM      2  C   UNL     1       4.049  18.952   8.323  1.00  0.00     0.006 C 
BRANCH   2   3
ATOM      3  C   UNL     1       3.189  19.064   9.591  1.00  0.00     0.053 C 
BRANCH   3   4
ATOM      4  C   UNL     1       2.391  20.330   9.618  1.00  0.00     0.041 C 
ATOM      5  O   UNL     1       1.225  20.334  10.093  1.00  0.00    -0.550 OA
ATOM      6  O   UNL     1       2.922  21.499   9.086  1.00  0.00    -0.550 OA
ENDBRANCH   3   4
ENDBRANCH   2   3
ENDBRANCH   1   2
BRANCH   1   7
ATOM      7  C   UNL     1       3.499  19.532   5.887  1.00  0.00     0.000 C 
BRANCH   7   8
ATOM      8  C   UNL     1       2.290  20.442   5.621  1.00  0.00    -0.000 C 
BRANCH   8   9
ATOM      9  C   UNL     1       1.025  19.974   6.364  1.00  0.00    -0.000 C 
BRANCH   9  10
ATOM     10  C   UNL     1      -0.029  21.084   6.490  1.00  0.00    -0.003 C 
ATOM     11  C   UNL     1      -1.445  20.588   6.196  1.00  0.00     0.004 C 
ENDBRANCH   9  10
ENDBRANCH   8   9
ENDBRANCH   7   8
ENDBRANCH   1   7
TORSDOF 7
ENDMDL
MODEL 9
REMARK VINA RESULT:    -2.568      2.131      3.381
REMARK INTER + INTRA:          -3.924
REMARK INTER:                  -3.614
REMARK INTRA:                  -0.311
REMARK UNBOUND:                -0.305
REMARK SMILES CCCCCCCCC(=O)[O-]
REMARK SMILES IDX 6 1 7 2 8 3 9 4 10 5 11 6 5 7 4 8 3 9 2 10 1 11
REMARK H PARENT
REMARK Flexibility Score: inf
ROOT
ATOM      1  C   UNL     1       4.491  16.734   8.028  1.00  0.00     0.000 C 
ENDROOT
BRANCH   1   2
ATOM      2  C   UNL     1       3.941  15.356   7.613  1.00  0.00     0.006 C 
BRANCH   2   3
ATOM      3  C   UNL     1       4.653  14.733   6.402  1.00  0.00     0.053 C 
BRANCH   3   4
ATOM      4  C   UNL     1       4.601  13.237   6.429  1.00  0.00     0.041 C 
ATOM      5  O   UNL     1       5.603  12.575   6.808  1.00  0.00    -0.550 OA
ATOM      6  O   UNL     1       3.458  12.572   6.003  1.00  0.00    -0.550 OA
ENDBRANCH   3   4
ENDBRANCH   2   3
ENDBRANCH   1   2
BRANCH   1   7
ATOM      7  C   UNL     1       3.736  17.899   7.367  1.00  0.00     0.000 C 
BRANCH   7   8
ATOM      8  C   UNL     1       3.249  18.939   8.388  1.00  0.00    -0.000 C 
BRANCH   8   9
ATOM      9  C   UNL     1       3.917  18.771   9.764  1.00  0.00    -0.000 C 
BRANCH   9  10
ATOM     10  C   UNL     1       2.896  18.696  10.910  1.00  0.00    -0.003 C 
ATOM     11  C   UNL     1       1.773  19.724  10.768  1.00  0.00     0.004 C 
ENDBRANCH   9  10
ENDBRANCH   8   9
ENDBRANCH   7   8
ENDBRANCH   1   7
TORSDOF 7
ENDMDL
