MODEL 1
REMARK VINA RESULT:    -6.563      0.000      0.000
REMARK INTER + INTRA:          -9.782
REMARK INTER:                  -8.865
REMARK INTRA:                  -0.918
REMARK UNBOUND:                -0.918
REMARK SMILES O=c1c(-c2ccc(O)cc2)coc2c([C@H]3O[C@H](CO)[C@@H](O)[C@H](O)[C@H]3O)c(O)ccc12
REMARK SMILES IDX 3 1 11 2 12 3 13 4 30 5 2 6 1 7 29 8 28 9 26 10 14 11 4 12
REMARK SMILES IDX 5 13 6 14 7 15 10 16 9 17 8 18 15 20 24 21 16 22 22 23 17 24
REMARK SMILES IDX 20 25 25 26 23 28 18 30 19 31 21 33 27 35
REMARK H PARENT 8 19 25 27 23 29 19 32 21 34 27 36
REMARK Flexibility Score: inf
ROOT
ATOM      1  C   UNL     1     176.708 207.996  83.601  1.00  0.00     0.065 A 
ATOM      2  C   UNL     1     176.733 206.610  83.815  1.00  0.00     0.208 A 
ATOM      3  O   UNL     1     177.370 206.090  84.860  1.00  0.00    -0.463 OA
ATOM      4  C   UNL     1     178.018 206.828  85.757  1.00  0.00     0.147 A 
ATOM      5  C   UNL     1     178.032 208.235  85.627  1.00  0.00     0.066 A 
ATOM      6  C   UNL     1     177.358 208.819  84.539  1.00  0.00     0.200 A 
ATOM      7  O   UNL     1     177.319 210.075  84.417  1.00  0.00    -0.288 OA
ATOM      8  C   UNL     1     178.702 209.013  86.583  1.00  0.00     0.020 A 
ATOM      9  C   UNL     1     179.341 208.406  87.661  1.00  0.00     0.047 A 
ATOM     10  C   UNL     1     179.331 207.012  87.803  1.00  0.00     0.125 A 
ATOM     11  C   UNL     1     178.687 206.204  86.836  1.00  0.00     0.069 A 
ENDROOT
BRANCH   1  12
ATOM     12  C   UNL     1     176.009 208.554  82.413  1.00  0.00    -0.011 A 
ATOM     13  C   UNL     1     174.653 208.923  82.492  1.00  0.00     0.013 A 
ATOM     14  C   UNL     1     173.995 209.443  81.372  1.00  0.00     0.047 A 
ATOM     15  C   UNL     1     174.678 209.599  80.162  1.00  0.00     0.115 A 
ATOM     16  C   UNL     1     176.686 208.700  81.188  1.00  0.00     0.013 A 
ATOM     17  C   UNL     1     176.026 209.226  80.072  1.00  0.00     0.047 A 
BRANCH  15  18
ATOM     18  O   UNL     1     174.011 210.125  79.058  1.00  0.00    -0.508 OA
ATOM     19  H   UNL     1     174.178 209.775  78.122  1.00  0.00     0.293 HD
ENDBRANCH  15  18
ENDBRANCH   1  12
BRANCH  11  20
ATOM     20  C   UNL     1     178.651 204.686  86.982  1.00  0.00     0.188 C 
ATOM     21  C   UNL     1     177.431 204.215  87.831  1.00  0.00     0.179 C 
ATOM     22  O   UNL     1     179.875 204.223  87.531  1.00  0.00    -0.362 OA
ATOM     23  C   UNL     1     177.660 202.798  88.405  1.00  0.00     0.177 C 
ATOM     24  C   UNL     1     180.016 202.804  87.486  1.00  0.00     0.176 C 
ATOM     25  C   UNL     1     178.672 202.015  87.547  1.00  0.00     0.177 C 
BRANCH  21  26
ATOM     26  O   UNL     1     177.176 205.094  88.899  1.00  0.00    -0.387 OA
ATOM     27  H   UNL     1     176.191 205.208  88.961  1.00  0.00     0.211 HD
ENDBRANCH  21  26
BRANCH  23  28
ATOM     28  O   UNL     1     176.440 202.110  88.527  1.00  0.00    -0.387 OA
ATOM     29  H   UNL     1     176.428 201.395  87.834  1.00  0.00     0.211 HD
ENDBRANCH  23  28
BRANCH  24  30
ATOM     30  C   UNL     1     180.903 202.379  86.303  1.00  0.00     0.191 C 
BRANCH  30  31
ATOM     31  O   UNL     1     181.616 203.469  85.778  1.00  0.00    -0.394 OA
ATOM     32  H   UNL     1     182.491 203.495  86.249  1.00  0.00     0.210 HD
ENDBRANCH  30  31
ENDBRANCH  24  30
BRANCH  25  33
ATOM     33  O   UNL     1     178.863 200.713  88.046  1.00  0.00    -0.388 OA
ATOM     34  H   UNL     1     179.639 200.318  87.565  1.00  0.00     0.211 HD
ENDBRANCH  25  33
ENDBRANCH  11  20
BRANCH  10  35
ATOM     35  O   UNL     1     179.950 206.436  88.913  1.00  0.00    -0.507 OA
ATOM     36  H   UNL     1     179.423 205.928  89.614  1.00  0.00     0.293 HD
ENDBRANCH  10  35
TORSDOF 9
ENDMDL
MODEL 2
REMARK VINA RESULT:    -6.437      1.509      2.593
REMARK INTER + INTRA:          -9.612
REMARK INTER:                  -9.358
REMARK INTRA:                  -0.253
REMARK UNBOUND:                -0.918
REMARK SMILES O=c1c(-c2ccc(O)cc2)coc2c([C@H]3O[C@H](CO)[C@@H](O)[C@H](O)[C@H]3O)c(O)ccc12
REMARK SMILES IDX 3 1 11 2 12 3 13 4 30 5 2 6 1 7 29 8 28 9 26 10 14 11 4 12
REMARK SMILES IDX 5 13 6 14 7 15 10 16 9 17 8 18 15 20 24 21 16 22 22 23 17 24
REMARK SMILES IDX 20 25 25 26 23 28 18 30 19 31 21 33 27 35
REMARK H PARENT 8 19 25 27 23 29 19 32 21 34 27 36
REMARK Flexibility Score: inf
ROOT
ATOM      1  C   UNL     1     177.363 206.550  83.951  1.00  0.00     0.065 A 
ATOM      2  C   UNL     1     177.584 205.223  84.349  1.00  0.00     0.208 A 
ATOM      3  O   UNL     1     178.171 204.946  85.508  1.00  0.00    -0.463 OA
ATOM      4  C   UNL     1     178.585 205.883  86.356  1.00  0.00     0.147 A 
ATOM      5  C   UNL     1     178.389 207.247  86.042  1.00  0.00     0.066 A 
ATOM      6  C   UNL     1     177.760 207.576  84.828  1.00  0.00     0.200 A 
ATOM      7  O   UNL     1     177.536 208.783  84.536  1.00  0.00    -0.288 OA
ATOM      8  C   UNL     1     178.811 208.234  86.946  1.00  0.00     0.020 A 
ATOM      9  C   UNL     1     179.410 207.875  88.150  1.00  0.00     0.047 A 
ATOM     10  C   UNL     1     179.607 206.527  88.474  1.00  0.00     0.125 A 
ATOM     11  C   UNL     1     179.216 205.513  87.567  1.00  0.00     0.069 A 
ENDROOT
BRANCH   1  12
ATOM     12  C   UNL     1     176.725 206.838  82.638  1.00  0.00    -0.011 A 
ATOM     13  C   UNL     1     175.493 207.516  82.577  1.00  0.00     0.013 A 
ATOM     14  C   UNL     1     174.892 207.782  81.342  1.00  0.00     0.047 A 
ATOM     15  C   UNL     1     175.509 207.374  80.156  1.00  0.00     0.115 A 
ATOM     16  C   UNL     1     177.333 206.418  81.440  1.00  0.00     0.013 A 
ATOM     17  C   UNL     1     176.731 206.691  80.207  1.00  0.00     0.047 A 
BRANCH  15  18
ATOM     18  O   UNL     1     174.901 207.652  78.933  1.00  0.00    -0.508 OA
ATOM     19  H   UNL     1     175.443 207.905  78.117  1.00  0.00     0.293 HD
ENDBRANCH  15  18
ENDBRANCH   1  12
BRANCH  11  20
ATOM     20  C   UNL     1     179.407 204.039  87.910  1.00  0.00     0.188 C 
ATOM     21  C   UNL     1     180.606 203.414  87.134  1.00  0.00     0.179 C 
ATOM     22  O   UNL     1     178.203 203.325  87.670  1.00  0.00    -0.362 OA
ATOM     23  C   UNL     1     180.491 201.873  87.070  1.00  0.00     0.177 C 
ATOM     24  C   UNL     1     178.222 201.993  88.180  1.00  0.00     0.176 C 
ATOM     25  C   UNL     1     179.636 201.338  88.234  1.00  0.00     0.177 C 
BRANCH  21  26
ATOM     26  O   UNL     1     180.685 203.911  85.820  1.00  0.00    -0.387 OA
ATOM     27  H   UNL     1     180.249 203.247  85.224  1.00  0.00     0.211 HD
ENDBRANCH  21  26
BRANCH  23  28
ATOM     28  O   UNL     1     181.767 201.283  87.047  1.00  0.00    -0.387 OA
ATOM     29  H   UNL     1     181.694 200.394  87.489  1.00  0.00     0.211 HD
ENDBRANCH  23  28
BRANCH  24  30
ATOM     30  C   UNL     1     177.476 201.912  89.523  1.00  0.00     0.191 C 
BRANCH  30  31
ATOM     31  O   UNL     1     178.359 201.672  90.588  1.00  0.00    -0.394 OA
ATOM     32  H   UNL     1     177.809 201.621  91.414  1.00  0.00     0.210 HD
ENDBRANCH  30  31
ENDBRANCH  24  30
BRANCH  25  33
ATOM     33  O   UNL     1     179.552 199.934  88.200  1.00  0.00    -0.388 OA
ATOM     34  H   UNL     1     180.383 199.573  88.611  1.00  0.00     0.211 HD
ENDBRANCH  25  33
ENDBRANCH  11  20
BRANCH  10  35
ATOM     35  O   UNL     1     180.178 206.199  89.704  1.00  0.00    -0.507 OA
ATOM     36  H   UNL     1     180.269 205.237  90.011  1.00  0.00     0.293 HD
ENDBRANCH  10  35
TORSDOF 9
ENDMDL
MODEL 3
REMARK VINA RESULT:    -6.130      3.381      8.876
REMARK INTER + INTRA:          -9.198
REMARK INTER:                  -8.241
REMARK INTRA:                  -0.957
REMARK UNBOUND:                -0.918
REMARK SMILES O=c1c(-c2ccc(O)cc2)coc2c([C@H]3O[C@H](CO)[C@@H](O)[C@H](O)[C@H]3O)c(O)ccc12
REMARK SMILES IDX 3 1 11 2 12 3 13 4 30 5 2 6 1 7 29 8 28 9 26 10 14 11 4 12
REMARK SMILES IDX 5 13 6 14 7 15 10 16 9 17 8 18 15 20 24 21 16 22 22 23 17 24
REMARK SMILES IDX 20 25 25 26 23 28 18 30 19 31 21 33 27 35
REMARK H PARENT 8 19 25 27 23 29 19 32 21 34 27 36
REMARK Flexibility Score: inf
ROOT
ATOM      1  C   UNL     1     176.745 199.947  87.998  1.00  0.00     0.065 A 
ATOM      2  C   UNL     1     176.419 201.312  87.988  1.00  0.00     0.208 A 
ATOM      3  O   UNL     1     177.311 202.226  87.622  1.00  0.00    -0.463 OA
ATOM      4  C   UNL     1     178.551 201.924  87.248  1.00  0.00     0.147 A 
ATOM      5  C   UNL     1     178.961 200.571  87.214  1.00  0.00     0.066 A 
ATOM      6  C   UNL     1     178.038 199.577  87.585  1.00  0.00     0.200 A 
ATOM      7  O   UNL     1     178.362 198.358  87.528  1.00  0.00    -0.288 OA
ATOM      8  C   UNL     1     180.264 200.252  86.804  1.00  0.00     0.020 A 
ATOM      9  C   UNL     1     181.147 201.259  86.422  1.00  0.00     0.047 A 
ATOM     10  C   UNL     1     180.752 202.602  86.448  1.00  0.00     0.125 A 
ATOM     11  C   UNL     1     179.452 202.952  86.885  1.00  0.00     0.069 A 
ENDROOT
BRANCH   1  12
ATOM     12  C   UNL     1     175.739 198.944  88.434  1.00  0.00    -0.011 A 
ATOM     13  C   UNL     1     174.793 198.440  87.522  1.00  0.00     0.013 A 
ATOM     14  C   UNL     1     173.843 197.499  87.934  1.00  0.00     0.047 A 
ATOM     15  C   UNL     1     173.823 197.052  89.258  1.00  0.00     0.115 A 
ATOM     16  C   UNL     1     175.702 198.499  89.769  1.00  0.00     0.013 A 
ATOM     17  C   UNL     1     174.755 197.554  90.176  1.00  0.00     0.047 A 
BRANCH  15  18
ATOM     18  O   UNL     1     172.875 196.109  89.653  1.00  0.00    -0.508 OA
ATOM     19  H   UNL     1     172.613 195.338  89.052  1.00  0.00     0.293 HD
ENDBRANCH  15  18
ENDBRANCH   1  12
BRANCH  11  20
ATOM     20  C   UNL     1     178.997 204.408  86.905  1.00  0.00     0.188 C 
ATOM     21  C   UNL     1     178.643 204.923  85.476  1.00  0.00     0.179 C 
ATOM     22  O   UNL     1     179.989 205.218  87.517  1.00  0.00    -0.362 OA
ATOM     23  C   UNL     1     178.686 206.466  85.410  1.00  0.00     0.177 C 
ATOM     24  C   UNL     1     179.550 206.548  87.785  1.00  0.00     0.176 C 
ATOM     25  C   UNL     1     178.462 207.083  86.803  1.00  0.00     0.177 C 
BRANCH  21  26
ATOM     26  O   UNL     1     179.525 204.408  84.509  1.00  0.00    -0.387 OA
ATOM     27  H   UNL     1     179.911 203.570  84.876  1.00  0.00     0.211 HD
ENDBRANCH  21  26
BRANCH  23  28
ATOM     28  O   UNL     1     177.755 206.947  84.472  1.00  0.00    -0.387 OA
ATOM     29  H   UNL     1     178.267 207.320  83.705  1.00  0.00     0.211 HD
ENDBRANCH  23  28
BRANCH  24  30
ATOM     30  C   UNL     1     179.149 206.705  89.262  1.00  0.00     0.191 C 
BRANCH  30  31
ATOM     31  O   UNL     1     177.754 206.753  89.413  1.00  0.00    -0.394 OA
ATOM     32  H   UNL     1     177.544 207.592  89.902  1.00  0.00     0.210 HD
ENDBRANCH  30  31
ENDBRANCH  24  30
BRANCH  25  33
ATOM     33  O   UNL     1     178.470 208.489  86.745  1.00  0.00    -0.388 OA
ATOM     34  H   UNL     1     177.530 208.791  86.629  1.00  0.00     0.211 HD
ENDBRANCH  25  33
ENDBRANCH  11  20
BRANCH  10  35
ATOM     35  O   UNL     1     181.648 203.584  86.025  1.00  0.00    -0.507 OA
ATOM     36  H   UNL     1     182.532 203.347  85.588  1.00  0.00     0.293 HD
ENDBRANCH  10  35
TORSDOF 9
ENDMDL
MODEL 4
REMARK VINA RESULT:    -5.975      4.201      7.972
REMARK INTER + INTRA:          -8.988
REMARK INTER:                  -7.983
REMARK INTRA:                  -1.005
REMARK UNBOUND:                -0.918
REMARK SMILES O=c1c(-c2ccc(O)cc2)coc2c([C@H]3O[C@H](CO)[C@@H](O)[C@H](O)[C@H]3O)c(O)ccc12
REMARK SMILES IDX 3 1 11 2 12 3 13 4 30 5 2 6 1 7 29 8 28 9 26 10 14 11 4 12
REMARK SMILES IDX 5 13 6 14 7 15 10 16 9 17 8 18 15 20 24 21 16 22 22 23 17 24
REMARK SMILES IDX 20 25 25 26 23 28 18 30 19 31 21 33 27 35
REMARK H PARENT 8 19 25 27 23 29 19 32 21 34 27 36
REMARK Flexibility Score: inf
ROOT
ATOM      1  C   UNL     1     178.605 199.760  84.065  1.00  0.00     0.065 A 
ATOM      2  C   UNL     1     179.309 200.917  84.432  1.00  0.00     0.208 A 
ATOM      3  O   UNL     1     178.999 201.584  85.539  1.00  0.00    -0.463 OA
ATOM      4  C   UNL     1     178.020 201.215  86.360  1.00  0.00     0.147 A 
ATOM      5  C   UNL     1     177.269 200.052  86.075  1.00  0.00     0.066 A 
ATOM      6  C   UNL     1     177.578 199.315  84.917  1.00  0.00     0.200 A 
ATOM      7  O   UNL     1     176.951 198.252  84.655  1.00  0.00    -0.288 OA
ATOM      8  C   UNL     1     176.247 199.654  86.951  1.00  0.00     0.020 A 
ATOM      9  C   UNL     1     175.981 200.392  88.101  1.00  0.00     0.047 A 
ATOM     10  C   UNL     1     176.720 201.544  88.396  1.00  0.00     0.125 A 
ATOM     11  C   UNL     1     177.736 201.983  87.514  1.00  0.00     0.069 A 
ENDROOT
BRANCH   1  12
ATOM     12  C   UNL     1     178.954 199.043  82.810  1.00  0.00    -0.011 A 
ATOM     13  C   UNL     1     178.551 199.553  81.561  1.00  0.00     0.013 A 
ATOM     14  C   UNL     1     178.875 198.875  80.381  1.00  0.00     0.047 A 
ATOM     15  C   UNL     1     179.602 197.682  80.431  1.00  0.00     0.115 A 
ATOM     16  C   UNL     1     179.673 197.833  82.852  1.00  0.00     0.013 A 
ATOM     17  C   UNL     1     180.000 197.161  81.670  1.00  0.00     0.047 A 
BRANCH  15  18
ATOM     18  O   UNL     1     179.923 197.022  79.247  1.00  0.00    -0.508 OA
ATOM     19  H   UNL     1     180.851 196.652  79.081  1.00  0.00     0.293 HD
ENDBRANCH  15  18
ENDBRANCH   1  12
BRANCH  11  20
ATOM     20  C   UNL     1     178.564 203.225  87.827  1.00  0.00     0.188 C 
ATOM     21  C   UNL     1     179.675 202.930  88.880  1.00  0.00     0.179 C 
ATOM     22  O   UNL     1     177.714 204.280  88.250  1.00  0.00    -0.362 OA
ATOM     23  C   UNL     1     180.156 204.229  89.567  1.00  0.00     0.177 C 
ATOM     24  C   UNL     1     178.375 205.541  88.340  1.00  0.00     0.176 C 
ATOM     25  C   UNL     1     179.898 205.453  88.669  1.00  0.00     0.177 C 
BRANCH  21  26
ATOM     26  O   UNL     1     179.223 202.041  89.871  1.00  0.00    -0.387 OA
ATOM     27  H   UNL     1     178.292 201.785  89.638  1.00  0.00     0.211 HD
ENDBRANCH  21  26
BRANCH  23  28
ATOM     28  O   UNL     1     181.511 204.125  89.928  1.00  0.00    -0.387 OA
ATOM     29  H   UNL     1     181.988 203.676  89.178  1.00  0.00     0.211 HD
ENDBRANCH  23  28
BRANCH  24  30
ATOM     30  C   UNL     1     178.082 206.402  87.100  1.00  0.00     0.191 C 
BRANCH  30  31
ATOM     31  O   UNL     1     179.250 207.002  86.603  1.00  0.00    -0.394 OA
ATOM     32  H   UNL     1     179.039 207.961  86.447  1.00  0.00     0.210 HD
ENDBRANCH  30  31
ENDBRANCH  24  30
BRANCH  25  33
ATOM     33  O   UNL     1     180.360 206.636  89.275  1.00  0.00    -0.388 OA
ATOM     34  H   UNL     1     180.314 207.360  88.595  1.00  0.00     0.211 HD
ENDBRANCH  25  33
ENDBRANCH  11  20
BRANCH  10  35
ATOM     35  O   UNL     1     176.452 202.242  89.574  1.00  0.00    -0.507 OA
ATOM     36  H   UNL     1     175.601 202.780  89.694  1.00  0.00     0.293 HD
ENDBRANCH  10  35
TORSDOF 9
ENDMDL
MODEL 5
REMARK VINA RESULT:    -5.811     12.214     16.872
REMARK INTER + INTRA:          -8.767
REMARK INTER:                  -7.814
REMARK INTRA:                  -0.953
REMARK UNBOUND:                -0.918
REMARK SMILES O=c1c(-c2ccc(O)cc2)coc2c([C@H]3O[C@H](CO)[C@@H](O)[C@H](O)[C@H]3O)c(O)ccc12
REMARK SMILES IDX 3 1 11 2 12 3 13 4 30 5 2 6 1 7 29 8 28 9 26 10 14 11 4 12
REMARK SMILES IDX 5 13 6 14 7 15 10 16 9 17 8 18 15 20 24 21 16 22 22 23 17 24
REMARK SMILES IDX 20 25 25 26 23 28 18 30 19 31 21 33 27 35
REMARK H PARENT 8 19 25 27 23 29 19 32 21 34 27 36
REMARK Flexibility Score: inf
ROOT
ATOM      1  C   UNL     1     184.161 193.908  82.146  1.00  0.00     0.065 A 
ATOM      2  C   UNL     1     185.264 194.661  82.574  1.00  0.00     0.208 A 
ATOM      3  O   UNL     1     186.506 194.265  82.314  1.00  0.00    -0.463 OA
ATOM      4  C   UNL     1     186.789 193.149  81.647  1.00  0.00     0.147 A 
ATOM      5  C   UNL     1     185.737 192.337  81.166  1.00  0.00     0.066 A 
ATOM      6  C   UNL     1     184.410 192.732  81.413  1.00  0.00     0.200 A 
ATOM      7  O   UNL     1     183.450 192.049  80.964  1.00  0.00    -0.288 OA
ATOM      8  C   UNL     1     186.036 191.168  80.448  1.00  0.00     0.020 A 
ATOM      9  C   UNL     1     187.360 190.816  80.201  1.00  0.00     0.047 A 
ATOM     10  C   UNL     1     188.411 191.615  80.669  1.00  0.00     0.125 A 
ATOM     11  C   UNL     1     188.136 192.782  81.421  1.00  0.00     0.069 A 
ENDROOT
BRANCH   1  12
ATOM     12  C   UNL     1     182.781 194.358  82.468  1.00  0.00    -0.011 A 
ATOM     13  C   UNL     1     182.155 193.943  83.659  1.00  0.00     0.013 A 
ATOM     14  C   UNL     1     180.855 194.364  83.959  1.00  0.00     0.047 A 
ATOM     15  C   UNL     1     180.163 195.199  83.077  1.00  0.00     0.115 A 
ATOM     16  C   UNL     1     182.072 195.187  81.579  1.00  0.00     0.013 A 
ATOM     17  C   UNL     1     180.774 195.610  81.885  1.00  0.00     0.047 A 
BRANCH  15  18
ATOM     18  O   UNL     1     178.871 195.614  83.393  1.00  0.00    -0.508 OA
ATOM     19  H   UNL     1     178.601 195.830  84.345  1.00  0.00     0.293 HD
ENDBRANCH  15  18
ENDBRANCH   1  12
BRANCH  11  20
ATOM     20  C   UNL     1     189.266 193.674  81.924  1.00  0.00     0.188 C 
ATOM     21  C   UNL     1     189.577 194.833  80.928  1.00  0.00     0.179 C 
ATOM     22  O   UNL     1     190.420 192.891  82.188  1.00  0.00    -0.362 OA
ATOM     23  C   UNL     1     190.996 195.403  81.156  1.00  0.00     0.177 C 
ATOM     24  C   UNL     1     191.445 193.606  82.878  1.00  0.00     0.176 C 
ATOM     25  C   UNL     1     191.468 195.140  82.599  1.00  0.00     0.177 C 
BRANCH  21  26
ATOM     26  O   UNL     1     189.476 194.405  79.592  1.00  0.00    -0.387 OA
ATOM     27  H   UNL     1     189.807 195.144  79.018  1.00  0.00     0.211 HD
ENDBRANCH  21  26
BRANCH  23  28
ATOM     28  O   UNL     1     191.036 196.771  80.837  1.00  0.00    -0.387 OA
ATOM     29  H   UNL     1     191.015 197.280  81.692  1.00  0.00     0.211 HD
ENDBRANCH  23  28
BRANCH  24  30
ATOM     30  C   UNL     1     191.425 193.274  84.380  1.00  0.00     0.191 C 
BRANCH  30  31
ATOM     31  O   UNL     1     192.719 193.283  84.925  1.00  0.00    -0.394 OA
ATOM     32  H   UNL     1     192.693 193.875  85.723  1.00  0.00     0.210 HD
ENDBRANCH  30  31
ENDBRANCH  24  30
BRANCH  25  33
ATOM     33  O   UNL     1     192.747 195.682  82.822  1.00  0.00    -0.388 OA
ATOM     34  H   UNL     1     192.849 195.816  83.802  1.00  0.00     0.211 HD
ENDBRANCH  25  33
ENDBRANCH  11  20
BRANCH  10  35
ATOM     35  O   UNL     1     189.726 191.252  80.374  1.00  0.00    -0.507 OA
ATOM     36  H   UNL     1     189.943 190.405  79.862  1.00  0.00     0.293 HD
ENDBRANCH  10  35
TORSDOF 9
ENDMDL
MODEL 6
REMARK VINA RESULT:    -5.783      2.347      4.289
REMARK INTER + INTRA:          -8.730
REMARK INTER:                  -7.621
REMARK INTRA:                  -1.109
REMARK UNBOUND:                -0.918
REMARK SMILES O=c1c(-c2ccc(O)cc2)coc2c([C@H]3O[C@H](CO)[C@@H](O)[C@H](O)[C@H]3O)c(O)ccc12
REMARK SMILES IDX 3 1 11 2 12 3 13 4 30 5 2 6 1 7 29 8 28 9 26 10 14 11 4 12
REMARK SMILES IDX 5 13 6 14 7 15 10 16 9 17 8 18 15 20 24 21 16 22 22 23 17 24
REMARK SMILES IDX 20 25 25 26 23 28 18 30 19 31 21 33 27 35
REMARK H PARENT 8 19 25 27 23 29 19 32 21 34 27 36
REMARK Flexibility Score: inf
ROOT
ATOM      1  C   UNL     1     176.717 205.714  83.112  1.00  0.00     0.065 A 
ATOM      2  C   UNL     1     176.864 205.705  84.507  1.00  0.00     0.208 A 
ATOM      3  O   UNL     1     177.467 204.695  85.125  1.00  0.00    -0.463 OA
ATOM      4  C   UNL     1     177.962 203.641  84.483  1.00  0.00     0.147 A 
ATOM      5  C   UNL     1     177.871 203.575  83.074  1.00  0.00     0.066 A 
ATOM      6  C   UNL     1     177.249 204.632  82.387  1.00  0.00     0.200 A 
ATOM      7  O   UNL     1     177.186 204.621  81.126  1.00  0.00    -0.288 OA
ATOM      8  C   UNL     1     178.409 202.470  82.396  1.00  0.00     0.020 A 
ATOM      9  C   UNL     1     179.039 201.450  83.104  1.00  0.00     0.047 A 
ATOM     10  C   UNL     1     179.139 201.506  84.500  1.00  0.00     0.125 A 
ATOM     11  C   UNL     1     178.578 202.595  85.209  1.00  0.00     0.069 A 
ENDROOT
BRANCH   1  12
ATOM     12  C   UNL     1     176.018 206.844  82.444  1.00  0.00    -0.011 A 
ATOM     13  C   UNL     1     176.672 208.076  82.255  1.00  0.00     0.013 A 
ATOM     14  C   UNL     1     176.011 209.140  81.630  1.00  0.00     0.047 A 
ATOM     15  C   UNL     1     174.694 208.989  81.189  1.00  0.00     0.115 A 
ATOM     16  C   UNL     1     174.686 206.705  82.010  1.00  0.00     0.013 A 
ATOM     17  C   UNL     1     174.031 207.769  81.381  1.00  0.00     0.047 A 
BRANCH  15  18
ATOM     18  O   UNL     1     174.052 210.055  80.563  1.00  0.00    -0.508 OA
ATOM     19  H   UNL     1     173.856 210.047  79.570  1.00  0.00     0.293 HD
ENDBRANCH  15  18
ENDBRANCH   1  12
BRANCH  11  20
ATOM     20  C   UNL     1     178.692 202.683  86.728  1.00  0.00     0.188 C 
ATOM     21  C   UNL     1     180.061 203.283  87.172  1.00  0.00     0.179 C 
ATOM     22  O   UNL     1     178.473 201.404  87.305  1.00  0.00    -0.362 OA
ATOM     23  C   UNL     1     180.389 202.908  88.636  1.00  0.00     0.177 C 
ATOM     24  C   UNL     1     178.331 201.439  88.724  1.00  0.00     0.176 C 
ATOM     25  C   UNL     1     179.102 202.600  89.425  1.00  0.00     0.177 C 
BRANCH  21  26
ATOM     26  O   UNL     1     181.111 202.836  86.350  1.00  0.00    -0.387 OA
ATOM     27  H   UNL     1     180.957 201.872  86.170  1.00  0.00     0.211 HD
ENDBRANCH  21  26
BRANCH  23  28
ATOM     28  O   UNL     1     181.145 203.922  89.249  1.00  0.00    -0.387 OA
ATOM     29  H   UNL     1     181.087 203.786  90.233  1.00  0.00     0.211 HD
ENDBRANCH  23  28
BRANCH  24  30
ATOM     30  C   UNL     1     176.848 201.380  89.127  1.00  0.00     0.191 C 
BRANCH  30  31
ATOM     31  O   UNL     1     176.434 202.574  89.739  1.00  0.00    -0.394 OA
ATOM     32  H   UNL     1     175.456 202.495  89.894  1.00  0.00     0.210 HD
ENDBRANCH  30  31
ENDBRANCH  24  30
BRANCH  25  33
ATOM     33  O   UNL     1     179.391 202.287  90.766  1.00  0.00    -0.388 OA
ATOM     34  H   UNL     1     179.288 203.120  91.299  1.00  0.00     0.211 HD
ENDBRANCH  25  33
ENDBRANCH  11  20
BRANCH  10  35
ATOM     35  O   UNL     1     179.806 200.485  85.176  1.00  0.00    -0.507 OA
ATOM     36  H   UNL     1     180.609 200.014  84.774  1.00  0.00     0.293 HD
ENDBRANCH  10  35
TORSDOF 9
ENDMDL
MODEL 7
REMARK VINA RESULT:    -5.733      3.356      5.281
REMARK INTER + INTRA:          -8.661
REMARK INTER:                  -7.586
REMARK INTRA:                  -1.075
REMARK UNBOUND:                -0.918
REMARK SMILES O=c1c(-c2ccc(O)cc2)coc2c([C@H]3O[C@H](CO)[C@@H](O)[C@H](O)[C@H]3O)c(O)ccc12
REMARK SMILES IDX 3 1 11 2 12 3 13 4 30 5 2 6 1 7 29 8 28 9 26 10 14 11 4 12
REMARK SMILES IDX 5 13 6 14 7 15 10 16 9 17 8 18 15 20 24 21 16 22 22 23 17 24
REMARK SMILES IDX 20 25 25 26 23 28 18 30 19 31 21 33 27 35
REMARK H PARENT 8 19 25 27 23 29 19 32 21 34 27 36
REMARK Flexibility Score: inf
ROOT
ATOM      1  C   UNL     1     177.354 204.130  82.002  1.00  0.00     0.065 A 
ATOM      2  C   UNL     1     177.451 204.449  83.365  1.00  0.00     0.208 A 
ATOM      3  O   UNL     1     177.890 203.557  84.247  1.00  0.00    -0.463 OA
ATOM      4  C   UNL     1     178.258 202.323  83.912  1.00  0.00     0.147 A 
ATOM      5  C   UNL     1     178.206 201.922  82.557  1.00  0.00     0.066 A 
ATOM      6  C   UNL     1     177.758 202.845  81.596  1.00  0.00     0.200 A 
ATOM      7  O   UNL     1     177.737 202.530  80.374  1.00  0.00    -0.288 OA
ATOM      8  C   UNL     1     178.611 200.626  82.203  1.00  0.00     0.020 A 
ATOM      9  C   UNL     1     179.071 199.743  83.176  1.00  0.00     0.047 A 
ATOM     10  C   UNL     1     179.131 200.130  84.520  1.00  0.00     0.125 A 
ATOM     11  C   UNL     1     178.701 201.422  84.908  1.00  0.00     0.069 A 
ENDROOT
BRANCH   1  12
ATOM     12  C   UNL     1     176.838 205.137  81.037  1.00  0.00    -0.011 A 
ATOM     13  C   UNL     1     177.724 206.001  80.367  1.00  0.00     0.013 A 
ATOM     14  C   UNL     1     177.238 206.952  79.462  1.00  0.00     0.047 A 
ATOM     15  C   UNL     1     175.865 207.052  79.216  1.00  0.00     0.115 A 
ATOM     16  C   UNL     1     175.457 205.255  80.794  1.00  0.00     0.013 A 
ATOM     17  C   UNL     1     174.975 206.202  79.885  1.00  0.00     0.047 A 
BRANCH  15  18
ATOM     18  O   UNL     1     175.397 207.999  78.307  1.00  0.00    -0.508 OA
ATOM     19  H   UNL     1     174.680 208.668  78.561  1.00  0.00     0.293 HD
ENDBRANCH  15  18
ENDBRANCH   1  12
BRANCH  11  20
ATOM     20  C   UNL     1     178.774 201.868  86.365  1.00  0.00     0.188 C 
ATOM     21  C   UNL     1     180.119 202.590  86.682  1.00  0.00     0.179 C 
ATOM     22  O   UNL     1     178.566 200.757  87.223  1.00  0.00    -0.362 OA
ATOM     23  C   UNL     1     180.417 202.579  88.199  1.00  0.00     0.177 C 
ATOM     24  C   UNL     1     178.388 201.122  88.590  1.00  0.00     0.176 C 
ATOM     25  C   UNL     1     179.117 202.434  89.012  1.00  0.00     0.177 C 
BRANCH  21  26
ATOM     26  O   UNL     1     181.198 201.989  86.010  1.00  0.00    -0.387 OA
ATOM     27  H   UNL     1     181.758 202.719  85.635  1.00  0.00     0.211 HD
ENDBRANCH  21  26
BRANCH  23  28
ATOM     28  O   UNL     1     181.137 203.728  88.570  1.00  0.00    -0.387 OA
ATOM     29  H   UNL     1     182.071 203.615  88.244  1.00  0.00     0.211 HD
ENDBRANCH  23  28
BRANCH  24  30
ATOM     30  C   UNL     1     176.896 201.122  88.966  1.00  0.00     0.191 C 
BRANCH  30  31
ATOM     31  O   UNL     1     176.554 202.262  89.710  1.00  0.00    -0.394 OA
ATOM     32  H   UNL     1     175.613 202.143  90.006  1.00  0.00     0.210 HD
ENDBRANCH  30  31
ENDBRANCH  24  30
BRANCH  25  33
ATOM     33  O   UNL     1     179.378 202.453  90.395  1.00  0.00    -0.388 OA
ATOM     34  H   UNL     1     179.718 203.359  90.625  1.00  0.00     0.211 HD
ENDBRANCH  25  33
ENDBRANCH  11  20
BRANCH  10  35
ATOM     35  O   UNL     1     179.630 199.234  85.466  1.00  0.00    -0.507 OA
ATOM     36  H   UNL     1     179.626 198.233  85.306  1.00  0.00     0.293 HD
ENDBRANCH  10  35
TORSDOF 9
ENDMDL
MODEL 8
REMARK VINA RESULT:    -5.655     15.796     18.632
REMARK INTER + INTRA:          -8.557
REMARK INTER:                  -7.909
REMARK INTRA:                  -0.648
REMARK UNBOUND:                -0.918
REMARK SMILES O=c1c(-c2ccc(O)cc2)coc2c([C@H]3O[C@H](CO)[C@@H](O)[C@H](O)[C@H]3O)c(O)ccc12
REMARK SMILES IDX 3 1 11 2 12 3 13 4 30 5 2 6 1 7 29 8 28 9 26 10 14 11 4 12
REMARK SMILES IDX 5 13 6 14 7 15 10 16 9 17 8 18 15 20 24 21 16 22 22 23 17 24
REMARK SMILES IDX 20 25 25 26 23 28 18 30 19 31 21 33 27 35
REMARK H PARENT 8 19 25 27 23 29 19 32 21 34 27 36
REMARK Flexibility Score: inf
ROOT
ATOM      1  C   UNL     1     187.629 193.206  83.992  1.00  0.00     0.065 A 
ATOM      2  C   UNL     1     187.424 193.559  82.650  1.00  0.00     0.208 A 
ATOM      3  O   UNL     1     188.443 193.908  81.871  1.00  0.00    -0.463 OA
ATOM      4  C   UNL     1     189.702 193.952  82.297  1.00  0.00     0.147 A 
ATOM      5  C   UNL     1     190.001 193.597  83.632  1.00  0.00     0.066 A 
ATOM      6  C   UNL     1     188.948 193.210  84.480  1.00  0.00     0.200 A 
ATOM      7  O   UNL     1     189.188 192.851  85.666  1.00  0.00    -0.288 OA
ATOM      8  C   UNL     1     191.333 193.626  84.075  1.00  0.00     0.020 A 
ATOM      9  C   UNL     1     192.355 193.992  83.204  1.00  0.00     0.047 A 
ATOM     10  C   UNL     1     192.072 194.342  81.878  1.00  0.00     0.125 A 
ATOM     11  C   UNL     1     190.734 194.348  81.415  1.00  0.00     0.069 A 
ENDROOT
BRANCH   1  12
ATOM     12  C   UNL     1     186.471 192.840  84.851  1.00  0.00    -0.011 A 
ATOM     13  C   UNL     1     186.441 193.220  86.206  1.00  0.00     0.013 A 
ATOM     14  C   UNL     1     185.354 192.872  87.015  1.00  0.00     0.047 A 
ATOM     15  C   UNL     1     184.287 192.140  86.485  1.00  0.00     0.115 A 
ATOM     16  C   UNL     1     185.400 192.091  84.329  1.00  0.00     0.013 A 
ATOM     17  C   UNL     1     184.313 191.749  85.139  1.00  0.00     0.047 A 
BRANCH  15  18
ATOM     18  O   UNL     1     183.208 191.806  87.301  1.00  0.00    -0.508 OA
ATOM     19  H   UNL     1     182.253 191.884  86.975  1.00  0.00     0.293 HD
ENDBRANCH  15  18
ENDBRANCH   1  12
BRANCH  11  20
ATOM     20  C   UNL     1     190.408 194.710  79.969  1.00  0.00     0.188 C 
ATOM     21  C   UNL     1     190.531 193.478  79.022  1.00  0.00     0.179 C 
ATOM     22  O   UNL     1     191.234 195.781  79.539  1.00  0.00    -0.362 OA
ATOM     23  C   UNL     1     190.710 193.917  77.551  1.00  0.00     0.177 C 
ATOM     24  C   UNL     1     190.839 196.334  78.285  1.00  0.00     0.176 C 
ATOM     25  C   UNL     1     190.133 195.327  77.325  1.00  0.00     0.177 C 
BRANCH  21  26
ATOM     26  O   UNL     1     191.616 192.658  79.381  1.00  0.00    -0.387 OA
ATOM     27  H   UNL     1     192.363 193.256  79.649  1.00  0.00     0.211 HD
ENDBRANCH  21  26
BRANCH  23  28
ATOM     28  O   UNL     1     190.136 192.974  76.680  1.00  0.00    -0.387 OA
ATOM     29  H   UNL     1     189.763 193.471  75.903  1.00  0.00     0.211 HD
ENDBRANCH  23  28
BRANCH  24  30
ATOM     30  C   UNL     1     190.033 197.628  78.487  1.00  0.00     0.191 C 
BRANCH  30  31
ATOM     31  O   UNL     1     188.744 197.522  77.941  1.00  0.00    -0.394 OA
ATOM     32  H   UNL     1     188.722 198.105  77.137  1.00  0.00     0.210 HD
ENDBRANCH  30  31
ENDBRANCH  24  30
BRANCH  25  33
ATOM     33  O   UNL     1     190.266 195.721  75.981  1.00  0.00    -0.388 OA
ATOM     34  H   UNL     1     190.372 196.710  75.966  1.00  0.00     0.211 HD
ENDBRANCH  25  33
ENDBRANCH  11  20
BRANCH  10  35
ATOM     35  O   UNL     1     193.123 194.669  81.021  1.00  0.00    -0.507 OA
ATOM     36  H   UNL     1     193.305 195.627  80.741  1.00  0.00     0.293 HD
ENDBRANCH  10  35
TORSDOF 9
ENDMDL
MODEL 9
REMARK VINA RESULT:    -3.969     12.915     16.206
REMARK INTER + INTRA:          -6.279
REMARK INTER:                  -5.265
REMARK INTRA:                  -1.013
REMARK UNBOUND:                -0.918
REMARK SMILES O=c1c(-c2ccc(O)cc2)coc2c([C@H]3O[C@H](CO)[C@@H](O)[C@H](O)[C@H]3O)c(O)ccc12
REMARK SMILES IDX 3 1 11 2 12 3 13 4 30 5 2 6 1 7 29 8 28 9 26 10 14 11 4 12
REMARK SMILES IDX 5 13 6 14 7 15 10 16 9 17 8 18 15 20 24 21 16 22 22 23 17 24
REMARK SMILES IDX 20 25 25 26 23 28 18 30 19 31 21 33 27 35
REMARK H PARENT 8 19 25 27 23 29 19 32 21 34 27 36
REMARK Flexibility Score: inf
ROOT
ATOM      1  C   UNL     1     184.330 194.553  81.114  1.00  0.00     0.065 A 
ATOM      2  C   UNL     1     185.591 194.832  80.565  1.00  0.00     0.208 A 
ATOM      3  O   UNL     1     186.704 194.565  81.240  1.00  0.00    -0.463 OA
ATOM      4  C   UNL     1     186.707 194.031  82.458  1.00  0.00     0.147 A 
ATOM      5  C   UNL     1     185.481 193.704  83.080  1.00  0.00     0.066 A 
ATOM      6  C   UNL     1     184.283 193.961  82.390  1.00  0.00     0.200 A 
ATOM      7  O   UNL     1     183.174 193.646  82.903  1.00  0.00    -0.288 OA
ATOM      8  C   UNL     1     185.485 193.124  84.358  1.00  0.00     0.020 A 
ATOM      9  C   UNL     1     186.689 192.861  85.006  1.00  0.00     0.047 A 
ATOM     10  C   UNL     1     187.911 193.177  84.398  1.00  0.00     0.125 A 
ATOM     11  C   UNL     1     187.932 193.789  83.122  1.00  0.00     0.069 A 
ENDROOT
BRANCH   1  12
ATOM     12  C   UNL     1     183.096 194.881  80.351  1.00  0.00    -0.011 A 
ATOM     13  C   UNL     1     182.745 194.135  79.210  1.00  0.00     0.013 A 
ATOM     14  C   UNL     1     181.586 194.447  78.489  1.00  0.00     0.047 A 
ATOM     15  C   UNL     1     180.768 195.505  78.896  1.00  0.00     0.115 A 
ATOM     16  C   UNL     1     182.274 195.953  80.745  1.00  0.00     0.013 A 
ATOM     17  C   UNL     1     181.114 196.259  80.025  1.00  0.00     0.047 A 
BRANCH  15  18
ATOM     18  O   UNL     1     179.614 195.799  78.172  1.00  0.00    -0.508 OA
ATOM     19  H   UNL     1     178.699 195.786  78.605  1.00  0.00     0.293 HD
ENDBRANCH  15  18
ENDBRANCH   1  12
BRANCH  11  20
ATOM     20  C   UNL     1     189.253 194.124  82.436  1.00  0.00     0.188 C 
ATOM     21  C   UNL     1     189.742 192.961  81.521  1.00  0.00     0.179 C 
ATOM     22  O   UNL     1     190.229 194.468  83.407  1.00  0.00    -0.362 OA
ATOM     23  C   UNL     1     191.260 193.063  81.247  1.00  0.00     0.177 C 
ATOM     24  C   UNL     1     191.420 195.018  82.844  1.00  0.00     0.176 C 
ATOM     25  C   UNL     1     191.749 194.515  81.405  1.00  0.00     0.177 C 
BRANCH  21  26
ATOM     26  O   UNL     1     189.475 191.706  82.097  1.00  0.00    -0.387 OA
ATOM     27  H   UNL     1     189.884 191.017  81.510  1.00  0.00     0.211 HD
ENDBRANCH  21  26
BRANCH  23  28
ATOM     28  O   UNL     1     191.569 192.545  79.977  1.00  0.00    -0.387 OA
ATOM     29  H   UNL     1     191.899 193.299  79.418  1.00  0.00     0.211 HD
ENDBRANCH  23  28
BRANCH  24  30
ATOM     30  C   UNL     1     191.419 196.552  82.954  1.00  0.00     0.191 C 
BRANCH  30  31
ATOM     31  O   UNL     1     191.626 197.156  81.704  1.00  0.00    -0.394 OA
ATOM     32  H   UNL     1     191.887 198.099  81.878  1.00  0.00     0.210 HD
ENDBRANCH  30  31
ENDBRANCH  24  30
BRANCH  25  33
ATOM     33  O   UNL     1     193.125 194.621  81.128  1.00  0.00    -0.388 OA
ATOM     34  H   UNL     1     193.253 194.423  80.161  1.00  0.00     0.211 HD
ENDBRANCH  25  33
ENDBRANCH  11  20
BRANCH  10  35
ATOM     35  O   UNL     1     189.100 192.868  85.059  1.00  0.00    -0.507 OA
ATOM     36  H   UNL     1     189.129 192.710  86.060  1.00  0.00     0.293 HD
ENDBRANCH  10  35
TORSDOF 9
ENDMDL
