MODEL 1
REMARK VINA RESULT:    -4.586      0.000      0.000
REMARK INTER + INTRA:          -5.150
REMARK INTER:                  -4.989
REMARK INTRA:                  -0.161
REMARK UNBOUND:                -0.161
REMARK SMILES C=C(C)[C@@H]1CC[C@H](C)C[C@@H]1O
REMARK SMILES IDX 8 1 7 2 6 3 5 4 4 5 10 6 9 7 11 8 2 10 1 11 3 12
REMARK H PARENT 11 9
REMARK Flexibility Score: inf
ROOT
ATOM      1  C   UNL     1      31.698  10.625   2.702  1.00  0.00     0.008 C 
ATOM      2  C   UNL     1      33.067  11.007   2.119  1.00  0.00    -0.012 C 
ATOM      3  C   UNL     1      33.750  12.123   2.934  1.00  0.00     0.004 C 
ATOM      4  C   UNL     1      34.367  11.616   4.247  1.00  0.00     0.011 C 
ATOM      5  C   UNL     1      35.352  10.453   3.985  1.00  0.00     0.043 C 
ATOM      6  C   UNL     1      34.626   9.284   3.243  1.00  0.00     0.121 C 
ATOM      7  C   UNL     1      34.000   9.789   1.930  1.00  0.00     0.035 C 
ENDROOT
BRANCH   6   8
ATOM      8  O   UNL     1      33.637   8.621   4.003  1.00  0.00    -0.392 OA
ATOM      9  H   UNL     1      33.298   9.216   4.719  1.00  0.00     0.210 HD
ENDBRANCH   6   8
BRANCH   5  10
ATOM     10  C   UNL     1      36.131  10.070   5.250  1.00  0.00    -0.075 C 
ATOM     11  C   UNL     1      37.385   9.578   5.236  1.00  0.00     0.008 C 
ATOM     12  C   UNL     1      35.511  10.344   6.599  1.00  0.00     0.039 C 
ENDBRANCH   5  10
TORSDOF 2
ENDMDL
MODEL 2
REMARK VINA RESULT:    -4.517     14.810     16.316
REMARK INTER + INTRA:          -5.074
REMARK INTER:                  -4.916
REMARK INTRA:                  -0.159
REMARK UNBOUND:                -0.161
REMARK SMILES C=C(C)[C@@H]1CC[C@H](C)C[C@@H]1O
REMARK SMILES IDX 8 1 7 2 6 3 5 4 4 5 10 6 9 7 11 8 2 10 1 11 3 12
REMARK H PARENT 11 9
REMARK Flexibility Score: inf
ROOT
ATOM      1  C   UNL     1      42.978  -0.210  -6.124  1.00  0.00     0.008 C 
ATOM      2  C   UNL     1      43.132   1.257  -5.691  1.00  0.00    -0.012 C 
ATOM      3  C   UNL     1      44.123   2.022  -6.591  1.00  0.00     0.004 C 
ATOM      4  C   UNL     1      43.523   2.408  -7.952  1.00  0.00     0.011 C 
ATOM      5  C   UNL     1      42.215   3.214  -7.775  1.00  0.00     0.043 C 
ATOM      6  C   UNL     1      41.179   2.389  -6.943  1.00  0.00     0.121 C 
ATOM      7  C   UNL     1      41.778   1.995  -5.580  1.00  0.00     0.035 C 
ENDROOT
BRANCH   6   8
ATOM      8  O   UNL     1      40.686   1.232  -7.585  1.00  0.00    -0.392 OA
ATOM      9  H   UNL     1      40.312   0.603  -6.917  1.00  0.00     0.210 HD
ENDBRANCH   6   8
BRANCH   5  10
ATOM     10  C   UNL     1      41.711   3.783  -9.107  1.00  0.00    -0.075 C 
ATOM     11  C   UNL     1      41.940   3.204 -10.302  1.00  0.00     0.008 C 
ATOM     12  C   UNL     1      40.823   5.004  -9.090  1.00  0.00     0.039 C 
ENDBRANCH   5  10
TORSDOF 2
ENDMDL
MODEL 3
REMARK VINA RESULT:    -4.250      2.232      4.497
REMARK INTER + INTRA:          -4.783
REMARK INTER:                  -4.627
REMARK INTRA:                  -0.157
REMARK UNBOUND:                -0.161
REMARK SMILES C=C(C)[C@@H]1CC[C@H](C)C[C@@H]1O
REMARK SMILES IDX 8 1 7 2 6 3 5 4 4 5 10 6 9 7 11 8 2 10 1 11 3 12
REMARK H PARENT 11 9
REMARK Flexibility Score: inf
ROOT
ATOM      1  C   UNL     1      35.321   5.661   5.684  1.00  0.00     0.008 C 
ATOM      2  C   UNL     1      36.461   6.631   5.335  1.00  0.00    -0.012 C 
ATOM      3  C   UNL     1      36.573   6.867   3.816  1.00  0.00     0.004 C 
ATOM      4  C   UNL     1      35.496   7.820   3.274  1.00  0.00     0.011 C 
ATOM      5  C   UNL     1      35.511   9.165   4.036  1.00  0.00     0.043 C 
ATOM      6  C   UNL     1      35.298   8.925   5.566  1.00  0.00     0.121 C 
ATOM      7  C   UNL     1      36.372   7.965   6.112  1.00  0.00     0.035 C 
ENDROOT
BRANCH   6   8
ATOM      8  O   UNL     1      34.020   8.440   5.920  1.00  0.00    -0.392 OA
ATOM      9  H   UNL     1      33.358   9.177   5.908  1.00  0.00     0.210 HD
ENDBRANCH   6   8
BRANCH   5  10
ATOM     10  C   UNL     1      34.588  10.201   3.381  1.00  0.00    -0.075 C 
ATOM     11  C   UNL     1      34.313  11.405   3.919  1.00  0.00     0.008 C 
ATOM     12  C   UNL     1      34.027   9.914   2.009  1.00  0.00     0.039 C 
ENDBRANCH   5  10
TORSDOF 2
ENDMDL
MODEL 4
REMARK VINA RESULT:    -4.188     14.228     15.353
REMARK INTER + INTRA:          -4.716
REMARK INTER:                  -4.555
REMARK INTRA:                  -0.161
REMARK UNBOUND:                -0.161
REMARK SMILES C=C(C)[C@@H]1CC[C@H](C)C[C@@H]1O
REMARK SMILES IDX 8 1 7 2 6 3 5 4 4 5 10 6 9 7 11 8 2 10 1 11 3 12
REMARK H PARENT 11 9
REMARK Flexibility Score: inf
ROOT
ATOM      1  C   UNL     1      37.647   3.054  -9.488  1.00  0.00     0.008 C 
ATOM      2  C   UNL     1      38.669   4.188  -9.306  1.00  0.00    -0.012 C 
ATOM      3  C   UNL     1      38.916   4.508  -7.818  1.00  0.00     0.004 C 
ATOM      4  C   UNL     1      39.822   3.479  -7.125  1.00  0.00     0.011 C 
ATOM      5  C   UNL     1      41.164   3.323  -7.878  1.00  0.00     0.043 C 
ATOM      6  C   UNL     1      40.907   2.903  -9.361  1.00  0.00     0.121 C 
ATOM      7  C   UNL     1      39.994   3.928 -10.059  1.00  0.00     0.035 C 
ENDROOT
BRANCH   6   8
ATOM      8  O   UNL     1      40.364   1.610  -9.529  1.00  0.00    -0.392 OA
ATOM      9  H   UNL     1      40.845   0.960  -8.956  1.00  0.00     0.210 HD
ENDBRANCH   6   8
BRANCH   5  10
ATOM     10  C   UNL     1      42.161   2.459  -7.094  1.00  0.00    -0.075 C 
ATOM     11  C   UNL     1      43.406   2.178  -7.523  1.00  0.00     0.008 C 
ATOM     12  C   UNL     1      41.777   1.970  -5.718  1.00  0.00     0.039 C 
ENDBRANCH   5  10
TORSDOF 2
ENDMDL
MODEL 5
REMARK VINA RESULT:    -4.169     14.398     15.572
REMARK INTER + INTRA:          -4.696
REMARK INTER:                  -4.640
REMARK INTRA:                  -0.056
REMARK UNBOUND:                -0.161
REMARK SMILES C=C(C)[C@@H]1CC[C@H](C)C[C@@H]1O
REMARK SMILES IDX 8 1 7 2 6 3 5 4 4 5 10 6 9 7 11 8 2 10 1 11 3 12
REMARK H PARENT 11 9
REMARK Flexibility Score: inf
ROOT
ATOM      1  C   UNL     1      39.115   3.508  -9.692  1.00  0.00     0.008 C 
ATOM      2  C   UNL     1      39.839   4.397  -8.669  1.00  0.00    -0.012 C 
ATOM      3  C   UNL     1      39.649   3.888  -7.226  1.00  0.00     0.004 C 
ATOM      4  C   UNL     1      40.525   2.669  -6.899  1.00  0.00     0.011 C 
ATOM      5  C   UNL     1      42.017   2.965  -7.179  1.00  0.00     0.043 C 
ATOM      6  C   UNL     1      42.215   3.387  -8.671  1.00  0.00     0.121 C 
ATOM      7  C   UNL     1      41.334   4.605  -9.006  1.00  0.00     0.035 C 
ENDROOT
BRANCH   6   8
ATOM      8  O   UNL     1      41.971   2.365  -9.616  1.00  0.00    -0.392 OA
ATOM      9  H   UNL     1      42.780   2.206 -10.165  1.00  0.00     0.210 HD
ENDBRANCH   6   8
BRANCH   5  10
ATOM     10  C   UNL     1      42.927   1.840  -6.669  1.00  0.00    -0.075 C 
ATOM     11  C   UNL     1      44.091   1.498  -7.253  1.00  0.00     0.008 C 
ATOM     12  C   UNL     1      42.562   1.133  -5.386  1.00  0.00     0.039 C 
ENDBRANCH   5  10
TORSDOF 2
ENDMDL
MODEL 6
REMARK VINA RESULT:    -4.156     13.991     15.149
REMARK INTER + INTRA:          -4.682
REMARK INTER:                  -4.605
REMARK INTRA:                  -0.077
REMARK UNBOUND:                -0.161
REMARK SMILES C=C(C)[C@@H]1CC[C@H](C)C[C@@H]1O
REMARK SMILES IDX 8 1 7 2 6 3 5 4 4 5 10 6 9 7 11 8 2 10 1 11 3 12
REMARK H PARENT 11 9
REMARK Flexibility Score: inf
ROOT
ATOM      1  C   UNL     1      38.446   4.280 -10.383  1.00  0.00     0.008 C 
ATOM      2  C   UNL     1      38.025   3.507  -9.124  1.00  0.00    -0.012 C 
ATOM      3  C   UNL     1      38.547   2.057  -9.136  1.00  0.00     0.004 C 
ATOM      4  C   UNL     1      40.041   1.953  -8.791  1.00  0.00     0.011 C 
ATOM      5  C   UNL     1      40.346   2.630  -7.434  1.00  0.00     0.043 C 
ATOM      6  C   UNL     1      39.902   4.128  -7.464  1.00  0.00     0.121 C 
ATOM      7  C   UNL     1      38.406   4.238  -7.815  1.00  0.00     0.035 C 
ENDROOT
BRANCH   6   8
ATOM      8  O   UNL     1      40.645   4.952  -8.338  1.00  0.00    -0.392 OA
ATOM      9  H   UNL     1      40.769   4.501  -9.211  1.00  0.00     0.210 HD
ENDBRANCH   6   8
BRANCH   5  10
ATOM     10  C   UNL     1      41.785   2.361  -6.974  1.00  0.00    -0.075 C 
ATOM     11  C   UNL     1      42.866   2.536  -7.758  1.00  0.00     0.008 C 
ATOM     12  C   UNL     1      42.030   1.973  -5.536  1.00  0.00     0.039 C 
ENDBRANCH   5  10
TORSDOF 2
ENDMDL
MODEL 7
REMARK VINA RESULT:    -4.140      2.797      4.759
REMARK INTER + INTRA:          -4.664
REMARK INTER:                  -4.614
REMARK INTRA:                  -0.050
REMARK UNBOUND:                -0.161
REMARK SMILES C=C(C)[C@@H]1CC[C@H](C)C[C@@H]1O
REMARK SMILES IDX 8 1 7 2 6 3 5 4 4 5 10 6 9 7 11 8 2 10 1 11 3 12
REMARK H PARENT 11 9
REMARK Flexibility Score: inf
ROOT
ATOM      1  C   UNL     1      36.476   6.215   6.748  1.00  0.00     0.008 C 
ATOM      2  C   UNL     1      35.727   5.788   5.475  1.00  0.00    -0.012 C 
ATOM      3  C   UNL     1      34.271   6.296   5.466  1.00  0.00     0.004 C 
ATOM      4  C   UNL     1      34.158   7.790   5.123  1.00  0.00     0.011 C 
ATOM      5  C   UNL     1      34.852   8.105   3.777  1.00  0.00     0.043 C 
ATOM      6  C   UNL     1      36.355   7.676   3.829  1.00  0.00     0.121 C 
ATOM      7  C   UNL     1      36.473   6.180   4.179  1.00  0.00     0.035 C 
ENDROOT
BRANCH   6   8
ATOM      8  O   UNL     1      37.158   8.425   4.718  1.00  0.00    -0.392 OA
ATOM      9  H   UNL     1      36.603   8.796   5.450  1.00  0.00     0.210 HD
ENDBRANCH   6   8
BRANCH   5  10
ATOM     10  C   UNL     1      34.576   9.542   3.316  1.00  0.00    -0.075 C 
ATOM     11  C   UNL     1      34.804  10.628   4.079  1.00  0.00     0.008 C 
ATOM     12  C   UNL     1      34.118   9.777   1.898  1.00  0.00     0.039 C 
ENDBRANCH   5  10
TORSDOF 2
ENDMDL
MODEL 8
REMARK VINA RESULT:    -4.055      1.540      4.385
REMARK INTER + INTRA:          -4.572
REMARK INTER:                  -4.490
REMARK INTRA:                  -0.082
REMARK UNBOUND:                -0.161
REMARK SMILES C=C(C)[C@@H]1CC[C@H](C)C[C@@H]1O
REMARK SMILES IDX 8 1 7 2 6 3 5 4 4 5 10 6 9 7 11 8 2 10 1 11 3 12
REMARK H PARENT 11 9
REMARK Flexibility Score: inf
ROOT
ATOM      1  C   UNL     1      35.861   8.996   7.203  1.00  0.00     0.008 C 
ATOM      2  C   UNL     1      36.790   9.415   6.053  1.00  0.00    -0.012 C 
ATOM      3  C   UNL     1      36.552   8.574   4.783  1.00  0.00     0.004 C 
ATOM      4  C   UNL     1      35.289   8.991   4.014  1.00  0.00     0.011 C 
ATOM      5  C   UNL     1      35.321  10.498   3.669  1.00  0.00     0.043 C 
ATOM      6  C   UNL     1      35.464  11.349   4.973  1.00  0.00     0.121 C 
ATOM      7  C   UNL     1      36.726  10.930   5.750  1.00  0.00     0.035 C 
ENDROOT
BRANCH   6   8
ATOM      8  O   UNL     1      34.350  11.304   5.839  1.00  0.00    -0.392 OA
ATOM      9  H   UNL     1      34.643  11.401   6.780  1.00  0.00     0.210 HD
ENDBRANCH   6   8
BRANCH   5  10
ATOM     10  C   UNL     1      34.174  10.892   2.729  1.00  0.00    -0.075 C 
ATOM     11  C   UNL     1      33.635  12.125   2.683  1.00  0.00     0.008 C 
ATOM     12  C   UNL     1      33.677   9.882   1.723  1.00  0.00     0.039 C 
ENDBRANCH   5  10
TORSDOF 2
ENDMDL
MODEL 9
REMARK VINA RESULT:    -4.040      1.503      1.855
REMARK INTER + INTRA:          -4.555
REMARK INTER:                  -4.397
REMARK INTRA:                  -0.158
REMARK UNBOUND:                -0.161
REMARK SMILES C=C(C)[C@@H]1CC[C@H](C)C[C@@H]1O
REMARK SMILES IDX 8 1 7 2 6 3 5 4 4 5 10 6 9 7 11 8 2 10 1 11 3 12
REMARK H PARENT 11 9
REMARK Flexibility Score: inf
ROOT
ATOM      1  C   UNL     1      32.498  12.125   3.929  1.00  0.00     0.008 C 
ATOM      2  C   UNL     1      34.021  12.121   3.716  1.00  0.00    -0.012 C 
ATOM      3  C   UNL     1      34.789  12.125   5.053  1.00  0.00     0.004 C 
ATOM      4  C   UNL     1      34.806  10.751   5.741  1.00  0.00     0.011 C 
ATOM      5  C   UNL     1      35.365   9.663   4.795  1.00  0.00     0.043 C 
ATOM      6  C   UNL     1      34.519   9.598   3.483  1.00  0.00     0.121 C 
ATOM      7  C   UNL     1      34.494  10.975   2.792  1.00  0.00     0.035 C 
ENDROOT
BRANCH   6   8
ATOM      8  O   UNL     1      33.193   9.140   3.651  1.00  0.00    -0.392 OA
ATOM      9  H   UNL     1      32.584   9.622   3.036  1.00  0.00     0.210 HD
ENDBRANCH   6   8
BRANCH   5  10
ATOM     10  C   UNL     1      35.582   8.331   5.525  1.00  0.00    -0.075 C 
ATOM     11  C   UNL     1      35.974   7.197   4.911  1.00  0.00     0.008 C 
ATOM     12  C   UNL     1      35.450   8.293   7.028  1.00  0.00     0.039 C 
ENDBRANCH   5  10
TORSDOF 2
ENDMDL
