MODEL 1
REMARK VINA RESULT:    -7.792      0.000      0.000
REMARK INTER + INTRA:         -11.286
REMARK INTER:                 -10.981
REMARK INTRA:                  -0.305
REMARK UNBOUND:                -0.305
REMARK SMILES C[C@@H](CO)CCC(=O)[C@H](C)[C@H]1C(=O)C[C@H]2[C@@H]3CC=C4C[C@H](O)CC[C@]4(C)[C@@H]3CC[C@@]12C
REMARK SMILES IDX 6 1 5 2 2 3 1 4 3 5 4 6 7 8 8 9 9 10 10 11 11 12 12 13 30 14
REMARK SMILES IDX 13 15 14 16 15 17 29 18 31 19 16 20 28 21 27 22 17 23 25 24
REMARK SMILES IDX 18 25 19 26 24 27 26 28 20 29 23 30 21 31 22 32
REMARK H PARENT 4 7 22 33
REMARK Flexibility Score: inf
ROOT
ATOM      1  C   UNL     1     116.414 126.349 125.449  1.00  0.00     0.076 C 
ENDROOT
BRANCH   1   2
ATOM      2  C   UNL     1     117.030 127.582 126.129  1.00  0.00     0.013 C 
BRANCH   2   3
ATOM      3  C   UNL     1     117.191 128.782 125.164  1.00  0.00     0.012 C 
ATOM      4  C   UNL     1     116.017 129.766 125.283  1.00  0.00     0.010 C 
BRANCH   3   5
ATOM      5  C   UNL     1     118.517 129.521 125.438  1.00  0.00     0.159 C 
BRANCH   5   6
ATOM      6  O   UNL     1     118.927 130.252 124.313  1.00  0.00    -0.396 OA
ATOM      7  H   UNL     1     118.565 129.780 123.519  1.00  0.00     0.210 HD
ENDBRANCH   5   6
ENDBRANCH   3   5
ENDBRANCH   2   3
ENDBRANCH   1   2
BRANCH   1   8
ATOM      8  C   UNL     1     115.308 125.762 126.296  1.00  0.00     0.136 C 
ATOM      9  O   UNL     1     114.543 126.520 126.874  1.00  0.00    -0.299 OA
BRANCH   8  10
ATOM     10  C   UNL     1     115.132 124.264 126.461  1.00  0.00     0.064 C 
ATOM     11  C   UNL     1     116.527 123.613 126.512  1.00  0.00     0.017 C 
BRANCH  10  12
ATOM     12  C   UNL     1     114.208 123.661 125.340  1.00  0.00     0.072 C 
ATOM     13  C   UNL     1     114.944 122.871 124.292  1.00  0.00     0.137 C 
ATOM     14  C   UNL     1     113.093 122.646 125.803  1.00  0.00    -0.019 C 
ATOM     15  O   UNL     1     115.936 123.271 123.705  1.00  0.00    -0.299 OA
ATOM     16  C   UNL     1     114.260 121.616 123.902  1.00  0.00     0.080 C 
ATOM     17  C   UNL     1     112.874 121.764 124.536  1.00  0.00     0.007 C 
ATOM     18  C   UNL     1     113.576 121.754 126.981  1.00  0.00     0.008 C 
ATOM     19  C   UNL     1     111.799 123.398 126.193  1.00  0.00     0.012 C 
ATOM     20  C   UNL     1     112.160 120.390 124.737  1.00  0.00     0.001 C 
ATOM     21  C   UNL     1     112.692 120.531 127.229  1.00  0.00     0.005 C 
ATOM     22  C   UNL     1     112.639 119.600 125.994  1.00  0.00     0.003 C 
ATOM     23  C   UNL     1     110.608 120.510 124.612  1.00  0.00     0.031 C 
ATOM     24  C   UNL     1     111.756 118.309 126.207  1.00  0.00    -0.008 C 
ATOM     25  C   UNL     1     109.808 119.761 125.648  1.00  0.00    -0.027 C 
ATOM     26  C   UNL     1     110.298 118.722 126.351  1.00  0.00    -0.065 C 
ATOM     27  C   UNL     1     112.190 117.519 127.481  1.00  0.00     0.014 C 
ATOM     28  C   UNL     1     111.901 117.371 124.976  1.00  0.00     0.016 C 
ATOM     29  C   UNL     1     109.428 118.050 127.395  1.00  0.00     0.063 C 
ATOM     30  C   UNL     1     111.280 116.318 127.815  1.00  0.00     0.033 C 
ATOM     31  C   UNL     1     109.777 116.560 127.515  1.00  0.00     0.118 C 
BRANCH  31  32
ATOM     32  O   UNL     1     108.986 115.986 128.522  1.00  0.00    -0.393 OA
ATOM     33  H   UNL     1     108.444 115.274 128.090  1.00  0.00     0.210 HD
ENDBRANCH  31  32
ENDBRANCH  10  12
ENDBRANCH   8  10
ENDBRANCH   1   8
TORSDOF 8
ENDMDL
MODEL 2
REMARK VINA RESULT:    -7.744      2.683      9.131
REMARK INTER + INTRA:         -11.218
REMARK INTER:                 -10.656
REMARK INTRA:                  -0.563
REMARK UNBOUND:                -0.305
REMARK SMILES C[C@@H](CO)CCC(=O)[C@H](C)[C@H]1C(=O)C[C@H]2[C@@H]3CC=C4C[C@H](O)CC[C@]4(C)[C@@H]3CC[C@@]12C
REMARK SMILES IDX 6 1 5 2 2 3 1 4 3 5 4 6 7 8 8 9 9 10 10 11 11 12 12 13 30 14
REMARK SMILES IDX 13 15 14 16 15 17 29 18 31 19 16 20 28 21 27 22 17 23 25 24
REMARK SMILES IDX 18 25 19 26 24 27 26 28 20 29 23 30 21 31 22 32
REMARK H PARENT 4 7 22 33
REMARK Flexibility Score: inf
ROOT
ATOM      1  C   UNL     1     113.037 115.996 127.510  1.00  0.00     0.076 C 
ENDROOT
BRANCH   1   2
ATOM      2  C   UNL     1     112.140 116.773 128.487  1.00  0.00     0.013 C 
BRANCH   2   3
ATOM      3  C   UNL     1     111.238 115.847 129.338  1.00  0.00     0.012 C 
ATOM      4  C   UNL     1     111.819 115.626 130.744  1.00  0.00     0.010 C 
BRANCH   3   5
ATOM      5  C   UNL     1     109.816 116.433 129.452  1.00  0.00     0.159 C 
BRANCH   5   6
ATOM      6  O   UNL     1     108.875 115.592 128.840  1.00  0.00    -0.396 OA
ATOM      7  H   UNL     1     108.102 116.163 128.590  1.00  0.00     0.210 HD
ENDBRANCH   5   6
ENDBRANCH   3   5
ENDBRANCH   2   3
ENDBRANCH   1   2
BRANCH   1   8
ATOM      8  C   UNL     1     112.387 115.891 126.149  1.00  0.00     0.136 C 
ATOM      9  O   UNL     1     112.911 115.187 125.298  1.00  0.00    -0.299 OA
BRANCH   8  10
ATOM     10  C   UNL     1     111.115 116.645 125.806  1.00  0.00     0.064 C 
ATOM     11  C   UNL     1     110.019 115.618 125.463  1.00  0.00     0.017 C 
BRANCH  10  12
ATOM     12  C   UNL     1     111.355 117.699 124.664  1.00  0.00     0.072 C 
ATOM     13  C   UNL     1     110.098 118.337 124.138  1.00  0.00     0.137 C 
ATOM     14  C   UNL     1     112.242 118.952 125.024  1.00  0.00    -0.019 C 
ATOM     15  O   UNL     1     109.107 117.714 123.793  1.00  0.00    -0.299 OA
ATOM     16  C   UNL     1     110.219 119.796 123.912  1.00  0.00     0.080 C 
ATOM     17  C   UNL     1     111.726 120.042 124.036  1.00  0.00     0.007 C 
ATOM     18  C   UNL     1     112.009 119.425 126.486  1.00  0.00     0.008 C 
ATOM     19  C   UNL     1     113.740 118.647 124.789  1.00  0.00     0.012 C 
ATOM     20  C   UNL     1     112.062 121.529 124.372  1.00  0.00     0.001 C 
ATOM     21  C   UNL     1     112.555 120.824 126.775  1.00  0.00     0.005 C 
ATOM     22  C   UNL     1     111.890 121.896 125.879  1.00  0.00     0.003 C 
ATOM     23  C   UNL     1     113.426 121.978 123.758  1.00  0.00     0.031 C 
ATOM     24  C   UNL     1     112.403 123.363 126.154  1.00  0.00    -0.008 C 
ATOM     25  C   UNL     1     114.319 122.787 124.666  1.00  0.00    -0.027 C 
ATOM     26  C   UNL     1     113.863 123.466 125.736  1.00  0.00    -0.065 C 
ATOM     27  C   UNL     1     112.277 123.743 127.662  1.00  0.00     0.014 C 
ATOM     28  C   UNL     1     111.563 124.372 125.323  1.00  0.00     0.016 C 
ATOM     29  C   UNL     1     114.841 124.227 126.609  1.00  0.00     0.063 C 
ATOM     30  C   UNL     1     112.884 125.118 128.016  1.00  0.00     0.033 C 
ATOM     31  C   UNL     1     114.173 125.463 127.224  1.00  0.00     0.118 C 
BRANCH  31  32
ATOM     32  O   UNL     1     115.094 126.112 128.061  1.00  0.00    -0.393 OA
ATOM     33  H   UNL     1     114.804 125.940 128.994  1.00  0.00     0.210 HD
ENDBRANCH  31  32
ENDBRANCH  10  12
ENDBRANCH   8  10
ENDBRANCH   1   8
TORSDOF 8
ENDMDL
MODEL 3
REMARK VINA RESULT:    -7.479      2.291      9.487
REMARK INTER + INTRA:         -10.844
REMARK INTER:                 -10.178
REMARK INTRA:                  -0.666
REMARK UNBOUND:                -0.305
REMARK SMILES C[C@@H](CO)CCC(=O)[C@H](C)[C@H]1C(=O)C[C@H]2[C@@H]3CC=C4C[C@H](O)CC[C@]4(C)[C@@H]3CC[C@@]12C
REMARK SMILES IDX 6 1 5 2 2 3 1 4 3 5 4 6 7 8 8 9 9 10 10 11 11 12 12 13 30 14
REMARK SMILES IDX 13 15 14 16 15 17 29 18 31 19 16 20 28 21 27 22 17 23 25 24
REMARK SMILES IDX 18 25 19 26 24 27 26 28 20 29 23 30 21 31 22 32
REMARK H PARENT 4 7 22 33
REMARK Flexibility Score: inf
ROOT
ATOM      1  C   UNL     1     110.114 115.314 125.197  1.00  0.00     0.076 C 
ENDROOT
BRANCH   1   2
ATOM      2  C   UNL     1     111.580 114.912 124.970  1.00  0.00     0.013 C 
BRANCH   2   3
ATOM      3  C   UNL     1     111.939 114.778 123.470  1.00  0.00     0.012 C 
ATOM      4  C   UNL     1     113.189 115.596 123.111  1.00  0.00     0.010 C 
BRANCH   3   5
ATOM      5  C   UNL     1     112.165 113.297 123.098  1.00  0.00     0.159 C 
BRANCH   5   6
ATOM      6  O   UNL     1     111.735 112.449 124.129  1.00  0.00    -0.396 OA
ATOM      7  H   UNL     1     111.403 113.033 124.859  1.00  0.00     0.210 HD
ENDBRANCH   5   6
ENDBRANCH   3   5
ENDBRANCH   2   3
ENDBRANCH   1   2
BRANCH   1   8
ATOM      8  C   UNL     1     109.961 116.082 126.490  1.00  0.00     0.136 C 
ATOM      9  O   UNL     1     109.608 115.481 127.495  1.00  0.00    -0.299 OA
BRANCH   8  10
ATOM     10  C   UNL     1     110.215 117.576 126.572  1.00  0.00     0.064 C 
ATOM     11  C   UNL     1     108.875 118.282 126.854  1.00  0.00     0.017 C 
BRANCH  10  12
ATOM     12  C   UNL     1     110.939 118.113 125.283  1.00  0.00     0.072 C 
ATOM     13  C   UNL     1     110.044 118.875 124.344  1.00  0.00     0.137 C 
ATOM     14  C   UNL     1     112.132 119.121 125.503  1.00  0.00    -0.019 C 
ATOM     15  O   UNL     1     108.959 118.473 123.956  1.00  0.00    -0.299 OA
ATOM     16  C   UNL     1     110.668 120.098 123.788  1.00  0.00     0.080 C 
ATOM     17  C   UNL     1     112.141 119.946 124.180  1.00  0.00     0.007 C 
ATOM     18  C   UNL     1     111.873 120.070 126.706  1.00  0.00     0.008 C 
ATOM     19  C   UNL     1     113.463 118.358 125.696  1.00  0.00     0.012 C 
ATOM     20  C   UNL     1     112.898 121.312 124.194  1.00  0.00     0.001 C 
ATOM     21  C   UNL     1     112.805 121.283 126.744  1.00  0.00     0.005 C 
ATOM     22  C   UNL     1     112.656 122.162 125.479  1.00  0.00     0.003 C 
ATOM     23  C   UNL     1     114.404 121.153 123.808  1.00  0.00     0.031 C 
ATOM     24  C   UNL     1     113.581 123.440 125.480  1.00  0.00    -0.008 C 
ATOM     25  C   UNL     1     115.382 121.926 124.657  1.00  0.00    -0.027 C 
ATOM     26  C   UNL     1     115.035 123.002 125.389  1.00  0.00    -0.065 C 
ATOM     27  C   UNL     1     113.385 124.291 126.774  1.00  0.00     0.014 C 
ATOM     28  C   UNL     1     113.238 124.331 124.253  1.00  0.00     0.016 C 
ATOM     29  C   UNL     1     116.083 123.697 126.236  1.00  0.00     0.063 C 
ATOM     30  C   UNL     1     114.357 125.485 126.893  1.00  0.00     0.033 C 
ATOM     31  C   UNL     1     115.781 125.198 126.350  1.00  0.00     0.118 C 
BRANCH  31  32
ATOM     32  O   UNL     1     116.744 125.795 127.179  1.00  0.00    -0.393 OA
ATOM     33  H   UNL     1     117.596 125.804 126.670  1.00  0.00     0.210 HD
ENDBRANCH  31  32
ENDBRANCH  10  12
ENDBRANCH   8  10
ENDBRANCH   1   8
TORSDOF 8
ENDMDL
MODEL 4
REMARK VINA RESULT:    -7.443      2.750      8.624
REMARK INTER + INTRA:         -10.794
REMARK INTER:                  -9.893
REMARK INTRA:                  -0.900
REMARK UNBOUND:                -0.305
REMARK SMILES C[C@@H](CO)CCC(=O)[C@H](C)[C@H]1C(=O)C[C@H]2[C@@H]3CC=C4C[C@H](O)CC[C@]4(C)[C@@H]3CC[C@@]12C
REMARK SMILES IDX 6 1 5 2 2 3 1 4 3 5 4 6 7 8 8 9 9 10 10 11 11 12 12 13 30 14
REMARK SMILES IDX 13 15 14 16 15 17 29 18 31 19 16 20 28 21 27 22 17 23 25 24
REMARK SMILES IDX 18 25 19 26 24 27 26 28 20 29 23 30 21 31 22 32
REMARK H PARENT 4 7 22 33
REMARK Flexibility Score: inf
ROOT
ATOM      1  C   UNL     1     113.459 116.015 127.259  1.00  0.00     0.076 C 
ENDROOT
BRANCH   1   2
ATOM      2  C   UNL     1     112.581 116.062 128.520  1.00  0.00     0.013 C 
BRANCH   2   3
ATOM      3  C   UNL     1     113.208 116.906 129.655  1.00  0.00     0.012 C 
ATOM      4  C   UNL     1     114.249 117.899 129.114  1.00  0.00     0.010 C 
BRANCH   3   5
ATOM      5  C   UNL     1     112.114 117.672 130.427  1.00  0.00     0.159 C 
BRANCH   5   6
ATOM      6  O   UNL     1     111.124 118.149 129.556  1.00  0.00    -0.396 OA
ATOM      7  H   UNL     1     110.518 118.719 130.097  1.00  0.00     0.210 HD
ENDBRANCH   5   6
ENDBRANCH   3   5
ENDBRANCH   2   3
ENDBRANCH   1   2
BRANCH   1   8
ATOM      8  C   UNL     1     112.617 115.783 126.025  1.00  0.00     0.136 C 
ATOM      9  O   UNL     1     112.998 114.970 125.196  1.00  0.00    -0.299 OA
BRANCH   8  10
ATOM     10  C   UNL     1     111.326 116.542 125.779  1.00  0.00     0.064 C 
ATOM     11  C   UNL     1     110.208 115.521 125.496  1.00  0.00     0.017 C 
BRANCH  10  12
ATOM     12  C   UNL     1     111.490 117.613 124.639  1.00  0.00     0.072 C 
ATOM     13  C   UNL     1     110.196 118.225 124.176  1.00  0.00     0.137 C 
ATOM     14  C   UNL     1     112.361 118.884 124.974  1.00  0.00    -0.019 C 
ATOM     15  O   UNL     1     109.206 117.580 123.868  1.00  0.00    -0.299 OA
ATOM     16  C   UNL     1     110.272 119.688 123.961  1.00  0.00     0.080 C 
ATOM     17  C   UNL     1     111.776 119.971 124.021  1.00  0.00     0.007 C 
ATOM     18  C   UNL     1     112.181 119.337 126.450  1.00  0.00     0.008 C 
ATOM     19  C   UNL     1     113.854 118.619 124.671  1.00  0.00     0.012 C 
ATOM     20  C   UNL     1     112.089 121.463 124.359  1.00  0.00     0.001 C 
ATOM     21  C   UNL     1     112.705 120.746 126.730  1.00  0.00     0.005 C 
ATOM     22  C   UNL     1     111.975 121.810 125.875  1.00  0.00     0.003 C 
ATOM     23  C   UNL     1     113.415 121.951 123.690  1.00  0.00     0.031 C 
ATOM     24  C   UNL     1     112.464 123.287 126.143  1.00  0.00    -0.008 C 
ATOM     25  C   UNL     1     114.326 122.773 124.567  1.00  0.00    -0.027 C 
ATOM     26  C   UNL     1     113.901 123.430 125.664  1.00  0.00    -0.065 C 
ATOM     27  C   UNL     1     112.395 123.649 127.660  1.00  0.00     0.014 C 
ATOM     28  C   UNL     1     111.564 124.283 125.361  1.00  0.00     0.016 C 
ATOM     29  C   UNL     1     114.898 124.206 126.501  1.00  0.00     0.063 C 
ATOM     30  C   UNL     1     112.983 125.035 128.002  1.00  0.00     0.033 C 
ATOM     31  C   UNL     1     114.227 125.420 127.158  1.00  0.00     0.118 C 
BRANCH  31  32
ATOM     32  O   UNL     1     115.168 126.083 127.961  1.00  0.00    -0.393 OA
ATOM     33  H   UNL     1     116.053 125.685 127.753  1.00  0.00     0.210 HD
ENDBRANCH  31  32
ENDBRANCH  10  12
ENDBRANCH   8  10
ENDBRANCH   1   8
TORSDOF 8
ENDMDL
MODEL 5
REMARK VINA RESULT:    -7.355      2.273      9.146
REMARK INTER + INTRA:         -10.670
REMARK INTER:                 -10.013
REMARK INTRA:                  -0.657
REMARK UNBOUND:                -0.305
REMARK SMILES C[C@@H](CO)CCC(=O)[C@H](C)[C@H]1C(=O)C[C@H]2[C@@H]3CC=C4C[C@H](O)CC[C@]4(C)[C@@H]3CC[C@@]12C
REMARK SMILES IDX 6 1 5 2 2 3 1 4 3 5 4 6 7 8 8 9 9 10 10 11 11 12 12 13 30 14
REMARK SMILES IDX 13 15 14 16 15 17 29 18 31 19 16 20 28 21 27 22 17 23 25 24
REMARK SMILES IDX 18 25 19 26 24 27 26 28 20 29 23 30 21 31 22 32
REMARK H PARENT 4 7 22 33
REMARK Flexibility Score: inf
ROOT
ATOM      1  C   UNL     1     109.936 115.667 128.133  1.00  0.00     0.076 C 
ENDROOT
BRANCH   1   2
ATOM      2  C   UNL     1     111.337 115.644 128.766  1.00  0.00     0.013 C 
BRANCH   2   3
ATOM      3  C   UNL     1     111.309 115.911 130.291  1.00  0.00     0.012 C 
ATOM      4  C   UNL     1     112.703 115.753 130.918  1.00  0.00     0.010 C 
BRANCH   3   5
ATOM      5  C   UNL     1     110.768 117.326 130.582  1.00  0.00     0.159 C 
BRANCH   5   6
ATOM      6  O   UNL     1     111.543 118.303 129.942  1.00  0.00    -0.396 OA
ATOM      7  H   UNL     1     112.075 118.753 130.648  1.00  0.00     0.210 HD
ENDBRANCH   5   6
ENDBRANCH   3   5
ENDBRANCH   2   3
ENDBRANCH   1   2
BRANCH   1   8
ATOM      8  C   UNL     1     109.950 116.419 126.822  1.00  0.00     0.136 C 
ATOM      9  O   UNL     1     109.748 115.802 125.786  1.00  0.00    -0.299 OA
BRANCH   8  10
ATOM     10  C   UNL     1     110.225 117.910 126.753  1.00  0.00     0.064 C 
ATOM     11  C   UNL     1     108.876 118.654 126.755  1.00  0.00     0.017 C 
BRANCH  10  12
ATOM     12  C   UNL     1     111.133 118.278 125.523  1.00  0.00     0.072 C 
ATOM     13  C   UNL     1     110.399 118.940 124.390  1.00  0.00     0.137 C 
ATOM     14  C   UNL     1     112.320 119.282 125.787  1.00  0.00    -0.019 C 
ATOM     15  O   UNL     1     109.363 118.516 123.904  1.00  0.00    -0.299 OA
ATOM     16  C   UNL     1     111.134 120.077 123.788  1.00  0.00     0.080 C 
ATOM     17  C   UNL     1     112.535 119.945 124.393  1.00  0.00     0.007 C 
ATOM     18  C   UNL     1     111.936 120.372 126.827  1.00  0.00     0.008 C 
ATOM     19  C   UNL     1     113.587 118.523 126.247  1.00  0.00     0.012 C 
ATOM     20  C   UNL     1     113.330 121.288 124.354  1.00  0.00     0.001 C 
ATOM     21  C   UNL     1     112.895 121.562 126.854  1.00  0.00     0.005 C 
ATOM     22  C   UNL     1     112.948 122.288 125.488  1.00  0.00     0.003 C 
ATOM     23  C   UNL     1     114.868 121.057 124.199  1.00  0.00     0.031 C 
ATOM     24  C   UNL     1     113.908 123.541 125.469  1.00  0.00    -0.008 C 
ATOM     25  C   UNL     1     115.749 121.906 125.080  1.00  0.00    -0.027 C 
ATOM     26  C   UNL     1     115.346 123.068 125.629  1.00  0.00    -0.065 C 
ATOM     27  C   UNL     1     113.570 124.542 126.619  1.00  0.00     0.014 C 
ATOM     28  C   UNL     1     113.764 124.287 124.113  1.00  0.00     0.016 C 
ATOM     29  C   UNL     1     116.293 123.838 126.527  1.00  0.00     0.063 C 
ATOM     30  C   UNL     1     114.558 125.723 126.732  1.00  0.00     0.033 C 
ATOM     31  C   UNL     1     116.032 125.347 126.426  1.00  0.00     0.118 C 
BRANCH  31  32
ATOM     32  O   UNL     1     116.894 126.020 127.305  1.00  0.00    -0.393 OA
ATOM     33  H   UNL     1     117.817 125.729 127.081  1.00  0.00     0.210 HD
ENDBRANCH  31  32
ENDBRANCH  10  12
ENDBRANCH   8  10
ENDBRANCH   1   8
TORSDOF 8
ENDMDL
MODEL 6
REMARK VINA RESULT:    -7.266      1.987      3.408
REMARK INTER + INTRA:         -10.544
REMARK INTER:                 -10.196
REMARK INTRA:                  -0.349
REMARK UNBOUND:                -0.305
REMARK SMILES C[C@@H](CO)CCC(=O)[C@H](C)[C@H]1C(=O)C[C@H]2[C@@H]3CC=C4C[C@H](O)CC[C@]4(C)[C@@H]3CC[C@@]12C
REMARK SMILES IDX 6 1 5 2 2 3 1 4 3 5 4 6 7 8 8 9 9 10 10 11 11 12 12 13 30 14
REMARK SMILES IDX 13 15 14 16 15 17 29 18 31 19 16 20 28 21 27 22 17 23 25 24
REMARK SMILES IDX 18 25 19 26 24 27 26 28 20 29 23 30 21 31 22 32
REMARK H PARENT 4 7 22 33
REMARK Flexibility Score: inf
ROOT
ATOM      1  C   UNL     1     114.613 125.886 126.892  1.00  0.00     0.076 C 
ENDROOT
BRANCH   1   2
ATOM      2  C   UNL     1     115.740 126.910 127.104  1.00  0.00     0.013 C 
BRANCH   2   3
ATOM      3  C   UNL     1     116.022 127.760 125.841  1.00  0.00     0.012 C 
ATOM      4  C   UNL     1     115.589 129.222 126.035  1.00  0.00     0.010 C 
BRANCH   3   5
ATOM      5  C   UNL     1     117.520 127.707 125.477  1.00  0.00     0.159 C 
BRANCH   5   6
ATOM      6  O   UNL     1     117.848 128.704 124.547  1.00  0.00    -0.396 OA
ATOM      7  H   UNL     1     118.127 128.238 123.716  1.00  0.00     0.210 HD
ENDBRANCH   5   6
ENDBRANCH   3   5
ENDBRANCH   2   3
ENDBRANCH   1   2
BRANCH   1   8
ATOM      8  C   UNL     1     115.173 124.551 126.455  1.00  0.00     0.136 C 
ATOM      9  O   UNL     1     116.373 124.348 126.572  1.00  0.00    -0.299 OA
BRANCH   8  10
ATOM     10  C   UNL     1     114.293 123.466 125.862  1.00  0.00     0.064 C 
ATOM     11  C   UNL     1     113.143 124.141 125.090  1.00  0.00     0.017 C 
BRANCH  10  12
ATOM     12  C   UNL     1     113.793 122.459 126.961  1.00  0.00     0.072 C 
ATOM     13  C   UNL     1     112.384 122.703 127.427  1.00  0.00     0.137 C 
ATOM     14  C   UNL     1     113.756 120.932 126.566  1.00  0.00    -0.019 C 
ATOM     15  O   UNL     1     111.957 123.792 127.777  1.00  0.00    -0.299 OA
ATOM     16  C   UNL     1     111.587 121.465 127.591  1.00  0.00     0.080 C 
ATOM     17  C   UNL     1     112.641 120.358 127.492  1.00  0.00     0.007 C 
ATOM     18  C   UNL     1     113.352 120.729 125.079  1.00  0.00     0.008 C 
ATOM     19  C   UNL     1     115.120 120.261 126.850  1.00  0.00     0.012 C 
ATOM     20  C   UNL     1     112.023 118.979 127.097  1.00  0.00     0.001 C 
ATOM     21  C   UNL     1     112.953 119.292 124.741  1.00  0.00     0.005 C 
ATOM     22  C   UNL     1     111.734 118.824 125.572  1.00  0.00     0.003 C 
ATOM     23  C   UNL     1     112.808 117.782 127.723  1.00  0.00     0.031 C 
ATOM     24  C   UNL     1     111.266 117.353 125.244  1.00  0.00    -0.008 C 
ATOM     25  C   UNL     1     113.069 116.617 126.801  1.00  0.00    -0.027 C 
ATOM     26  C   UNL     1     112.345 116.377 125.691  1.00  0.00    -0.065 C 
ATOM     27  C   UNL     1     111.005 117.159 123.717  1.00  0.00     0.014 C 
ATOM     28  C   UNL     1     109.949 117.043 126.008  1.00  0.00     0.016 C 
ATOM     29  C   UNL     1     112.702 115.197 124.808  1.00  0.00     0.063 C 
ATOM     30  C   UNL     1     110.671 115.706 123.317  1.00  0.00     0.033 C 
ATOM     31  C   UNL     1     111.450 114.633 124.123  1.00  0.00     0.118 C 
BRANCH  31  32
ATOM     32  O   UNL     1     111.828 113.576 123.280  1.00  0.00    -0.393 OA
ATOM     33  H   UNL     1     111.281 112.791 123.541  1.00  0.00     0.210 HD
ENDBRANCH  31  32
ENDBRANCH  10  12
ENDBRANCH   8  10
ENDBRANCH   1   8
TORSDOF 8
ENDMDL
MODEL 7
REMARK VINA RESULT:    -7.235      3.067      9.629
REMARK INTER + INTRA:         -10.501
REMARK INTER:                 -10.058
REMARK INTRA:                  -0.443
REMARK UNBOUND:                -0.305
REMARK SMILES C[C@@H](CO)CCC(=O)[C@H](C)[C@H]1C(=O)C[C@H]2[C@@H]3CC=C4C[C@H](O)CC[C@]4(C)[C@@H]3CC[C@@]12C
REMARK SMILES IDX 6 1 5 2 2 3 1 4 3 5 4 6 7 8 8 9 9 10 10 11 11 12 12 13 30 14
REMARK SMILES IDX 13 15 14 16 15 17 29 18 31 19 16 20 28 21 27 22 17 23 25 24
REMARK SMILES IDX 18 25 19 26 24 27 26 28 20 29 23 30 21 31 22 32
REMARK H PARENT 4 7 22 33
REMARK Flexibility Score: inf
ROOT
ATOM      1  C   UNL     1     113.005 114.523 124.695  1.00  0.00     0.076 C 
ENDROOT
BRANCH   1   2
ATOM      2  C   UNL     1     112.844 113.290 123.791  1.00  0.00     0.013 C 
BRANCH   2   3
ATOM      3  C   UNL     1     113.014 113.624 122.289  1.00  0.00     0.012 C 
ATOM      4  C   UNL     1     114.380 114.266 122.002  1.00  0.00     0.010 C 
BRANCH   3   5
ATOM      5  C   UNL     1     112.850 112.352 121.431  1.00  0.00     0.159 C 
BRANCH   5   6
ATOM      6  O   UNL     1     112.257 112.651 120.196  1.00  0.00    -0.396 OA
ATOM      7  H   UNL     1     111.711 113.468 120.332  1.00  0.00     0.210 HD
ENDBRANCH   5   6
ENDBRANCH   3   5
ENDBRANCH   2   3
ENDBRANCH   1   2
BRANCH   1   8
ATOM      8  C   UNL     1     111.658 115.105 125.056  1.00  0.00     0.136 C 
ATOM      9  O   UNL     1     110.653 114.438 124.853  1.00  0.00    -0.299 OA
BRANCH   8  10
ATOM     10  C   UNL     1     111.516 116.497 125.645  1.00  0.00     0.064 C 
ATOM     11  C   UNL     1     110.180 116.568 126.409  1.00  0.00     0.017 C 
BRANCH  10  12
ATOM     12  C   UNL     1     111.660 117.611 124.545  1.00  0.00     0.072 C 
ATOM     13  C   UNL     1     110.355 118.206 124.093  1.00  0.00     0.137 C 
ATOM     14  C   UNL     1     112.497 118.891 124.931  1.00  0.00    -0.019 C 
ATOM     15  O   UNL     1     109.384 117.548 123.755  1.00  0.00    -0.299 OA
ATOM     16  C   UNL     1     110.395 119.678 123.929  1.00  0.00     0.080 C 
ATOM     17  C   UNL     1     111.891 119.995 124.011  1.00  0.00     0.007 C 
ATOM     18  C   UNL     1     112.296 119.287 126.420  1.00  0.00     0.008 C 
ATOM     19  C   UNL     1     113.999 118.674 124.630  1.00  0.00     0.012 C 
ATOM     20  C   UNL     1     112.165 121.482 124.404  1.00  0.00     0.001 C 
ATOM     21  C   UNL     1     112.782 120.698 126.753  1.00  0.00     0.005 C 
ATOM     22  C   UNL     1     112.031 121.773 125.930  1.00  0.00     0.003 C 
ATOM     23  C   UNL     1     113.482 122.026 123.763  1.00  0.00     0.031 C 
ATOM     24  C   UNL     1     112.481 123.251 126.253  1.00  0.00    -0.008 C 
ATOM     25  C   UNL     1     114.366 122.839 124.675  1.00  0.00    -0.027 C 
ATOM     26  C   UNL     1     113.917 123.446 125.790  1.00  0.00    -0.065 C 
ATOM     27  C   UNL     1     112.392 123.558 127.782  1.00  0.00     0.014 C 
ATOM     28  C   UNL     1     111.561 124.251 125.500  1.00  0.00     0.016 C 
ATOM     29  C   UNL     1     114.888 124.218 126.662  1.00  0.00     0.063 C 
ATOM     30  C   UNL     1     112.942 124.945 128.176  1.00  0.00     0.033 C 
ATOM     31  C   UNL     1     114.182 125.390 127.356  1.00  0.00     0.118 C 
BRANCH  31  32
ATOM     32  O   UNL     1     115.100 126.048 128.189  1.00  0.00    -0.393 OA
ATOM     33  H   UNL     1     115.583 125.344 128.696  1.00  0.00     0.210 HD
ENDBRANCH  31  32
ENDBRANCH  10  12
ENDBRANCH   8  10
ENDBRANCH   1   8
TORSDOF 8
ENDMDL
MODEL 8
REMARK VINA RESULT:    -6.870      1.624      2.650
REMARK INTER + INTRA:          -9.986
REMARK INTER:                  -9.734
REMARK INTRA:                  -0.252
REMARK UNBOUND:                -0.305
REMARK SMILES C[C@@H](CO)CCC(=O)[C@H](C)[C@H]1C(=O)C[C@H]2[C@@H]3CC=C4C[C@H](O)CC[C@]4(C)[C@@H]3CC[C@@]12C
REMARK SMILES IDX 6 1 5 2 2 3 1 4 3 5 4 6 7 8 8 9 9 10 10 11 11 12 12 13 30 14
REMARK SMILES IDX 13 15 14 16 15 17 29 18 31 19 16 20 28 21 27 22 17 23 25 24
REMARK SMILES IDX 18 25 19 26 24 27 26 28 20 29 23 30 21 31 22 32
REMARK H PARENT 4 7 22 33
REMARK Flexibility Score: inf
ROOT
ATOM      1  C   UNL     1     115.669 128.848 126.413  1.00  0.00     0.076 C 
ENDROOT
BRANCH   1   2
ATOM      2  C   UNL     1     115.944 129.885 125.312  1.00  0.00     0.013 C 
BRANCH   2   3
ATOM      3  C   UNL     1     117.074 130.874 125.689  1.00  0.00     0.012 C 
ATOM      4  C   UNL     1     116.838 131.503 127.071  1.00  0.00     0.010 C 
BRANCH   3   5
ATOM      5  C   UNL     1     118.443 130.163 125.670  1.00  0.00     0.159 C 
BRANCH   5   6
ATOM      6  O   UNL     1     118.837 129.865 124.358  1.00  0.00    -0.396 OA
ATOM      7  H   UNL     1     118.900 130.730 123.876  1.00  0.00     0.210 HD
ENDBRANCH   5   6
ENDBRANCH   3   5
ENDBRANCH   2   3
ENDBRANCH   1   2
BRANCH   1   8
ATOM      8  C   UNL     1     115.919 127.446 125.907  1.00  0.00     0.136 C 
ATOM      9  O   UNL     1     116.859 127.250 125.152  1.00  0.00    -0.299 OA
BRANCH   8  10
ATOM     10  C   UNL     1     115.027 126.281 126.297  1.00  0.00     0.064 C 
ATOM     11  C   UNL     1     114.856 126.289 127.828  1.00  0.00     0.017 C 
BRANCH  10  12
ATOM     12  C   UNL     1     115.579 124.917 125.743  1.00  0.00     0.072 C 
ATOM     13  C   UNL     1     116.538 124.217 126.667  1.00  0.00     0.137 C 
ATOM     14  C   UNL     1     114.520 123.788 125.441  1.00  0.00    -0.019 C 
ATOM     15  O   UNL     1     117.496 124.757 127.195  1.00  0.00    -0.299 OA
ATOM     16  C   UNL     1     116.320 122.755 126.756  1.00  0.00     0.080 C 
ATOM     17  C   UNL     1     115.348 122.477 125.605  1.00  0.00     0.007 C 
ATOM     18  C   UNL     1     113.354 123.798 126.469  1.00  0.00     0.008 C 
ATOM     19  C   UNL     1     113.969 123.925 124.002  1.00  0.00     0.012 C 
ATOM     20  C   UNL     1     114.552 121.148 125.804  1.00  0.00     0.001 C 
ATOM     21  C   UNL     1     112.504 122.528 126.449  1.00  0.00     0.005 C 
ATOM     22  C   UNL     1     113.342 121.270 126.781  1.00  0.00     0.003 C 
ATOM     23  C   UNL     1     114.208 120.461 124.444  1.00  0.00     0.031 C 
ATOM     24  C   UNL     1     112.505 119.932 126.795  1.00  0.00    -0.008 C 
ATOM     25  C   UNL     1     112.804 119.921 124.320  1.00  0.00    -0.027 C 
ATOM     26  C   UNL     1     112.029 119.628 125.382  1.00  0.00    -0.065 C 
ATOM     27  C   UNL     1     111.266 120.039 127.738  1.00  0.00     0.014 C 
ATOM     28  C   UNL     1     113.400 118.764 127.295  1.00  0.00     0.016 C 
ATOM     29  C   UNL     1     110.619 119.119 125.159  1.00  0.00     0.063 C 
ATOM     30  C   UNL     1     110.336 118.807 127.694  1.00  0.00     0.033 C 
ATOM     31  C   UNL     1     110.200 118.168 126.287  1.00  0.00     0.118 C 
BRANCH  31  32
ATOM     32  O   UNL     1     108.875 117.757 126.070  1.00  0.00    -0.393 OA
ATOM     33  H   UNL     1     108.776 116.868 126.501  1.00  0.00     0.210 HD
ENDBRANCH  31  32
ENDBRANCH  10  12
ENDBRANCH   8  10
ENDBRANCH   1   8
TORSDOF 8
ENDMDL
MODEL 9
REMARK VINA RESULT:    -6.762      2.253      3.622
REMARK INTER + INTRA:          -9.833
REMARK INTER:                  -9.488
REMARK INTRA:                  -0.345
REMARK UNBOUND:                -0.305
REMARK SMILES C[C@@H](CO)CCC(=O)[C@H](C)[C@H]1C(=O)C[C@H]2[C@@H]3CC=C4C[C@H](O)CC[C@]4(C)[C@@H]3CC[C@@]12C
REMARK SMILES IDX 6 1 5 2 2 3 1 4 3 5 4 6 7 8 8 9 9 10 10 11 11 12 12 13 30 14
REMARK SMILES IDX 13 15 14 16 15 17 29 18 31 19 16 20 28 21 27 22 17 23 25 24
REMARK SMILES IDX 18 25 19 26 24 27 26 28 20 29 23 30 21 31 22 32
REMARK H PARENT 4 7 22 33
REMARK Flexibility Score: inf
ROOT
ATOM      1  C   UNL     1     116.003 124.373 126.216  1.00  0.00     0.076 C 
ENDROOT
BRANCH   1   2
ATOM      2  C   UNL     1     115.998 125.738 125.508  1.00  0.00     0.013 C 
BRANCH   2   3
ATOM      3  C   UNL     1     116.674 126.850 126.346  1.00  0.00     0.012 C 
ATOM      4  C   UNL     1     116.991 128.088 125.493  1.00  0.00     0.010 C 
BRANCH   3   5
ATOM      5  C   UNL     1     115.776 127.254 127.534  1.00  0.00     0.159 C 
BRANCH   5   6
ATOM      6  O   UNL     1     116.356 126.879 128.754  1.00  0.00    -0.396 OA
ATOM      7  H   UNL     1     117.338 126.980 128.646  1.00  0.00     0.210 HD
ENDBRANCH   5   6
ENDBRANCH   3   5
ENDBRANCH   2   3
ENDBRANCH   1   2
BRANCH   1   8
ATOM      8  C   UNL     1     114.602 123.814 126.318  1.00  0.00     0.136 C 
ATOM      9  O   UNL     1     113.837 124.288 127.145  1.00  0.00    -0.299 OA
BRANCH   8  10
ATOM     10  C   UNL     1     114.127 122.673 125.437  1.00  0.00     0.064 C 
ATOM     11  C   UNL     1     114.025 123.188 123.988  1.00  0.00     0.017 C 
BRANCH  10  12
ATOM     12  C   UNL     1     112.785 122.050 125.968  1.00  0.00     0.072 C 
ATOM     13  C   UNL     1     111.569 122.424 125.165  1.00  0.00     0.137 C 
ATOM     14  C   UNL     1     112.693 120.476 126.002  1.00  0.00    -0.019 C 
ATOM     15  O   UNL     1     111.284 123.567 124.846  1.00  0.00    -0.299 OA
ATOM     16  C   UNL     1     110.640 121.294 124.928  1.00  0.00     0.080 C 
ATOM     17  C   UNL     1     111.162 120.211 125.877  1.00  0.00     0.007 C 
ATOM     18  C   UNL     1     113.433 119.827 124.799  1.00  0.00     0.008 C 
ATOM     19  C   UNL     1     113.249 119.925 127.336  1.00  0.00     0.012 C 
ATOM     20  C   UNL     1     110.716 118.777 125.448  1.00  0.00     0.001 C 
ATOM     21  C   UNL     1     113.080 118.355 124.580  1.00  0.00     0.005 C 
ATOM     22  C   UNL     1     111.570 118.163 124.296  1.00  0.00     0.003 C 
ATOM     23  C   UNL     1     110.524 117.830 126.675  1.00  0.00     0.031 C 
ATOM     24  C   UNL     1     111.157 116.661 124.040  1.00  0.00    -0.008 C 
ATOM     25  C   UNL     1     111.088 116.438 126.522  1.00  0.00    -0.027 C 
ATOM     26  C   UNL     1     111.338 115.869 125.328  1.00  0.00    -0.065 C 
ATOM     27  C   UNL     1     112.022 116.010 122.916  1.00  0.00     0.014 C 
ATOM     28  C   UNL     1     109.666 116.598 123.608  1.00  0.00     0.016 C 
ATOM     29  C   UNL     1     111.934 114.477 125.274  1.00  0.00     0.063 C 
ATOM     30  C   UNL     1     111.753 114.504 122.711  1.00  0.00     0.033 C 
ATOM     31  C   UNL     1     111.457 113.729 124.022  1.00  0.00     0.118 C 
BRANCH  31  32
ATOM     32  O   UNL     1     112.067 112.466 123.985  1.00  0.00    -0.393 OA
ATOM     33  H   UNL     1     112.635 112.397 124.796  1.00  0.00     0.210 HD
ENDBRANCH  31  32
ENDBRANCH  10  12
ENDBRANCH   8  10
ENDBRANCH   1   8
TORSDOF 8
ENDMDL
