MODEL 1
REMARK VINA RESULT:    -3.886      0.000      0.000
REMARK INTER + INTRA:          -5.713
REMARK INTER:                  -5.249
REMARK INTRA:                  -0.464
REMARK UNBOUND:                -0.464
REMARK SMILES [NH3+]CCCC[C@@H]([NH3+])C(=O)[O-]
REMARK SMILES IDX 4 1 3 2 2 3 1 4 5 8 6 9 7 10 8 14 9 15 10 16
REMARK H PARENT 1 5 1 6 1 7 7 11 7 12 7 13
REMARK Flexibility Score: inf
ROOT
ATOM      1  C   UNL     1      13.260  22.121  35.858  1.00  0.00     0.012 C 
ENDROOT
BRANCH   1   2
ATOM      2  C   UNL     1      14.371  21.438  35.044  1.00  0.00     0.061 C 
BRANCH   2   3
ATOM      3  C   UNL     1      15.453  22.427  34.582  1.00  0.00     0.258 C 
BRANCH   3   4
ATOM      4  N   UNL     1      14.878  23.647  34.011  1.00  0.00    -0.358 N 
ATOM      5  H   UNL     1      15.600  24.168  33.461  1.00  0.00     0.344 HD
ATOM      6  H   UNL     1      14.542  24.260  34.788  1.00  0.00     0.344 HD
ATOM      7  H   UNL     1      14.064  23.413  33.400  1.00  0.00     0.344 HD
ENDBRANCH   3   4
ENDBRANCH   2   3
ENDBRANCH   1   2
BRANCH   1   8
ATOM      8  C   UNL     1      11.847  21.684  35.424  1.00  0.00     0.072 C 
BRANCH   8   9
ATOM      9  C   UNL     1      11.709  21.401  33.909  1.00  0.00     0.227 C 
BRANCH   9  10
ATOM     10  N   UNL     1      10.796  20.273  33.682  1.00  0.00    -0.350 N 
ATOM     11  H   UNL     1      11.224  19.605  33.000  1.00  0.00     0.345 HD
ATOM     12  H   UNL     1      10.601  19.768  34.578  1.00  0.00     0.345 HD
ATOM     13  H   UNL     1       9.896  20.620  33.278  1.00  0.00     0.345 HD
ENDBRANCH   9  10
BRANCH   9  14
ATOM     14  C   UNL     1      11.221  22.618  33.166  1.00  0.00     0.099 C 
ATOM     15  O   UNL     1      10.213  22.547  32.415  1.00  0.00    -0.544 OA
ATOM     16  O   UNL     1      11.876  23.834  33.321  1.00  0.00    -0.544 OA
ENDBRANCH   9  14
ENDBRANCH   8   9
ENDBRANCH   1   8
TORSDOF 7
ENDMDL
MODEL 2
REMARK VINA RESULT:    -3.875      9.469     10.188
REMARK INTER + INTRA:          -5.698
REMARK INTER:                  -5.269
REMARK INTRA:                  -0.429
REMARK UNBOUND:                -0.464
REMARK SMILES [NH3+]CCCC[C@@H]([NH3+])C(=O)[O-]
REMARK SMILES IDX 4 1 3 2 2 3 1 4 5 8 6 9 7 10 8 14 9 15 10 16
REMARK H PARENT 1 5 1 6 1 7 7 11 7 12 7 13
REMARK Flexibility Score: inf
ROOT
ATOM      1  C   UNL     1      16.707  14.740  29.763  1.00  0.00     0.012 C 
ENDROOT
BRANCH   1   2
ATOM      2  C   UNL     1      17.627  13.511  29.855  1.00  0.00     0.061 C 
BRANCH   2   3
ATOM      3  C   UNL     1      16.851  12.217  30.150  1.00  0.00     0.258 C 
BRANCH   3   4
ATOM      4  N   UNL     1      15.937  12.368  31.284  1.00  0.00    -0.358 N 
ATOM      5  H   UNL     1      16.058  11.577  31.958  1.00  0.00     0.344 HD
ATOM      6  H   UNL     1      14.954  12.360  30.932  1.00  0.00     0.344 HD
ATOM      7  H   UNL     1      16.107  13.278  31.768  1.00  0.00     0.344 HD
ENDBRANCH   3   4
ENDBRANCH   2   3
ENDBRANCH   1   2
BRANCH   1   8
ATOM      8  C   UNL     1      15.796  14.710  28.520  1.00  0.00     0.072 C 
BRANCH   8   9
ATOM      9  C   UNL     1      14.360  15.224  28.775  1.00  0.00     0.227 C 
BRANCH   9  10
ATOM     10  N   UNL     1      13.983  16.213  27.757  1.00  0.00    -0.350 N 
ATOM     11  H   UNL     1      12.988  16.502  27.896  1.00  0.00     0.345 HD
ATOM     12  H   UNL     1      14.596  17.060  27.818  1.00  0.00     0.345 HD
ATOM     13  H   UNL     1      14.071  15.793  26.803  1.00  0.00     0.345 HD
ENDBRANCH   9  10
BRANCH   9  14
ATOM     14  C   UNL     1      13.365  14.092  28.787  1.00  0.00     0.099 C 
ATOM     15  O   UNL     1      13.613  13.029  29.416  1.00  0.00    -0.544 OA
ATOM     16  O   UNL     1      12.156  14.223  28.114  1.00  0.00    -0.544 OA
ENDBRANCH   9  14
ENDBRANCH   8   9
ENDBRANCH   1   8
TORSDOF 7
ENDMDL
MODEL 3
REMARK VINA RESULT:    -3.848      4.933      7.045
REMARK INTER + INTRA:          -5.662
REMARK INTER:                  -5.175
REMARK INTRA:                  -0.486
REMARK UNBOUND:                -0.464
REMARK SMILES [NH3+]CCCC[C@@H]([NH3+])C(=O)[O-]
REMARK SMILES IDX 4 1 3 2 2 3 1 4 5 8 6 9 7 10 8 14 9 15 10 16
REMARK H PARENT 1 5 1 6 1 7 7 11 7 12 7 13
REMARK Flexibility Score: inf
ROOT
ATOM      1  C   UNL     1      17.131  22.709  34.002  1.00  0.00     0.012 C 
ENDROOT
BRANCH   1   2
ATOM      2  C   UNL     1      16.077  23.772  34.353  1.00  0.00     0.061 C 
BRANCH   2   3
ATOM      3  C   UNL     1      14.954  23.214  35.243  1.00  0.00     0.258 C 
BRANCH   3   4
ATOM      4  N   UNL     1      15.424  22.902  36.595  1.00  0.00    -0.358 N 
ATOM      5  H   UNL     1      14.743  23.251  37.307  1.00  0.00     0.344 HD
ATOM      6  H   UNL     1      16.344  23.372  36.751  1.00  0.00     0.344 HD
ATOM      7  H   UNL     1      15.558  21.872  36.704  1.00  0.00     0.344 HD
ENDBRANCH   3   4
ENDBRANCH   2   3
ENDBRANCH   1   2
BRANCH   1   8
ATOM      8  C   UNL     1      18.555  23.116  34.431  1.00  0.00     0.072 C 
BRANCH   8   9
ATOM      9  C   UNL     1      19.122  22.292  35.611  1.00  0.00     0.227 C 
BRANCH   9  10
ATOM     10  N   UNL     1      20.478  21.824  35.301  1.00  0.00    -0.350 N 
ATOM     11  H   UNL     1      20.772  21.105  36.002  1.00  0.00     0.345 HD
ATOM     12  H   UNL     1      20.515  21.402  34.344  1.00  0.00     0.345 HD
ATOM     13  H   UNL     1      21.151  22.624  35.352  1.00  0.00     0.345 HD
ENDBRANCH   9  10
BRANCH   9  14
ATOM     14  C   UNL     1      19.131  23.095  36.886  1.00  0.00     0.099 C 
ATOM     15  O   UNL     1      18.252  23.973  37.097  1.00  0.00    -0.544 OA
ATOM     16  O   UNL     1      20.106  22.858  37.848  1.00  0.00    -0.544 OA
ENDBRANCH   9  14
ENDBRANCH   8   9
ENDBRANCH   1   8
TORSDOF 7
ENDMDL
MODEL 4
REMARK VINA RESULT:    -3.840     11.041     11.883
REMARK INTER + INTRA:          -5.650
REMARK INTER:                  -5.186
REMARK INTRA:                  -0.464
REMARK UNBOUND:                -0.464
REMARK SMILES [NH3+]CCCC[C@@H]([NH3+])C(=O)[O-]
REMARK SMILES IDX 4 1 3 2 2 3 1 4 5 8 6 9 7 10 8 14 9 15 10 16
REMARK H PARENT 1 5 1 6 1 7 7 11 7 12 7 13
REMARK Flexibility Score: inf
ROOT
ATOM      1  C   UNL     1      17.305  13.547  33.944  1.00  0.00     0.012 C 
ENDROOT
BRANCH   1   2
ATOM      2  C   UNL     1      16.949  12.458  32.919  1.00  0.00     0.061 C 
BRANCH   2   3
ATOM      3  C   UNL     1      17.125  12.937  31.468  1.00  0.00     0.258 C 
BRANCH   3   4
ATOM      4  N   UNL     1      18.532  13.154  31.125  1.00  0.00    -0.358 N 
ATOM      5  H   UNL     1      19.037  12.240  31.063  1.00  0.00     0.344 HD
ATOM      6  H   UNL     1      18.979  13.733  31.872  1.00  0.00     0.344 HD
ATOM      7  H   UNL     1      18.611  13.667  30.219  1.00  0.00     0.344 HD
ENDBRANCH   3   4
ENDBRANCH   2   3
ENDBRANCH   1   2
BRANCH   1   8
ATOM      8  C   UNL     1      18.347  13.076  34.977  1.00  0.00     0.072 C 
BRANCH   8   9
ATOM      9  C   UNL     1      19.679  13.861  34.937  1.00  0.00     0.227 C 
BRANCH   9  10
ATOM     10  N   UNL     1      20.082  14.251  36.294  1.00  0.00    -0.350 N 
ATOM     11  H   UNL     1      20.126  15.294  36.363  1.00  0.00     0.345 HD
ATOM     12  H   UNL     1      19.400  13.891  37.002  1.00  0.00     0.345 HD
ATOM     13  H   UNL     1      21.033  13.870  36.506  1.00  0.00     0.345 HD
ENDBRANCH   9  10
BRANCH   9  14
ATOM     14  C   UNL     1      20.773  13.054  34.286  1.00  0.00     0.099 C 
ATOM     15  O   UNL     1      21.959  13.130  34.703  1.00  0.00    -0.544 OA
ATOM     16  O   UNL     1      20.471  12.205  33.228  1.00  0.00    -0.544 OA
ENDBRANCH   9  14
ENDBRANCH   8   9
ENDBRANCH   1   8
TORSDOF 7
ENDMDL
MODEL 5
REMARK VINA RESULT:    -3.791      2.305      3.891
REMARK INTER + INTRA:          -5.585
REMARK INTER:                  -5.141
REMARK INTRA:                  -0.443
REMARK UNBOUND:                -0.464
REMARK SMILES [NH3+]CCCC[C@@H]([NH3+])C(=O)[O-]
REMARK SMILES IDX 4 1 3 2 2 3 1 4 5 8 6 9 7 10 8 14 9 15 10 16
REMARK H PARENT 1 5 1 6 1 7 7 11 7 12 7 13
REMARK Flexibility Score: inf
ROOT
ATOM      1  C   UNL     1      11.729  21.871  35.064  1.00  0.00     0.012 C 
ENDROOT
BRANCH   1   2
ATOM      2  C   UNL     1      11.343  21.439  33.639  1.00  0.00     0.061 C 
BRANCH   2   3
ATOM      3  C   UNL     1      10.683  22.573  32.839  1.00  0.00     0.258 C 
BRANCH   3   4
ATOM      4  N   UNL     1      11.654  23.583  32.410  1.00  0.00    -0.358 N 
ATOM      5  H   UNL     1      12.369  23.742  33.156  1.00  0.00     0.344 HD
ATOM      6  H   UNL     1      11.152  24.481  32.228  1.00  0.00     0.344 HD
ATOM      7  H   UNL     1      12.122  23.283  31.525  1.00  0.00     0.344 HD
ENDBRANCH   3   4
ENDBRANCH   2   3
ENDBRANCH   1   2
BRANCH   1   8
ATOM      8  C   UNL     1      13.235  21.707  35.350  1.00  0.00     0.072 C 
BRANCH   8   9
ATOM      9  C   UNL     1      13.910  22.969  35.935  1.00  0.00     0.227 C 
BRANCH   9  10
ATOM     10  N   UNL     1      15.068  22.593  36.757  1.00  0.00    -0.350 N 
ATOM     11  H   UNL     1      15.943  22.665  36.188  1.00  0.00     0.345 HD
ATOM     12  H   UNL     1      15.151  23.221  37.590  1.00  0.00     0.345 HD
ATOM     13  H   UNL     1      14.969  21.603  37.079  1.00  0.00     0.345 HD
ENDBRANCH   9  10
BRANCH   9  14
ATOM     14  C   UNL     1      14.336  23.919  34.846  1.00  0.00     0.099 C 
ATOM     15  O   UNL     1      15.476  23.818  34.318  1.00  0.00    -0.544 OA
ATOM     16  O   UNL     1      13.462  24.905  34.405  1.00  0.00    -0.544 OA
ENDBRANCH   9  14
ENDBRANCH   8   9
ENDBRANCH   1   8
TORSDOF 7
ENDMDL
MODEL 6
REMARK VINA RESULT:    -3.778     10.166     11.160
REMARK INTER + INTRA:          -5.566
REMARK INTER:                  -5.103
REMARK INTRA:                  -0.464
REMARK UNBOUND:                -0.464
REMARK SMILES [NH3+]CCCC[C@@H]([NH3+])C(=O)[O-]
REMARK SMILES IDX 4 1 3 2 2 3 1 4 5 8 6 9 7 10 8 14 9 15 10 16
REMARK H PARENT 1 5 1 6 1 7 7 11 7 12 7 13
REMARK Flexibility Score: inf
ROOT
ATOM      1  C   UNL     1      15.600  14.661  28.695  1.00  0.00     0.012 C 
ENDROOT
BRANCH   1   2
ATOM      2  C   UNL     1      14.115  14.882  29.026  1.00  0.00     0.061 C 
BRANCH   2   3
ATOM      3  C   UNL     1      13.254  13.645  28.722  1.00  0.00     0.258 C 
BRANCH   3   4
ATOM      4  N   UNL     1      13.149  12.749  29.875  1.00  0.00    -0.358 N 
ATOM      5  H   UNL     1      12.845  13.281  30.723  1.00  0.00     0.344 HD
ATOM      6  H   UNL     1      14.085  12.324  30.063  1.00  0.00     0.344 HD
ATOM      7  H   UNL     1      12.472  11.979  29.676  1.00  0.00     0.344 HD
ENDBRANCH   3   4
ENDBRANCH   2   3
ENDBRANCH   1   2
BRANCH   1   8
ATOM      8  C   UNL     1      16.486  14.583  29.954  1.00  0.00     0.072 C 
BRANCH   8   9
ATOM      9  C   UNL     1      17.292  13.269  30.082  1.00  0.00     0.227 C 
BRANCH   9  10
ATOM     10  N   UNL     1      18.616  13.536  30.658  1.00  0.00    -0.350 N 
ATOM     11  H   UNL     1      19.251  13.920  29.921  1.00  0.00     0.345 HD
ATOM     12  H   UNL     1      18.547  14.226  31.443  1.00  0.00     0.345 HD
ATOM     13  H   UNL     1      19.033  12.646  31.017  1.00  0.00     0.345 HD
ENDBRANCH   9  10
BRANCH   9  14
ATOM     14  C   UNL     1      16.558  12.255  30.921  1.00  0.00     0.099 C 
ATOM     15  O   UNL     1      16.718  12.221  32.170  1.00  0.00    -0.544 OA
ATOM     16  O   UNL     1      15.684  11.358  30.319  1.00  0.00    -0.544 OA
ENDBRANCH   9  14
ENDBRANCH   8   9
ENDBRANCH   1   8
TORSDOF 7
ENDMDL
MODEL 7
REMARK VINA RESULT:    -3.724      9.987     10.502
REMARK INTER + INTRA:          -5.494
REMARK INTER:                  -5.384
REMARK INTRA:                  -0.110
REMARK UNBOUND:                -0.464
REMARK SMILES [NH3+]CCCC[C@@H]([NH3+])C(=O)[O-]
REMARK SMILES IDX 4 1 3 2 2 3 1 4 5 8 6 9 7 10 8 14 9 15 10 16
REMARK H PARENT 1 5 1 6 1 7 7 11 7 12 7 13
REMARK Flexibility Score: inf
ROOT
ATOM      1  C   UNL     1      18.603  13.882  33.937  1.00  0.00     0.012 C 
ENDROOT
BRANCH   1   2
ATOM      2  C   UNL     1      18.933  13.141  35.243  1.00  0.00     0.061 C 
BRANCH   2   3
ATOM      3  C   UNL     1      20.124  13.765  35.988  1.00  0.00     0.258 C 
BRANCH   3   4
ATOM      4  N   UNL     1      19.766  14.190  37.343  1.00  0.00    -0.358 N 
ATOM      5  H   UNL     1      20.464  14.880  37.705  1.00  0.00     0.344 HD
ATOM      6  H   UNL     1      19.762  13.355  37.971  1.00  0.00     0.344 HD
ATOM      7  H   UNL     1      18.810  14.612  37.350  1.00  0.00     0.344 HD
ENDBRANCH   3   4
ENDBRANCH   2   3
ENDBRANCH   1   2
BRANCH   1   8
ATOM      8  C   UNL     1      17.208  13.524  33.384  1.00  0.00     0.072 C 
BRANCH   8   9
ATOM      9  C   UNL     1      17.233  12.815  32.010  1.00  0.00     0.227 C 
BRANCH   9  10
ATOM     10  N   UNL     1      15.947  12.156  31.753  1.00  0.00    -0.350 N 
ATOM     11  H   UNL     1      15.981  11.663  30.831  1.00  0.00     0.345 HD
ATOM     12  H   UNL     1      15.730  11.459  32.504  1.00  0.00     0.345 HD
ATOM     13  H   UNL     1      15.183  12.869  31.714  1.00  0.00     0.345 HD
ENDBRANCH   9  10
BRANCH   9  14
ATOM     14  C   UNL     1      17.549  13.783  30.899  1.00  0.00     0.099 C 
ATOM     15  O   UNL     1      18.238  13.418  29.909  1.00  0.00    -0.544 OA
ATOM     16  O   UNL     1      17.066  15.084  30.955  1.00  0.00    -0.544 OA
ENDBRANCH   9  14
ENDBRANCH   8   9
ENDBRANCH   1   8
TORSDOF 7
ENDMDL
MODEL 8
REMARK VINA RESULT:    -3.710      2.052      2.559
REMARK INTER + INTRA:          -5.475
REMARK INTER:                  -4.967
REMARK INTRA:                  -0.508
REMARK UNBOUND:                -0.464
REMARK SMILES [NH3+]CCCC[C@@H]([NH3+])C(=O)[O-]
REMARK SMILES IDX 4 1 3 2 2 3 1 4 5 8 6 9 7 10 8 14 9 15 10 16
REMARK H PARENT 1 5 1 6 1 7 7 11 7 12 7 13
REMARK Flexibility Score: inf
ROOT
ATOM      1  C   UNL     1      10.470  21.774  36.333  1.00  0.00     0.012 C 
ENDROOT
BRANCH   1   2
ATOM      2  C   UNL     1      10.588  23.092  37.116  1.00  0.00     0.061 C 
BRANCH   2   3
ATOM      3  C   UNL     1      11.930  23.802  36.874  1.00  0.00     0.258 C 
BRANCH   3   4
ATOM      4  N   UNL     1      11.779  24.994  36.037  1.00  0.00    -0.358 N 
ATOM      5  H   UNL     1      12.352  25.782  36.418  1.00  0.00     0.344 HD
ATOM      6  H   UNL     1      10.774  25.281  36.032  1.00  0.00     0.344 HD
ATOM      7  H   UNL     1      12.067  24.787  35.055  1.00  0.00     0.344 HD
ENDBRANCH   3   4
ENDBRANCH   2   3
ENDBRANCH   1   2
BRANCH   1   8
ATOM      8  C   UNL     1      11.739  21.449  35.520  1.00  0.00     0.072 C 
BRANCH   8   9
ATOM      9  C   UNL     1      11.468  21.081  34.042  1.00  0.00     0.227 C 
BRANCH   9  10
ATOM     10  N   UNL     1      10.432  20.044  33.956  1.00  0.00    -0.350 N 
ATOM     11  H   UNL     1       9.521  20.478  33.680  1.00  0.00     0.345 HD
ATOM     12  H   UNL     1      10.692  19.317  33.249  1.00  0.00     0.345 HD
ATOM     13  H   UNL     1      10.306  19.589  34.889  1.00  0.00     0.345 HD
ENDBRANCH   9  10
BRANCH   9  14
ATOM     14  C   UNL     1      11.058  22.290  33.242  1.00  0.00     0.099 C 
ATOM     15  O   UNL     1      10.070  22.235  32.462  1.00  0.00    -0.544 OA
ATOM     16  O   UNL     1      11.761  23.481  33.374  1.00  0.00    -0.544 OA
ENDBRANCH   9  14
ENDBRANCH   8   9
ENDBRANCH   1   8
TORSDOF 7
ENDMDL
MODEL 9
REMARK VINA RESULT:    -3.682      2.847      4.586
REMARK INTER + INTRA:          -5.437
REMARK INTER:                  -5.332
REMARK INTRA:                  -0.106
REMARK UNBOUND:                -0.464
REMARK SMILES [NH3+]CCCC[C@@H]([NH3+])C(=O)[O-]
REMARK SMILES IDX 4 1 3 2 2 3 1 4 5 8 6 9 7 10 8 14 9 15 10 16
REMARK H PARENT 1 5 1 6 1 7 7 11 7 12 7 13
REMARK Flexibility Score: inf
ROOT
ATOM      1  C   UNL     1      12.593  21.478  35.485  1.00  0.00     0.012 C 
ENDROOT
BRANCH   1   2
ATOM      2  C   UNL     1      11.221  21.981  35.007  1.00  0.00     0.061 C 
BRANCH   2   3
ATOM      3  C   UNL     1      10.718  21.226  33.765  1.00  0.00     0.258 C 
BRANCH   3   4
ATOM      4  N   UNL     1      10.326  19.850  34.078  1.00  0.00    -0.358 N 
ATOM      5  H   UNL     1       9.610  19.839  34.841  1.00  0.00     0.344 HD
ATOM      6  H   UNL     1      11.168  19.322  34.402  1.00  0.00     0.344 HD
ATOM      7  H   UNL     1       9.948  19.377  33.227  1.00  0.00     0.344 HD
ENDBRANCH   3   4
ENDBRANCH   2   3
ENDBRANCH   1   2
BRANCH   1   8
ATOM      8  C   UNL     1      13.743  21.910  34.555  1.00  0.00     0.072 C 
BRANCH   8   9
ATOM      9  C   UNL     1      14.726  22.921  35.191  1.00  0.00     0.227 C 
BRANCH   9  10
ATOM     10  N   UNL     1      15.009  22.552  36.583  1.00  0.00    -0.350 N 
ATOM     11  H   UNL     1      14.293  22.980  37.214  1.00  0.00     0.345 HD
ATOM     12  H   UNL     1      14.990  21.512  36.702  1.00  0.00     0.345 HD
ATOM     13  H   UNL     1      15.949  22.914  36.863  1.00  0.00     0.345 HD
ENDBRANCH   9  10
BRANCH   9  14
ATOM     14  C   UNL     1      16.011  23.004  34.407  1.00  0.00     0.099 C 
ATOM     15  O   UNL     1      16.527  21.967  33.913  1.00  0.00    -0.544 OA
ATOM     16  O   UNL     1      16.626  24.235  34.212  1.00  0.00    -0.544 OA
ENDBRANCH   9  14
ENDBRANCH   8   9
ENDBRANCH   1   8
TORSDOF 7
ENDMDL
