MODEL 1
REMARK VINA RESULT:    -2.866      0.000      0.000
REMARK INTER + INTRA:          -3.236
REMARK INTER:                  -3.201
REMARK INTRA:                  -0.035
REMARK UNBOUND:                -0.035
REMARK SMILES CCCC(=O)[O-]
REMARK SMILES IDX 3 1 4 2 5 3 6 4 2 5 1 6
REMARK H PARENT
REMARK Flexibility Score: inf
ROOT
ATOM      1  C   UNL     1      28.684  32.816   2.532  1.00  0.00     0.052 C 
ENDROOT
BRANCH   1   2
ATOM      2  C   UNL     1      29.252  33.314   3.823  1.00  0.00     0.041 C 
ATOM      3  O   UNL     1      28.579  34.088   4.554  1.00  0.00    -0.550 OA
ATOM      4  O   UNL     1      30.504  32.885   4.243  1.00  0.00    -0.550 OA
ENDBRANCH   1   2
BRANCH   1   5
ATOM      5  C   UNL     1      27.153  32.843   2.574  1.00  0.00     0.003 C 
ATOM      6  C   UNL     1      26.584  33.640   1.404  1.00  0.00     0.004 C 
ENDBRANCH   1   5
TORSDOF 2
ENDMDL
MODEL 2
REMARK VINA RESULT:    -2.839      1.909      3.297
REMARK INTER + INTRA:          -3.206
REMARK INTER:                  -3.195
REMARK INTRA:                  -0.012
REMARK UNBOUND:                -0.035
REMARK SMILES CCCC(=O)[O-]
REMARK SMILES IDX 3 1 4 2 5 3 6 4 2 5 1 6
REMARK H PARENT
REMARK Flexibility Score: inf
ROOT
ATOM      1  C   UNL     1      28.701  32.813   2.700  1.00  0.00     0.052 C 
ENDROOT
BRANCH   1   2
ATOM      2  C   UNL     1      27.245  33.156   2.745  1.00  0.00     0.041 C 
ATOM      3  O   UNL     1      26.725  33.570   3.814  1.00  0.00    -0.550 OA
ATOM      4  O   UNL     1      26.474  33.064   1.595  1.00  0.00    -0.550 OA
ENDBRANCH   1   2
BRANCH   1   5
ATOM      5  C   UNL     1      29.403  33.289   3.975  1.00  0.00     0.003 C 
ATOM      6  C   UNL     1      30.910  33.064   3.891  1.00  0.00     0.004 C 
ENDBRANCH   1   5
TORSDOF 2
ENDMDL
MODEL 3
REMARK VINA RESULT:    -2.828      1.281      1.664
REMARK INTER + INTRA:          -3.195
REMARK INTER:                  -3.166
REMARK INTRA:                  -0.028
REMARK UNBOUND:                -0.035
REMARK SMILES CCCC(=O)[O-]
REMARK SMILES IDX 3 1 4 2 5 3 6 4 2 5 1 6
REMARK H PARENT
REMARK Flexibility Score: inf
ROOT
ATOM      1  C   UNL     1      28.311  34.099   3.900  1.00  0.00     0.052 C 
ENDROOT
BRANCH   1   2
ATOM      2  C   UNL     1      29.429  33.207   3.460  1.00  0.00     0.041 C 
ATOM      3  O   UNL     1      30.369  32.931   4.251  1.00  0.00    -0.550 OA
ATOM      4  O   UNL     1      29.408  32.642   2.192  1.00  0.00    -0.550 OA
ENDBRANCH   1   2
BRANCH   1   5
ATOM      5  C   UNL     1      26.962  33.528   3.453  1.00  0.00     0.003 C 
ATOM      6  C   UNL     1      26.363  34.355   2.319  1.00  0.00     0.004 C 
ENDBRANCH   1   5
TORSDOF 2
ENDMDL
MODEL 4
REMARK VINA RESULT:    -2.794     16.877     17.523
REMARK INTER + INTRA:          -3.156
REMARK INTER:                  -3.136
REMARK INTRA:                  -0.020
REMARK UNBOUND:                -0.035
REMARK SMILES CCCC(=O)[O-]
REMARK SMILES IDX 3 1 4 2 5 3 6 4 2 5 1 6
REMARK H PARENT
REMARK Flexibility Score: inf
ROOT
ATOM      1  C   UNL     1      35.955  22.388  15.511  1.00  0.00     0.052 C 
ENDROOT
BRANCH   1   2
ATOM      2  C   UNL     1      35.439  23.581  16.251  1.00  0.00     0.041 C 
ATOM      3  O   UNL     1      36.121  24.099  17.174  1.00  0.00    -0.550 OA
ATOM      4  O   UNL     1      34.225  24.150  15.891  1.00  0.00    -0.550 OA
ENDBRANCH   1   2
BRANCH   1   5
ATOM      5  C   UNL     1      35.773  22.574  14.002  1.00  0.00     0.003 C 
ATOM      6  C   UNL     1      35.381  21.262  13.328  1.00  0.00     0.004 C 
ENDBRANCH   1   5
TORSDOF 2
ENDMDL
MODEL 5
REMARK VINA RESULT:    -2.743     18.395     18.947
REMARK INTER + INTRA:          -3.099
REMARK INTER:                  -3.059
REMARK INTRA:                  -0.040
REMARK UNBOUND:                -0.035
REMARK SMILES CCCC(=O)[O-]
REMARK SMILES IDX 3 1 4 2 5 3 6 4 2 5 1 6
REMARK H PARENT
REMARK Flexibility Score: inf
ROOT
ATOM      1  C   UNL     1      17.053  20.625   9.325  1.00  0.00     0.052 C 
ENDROOT
BRANCH   1   2
ATOM      2  C   UNL     1      16.299  20.840  10.599  1.00  0.00     0.041 C 
ATOM      3  O   UNL     1      16.003  22.006  10.970  1.00  0.00    -0.550 OA
ATOM      4  O   UNL     1      15.882  19.751  11.352  1.00  0.00    -0.550 OA
ENDBRANCH   1   2
BRANCH   1   5
ATOM      5  C   UNL     1      16.086  20.520   8.142  1.00  0.00     0.003 C 
ATOM      6  C   UNL     1      15.875  19.066   7.730  1.00  0.00     0.004 C 
ENDBRANCH   1   5
TORSDOF 2
ENDMDL
MODEL 6
REMARK VINA RESULT:    -2.685     13.579     14.066
REMARK INTER + INTRA:          -3.034
REMARK INTER:                  -2.976
REMARK INTRA:                  -0.059
REMARK UNBOUND:                -0.035
REMARK SMILES CCCC(=O)[O-]
REMARK SMILES IDX 3 1 4 2 5 3 6 4 2 5 1 6
REMARK H PARENT
REMARK Flexibility Score: inf
ROOT
ATOM      1  C   UNL     1      33.172  37.173  16.653  1.00  0.00     0.052 C 
ENDROOT
BRANCH   1   2
ATOM      2  C   UNL     1      33.960  36.627  15.505  1.00  0.00     0.041 C 
ATOM      3  O   UNL     1      35.009  35.963  15.715  1.00  0.00    -0.550 OA
ATOM      4  O   UNL     1      33.511  36.812  14.204  1.00  0.00    -0.550 OA
ENDBRANCH   1   2
BRANCH   1   5
ATOM      5  C   UNL     1      31.674  36.938  16.434  1.00  0.00     0.003 C 
ATOM      6  C   UNL     1      31.318  35.463  16.599  1.00  0.00     0.004 C 
ENDBRANCH   1   5
TORSDOF 2
ENDMDL
MODEL 7
REMARK VINA RESULT:    -2.621      2.265      3.412
REMARK INTER + INTRA:          -2.963
REMARK INTER:                  -2.949
REMARK INTRA:                  -0.014
REMARK UNBOUND:                -0.035
REMARK SMILES CCCC(=O)[O-]
REMARK SMILES IDX 3 1 4 2 5 3 6 4 2 5 1 6
REMARK H PARENT
REMARK Flexibility Score: inf
ROOT
ATOM      1  C   UNL     1      30.734  33.118   3.670  1.00  0.00     0.052 C 
ENDROOT
BRANCH   1   2
ATOM      2  C   UNL     1      29.243  33.199   3.576  1.00  0.00     0.041 C 
ATOM      3  O   UNL     1      28.590  33.872   4.417  1.00  0.00    -0.550 OA
ATOM      4  O   UNL     1      28.577  32.570   2.532  1.00  0.00    -0.550 OA
ENDBRANCH   1   2
BRANCH   1   5
ATOM      5  C   UNL     1      31.366  33.278   2.284  1.00  0.00     0.003 C 
ATOM      6  C   UNL     1      32.711  32.560   2.206  1.00  0.00     0.004 C 
ENDBRANCH   1   5
TORSDOF 2
ENDMDL
MODEL 8
REMARK VINA RESULT:    -2.578     16.148     17.231
REMARK INTER + INTRA:          -2.915
REMARK INTER:                  -2.845
REMARK INTRA:                  -0.070
REMARK UNBOUND:                -0.035
REMARK SMILES CCCC(=O)[O-]
REMARK SMILES IDX 3 1 4 2 5 3 6 4 2 5 1 6
REMARK H PARENT
REMARK Flexibility Score: inf
ROOT
ATOM      1  C   UNL     1      34.997  25.477  17.083  1.00  0.00     0.052 C 
ENDROOT
BRANCH   1   2
ATOM      2  C   UNL     1      34.913  23.999  16.865  1.00  0.00     0.041 C 
ATOM      3  O   UNL     1      34.374  23.260  17.730  1.00  0.00    -0.550 OA
ATOM      4  O   UNL     1      35.388  23.443  15.685  1.00  0.00    -0.550 OA
ENDBRANCH   1   2
BRANCH   1   5
ATOM      5  C   UNL     1      33.607  26.056  17.365  1.00  0.00     0.003 C 
ATOM      6  C   UNL     1      32.730  26.016  16.117  1.00  0.00     0.004 C 
ENDBRANCH   1   5
TORSDOF 2
ENDMDL
