MODEL 1
REMARK VINA RESULT:    -4.413      0.000      0.000
REMARK INTER + INTRA:          -5.159
REMARK INTER:                  -5.058
REMARK INTRA:                  -0.101
REMARK UNBOUND:                -0.101
REMARK SMILES COc1cc(C(=O)[O-])ccc1O
REMARK SMILES IDX 5 1 9 2 4 3 10 4 3 5 11 6 6 7 7 8 8 9 2 10 1 11 12 12
REMARK H PARENT 12 13
REMARK Flexibility Score: inf
ROOT
ATOM      1  C   UNL     1      -8.201  -5.031   2.325  1.00  0.00     0.001 A 
ATOM      2  C   UNL     1      -8.807  -3.960   1.648  1.00  0.00     0.014 A 
ATOM      3  C   UNL     1      -6.869  -4.903   2.756  1.00  0.00     0.060 A 
ATOM      4  C   UNL     1      -8.096  -2.783   1.408  1.00  0.00     0.051 A 
ATOM      5  C   UNL     1      -6.147  -3.716   2.515  1.00  0.00     0.161 A 
ATOM      6  C   UNL     1      -6.769  -2.658   1.838  1.00  0.00     0.157 A 
ENDROOT
BRANCH   1   7
ATOM      7  C   UNL     1      -8.953  -6.280   2.583  1.00  0.00     0.072 C 
ATOM      8  O   UNL     1      -8.687  -6.992   3.588  1.00  0.00    -0.545 OA
ATOM      9  O   UNL     1      -9.963  -6.687   1.718  1.00  0.00    -0.545 OA
ENDBRANCH   1   7
BRANCH   5  10
ATOM     10  O   UNL     1      -4.816  -3.553   2.930  1.00  0.00    -0.493 OA
ATOM     11  C   UNL     1      -4.416  -3.251   4.262  1.00  0.00     0.278 C 
ENDBRANCH   5  10
BRANCH   6  12
ATOM     12  O   UNL     1      -6.060  -1.483   1.596  1.00  0.00    -0.504 OA
ATOM     13  H   UNL     1      -5.663  -0.938   2.354  1.00  0.00     0.293 HD
ENDBRANCH   6  12
TORSDOF 3
ENDMDL
MODEL 2
REMARK VINA RESULT:    -4.115      2.734      4.800
REMARK INTER + INTRA:          -4.818
REMARK INTER:                  -4.733
REMARK INTRA:                  -0.085
REMARK UNBOUND:                -0.101
REMARK SMILES COc1cc(C(=O)[O-])ccc1O
REMARK SMILES IDX 5 1 9 2 4 3 10 4 3 5 11 6 6 7 7 8 8 9 2 10 1 11 12 12
REMARK H PARENT 12 13
REMARK Flexibility Score: inf
ROOT
ATOM      1  C   UNL     1      -6.621  -0.579   3.278  1.00  0.00     0.001 A 
ATOM      2  C   UNL     1      -7.385  -1.315   2.357  1.00  0.00     0.014 A 
ATOM      3  C   UNL     1      -5.511  -1.189   3.888  1.00  0.00     0.060 A 
ATOM      4  C   UNL     1      -7.045  -2.635   2.051  1.00  0.00     0.051 A 
ATOM      5  C   UNL     1      -5.164  -2.521   3.582  1.00  0.00     0.161 A 
ATOM      6  C   UNL     1      -5.938  -3.239   2.660  1.00  0.00     0.157 A 
ENDROOT
BRANCH   1   7
ATOM      7  C   UNL     1      -6.979   0.819   3.605  1.00  0.00     0.072 C 
ATOM      8  O   UNL     1      -6.476   1.392   4.608  1.00  0.00    -0.545 OA
ATOM      9  O   UNL     1      -7.876   1.523   2.808  1.00  0.00    -0.545 OA
ENDBRANCH   1   7
BRANCH   5  10
ATOM     10  O   UNL     1      -4.063  -3.162   4.172  1.00  0.00    -0.493 OA
ATOM     11  C   UNL     1      -2.877  -2.501   4.599  1.00  0.00     0.278 C 
ENDBRANCH   5  10
BRANCH   6  12
ATOM     12  O   UNL     1      -5.600  -4.556   2.354  1.00  0.00    -0.504 OA
ATOM     13  H   UNL     1      -5.054  -5.125   2.991  1.00  0.00     0.293 HD
ENDBRANCH   6  12
TORSDOF 3
ENDMDL
MODEL 3
REMARK VINA RESULT:    -4.067      1.213      2.423
REMARK INTER + INTRA:          -4.762
REMARK INTER:                  -4.660
REMARK INTRA:                  -0.103
REMARK UNBOUND:                -0.101
REMARK SMILES COc1cc(C(=O)[O-])ccc1O
REMARK SMILES IDX 5 1 9 2 4 3 10 4 3 5 11 6 6 7 7 8 8 9 2 10 1 11 12 12
REMARK H PARENT 12 13
REMARK Flexibility Score: inf
ROOT
ATOM      1  C   UNL     1      -8.433  -4.944   2.147  1.00  0.00     0.001 A 
ATOM      2  C   UNL     1      -7.567  -5.887   2.725  1.00  0.00     0.014 A 
ATOM      3  C   UNL     1      -7.966  -3.639   1.912  1.00  0.00     0.060 A 
ATOM      4  C   UNL     1      -6.259  -5.532   3.061  1.00  0.00     0.051 A 
ATOM      5  C   UNL     1      -6.646  -3.277   2.249  1.00  0.00     0.161 A 
ATOM      6  C   UNL     1      -5.796  -4.232   2.825  1.00  0.00     0.157 A 
ENDROOT
BRANCH   1   7
ATOM      7  C   UNL     1      -9.820  -5.317   1.790  1.00  0.00     0.072 C 
ATOM      8  O   UNL     1     -10.248  -6.481   2.010  1.00  0.00    -0.545 OA
ATOM      9  O   UNL     1     -10.673  -4.387   1.204  1.00  0.00    -0.545 OA
ENDBRANCH   1   7
BRANCH   5  10
ATOM     10  O   UNL     1      -6.145  -1.984   2.030  1.00  0.00    -0.493 OA
ATOM     11  C   UNL     1      -6.539  -0.830   2.763  1.00  0.00     0.278 C 
ENDBRANCH   5  10
BRANCH   6  12
ATOM     12  O   UNL     1      -4.491  -3.879   3.161  1.00  0.00    -0.504 OA
ATOM     13  H   UNL     1      -3.703  -4.474   2.927  1.00  0.00     0.293 HD
ENDBRANCH   6  12
TORSDOF 3
ENDMDL
MODEL 4
REMARK VINA RESULT:    -4.004      2.572      4.798
REMARK INTER + INTRA:          -4.691
REMARK INTER:                  -4.609
REMARK INTRA:                  -0.081
REMARK UNBOUND:                -0.101
REMARK SMILES COc1cc(C(=O)[O-])ccc1O
REMARK SMILES IDX 5 1 9 2 4 3 10 4 3 5 11 6 6 7 7 8 8 9 2 10 1 11 12 12
REMARK H PARENT 12 13
REMARK Flexibility Score: inf
ROOT
ATOM      1  C   UNL     1      -4.594  -3.028   3.857  1.00  0.00     0.001 A 
ATOM      2  C   UNL     1      -5.064  -4.212   3.264  1.00  0.00     0.014 A 
ATOM      3  C   UNL     1      -5.247  -1.815   3.574  1.00  0.00     0.060 A 
ATOM      4  C   UNL     1      -6.166  -4.184   2.406  1.00  0.00     0.051 A 
ATOM      5  C   UNL     1      -6.360  -1.783   2.709  1.00  0.00     0.161 A 
ATOM      6  C   UNL     1      -6.814  -2.975   2.127  1.00  0.00     0.157 A 
ENDROOT
BRANCH   1   7
ATOM      7  C   UNL     1      -3.427  -3.054   4.767  1.00  0.00     0.072 C 
ATOM      8  O   UNL     1      -3.503  -3.621   5.890  1.00  0.00    -0.545 OA
ATOM      9  O   UNL     1      -2.229  -2.454   4.395  1.00  0.00    -0.545 OA
ENDBRANCH   1   7
BRANCH   5  10
ATOM     10  O   UNL     1      -7.036  -0.591   2.404  1.00  0.00    -0.493 OA
ATOM     11  C   UNL     1      -7.292   0.454   3.336  1.00  0.00     0.278 C 
ENDBRANCH   5  10
BRANCH   6  12
ATOM     12  O   UNL     1      -7.913  -2.948   1.271  1.00  0.00    -0.504 OA
ATOM     13  H   UNL     1      -8.263  -2.078   0.884  1.00  0.00     0.293 HD
ENDBRANCH   6  12
TORSDOF 3
ENDMDL
MODEL 5
REMARK VINA RESULT:    -3.999      2.548      5.337
REMARK INTER + INTRA:          -4.685
REMARK INTER:                  -4.581
REMARK INTRA:                  -0.103
REMARK UNBOUND:                -0.101
REMARK SMILES COc1cc(C(=O)[O-])ccc1O
REMARK SMILES IDX 5 1 9 2 4 3 10 4 3 5 11 6 6 7 7 8 8 9 2 10 1 11 12 12
REMARK H PARENT 12 13
REMARK Flexibility Score: inf
ROOT
ATOM      1  C   UNL     1      -6.710  -0.452   3.302  1.00  0.00     0.001 A 
ATOM      2  C   UNL     1      -5.579  -1.063   3.868  1.00  0.00     0.014 A 
ATOM      3  C   UNL     1      -7.505  -1.184   2.403  1.00  0.00     0.060 A 
ATOM      4  C   UNL     1      -5.250  -2.380   3.544  1.00  0.00     0.051 A 
ATOM      5  C   UNL     1      -7.176  -2.515   2.072  1.00  0.00     0.161 A 
ATOM      6  C   UNL     1      -6.044  -3.107   2.648  1.00  0.00     0.157 A 
ENDROOT
BRANCH   1   7
ATOM      7  C   UNL     1      -7.062   0.944   3.644  1.00  0.00     0.072 C 
ATOM      8  O   UNL     1      -6.591   1.489   4.679  1.00  0.00    -0.545 OA
ATOM      9  O   UNL     1      -7.919   1.676   2.829  1.00  0.00    -0.545 OA
ENDBRANCH   1   7
BRANCH   5  10
ATOM     10  O   UNL     1      -7.946  -3.276   1.179  1.00  0.00    -0.493 OA
ATOM     11  C   UNL     1      -9.179  -3.906   1.509  1.00  0.00     0.278 C 
ENDBRANCH   5  10
BRANCH   6  12
ATOM     12  O   UNL     1      -5.714  -4.422   2.324  1.00  0.00    -0.504 OA
ATOM     13  H   UNL     1      -6.033  -4.852   1.463  1.00  0.00     0.293 HD
ENDBRANCH   6  12
TORSDOF 3
ENDMDL
MODEL 6
REMARK VINA RESULT:    -3.833     16.052     17.366
REMARK INTER + INTRA:          -4.494
REMARK INTER:                  -4.399
REMARK INTRA:                  -0.095
REMARK UNBOUND:                -0.101
REMARK SMILES COc1cc(C(=O)[O-])ccc1O
REMARK SMILES IDX 5 1 9 2 4 3 10 4 3 5 11 6 6 7 7 8 8 9 2 10 1 11 12 12
REMARK H PARENT 12 13
REMARK Flexibility Score: inf
ROOT
ATOM      1  C   UNL     1      -0.794  -1.183 -12.847  1.00  0.00     0.001 A 
ATOM      2  C   UNL     1      -1.522  -1.846 -11.845  1.00  0.00     0.014 A 
ATOM      3  C   UNL     1       0.361  -1.791 -13.369  1.00  0.00     0.060 A 
ATOM      4  C   UNL     1      -1.104  -3.092 -11.375  1.00  0.00     0.051 A 
ATOM      5  C   UNL     1       0.787  -3.050 -12.897  1.00  0.00     0.161 A 
ATOM      6  C   UNL     1       0.046  -3.696 -11.897  1.00  0.00     0.157 A 
ENDROOT
BRANCH   1   7
ATOM      7  C   UNL     1      -1.235   0.137 -13.349  1.00  0.00     0.072 C 
ATOM      8  O   UNL     1      -2.223   0.231 -14.125  1.00  0.00    -0.545 OA
ATOM      9  O   UNL     1      -0.563   1.295 -12.972  1.00  0.00    -0.545 OA
ENDBRANCH   1   7
BRANCH   5  10
ATOM     10  O   UNL     1       1.934  -3.687 -13.394  1.00  0.00    -0.493 OA
ATOM     11  C   UNL     1       3.266  -3.382 -12.992  1.00  0.00     0.278 C 
ENDBRANCH   5  10
BRANCH   6  12
ATOM     12  O   UNL     1       0.463  -4.939 -11.426  1.00  0.00    -0.504 OA
ATOM     13  H   UNL     1       1.434  -5.228 -11.478  1.00  0.00     0.293 HD
ENDBRANCH   6  12
TORSDOF 3
ENDMDL
MODEL 7
REMARK VINA RESULT:    -3.816      2.978      5.269
REMARK INTER + INTRA:          -4.475
REMARK INTER:                  -4.402
REMARK INTRA:                  -0.073
REMARK UNBOUND:                -0.101
REMARK SMILES COc1cc(C(=O)[O-])ccc1O
REMARK SMILES IDX 5 1 9 2 4 3 10 4 3 5 11 6 6 7 7 8 8 9 2 10 1 11 12 12
REMARK H PARENT 12 13
REMARK Flexibility Score: inf
ROOT
ATOM      1  C   UNL     1      -7.103   0.108   3.462  1.00  0.00     0.001 A 
ATOM      2  C   UNL     1      -6.035   0.424   4.319  1.00  0.00     0.014 A 
ATOM      3  C   UNL     1      -7.068  -1.099   2.742  1.00  0.00     0.060 A 
ATOM      4  C   UNL     1      -4.955  -0.451   4.454  1.00  0.00     0.051 A 
ATOM      5  C   UNL     1      -5.979  -1.985   2.875  1.00  0.00     0.161 A 
ATOM      6  C   UNL     1      -4.923  -1.652   3.736  1.00  0.00     0.157 A 
ENDROOT
BRANCH   1   7
ATOM      7  C   UNL     1      -8.250   1.032   3.317  1.00  0.00     0.072 C 
ATOM      8  O   UNL     1      -9.376   0.736   3.798  1.00  0.00    -0.545 OA
ATOM      9  O   UNL     1      -8.102   2.241   2.646  1.00  0.00    -0.545 OA
ENDBRANCH   1   7
BRANCH   5  10
ATOM     10  O   UNL     1      -5.910  -3.197   2.172  1.00  0.00    -0.493 OA
ATOM     11  C   UNL     1      -6.434  -4.435   2.642  1.00  0.00     0.278 C 
ENDBRANCH   5  10
BRANCH   6  12
ATOM     12  O   UNL     1      -3.844  -2.523   3.871  1.00  0.00    -0.504 OA
ATOM     13  H   UNL     1      -3.004  -2.254   4.370  1.00  0.00     0.293 HD
ENDBRANCH   6  12
TORSDOF 3
ENDMDL
MODEL 8
REMARK VINA RESULT:    -3.782      1.686      4.440
REMARK INTER + INTRA:          -4.436
REMARK INTER:                  -4.348
REMARK INTRA:                  -0.088
REMARK UNBOUND:                -0.101
REMARK SMILES COc1cc(C(=O)[O-])ccc1O
REMARK SMILES IDX 5 1 9 2 4 3 10 4 3 5 11 6 6 7 7 8 8 9 2 10 1 11 12 12
REMARK H PARENT 12 13
REMARK Flexibility Score: inf
ROOT
ATOM      1  C   UNL     1      -5.576  -2.793   3.208  1.00  0.00     0.001 A 
ATOM      2  C   UNL     1      -6.249  -1.883   2.376  1.00  0.00     0.014 A 
ATOM      3  C   UNL     1      -6.087  -4.095   3.352  1.00  0.00     0.060 A 
ATOM      4  C   UNL     1      -7.409  -2.267   1.700  1.00  0.00     0.051 A 
ATOM      5  C   UNL     1      -7.258  -4.487   2.671  1.00  0.00     0.161 A 
ATOM      6  C   UNL     1      -7.914  -3.565   1.845  1.00  0.00     0.157 A 
ENDROOT
BRANCH   1   7
ATOM      7  C   UNL     1      -4.346  -2.389   3.926  1.00  0.00     0.072 C 
ATOM      8  O   UNL     1      -4.159  -1.186   4.250  1.00  0.00    -0.545 OA
ATOM      9  O   UNL     1      -3.378  -3.333   4.252  1.00  0.00    -0.545 OA
ENDBRANCH   1   7
BRANCH   5  10
ATOM     10  O   UNL     1      -7.796  -5.778   2.791  1.00  0.00    -0.493 OA
ATOM     11  C   UNL     1      -7.034  -6.979   2.748  1.00  0.00     0.278 C 
ENDBRANCH   5  10
BRANCH   6  12
ATOM     12  O   UNL     1      -9.072  -3.946   1.170  1.00  0.00    -0.504 OA
ATOM     13  H   UNL     1      -9.147  -4.848   0.712  1.00  0.00     0.293 HD
ENDBRANCH   6  12
TORSDOF 3
ENDMDL
MODEL 9
REMARK VINA RESULT:    -3.772      1.245      4.832
REMARK INTER + INTRA:          -4.424
REMARK INTER:                  -4.321
REMARK INTRA:                  -0.103
REMARK UNBOUND:                -0.101
REMARK SMILES COc1cc(C(=O)[O-])ccc1O
REMARK SMILES IDX 5 1 9 2 4 3 10 4 3 5 11 6 6 7 7 8 8 9 2 10 1 11 12 12
REMARK H PARENT 12 13
REMARK Flexibility Score: inf
ROOT
ATOM      1  C   UNL     1      -6.818  -4.076   2.593  1.00  0.00     0.001 A 
ATOM      2  C   UNL     1      -6.527  -5.392   2.988  1.00  0.00     0.014 A 
ATOM      3  C   UNL     1      -8.079  -3.790   2.040  1.00  0.00     0.060 A 
ATOM      4  C   UNL     1      -7.479  -6.403   2.836  1.00  0.00     0.051 A 
ATOM      5  C   UNL     1      -9.043  -4.808   1.884  1.00  0.00     0.161 A 
ATOM      6  C   UNL     1      -8.734  -6.115   2.286  1.00  0.00     0.157 A 
ENDROOT
BRANCH   1   7
ATOM      7  C   UNL     1      -5.812  -3.003   2.753  1.00  0.00     0.072 C 
ATOM      8  O   UNL     1      -4.829  -3.156   3.528  1.00  0.00    -0.545 OA
ATOM      9  O   UNL     1      -5.936  -1.808   2.053  1.00  0.00    -0.545 OA
ENDBRANCH   1   7
BRANCH   5  10
ATOM     10  O   UNL     1     -10.311  -4.560   1.337  1.00  0.00    -0.493 OA
ATOM     11  C   UNL     1     -11.399  -3.980   2.048  1.00  0.00     0.278 C 
ENDBRANCH   5  10
BRANCH   6  12
ATOM     12  O   UNL     1      -9.682  -7.124   2.133  1.00  0.00    -0.504 OA
ATOM     13  H   UNL     1      -9.625  -7.797   1.377  1.00  0.00     0.293 HD
ENDBRANCH   6  12
TORSDOF 3
ENDMDL
