MODEL 1
REMARK VINA RESULT:    -5.522      0.000      0.000
REMARK INTER + INTRA:          -5.522
REMARK INTER:                  -5.522
REMARK INTRA:                   0.000
REMARK UNBOUND:                 0.000
REMARK SMILES C=C1CCC[C@@]2(C)CC(=O)C(=C(C)C)C[C@@H]12
REMARK SMILES IDX 13 1 12 2 11 3 15 4 16 5 2 6 1 7 3 8 4 9 5 10 6 11 8 12 9 13
REMARK SMILES IDX 10 14 7 15 14 16
REMARK H PARENT
REMARK Flexibility Score: inf
ROOT
ATOM      1  C   UNL     1      28.599  44.228 144.739  1.00  0.00     0.039 C 
ATOM      2  C   UNL     1      28.407  43.014 143.860  1.00  0.00    -0.070 C 
ATOM      3  C   UNL     1      27.424  42.972 142.915  1.00  0.00    -0.006 C 
ATOM      4  C   UNL     1      26.434  44.100 142.701  1.00  0.00     0.047 C 
ATOM      5  C   UNL     1      24.961  43.620 142.821  1.00  0.00     0.025 C 
ATOM      6  C   UNL     1      24.068  44.607 142.086  1.00  0.00    -0.073 C 
ATOM      7  C   UNL     1      23.699  45.759 142.669  1.00  0.00     0.008 C 
ATOM      8  C   UNL     1      23.709  44.331 140.645  1.00  0.00     0.031 C 
ATOM      9  C   UNL     1      23.147  42.912 140.442  1.00  0.00     0.005 C 
ATOM     10  C   UNL     1      23.334  41.981 141.654  1.00  0.00     0.008 C 
ATOM     11  C   UNL     1      24.718  42.126 142.351  1.00  0.00    -0.018 C 
ATOM     12  C   UNL     1      25.844  41.643 141.389  1.00  0.00     0.088 C 
ATOM     13  C   UNL     1      27.198  41.811 142.015  1.00  0.00     0.159 C 
ATOM     14  O   UNL     1      28.124  41.017 141.703  1.00  0.00    -0.295 OA
ATOM     15  C   UNL     1      24.695  41.192 143.592  1.00  0.00     0.012 C 
ATOM     16  C   UNL     1      29.319  41.834 144.104  1.00  0.00     0.039 C 
ENDROOT
TORSDOF 0
ENDMDL
MODEL 2
REMARK VINA RESULT:    -5.501     11.871     13.008
REMARK INTER + INTRA:          -5.501
REMARK INTER:                  -5.501
REMARK INTRA:                   0.000
REMARK UNBOUND:                 0.000
REMARK SMILES C=C1CCC[C@@]2(C)CC(=O)C(=C(C)C)C[C@@H]12
REMARK SMILES IDX 13 1 12 2 11 3 15 4 16 5 2 6 1 7 3 8 4 9 5 10 6 11 8 12 9 13
REMARK SMILES IDX 10 14 7 15 14 16
REMARK H PARENT
REMARK Flexibility Score: inf
ROOT
ATOM      1  C   UNL     1      25.948  29.420 144.392  1.00  0.00     0.039 C 
ATOM      2  C   UNL     1      27.073  30.260 143.834  1.00  0.00    -0.070 C 
ATOM      3  C   UNL     1      27.042  30.724 142.551  1.00  0.00    -0.006 C 
ATOM      4  C   UNL     1      25.920  30.405 141.583  1.00  0.00     0.047 C 
ATOM      5  C   UNL     1      26.441  29.744 140.276  1.00  0.00     0.025 C 
ATOM      6  C   UNL     1      25.406  29.953 139.182  1.00  0.00    -0.073 C 
ATOM      7  C   UNL     1      24.325  29.159 139.106  1.00  0.00     0.008 C 
ATOM      8  C   UNL     1      25.546  31.143 138.264  1.00  0.00     0.031 C 
ATOM      9  C   UNL     1      26.950  31.239 137.639  1.00  0.00     0.005 C 
ATOM     10  C   UNL     1      27.991  30.306 138.282  1.00  0.00     0.008 C 
ATOM     11  C   UNL     1      27.886  30.221 139.833  1.00  0.00    -0.018 C 
ATOM     12  C   UNL     1      28.248  31.599 140.460  1.00  0.00     0.088 C 
ATOM     13  C   UNL     1      28.114  31.564 141.956  1.00  0.00     0.159 C 
ATOM     14  O   UNL     1      28.853  32.302 142.659  1.00  0.00    -0.295 OA
ATOM     15  C   UNL     1      28.939  29.176 140.296  1.00  0.00     0.012 C 
ATOM     16  C   UNL     1      28.252  30.525 144.742  1.00  0.00     0.039 C 
ENDROOT
TORSDOF 0
ENDMDL
MODEL 3
REMARK VINA RESULT:    -5.453     10.888     12.958
REMARK INTER + INTRA:          -5.453
REMARK INTER:                  -5.453
REMARK INTRA:                   0.000
REMARK UNBOUND:                 0.000
REMARK SMILES C=C1CCC[C@@]2(C)CC(=O)C(=C(C)C)C[C@@H]12
REMARK SMILES IDX 13 1 12 2 11 3 15 4 16 5 2 6 1 7 3 8 4 9 5 10 6 11 8 12 9 13
REMARK SMILES IDX 10 14 7 15 14 16
REMARK H PARENT
REMARK Flexibility Score: inf
ROOT
ATOM      1  C   UNL     1      23.663  33.886 137.662  1.00  0.00     0.039 C 
ATOM      2  C   UNL     1      23.795  33.247 139.025  1.00  0.00    -0.070 C 
ATOM      3  C   UNL     1      24.920  32.560 139.379  1.00  0.00    -0.006 C 
ATOM      4  C   UNL     1      26.090  32.348 138.438  1.00  0.00     0.047 C 
ATOM      5  C   UNL     1      26.433  30.843 138.256  1.00  0.00     0.025 C 
ATOM      6  C   UNL     1      27.873  30.728 137.784  1.00  0.00    -0.073 C 
ATOM      7  C   UNL     1      28.183  30.915 136.490  1.00  0.00     0.008 C 
ATOM      8  C   UNL     1      28.963  30.529 138.810  1.00  0.00     0.031 C 
ATOM      9  C   UNL     1      28.662  29.358 139.764  1.00  0.00     0.005 C 
ATOM     10  C   UNL     1      27.220  28.829 139.678  1.00  0.00     0.008 C 
ATOM     11  C   UNL     1      26.147  29.948 139.533  1.00  0.00    -0.018 C 
ATOM     12  C   UNL     1      26.105  30.806 140.832  1.00  0.00     0.088 C 
ATOM     13  C   UNL     1      25.109  31.923 140.708  1.00  0.00     0.159 C 
ATOM     14  O   UNL     1      24.523  32.343 141.741  1.00  0.00    -0.295 OA
ATOM     15  C   UNL     1      24.777  29.235 139.367  1.00  0.00     0.012 C 
ATOM     16  C   UNL     1      22.612  33.361 139.959  1.00  0.00     0.039 C 
ENDROOT
TORSDOF 0
ENDMDL
MODEL 4
REMARK VINA RESULT:    -5.358      8.151     11.728
REMARK INTER + INTRA:          -5.358
REMARK INTER:                  -5.358
REMARK INTRA:                   0.000
REMARK UNBOUND:                 0.000
REMARK SMILES C=C1CCC[C@@]2(C)CC(=O)C(=C(C)C)C[C@@H]12
REMARK SMILES IDX 13 1 12 2 11 3 15 4 16 5 2 6 1 7 3 8 4 9 5 10 6 11 8 12 9 13
REMARK SMILES IDX 10 14 7 15 14 16
REMARK H PARENT
REMARK Flexibility Score: inf
ROOT
ATOM      1  C   UNL     1      33.299  42.706 143.081  1.00  0.00     0.039 C 
ATOM      2  C   UNL     1      34.724  42.245 142.885  1.00  0.00    -0.070 C 
ATOM      3  C   UNL     1      35.478  41.811 143.936  1.00  0.00    -0.006 C 
ATOM      4  C   UNL     1      34.975  41.796 145.366  1.00  0.00     0.047 C 
ATOM      5  C   UNL     1      35.899  42.599 146.323  1.00  0.00     0.025 C 
ATOM      6  C   UNL     1      35.669  42.109 147.744  1.00  0.00    -0.073 C 
ATOM      7  C   UNL     1      34.617  42.547 148.455  1.00  0.00     0.008 C 
ATOM      8  C   UNL     1      36.566  41.026 148.295  1.00  0.00     0.031 C 
ATOM      9  C   UNL     1      38.060  41.359 148.124  1.00  0.00     0.005 C 
ATOM     10  C   UNL     1      38.337  42.549 147.189  1.00  0.00     0.008 C 
ATOM     11  C   UNL     1      37.433  42.578 145.923  1.00  0.00    -0.018 C 
ATOM     12  C   UNL     1      37.766  41.360 145.011  1.00  0.00     0.088 C 
ATOM     13  C   UNL     1      36.879  41.334 143.800  1.00  0.00     0.159 C 
ATOM     14  O   UNL     1      37.316  40.838 142.727  1.00  0.00    -0.295 OA
ATOM     15  C   UNL     1      37.783  43.881 145.153  1.00  0.00     0.012 C 
ATOM     16  C   UNL     1      35.290  42.328 141.487  1.00  0.00     0.039 C 
ENDROOT
TORSDOF 0
ENDMDL
MODEL 5
REMARK VINA RESULT:    -5.301     10.681     12.695
REMARK INTER + INTRA:          -5.301
REMARK INTER:                  -5.301
REMARK INTRA:                   0.000
REMARK UNBOUND:                 0.000
REMARK SMILES C=C1CCC[C@@]2(C)CC(=O)C(=C(C)C)C[C@@H]12
REMARK SMILES IDX 13 1 12 2 11 3 15 4 16 5 2 6 1 7 3 8 4 9 5 10 6 11 8 12 9 13
REMARK SMILES IDX 10 14 7 15 14 16
REMARK H PARENT
REMARK Flexibility Score: inf
ROOT
ATOM      1  C   UNL     1      23.585  31.700 138.557  1.00  0.00     0.039 C 
ATOM      2  C   UNL     1      24.691  30.699 138.801  1.00  0.00    -0.070 C 
ATOM      3  C   UNL     1      25.981  31.102 138.987  1.00  0.00    -0.006 C 
ATOM      4  C   UNL     1      26.413  32.553 138.922  1.00  0.00     0.047 C 
ATOM      5  C   UNL     1      27.540  32.786 137.878  1.00  0.00     0.025 C 
ATOM      6  C   UNL     1      28.277  34.066 138.236  1.00  0.00    -0.073 C 
ATOM      7  C   UNL     1      27.769  35.263 137.897  1.00  0.00     0.008 C 
ATOM      8  C   UNL     1      29.519  33.978 139.090  1.00  0.00     0.031 C 
ATOM      9  C   UNL     1      30.537  32.961 138.541  1.00  0.00     0.005 C 
ATOM     10  C   UNL     1      29.981  32.048 137.435  1.00  0.00     0.008 C 
ATOM     11  C   UNL     1      28.527  31.558 137.694  1.00  0.00    -0.018 C 
ATOM     12  C   UNL     1      28.503  30.620 138.937  1.00  0.00     0.088 C 
ATOM     13  C   UNL     1      27.105  30.163 139.242  1.00  0.00     0.159 C 
ATOM     14  O   UNL     1      26.928  29.037 139.778  1.00  0.00    -0.295 OA
ATOM     15  C   UNL     1      28.101  30.737 136.447  1.00  0.00     0.012 C 
ATOM     16  C   UNL     1      24.314  29.236 138.784  1.00  0.00     0.039 C 
ENDROOT
TORSDOF 0
ENDMDL
MODEL 6
REMARK VINA RESULT:    -5.296     10.825     12.315
REMARK INTER + INTRA:          -5.296
REMARK INTER:                  -5.296
REMARK INTRA:                   0.000
REMARK UNBOUND:                 0.000
REMARK SMILES C=C1CCC[C@@]2(C)CC(=O)C(=C(C)C)C[C@@H]12
REMARK SMILES IDX 13 1 12 2 11 3 15 4 16 5 2 6 1 7 3 8 4 9 5 10 6 11 8 12 9 13
REMARK SMILES IDX 10 14 7 15 14 16
REMARK H PARENT
REMARK Flexibility Score: inf
ROOT
ATOM      1  C   UNL     1      27.810  32.783 143.307  1.00  0.00     0.039 C 
ATOM      2  C   UNL     1      28.298  31.481 142.717  1.00  0.00    -0.070 C 
ATOM      3  C   UNL     1      28.634  31.384 141.398  1.00  0.00    -0.006 C 
ATOM      4  C   UNL     1      28.506  32.539 140.424  1.00  0.00     0.047 C 
ATOM      5  C   UNL     1      27.620  32.180 139.198  1.00  0.00     0.025 C 
ATOM      6  C   UNL     1      27.969  33.121 138.056  1.00  0.00    -0.073 C 
ATOM      7  C   UNL     1      27.456  34.362 138.014  1.00  0.00     0.008 C 
ATOM      8  C   UNL     1      28.999  32.685 137.042  1.00  0.00     0.031 C 
ATOM      9  C   UNL     1      28.696  31.293 136.458  1.00  0.00     0.005 C 
ATOM     10  C   UNL     1      27.604  30.517 137.216  1.00  0.00     0.008 C 
ATOM     11  C   UNL     1      27.691  30.657 138.764  1.00  0.00    -0.018 C 
ATOM     12  C   UNL     1      28.994  29.978 139.280  1.00  0.00     0.088 C 
ATOM     13  C   UNL     1      29.131  30.134 140.767  1.00  0.00     0.159 C 
ATOM     14  O   UNL     1      29.732  29.245 141.427  1.00  0.00    -0.295 OA
ATOM     15  C   UNL     1      26.471  29.896 139.352  1.00  0.00     0.012 C 
ATOM     16  C   UNL     1      28.355  30.284 143.637  1.00  0.00     0.039 C 
ENDROOT
TORSDOF 0
ENDMDL
MODEL 7
REMARK VINA RESULT:    -5.271      8.709     10.895
REMARK INTER + INTRA:          -5.271
REMARK INTER:                  -5.271
REMARK INTRA:                   0.000
REMARK UNBOUND:                 0.000
REMARK SMILES C=C1CCC[C@@]2(C)CC(=O)C(=C(C)C)C[C@@H]12
REMARK SMILES IDX 13 1 12 2 11 3 15 4 16 5 2 6 1 7 3 8 4 9 5 10 6 11 8 12 9 13
REMARK SMILES IDX 10 14 7 15 14 16
REMARK H PARENT
REMARK Flexibility Score: inf
ROOT
ATOM      1  C   UNL     1      34.702  42.432 148.525  1.00  0.00     0.039 C 
ATOM      2  C   UNL     1      34.307  41.455 147.442  1.00  0.00    -0.070 C 
ATOM      3  C   UNL     1      35.077  41.283 146.329  1.00  0.00    -0.006 C 
ATOM      4  C   UNL     1      36.344  42.074 146.069  1.00  0.00     0.047 C 
ATOM      5  C   UNL     1      36.301  42.822 144.707  1.00  0.00     0.025 C 
ATOM      6  C   UNL     1      37.727  43.118 144.271  1.00  0.00    -0.073 C 
ATOM      7  C   UNL     1      38.393  44.167 144.783  1.00  0.00     0.008 C 
ATOM      8  C   UNL     1      38.425  42.143 143.355  1.00  0.00     0.031 C 
ATOM      9  C   UNL     1      37.588  41.808 142.107  1.00  0.00     0.005 C 
ATOM     10  C   UNL     1      36.127  42.285 142.182  1.00  0.00     0.008 C 
ATOM     11  C   UNL     1      35.470  42.082 143.579  1.00  0.00    -0.018 C 
ATOM     12  C   UNL     1      35.335  40.559 143.879  1.00  0.00     0.088 C 
ATOM     13  C   UNL     1      34.744  40.328 145.240  1.00  0.00     0.159 C 
ATOM     14  O   UNL     1      34.053  39.295 145.444  1.00  0.00    -0.295 OA
ATOM     15  C   UNL     1      34.046  42.697 143.498  1.00  0.00     0.012 C 
ATOM     16  C   UNL     1      33.004  40.712 147.625  1.00  0.00     0.039 C 
ENDROOT
TORSDOF 0
ENDMDL
MODEL 8
REMARK VINA RESULT:    -5.266     14.253     16.546
REMARK INTER + INTRA:          -5.266
REMARK INTER:                  -5.266
REMARK INTRA:                   0.000
REMARK UNBOUND:                 0.000
REMARK SMILES C=C1CCC[C@@]2(C)CC(=O)C(=C(C)C)C[C@@H]12
REMARK SMILES IDX 13 1 12 2 11 3 15 4 16 5 2 6 1 7 3 8 4 9 5 10 6 11 8 12 9 13
REMARK SMILES IDX 10 14 7 15 14 16
REMARK H PARENT
REMARK Flexibility Score: inf
ROOT
ATOM      1  C   UNL     1      40.111  36.342 138.094  1.00  0.00     0.039 C 
ATOM      2  C   UNL     1      38.685  35.844 138.119  1.00  0.00    -0.070 C 
ATOM      3  C   UNL     1      38.237  34.932 137.208  1.00  0.00    -0.006 C 
ATOM      4  C   UNL     1      39.103  34.387 136.089  1.00  0.00     0.047 C 
ATOM      5  C   UNL     1      38.467  34.613 134.689  1.00  0.00     0.025 C 
ATOM      6  C   UNL     1      39.067  33.611 133.716  1.00  0.00    -0.073 C 
ATOM      7  C   UNL     1      40.270  33.834 133.162  1.00  0.00     0.008 C 
ATOM      8  C   UNL     1      38.349  32.303 133.483  1.00  0.00     0.031 C 
ATOM      9  C   UNL     1      36.864  32.504 133.130  1.00  0.00     0.005 C 
ATOM     10  C   UNL     1      36.348  33.934 133.369  1.00  0.00     0.008 C 
ATOM     11  C   UNL     1      36.882  34.585 134.678  1.00  0.00    -0.018 C 
ATOM     12  C   UNL     1      36.318  33.822 135.912  1.00  0.00     0.088 C 
ATOM     13  C   UNL     1      36.851  34.398 137.193  1.00  0.00     0.159 C 
ATOM     14  O   UNL     1      36.144  34.342 138.234  1.00  0.00    -0.295 OA
ATOM     15  C   UNL     1      36.340  36.041 134.708  1.00  0.00     0.012 C 
ATOM     16  C   UNL     1      37.766  36.431 139.166  1.00  0.00     0.039 C 
ENDROOT
TORSDOF 0
ENDMDL
MODEL 9
REMARK VINA RESULT:    -5.260     10.654     12.219
REMARK INTER + INTRA:          -5.260
REMARK INTER:                  -5.260
REMARK INTRA:                   0.000
REMARK UNBOUND:                 0.000
REMARK SMILES C=C1CCC[C@@]2(C)CC(=O)C(=C(C)C)C[C@@H]12
REMARK SMILES IDX 13 1 12 2 11 3 15 4 16 5 2 6 1 7 3 8 4 9 5 10 6 11 8 12 9 13
REMARK SMILES IDX 10 14 7 15 14 16
REMARK H PARENT
REMARK Flexibility Score: inf
ROOT
ATOM      1  C   UNL     1      27.879  35.227 138.060  1.00  0.00     0.039 C 
ATOM      2  C   UNL     1      28.275  33.855 137.567  1.00  0.00    -0.070 C 
ATOM      3  C   UNL     1      27.401  32.809 137.608  1.00  0.00    -0.006 C 
ATOM      4  C   UNL     1      26.001  32.921 138.180  1.00  0.00     0.047 C 
ATOM      5  C   UNL     1      25.743  31.887 139.311  1.00  0.00     0.025 C 
ATOM      6  C   UNL     1      24.243  31.682 139.447  1.00  0.00    -0.073 C 
ATOM      7  C   UNL     1      23.494  32.561 140.133  1.00  0.00     0.008 C 
ATOM      8  C   UNL     1      23.592  30.548 138.693  1.00  0.00     0.031 C 
ATOM      9  C   UNL     1      24.297  29.201 138.935  1.00  0.00     0.005 C 
ATOM     10  C   UNL     1      25.661  29.321 139.636  1.00  0.00     0.008 C 
ATOM     11  C   UNL     1      26.522  30.518 139.137  1.00  0.00    -0.018 C 
ATOM     12  C   UNL     1      26.936  30.284 137.654  1.00  0.00     0.088 C 
ATOM     13  C   UNL     1      27.732  31.443 137.126  1.00  0.00     0.159 C 
ATOM     14  O   UNL     1      28.599  31.239 136.235  1.00  0.00    -0.295 OA
ATOM     15  C   UNL     1      27.807  30.540 140.010  1.00  0.00     0.012 C 
ATOM     16  C   UNL     1      29.692  33.683 137.071  1.00  0.00     0.039 C 
ENDROOT
TORSDOF 0
ENDMDL
