MODEL 1
REMARK VINA RESULT:    -4.090      0.000      0.000
REMARK INTER + INTRA:         -16.583
REMARK INTER:                 -10.785
REMARK INTRA:                  -5.798
REMARK UNBOUND:                -5.798
REMARK SMILES CCCCCCCCCCCCCCCCCCCCCCCCCCCCCC(=O)[O-]
REMARK SMILES IDX 16 1 17 2 18 3 19 4 20 5 21 6 22 7 23 8 24 9 25 10 26 11
REMARK SMILES IDX 27 12 28 13 29 14 30 15 31 16 32 17 15 18 14 19 13 20 12 21
REMARK SMILES IDX 11 22 10 23 9 24 8 25 7 26 6 27 5 28 4 29 3 30 2 31 1 32
REMARK H PARENT
REMARK Flexibility Score: inf
ROOT
ATOM      1  C   UNL     1     -22.648 -13.669 -19.719  1.00  0.00     0.000 C 
ENDROOT
BRANCH   1   2
ATOM      2  C   UNL     1     -22.997 -13.890 -18.235  1.00  0.00     0.000 C 
BRANCH   2   3
ATOM      3  C   UNL     1     -22.174 -13.049 -17.241  1.00  0.00     0.000 C 
BRANCH   3   4
ATOM      4  C   UNL     1     -23.007 -12.201 -16.263  1.00  0.00     0.000 C 
BRANCH   4   5
ATOM      5  C   UNL     1     -23.039 -12.785 -14.842  1.00  0.00     0.000 C 
BRANCH   5   6
ATOM      6  C   UNL     1     -24.480 -12.873 -14.317  1.00  0.00     0.000 C 
BRANCH   6   7
ATOM      7  C   UNL     1     -24.916 -14.314 -14.011  1.00  0.00     0.000 C 
BRANCH   7   8
ATOM      8  C   UNL     1     -23.841 -15.350 -14.385  1.00  0.00     0.000 C 
BRANCH   8   9
ATOM      9  C   UNL     1     -24.385 -16.473 -15.289  1.00  0.00     0.000 C 
BRANCH   9  10
ATOM     10  C   UNL     1     -23.363 -17.079 -16.269  1.00  0.00     0.000 C 
BRANCH  10  11
ATOM     11  C   UNL     1     -24.014 -17.662 -17.533  1.00  0.00     0.000 C 
BRANCH  11  12
ATOM     12  C   UNL     1     -23.156 -17.373 -18.776  1.00  0.00     0.000 C 
BRANCH  12  13
ATOM     13  C   UNL     1     -24.001 -17.027 -20.015  1.00  0.00     0.006 C 
BRANCH  13  14
ATOM     14  C   UNL     1     -24.191 -18.195 -20.996  1.00  0.00     0.053 C 
BRANCH  14  15
ATOM     15  C   UNL     1     -25.614 -18.662 -21.042  1.00  0.00     0.041 C 
ATOM     16  O   UNL     1     -26.100 -19.314 -20.080  1.00  0.00    -0.550 OA
ATOM     17  O   UNL     1     -26.409 -18.359 -22.139  1.00  0.00    -0.550 OA
ENDBRANCH  14  15
ENDBRANCH  13  14
ENDBRANCH  12  13
ENDBRANCH  11  12
ENDBRANCH  10  11
ENDBRANCH   9  10
ENDBRANCH   8   9
ENDBRANCH   7   8
ENDBRANCH   6   7
ENDBRANCH   5   6
ENDBRANCH   4   5
ENDBRANCH   3   4
ENDBRANCH   2   3
ENDBRANCH   1   2
BRANCH   1  18
ATOM     18  C   UNL     1     -21.553 -12.604 -19.948  1.00  0.00     0.000 C 
BRANCH  18  19
ATOM     19  C   UNL     1     -20.905 -12.637 -21.347  1.00  0.00     0.000 C 
BRANCH  19  20
ATOM     20  C   UNL     1     -19.370 -12.799 -21.364  1.00  0.00     0.000 C 
BRANCH  20  21
ATOM     21  C   UNL     1     -18.793 -13.460 -22.628  1.00  0.00     0.000 C 
BRANCH  21  22
ATOM     22  C   UNL     1     -19.753 -13.394 -23.831  1.00  0.00     0.000 C 
BRANCH  22  23
ATOM     23  C   UNL     1     -19.755 -14.684 -24.672  1.00  0.00     0.000 C 
BRANCH  23  24
ATOM     24  C   UNL     1     -21.126 -15.374 -24.801  1.00  0.00    -0.000 C 
BRANCH  24  25
ATOM     25  C   UNL     1     -21.793 -15.654 -23.447  1.00  0.00    -0.000 C 
BRANCH  25  26
ATOM     26  C   UNL     1     -21.097 -16.817 -22.720  1.00  0.00    -0.000 C 
BRANCH  26  27
ATOM     27  C   UNL     1     -20.610 -16.427 -21.307  1.00  0.00    -0.000 C 
BRANCH  27  28
ATOM     28  C   UNL     1     -19.136 -16.775 -21.035  1.00  0.00    -0.000 C 
BRANCH  28  29
ATOM     29  C   UNL     1     -18.575 -16.073 -19.787  1.00  0.00    -0.000 C 
BRANCH  29  30
ATOM     30  C   UNL     1     -19.688 -15.575 -18.839  1.00  0.00    -0.000 C 
BRANCH  30  31
ATOM     31  C   UNL     1     -19.416 -15.875 -17.356  1.00  0.00    -0.003 C 
ATOM     32  C   UNL     1     -19.791 -17.300 -16.953  1.00  0.00     0.004 C 
ENDBRANCH  30  31
ENDBRANCH  29  30
ENDBRANCH  28  29
ENDBRANCH  27  28
ENDBRANCH  26  27
ENDBRANCH  25  26
ENDBRANCH  24  25
ENDBRANCH  23  24
ENDBRANCH  22  23
ENDBRANCH  21  22
ENDBRANCH  20  21
ENDBRANCH  19  20
ENDBRANCH  18  19
ENDBRANCH   1  18
TORSDOF 28
ENDMDL
MODEL 2
REMARK VINA RESULT:    -4.024      4.319      7.458
REMARK INTER + INTRA:         -16.408
REMARK INTER:                 -11.355
REMARK INTRA:                  -5.054
REMARK UNBOUND:                -5.798
REMARK SMILES CCCCCCCCCCCCCCCCCCCCCCCCCCCCCC(=O)[O-]
REMARK SMILES IDX 16 1 17 2 18 3 19 4 20 5 21 6 22 7 23 8 24 9 25 10 26 11
REMARK SMILES IDX 27 12 28 13 29 14 30 15 31 16 32 17 15 18 14 19 13 20 12 21
REMARK SMILES IDX 11 22 10 23 9 24 8 25 7 26 6 27 5 28 4 29 3 30 2 31 1 32
REMARK H PARENT
REMARK Flexibility Score: inf
ROOT
ATOM      1  C   UNL     1     -19.496 -14.954 -17.757  1.00  0.00     0.000 C 
ENDROOT
BRANCH   1   2
ATOM      2  C   UNL     1     -19.880 -16.309 -17.134  1.00  0.00     0.000 C 
BRANCH   2   3
ATOM      3  C   UNL     1     -18.780 -17.386 -17.189  1.00  0.00     0.000 C 
BRANCH   3   4
ATOM      4  C   UNL     1     -18.815 -18.410 -16.040  1.00  0.00     0.000 C 
BRANCH   4   5
ATOM      5  C   UNL     1     -20.231 -18.642 -15.489  1.00  0.00     0.000 C 
BRANCH   5   6
ATOM      6  C   UNL     1     -20.704 -20.074 -15.781  1.00  0.00     0.000 C 
BRANCH   6   7
ATOM      7  C   UNL     1     -21.724 -20.586 -14.751  1.00  0.00     0.000 C 
BRANCH   7   8
ATOM      8  C   UNL     1     -22.163 -19.494 -13.759  1.00  0.00     0.000 C 
BRANCH   8   9
ATOM      9  C   UNL     1     -21.999 -19.923 -12.289  1.00  0.00     0.000 C 
BRANCH   9  10
ATOM     10  C   UNL     1     -20.553 -20.221 -11.849  1.00  0.00     0.000 C 
BRANCH  10  11
ATOM     11  C   UNL     1     -20.393 -21.610 -11.210  1.00  0.00     0.000 C 
BRANCH  11  12
ATOM     12  C   UNL     1     -19.682 -22.577 -12.172  1.00  0.00     0.000 C 
BRANCH  12  13
ATOM     13  C   UNL     1     -20.508 -23.845 -12.458  1.00  0.00     0.006 C 
BRANCH  13  14
ATOM     14  C   UNL     1     -22.021 -23.597 -12.584  1.00  0.00     0.053 C 
BRANCH  14  15
ATOM     15  C   UNL     1     -22.717 -24.727 -13.280  1.00  0.00     0.041 C 
ATOM     16  O   UNL     1     -22.816 -24.735 -14.535  1.00  0.00    -0.550 OA
ATOM     17  O   UNL     1     -23.238 -25.781 -12.541  1.00  0.00    -0.550 OA
ENDBRANCH  14  15
ENDBRANCH  13  14
ENDBRANCH  12  13
ENDBRANCH  11  12
ENDBRANCH  10  11
ENDBRANCH   9  10
ENDBRANCH   8   9
ENDBRANCH   7   8
ENDBRANCH   6   7
ENDBRANCH   5   6
ENDBRANCH   4   5
ENDBRANCH   3   4
ENDBRANCH   2   3
ENDBRANCH   1   2
BRANCH   1  18
ATOM     18  C   UNL     1     -20.455 -13.802 -17.378  1.00  0.00     0.000 C 
BRANCH  18  19
ATOM     19  C   UNL     1     -21.663 -13.634 -18.321  1.00  0.00     0.000 C 
BRANCH  19  20
ATOM     20  C   UNL     1     -22.974 -13.177 -17.646  1.00  0.00     0.000 C 
BRANCH  20  21
ATOM     21  C   UNL     1     -22.826 -12.023 -16.638  1.00  0.00     0.000 C 
BRANCH  21  22
ATOM     22  C   UNL     1     -23.447 -12.343 -15.265  1.00  0.00     0.000 C 
BRANCH  22  23
ATOM     23  C   UNL     1     -23.126 -13.767 -14.774  1.00  0.00     0.000 C 
BRANCH  23  24
ATOM     24  C   UNL     1     -24.310 -14.516 -14.135  1.00  0.00    -0.000 C 
BRANCH  24  25
ATOM     25  C   UNL     1     -24.307 -16.022 -14.434  1.00  0.00    -0.000 C 
BRANCH  25  26
ATOM     26  C   UNL     1     -23.177 -16.387 -15.410  1.00  0.00    -0.000 C 
BRANCH  26  27
ATOM     27  C   UNL     1     -23.692 -16.661 -16.840  1.00  0.00    -0.000 C 
BRANCH  27  28
ATOM     28  C   UNL     1     -23.325 -18.055 -17.380  1.00  0.00    -0.000 C 
BRANCH  28  29
ATOM     29  C   UNL     1     -22.690 -18.005 -18.781  1.00  0.00    -0.000 C 
BRANCH  29  30
ATOM     30  C   UNL     1     -23.540 -17.200 -19.787  1.00  0.00    -0.000 C 
BRANCH  30  31
ATOM     31  C   UNL     1     -22.733 -16.166 -20.589  1.00  0.00    -0.003 C 
ATOM     32  C   UNL     1     -21.255 -16.528 -20.720  1.00  0.00     0.004 C 
ENDBRANCH  30  31
ENDBRANCH  29  30
ENDBRANCH  28  29
ENDBRANCH  27  28
ENDBRANCH  26  27
ENDBRANCH  25  26
ENDBRANCH  24  25
ENDBRANCH  23  24
ENDBRANCH  22  23
ENDBRANCH  21  22
ENDBRANCH  20  21
ENDBRANCH  19  20
ENDBRANCH  18  19
ENDBRANCH   1  18
TORSDOF 28
ENDMDL
MODEL 3
REMARK VINA RESULT:    -3.987      1.257      3.691
REMARK INTER + INTRA:         -16.310
REMARK INTER:                 -10.686
REMARK INTRA:                  -5.624
REMARK UNBOUND:                -5.798
REMARK SMILES CCCCCCCCCCCCCCCCCCCCCCCCCCCCCC(=O)[O-]
REMARK SMILES IDX 16 1 17 2 18 3 19 4 20 5 21 6 22 7 23 8 24 9 25 10 26 11
REMARK SMILES IDX 27 12 28 13 29 14 30 15 31 16 32 17 15 18 14 19 13 20 12 21
REMARK SMILES IDX 11 22 10 23 9 24 8 25 7 26 6 27 5 28 4 29 3 30 2 31 1 32
REMARK H PARENT
REMARK Flexibility Score: inf
ROOT
ATOM      1  C   UNL     1     -22.662 -13.645 -20.225  1.00  0.00     0.000 C 
ENDROOT
BRANCH   1   2
ATOM      2  C   UNL     1     -22.586 -14.157 -18.774  1.00  0.00     0.000 C 
BRANCH   2   3
ATOM      3  C   UNL     1     -22.917 -13.107 -17.696  1.00  0.00     0.000 C 
BRANCH   3   4
ATOM      4  C   UNL     1     -22.406 -13.444 -16.283  1.00  0.00     0.000 C 
BRANCH   4   5
ATOM      5  C   UNL     1     -23.282 -12.847 -15.172  1.00  0.00     0.000 C 
BRANCH   5   6
ATOM      6  C   UNL     1     -24.031 -13.951 -14.411  1.00  0.00     0.000 C 
BRANCH   6   7
ATOM      7  C   UNL     1     -23.399 -15.339 -14.598  1.00  0.00     0.000 C 
BRANCH   7   8
ATOM      8  C   UNL     1     -24.449 -16.455 -14.734  1.00  0.00     0.000 C 
BRANCH   8   9
ATOM      9  C   UNL     1     -24.423 -17.132 -16.118  1.00  0.00     0.000 C 
BRANCH   9  10
ATOM     10  C   UNL     1     -23.020 -17.366 -16.709  1.00  0.00     0.000 C 
BRANCH  10  11
ATOM     11  C   UNL     1     -23.056 -17.920 -18.142  1.00  0.00     0.000 C 
BRANCH  11  12
ATOM     12  C   UNL     1     -24.116 -17.193 -18.985  1.00  0.00     0.000 C 
BRANCH  12  13
ATOM     13  C   UNL     1     -24.306 -17.825 -20.376  1.00  0.00     0.006 C 
BRANCH  13  14
ATOM     14  C   UNL     1     -23.506 -19.120 -20.595  1.00  0.00     0.053 C 
BRANCH  14  15
ATOM     15  C   UNL     1     -24.397 -20.278 -20.929  1.00  0.00     0.041 C 
ATOM     16  O   UNL     1     -25.555 -20.079 -21.383  1.00  0.00    -0.550 OA
ATOM     17  O   UNL     1     -23.939 -21.578 -20.758  1.00  0.00    -0.550 OA
ENDBRANCH  14  15
ENDBRANCH  13  14
ENDBRANCH  12  13
ENDBRANCH  11  12
ENDBRANCH  10  11
ENDBRANCH   9  10
ENDBRANCH   8   9
ENDBRANCH   7   8
ENDBRANCH   6   7
ENDBRANCH   5   6
ENDBRANCH   4   5
ENDBRANCH   3   4
ENDBRANCH   2   3
ENDBRANCH   1   2
BRANCH   1  18
ATOM     18  C   UNL     1     -21.525 -12.667 -20.599  1.00  0.00     0.000 C 
BRANCH  18  19
ATOM     19  C   UNL     1     -20.122 -13.102 -20.129  1.00  0.00     0.000 C 
BRANCH  19  20
ATOM     20  C   UNL     1     -19.596 -12.393 -18.863  1.00  0.00     0.000 C 
BRANCH  20  21
ATOM     21  C   UNL     1     -18.990 -13.320 -17.794  1.00  0.00     0.000 C 
BRANCH  21  22
ATOM     22  C   UNL     1     -18.603 -14.703 -18.351  1.00  0.00     0.000 C 
BRANCH  22  23
ATOM     23  C   UNL     1     -19.314 -15.863 -17.631  1.00  0.00     0.000 C 
BRANCH  23  24
ATOM     24  C   UNL     1     -19.771 -17.015 -18.546  1.00  0.00    -0.000 C 
BRANCH  24  25
ATOM     25  C   UNL     1     -19.449 -16.774 -20.028  1.00  0.00    -0.000 C 
BRANCH  25  26
ATOM     26  C   UNL     1     -20.717 -16.885 -20.892  1.00  0.00    -0.000 C 
BRANCH  26  27
ATOM     27  C   UNL     1     -20.652 -16.003 -22.158  1.00  0.00    -0.000 C 
BRANCH  27  28
ATOM     28  C   UNL     1     -21.913 -16.077 -23.037  1.00  0.00    -0.000 C 
BRANCH  28  29
ATOM     29  C   UNL     1     -21.653 -15.654 -24.493  1.00  0.00    -0.000 C 
BRANCH  29  30
ATOM     30  C   UNL     1     -20.185 -15.243 -24.736  1.00  0.00    -0.000 C 
BRANCH  30  31
ATOM     31  C   UNL     1     -20.007 -13.752 -25.066  1.00  0.00    -0.003 C 
ATOM     32  C   UNL     1     -19.447 -12.942 -23.899  1.00  0.00     0.004 C 
ENDBRANCH  30  31
ENDBRANCH  29  30
ENDBRANCH  28  29
ENDBRANCH  27  28
ENDBRANCH  26  27
ENDBRANCH  25  26
ENDBRANCH  24  25
ENDBRANCH  23  24
ENDBRANCH  22  23
ENDBRANCH  21  22
ENDBRANCH  20  21
ENDBRANCH  19  20
ENDBRANCH  18  19
ENDBRANCH   1  18
TORSDOF 28
ENDMDL
MODEL 4
REMARK VINA RESULT:    -3.973      3.890      7.855
REMARK INTER + INTRA:         -16.273
REMARK INTER:                 -11.906
REMARK INTRA:                  -4.367
REMARK UNBOUND:                -5.798
REMARK SMILES CCCCCCCCCCCCCCCCCCCCCCCCCCCCCC(=O)[O-]
REMARK SMILES IDX 16 1 17 2 18 3 19 4 20 5 21 6 22 7 23 8 24 9 25 10 26 11
REMARK SMILES IDX 27 12 28 13 29 14 30 15 31 16 32 17 15 18 14 19 13 20 12 21
REMARK SMILES IDX 11 22 10 23 9 24 8 25 7 26 6 27 5 28 4 29 3 30 2 31 1 32
REMARK H PARENT
REMARK Flexibility Score: inf
ROOT
ATOM      1  C   UNL     1     -22.621 -13.789 -16.058  1.00  0.00     0.000 C 
ENDROOT
BRANCH   1   2
ATOM      2  C   UNL     1     -22.752 -12.381 -16.669  1.00  0.00     0.000 C 
BRANCH   2   3
ATOM      3  C   UNL     1     -22.736 -12.336 -18.209  1.00  0.00     0.000 C 
BRANCH   3   4
ATOM      4  C   UNL     1     -23.005 -13.685 -18.900  1.00  0.00     0.000 C 
BRANCH   4   5
ATOM      5  C   UNL     1     -22.582 -13.695 -20.377  1.00  0.00     0.000 C 
BRANCH   5   6
ATOM      6  C   UNL     1     -21.397 -12.746 -20.615  1.00  0.00     0.000 C 
BRANCH   6   7
ATOM      7  C   UNL     1     -20.143 -13.475 -21.123  1.00  0.00     0.000 C 
BRANCH   7   8
ATOM      8  C   UNL     1     -18.966 -13.387 -20.135  1.00  0.00     0.000 C 
BRANCH   8   9
ATOM      9  C   UNL     1     -19.388 -12.857 -18.751  1.00  0.00     0.000 C 
BRANCH   9  10
ATOM     10  C   UNL     1     -19.202 -13.846 -17.585  1.00  0.00     0.000 C 
BRANCH  10  11
ATOM     11  C   UNL     1     -19.731 -15.254 -17.901  1.00  0.00     0.000 C 
BRANCH  11  12
ATOM     12  C   UNL     1     -18.856 -16.330 -17.237  1.00  0.00     0.000 C 
BRANCH  12  13
ATOM     13  C   UNL     1     -18.277 -17.335 -18.250  1.00  0.00     0.006 C 
BRANCH  13  14
ATOM     14  C   UNL     1     -17.918 -16.719 -19.613  1.00  0.00     0.053 C 
BRANCH  14  15
ATOM     15  C   UNL     1     -16.452 -16.432 -19.729  1.00  0.00     0.041 C 
ATOM     16  O   UNL     1     -15.852 -15.811 -18.812  1.00  0.00    -0.550 OA
ATOM     17  O   UNL     1     -15.745 -16.868 -20.842  1.00  0.00    -0.550 OA
ENDBRANCH  14  15
ENDBRANCH  13  14
ENDBRANCH  12  13
ENDBRANCH  11  12
ENDBRANCH  10  11
ENDBRANCH   9  10
ENDBRANCH   8   9
ENDBRANCH   7   8
ENDBRANCH   6   7
ENDBRANCH   5   6
ENDBRANCH   4   5
ENDBRANCH   3   4
ENDBRANCH   2   3
ENDBRANCH   1   2
BRANCH   1  18
ATOM     18  C   UNL     1     -23.057 -13.867 -14.578  1.00  0.00     0.000 C 
BRANCH  18  19
ATOM     19  C   UNL     1     -24.438 -13.250 -14.280  1.00  0.00     0.000 C 
BRANCH  19  20
ATOM     20  C   UNL     1     -25.574 -14.261 -14.017  1.00  0.00     0.000 C 
BRANCH  20  21
ATOM     21  C   UNL     1     -25.116 -15.663 -13.574  1.00  0.00     0.000 C 
BRANCH  21  22
ATOM     22  C   UNL     1     -25.380 -16.744 -14.640  1.00  0.00     0.000 C 
BRANCH  22  23
ATOM     23  C   UNL     1     -24.459 -17.969 -14.496  1.00  0.00     0.000 C 
BRANCH  23  24
ATOM     24  C   UNL     1     -22.953 -17.649 -14.451  1.00  0.00    -0.000 C 
BRANCH  24  25
ATOM     25  C   UNL     1     -22.316 -17.533 -15.843  1.00  0.00    -0.000 C 
BRANCH  25  26
ATOM     26  C   UNL     1     -21.298 -18.662 -16.078  1.00  0.00    -0.000 C 
BRANCH  26  27
ATOM     27  C   UNL     1     -20.664 -19.173 -14.767  1.00  0.00    -0.000 C 
BRANCH  27  28
ATOM     28  C   UNL     1     -20.882 -20.674 -14.509  1.00  0.00    -0.000 C 
BRANCH  28  29
ATOM     29  C   UNL     1     -21.584 -20.956 -13.169  1.00  0.00    -0.000 C 
BRANCH  29  30
ATOM     30  C   UNL     1     -20.748 -20.495 -11.956  1.00  0.00    -0.000 C 
BRANCH  30  31
ATOM     31  C   UNL     1     -20.308 -21.645 -11.036  1.00  0.00    -0.003 C 
ATOM     32  C   UNL     1     -19.783 -22.859 -11.801  1.00  0.00     0.004 C 
ENDBRANCH  30  31
ENDBRANCH  29  30
ENDBRANCH  28  29
ENDBRANCH  27  28
ENDBRANCH  26  27
ENDBRANCH  25  26
ENDBRANCH  24  25
ENDBRANCH  23  24
ENDBRANCH  22  23
ENDBRANCH  21  22
ENDBRANCH  20  21
ENDBRANCH  19  20
ENDBRANCH  18  19
ENDBRANCH   1  18
TORSDOF 28
ENDMDL
MODEL 5
REMARK VINA RESULT:    -3.942      4.595      7.569
REMARK INTER + INTRA:         -16.192
REMARK INTER:                 -11.785
REMARK INTRA:                  -4.407
REMARK UNBOUND:                -5.798
REMARK SMILES CCCCCCCCCCCCCCCCCCCCCCCCCCCCCC(=O)[O-]
REMARK SMILES IDX 16 1 17 2 18 3 19 4 20 5 21 6 22 7 23 8 24 9 25 10 26 11
REMARK SMILES IDX 27 12 28 13 29 14 30 15 31 16 32 17 15 18 14 19 13 20 12 21
REMARK SMILES IDX 11 22 10 23 9 24 8 25 7 26 6 27 5 28 4 29 3 30 2 31 1 32
REMARK H PARENT
REMARK Flexibility Score: inf
ROOT
ATOM      1  C   UNL     1     -23.496 -16.781 -16.976  1.00  0.00     0.000 C 
ENDROOT
BRANCH   1   2
ATOM      2  C   UNL     1     -22.580 -17.925 -17.450  1.00  0.00     0.000 C 
BRANCH   2   3
ATOM      3  C   UNL     1     -22.488 -19.126 -16.489  1.00  0.00     0.000 C 
BRANCH   3   4
ATOM      4  C   UNL     1     -21.060 -19.491 -16.042  1.00  0.00     0.000 C 
BRANCH   4   5
ATOM      5  C   UNL     1     -20.872 -19.409 -14.519  1.00  0.00     0.000 C 
BRANCH   5   6
ATOM      6  C   UNL     1     -22.185 -19.724 -13.786  1.00  0.00     0.000 C 
BRANCH   6   7
ATOM      7  C   UNL     1     -22.001 -19.858 -12.266  1.00  0.00     0.000 C 
BRANCH   7   8
ATOM      8  C   UNL     1     -20.544 -20.155 -11.869  1.00  0.00     0.000 C 
BRANCH   8   9
ATOM      9  C   UNL     1     -20.375 -21.538 -11.212  1.00  0.00     0.000 C 
BRANCH   9  10
ATOM     10  C   UNL     1     -19.746 -22.619 -12.110  1.00  0.00     0.000 C 
BRANCH  10  11
ATOM     11  C   UNL     1     -20.715 -23.767 -12.437  1.00  0.00     0.000 C 
BRANCH  11  12
ATOM     12  C   UNL     1     -21.620 -23.398 -13.624  1.00  0.00     0.000 C 
BRANCH  12  13
ATOM     13  C   UNL     1     -20.834 -23.199 -14.933  1.00  0.00     0.006 C 
BRANCH  13  14
ATOM     14  C   UNL     1     -20.198 -24.485 -15.488  1.00  0.00     0.053 C 
BRANCH  14  15
ATOM     15  C   UNL     1     -21.206 -25.582 -15.653  1.00  0.00     0.041 C 
ATOM     16  O   UNL     1     -21.031 -26.694 -15.087  1.00  0.00    -0.550 OA
ATOM     17  O   UNL     1     -22.347 -25.368 -16.414  1.00  0.00    -0.550 OA
ENDBRANCH  14  15
ENDBRANCH  13  14
ENDBRANCH  12  13
ENDBRANCH  11  12
ENDBRANCH  10  11
ENDBRANCH   9  10
ENDBRANCH   8   9
ENDBRANCH   7   8
ENDBRANCH   6   7
ENDBRANCH   5   6
ENDBRANCH   4   5
ENDBRANCH   3   4
ENDBRANCH   2   3
ENDBRANCH   1   2
BRANCH   1  18
ATOM     18  C   UNL     1     -24.270 -17.103 -15.678  1.00  0.00     0.000 C 
BRANCH  18  19
ATOM     19  C   UNL     1     -24.037 -16.106 -14.525  1.00  0.00     0.000 C 
BRANCH  19  20
ATOM     20  C   UNL     1     -25.266 -15.268 -14.113  1.00  0.00     0.000 C 
BRANCH  20  21
ATOM     21  C   UNL     1     -25.039 -13.747 -14.067  1.00  0.00     0.000 C 
BRANCH  21  22
ATOM     22  C   UNL     1     -23.580 -13.349 -14.365  1.00  0.00     0.000 C 
BRANCH  22  23
ATOM     23  C   UNL     1     -23.451 -12.378 -15.552  1.00  0.00     0.000 C 
BRANCH  23  24
ATOM     24  C   UNL     1     -22.671 -12.929 -16.761  1.00  0.00    -0.000 C 
BRANCH  24  25
ATOM     25  C   UNL     1     -21.608 -13.968 -16.374  1.00  0.00    -0.000 C 
BRANCH  25  26
ATOM     26  C   UNL     1     -20.526 -14.079 -17.460  1.00  0.00    -0.000 C 
BRANCH  26  27
ATOM     27  C   UNL     1     -20.566 -12.905 -18.462  1.00  0.00    -0.000 C 
BRANCH  27  28
ATOM     28  C   UNL     1     -20.028 -13.256 -19.860  1.00  0.00    -0.000 C 
BRANCH  28  29
ATOM     29  C   UNL     1     -21.143 -13.436 -20.904  1.00  0.00    -0.000 C 
BRANCH  29  30
ATOM     30  C   UNL     1     -22.552 -13.243 -20.302  1.00  0.00    -0.000 C 
BRANCH  30  31
ATOM     31  C   UNL     1     -23.285 -14.561 -20.007  1.00  0.00    -0.003 C 
ATOM     32  C   UNL     1     -22.630 -15.773 -20.668  1.00  0.00     0.004 C 
ENDBRANCH  30  31
ENDBRANCH  29  30
ENDBRANCH  28  29
ENDBRANCH  27  28
ENDBRANCH  26  27
ENDBRANCH  25  26
ENDBRANCH  24  25
ENDBRANCH  23  24
ENDBRANCH  22  23
ENDBRANCH  21  22
ENDBRANCH  20  21
ENDBRANCH  19  20
ENDBRANCH  18  19
ENDBRANCH   1  18
TORSDOF 28
ENDMDL
MODEL 6
REMARK VINA RESULT:    -3.927      2.989      7.129
REMARK INTER + INTRA:         -16.152
REMARK INTER:                 -10.246
REMARK INTRA:                  -5.907
REMARK UNBOUND:                -5.798
REMARK SMILES CCCCCCCCCCCCCCCCCCCCCCCCCCCCCC(=O)[O-]
REMARK SMILES IDX 16 1 17 2 18 3 19 4 20 5 21 6 22 7 23 8 24 9 25 10 26 11
REMARK SMILES IDX 27 12 28 13 29 14 30 15 31 16 32 17 15 18 14 19 13 20 12 21
REMARK SMILES IDX 11 22 10 23 9 24 8 25 7 26 6 27 5 28 4 29 3 30 2 31 1 32
REMARK H PARENT
REMARK Flexibility Score: inf
ROOT
ATOM      1  C   UNL     1     -22.228 -15.076 -20.561  1.00  0.00     0.000 C 
ENDROOT
BRANCH   1   2
ATOM      2  C   UNL     1     -21.654 -15.266 -21.978  1.00  0.00     0.000 C 
BRANCH   2   3
ATOM      3  C   UNL     1     -20.172 -14.875 -22.137  1.00  0.00     0.000 C 
BRANCH   3   4
ATOM      4  C   UNL     1     -19.929 -13.419 -22.577  1.00  0.00     0.000 C 
BRANCH   4   5
ATOM      5  C   UNL     1     -19.561 -12.495 -21.407  1.00  0.00     0.000 C 
BRANCH   5   6
ATOM      6  C   UNL     1     -18.986 -13.300 -20.232  1.00  0.00     0.000 C 
BRANCH   6   7
ATOM      7  C   UNL     1     -19.460 -12.782 -18.865  1.00  0.00     0.000 C 
BRANCH   7   8
ATOM      8  C   UNL     1     -18.849 -13.564 -17.690  1.00  0.00     0.000 C 
BRANCH   8   9
ATOM      9  C   UNL     1     -18.438 -14.998 -18.077  1.00  0.00     0.000 C 
BRANCH   9  10
ATOM     10  C   UNL     1     -19.482 -16.087 -17.765  1.00  0.00     0.000 C 
BRANCH  10  11
ATOM     11  C   UNL     1     -19.734 -17.035 -18.948  1.00  0.00     0.000 C 
BRANCH  11  12
ATOM     12  C   UNL     1     -18.699 -18.172 -18.969  1.00  0.00     0.000 C 
BRANCH  12  13
ATOM     13  C   UNL     1     -17.352 -17.739 -19.580  1.00  0.00     0.006 C 
BRANCH  13  14
ATOM     14  C   UNL     1     -17.468 -17.106 -20.976  1.00  0.00     0.053 C 
BRANCH  14  15
ATOM     15  C   UNL     1     -16.493 -15.983 -21.164  1.00  0.00     0.041 C 
ATOM     16  O   UNL     1     -15.540 -15.828 -20.355  1.00  0.00    -0.550 OA
ATOM     17  O   UNL     1     -16.626 -15.123 -22.245  1.00  0.00    -0.550 OA
ENDBRANCH  14  15
ENDBRANCH  13  14
ENDBRANCH  12  13
ENDBRANCH  11  12
ENDBRANCH  10  11
ENDBRANCH   9  10
ENDBRANCH   8   9
ENDBRANCH   7   8
ENDBRANCH   6   7
ENDBRANCH   5   6
ENDBRANCH   4   5
ENDBRANCH   3   4
ENDBRANCH   2   3
ENDBRANCH   1   2
BRANCH   1  18
ATOM     18  C   UNL     1     -22.983 -13.742 -20.370  1.00  0.00     0.000 C 
BRANCH  18  19
ATOM     19  C   UNL     1     -22.983 -13.203 -18.925  1.00  0.00     0.000 C 
BRANCH  19  20
ATOM     20  C   UNL     1     -22.677 -14.245 -17.828  1.00  0.00     0.000 C 
BRANCH  20  21
ATOM     21  C   UNL     1     -22.196 -13.664 -16.487  1.00  0.00     0.000 C 
BRANCH  21  22
ATOM     22  C   UNL     1     -23.001 -12.426 -16.047  1.00  0.00     0.000 C 
BRANCH  22  23
ATOM     23  C   UNL     1     -23.770 -12.643 -14.730  1.00  0.00     0.000 C 
BRANCH  23  24
ATOM     24  C   UNL     1     -23.734 -14.084 -14.186  1.00  0.00    -0.000 C 
BRANCH  24  25
ATOM     25  C   UNL     1     -25.076 -14.817 -14.323  1.00  0.00    -0.000 C 
BRANCH  25  26
ATOM     26  C   UNL     1     -24.863 -16.286 -14.724  1.00  0.00    -0.000 C 
BRANCH  26  27
ATOM     27  C   UNL     1     -23.380 -16.711 -14.658  1.00  0.00    -0.000 C 
BRANCH  27  28
ATOM     28  C   UNL     1     -22.880 -17.435 -15.920  1.00  0.00    -0.000 C 
BRANCH  28  29
ATOM     29  C   UNL     1     -23.966 -17.573 -17.001  1.00  0.00    -0.000 C 
BRANCH  29  30
ATOM     30  C   UNL     1     -23.372 -17.744 -18.416  1.00  0.00    -0.000 C 
BRANCH  30  31
ATOM     31  C   UNL     1     -24.433 -17.837 -19.524  1.00  0.00    -0.003 C 
ATOM     32  C   UNL     1     -23.946 -18.592 -20.760  1.00  0.00     0.004 C 
ENDBRANCH  30  31
ENDBRANCH  29  30
ENDBRANCH  28  29
ENDBRANCH  27  28
ENDBRANCH  26  27
ENDBRANCH  25  26
ENDBRANCH  24  25
ENDBRANCH  23  24
ENDBRANCH  22  23
ENDBRANCH  21  22
ENDBRANCH  20  21
ENDBRANCH  19  20
ENDBRANCH  18  19
ENDBRANCH   1  18
TORSDOF 28
ENDMDL
MODEL 7
REMARK VINA RESULT:    -3.907      2.624      5.858
REMARK INTER + INTRA:         -16.100
REMARK INTER:                 -11.163
REMARK INTRA:                  -4.937
REMARK UNBOUND:                -5.798
REMARK SMILES CCCCCCCCCCCCCCCCCCCCCCCCCCCCCC(=O)[O-]
REMARK SMILES IDX 16 1 17 2 18 3 19 4 20 5 21 6 22 7 23 8 24 9 25 10 26 11
REMARK SMILES IDX 27 12 28 13 29 14 30 15 31 16 32 17 15 18 14 19 13 20 12 21
REMARK SMILES IDX 11 22 10 23 9 24 8 25 7 26 6 27 5 28 4 29 3 30 2 31 1 32
REMARK H PARENT
REMARK Flexibility Score: inf
ROOT
ATOM      1  C   UNL     1     -25.632 -15.255 -14.246  1.00  0.00     0.000 C 
ENDROOT
BRANCH   1   2
ATOM      2  C   UNL     1     -25.800 -16.392 -13.221  1.00  0.00     0.000 C 
BRANCH   2   3
ATOM      3  C   UNL     1     -24.856 -17.594 -13.420  1.00  0.00     0.000 C 
BRANCH   3   4
ATOM      4  C   UNL     1     -25.460 -18.768 -14.212  1.00  0.00     0.000 C 
BRANCH   4   5
ATOM      5  C   UNL     1     -24.986 -18.811 -15.673  1.00  0.00     0.000 C 
BRANCH   5   6
ATOM      6  C   UNL     1     -23.696 -17.996 -15.855  1.00  0.00     0.000 C 
BRANCH   6   7
ATOM      7  C   UNL     1     -23.723 -17.109 -17.109  1.00  0.00     0.000 C 
BRANCH   7   8
ATOM      8  C   UNL     1     -24.034 -17.903 -18.390  1.00  0.00     0.000 C 
BRANCH   8   9
ATOM      9  C   UNL     1     -23.903 -17.050 -19.666  1.00  0.00     0.000 C 
BRANCH   9  10
ATOM     10  C   UNL     1     -23.004 -17.647 -20.765  1.00  0.00     0.000 C 
BRANCH  10  11
ATOM     11  C   UNL     1     -22.009 -16.630 -21.347  1.00  0.00     0.000 C 
BRANCH  11  12
ATOM     12  C   UNL     1     -22.540 -16.032 -22.660  1.00  0.00     0.000 C 
BRANCH  12  13
ATOM     13  C   UNL     1     -21.414 -15.548 -23.592  1.00  0.00     0.006 C 
BRANCH  13  14
ATOM     14  C   UNL     1     -20.330 -14.713 -22.889  1.00  0.00     0.053 C 
BRANCH  14  15
ATOM     15  C   UNL     1     -19.552 -13.876 -23.859  1.00  0.00     0.041 C 
ATOM     16  O   UNL     1     -19.789 -13.949 -25.094  1.00  0.00    -0.550 OA
ATOM     17  O   UNL     1     -18.579 -13.000 -23.395  1.00  0.00    -0.550 OA
ENDBRANCH  14  15
ENDBRANCH  13  14
ENDBRANCH  12  13
ENDBRANCH  11  12
ENDBRANCH  10  11
ENDBRANCH   9  10
ENDBRANCH   8   9
ENDBRANCH   7   8
ENDBRANCH   6   7
ENDBRANCH   5   6
ENDBRANCH   4   5
ENDBRANCH   3   4
ENDBRANCH   2   3
ENDBRANCH   1   2
BRANCH   1  18
ATOM     18  C   UNL     1     -24.188 -14.715 -14.343  1.00  0.00     0.000 C 
BRANCH  18  19
ATOM     19  C   UNL     1     -24.071 -13.178 -14.297  1.00  0.00     0.000 C 
BRANCH  19  20
ATOM     20  C   UNL     1     -23.000 -12.566 -15.225  1.00  0.00     0.000 C 
BRANCH  20  21
ATOM     21  C   UNL     1     -22.654 -13.402 -16.470  1.00  0.00     0.000 C 
BRANCH  21  22
ATOM     22  C   UNL     1     -22.951 -12.664 -17.789  1.00  0.00     0.000 C 
BRANCH  22  23
ATOM     23  C   UNL     1     -22.953 -13.596 -19.014  1.00  0.00     0.000 C 
BRANCH  23  24
ATOM     24  C   UNL     1     -22.148 -13.083 -20.223  1.00  0.00    -0.000 C 
BRANCH  24  25
ATOM     25  C   UNL     1     -21.065 -12.064 -19.841  1.00  0.00    -0.000 C 
BRANCH  25  26
ATOM     26  C   UNL     1     -19.685 -12.736 -19.749  1.00  0.00    -0.000 C 
BRANCH  26  27
ATOM     27  C   UNL     1     -19.321 -13.149 -18.306  1.00  0.00    -0.000 C 
BRANCH  27  28
ATOM     28  C   UNL     1     -18.814 -14.597 -18.180  1.00  0.00    -0.000 C 
BRANCH  28  29
ATOM     29  C   UNL     1     -19.925 -15.641 -18.386  1.00  0.00    -0.000 C 
BRANCH  29  30
ATOM     30  C   UNL     1     -20.327 -16.343 -17.071  1.00  0.00    -0.000 C 
BRANCH  30  31
ATOM     31  C   UNL     1     -20.038 -17.853 -17.063  1.00  0.00    -0.003 C 
ATOM     32  C   UNL     1     -19.010 -18.262 -16.010  1.00  0.00     0.004 C 
ENDBRANCH  30  31
ENDBRANCH  29  30
ENDBRANCH  28  29
ENDBRANCH  27  28
ENDBRANCH  26  27
ENDBRANCH  25  26
ENDBRANCH  24  25
ENDBRANCH  23  24
ENDBRANCH  22  23
ENDBRANCH  21  22
ENDBRANCH  20  21
ENDBRANCH  19  20
ENDBRANCH  18  19
ENDBRANCH   1  18
TORSDOF 28
ENDMDL
MODEL 8
REMARK VINA RESULT:    -3.906      3.348      5.506
REMARK INTER + INTRA:         -16.098
REMARK INTER:                 -11.368
REMARK INTRA:                  -4.730
REMARK UNBOUND:                -5.798
REMARK SMILES CCCCCCCCCCCCCCCCCCCCCCCCCCCCCC(=O)[O-]
REMARK SMILES IDX 16 1 17 2 18 3 19 4 20 5 21 6 22 7 23 8 24 9 25 10 26 11
REMARK SMILES IDX 27 12 28 13 29 14 30 15 31 16 32 17 15 18 14 19 13 20 12 21
REMARK SMILES IDX 11 22 10 23 9 24 8 25 7 26 6 27 5 28 4 29 3 30 2 31 1 32
REMARK H PARENT
REMARK Flexibility Score: inf
ROOT
ATOM      1  C   UNL     1     -22.980 -13.386 -17.391  1.00  0.00     0.000 C 
ENDROOT
BRANCH   1   2
ATOM      2  C   UNL     1     -22.616 -13.147 -15.914  1.00  0.00     0.000 C 
BRANCH   2   3
ATOM      3  C   UNL     1     -23.619 -12.280 -15.128  1.00  0.00     0.000 C 
BRANCH   3   4
ATOM      4  C   UNL     1     -24.545 -13.060 -14.177  1.00  0.00     0.000 C 
BRANCH   4   5
ATOM      5  C   UNL     1     -24.120 -14.526 -13.997  1.00  0.00     0.000 C 
BRANCH   5   6
ATOM      6  C   UNL     1     -25.289 -15.477 -14.294  1.00  0.00     0.000 C 
BRANCH   6   7
ATOM      7  C   UNL     1     -24.826 -16.852 -14.800  1.00  0.00     0.000 C 
BRANCH   7   8
ATOM      8  C   UNL     1     -23.780 -16.748 -15.924  1.00  0.00     0.000 C 
BRANCH   8   9
ATOM      9  C   UNL     1     -22.374 -17.188 -15.473  1.00  0.00     0.000 C 
BRANCH   9  10
ATOM     10  C   UNL     1     -21.918 -18.564 -15.997  1.00  0.00     0.000 C 
BRANCH  10  11
ATOM     11  C   UNL     1     -20.395 -18.665 -16.172  1.00  0.00     0.000 C 
BRANCH  11  12
ATOM     12  C   UNL     1     -19.781 -19.593 -15.110  1.00  0.00     0.000 C 
BRANCH  12  13
ATOM     13  C   UNL     1     -20.727 -20.738 -14.704  1.00  0.00     0.006 C 
BRANCH  13  14
ATOM     14  C   UNL     1     -20.469 -21.300 -13.295  1.00  0.00     0.053 C 
BRANCH  14  15
ATOM     15  C   UNL     1     -19.696 -22.583 -13.337  1.00  0.00     0.041 C 
ATOM     16  O   UNL     1     -19.407 -23.115 -14.441  1.00  0.00    -0.550 OA
ATOM     17  O   UNL     1     -19.278 -23.179 -12.155  1.00  0.00    -0.550 OA
ENDBRANCH  14  15
ENDBRANCH  13  14
ENDBRANCH  12  13
ENDBRANCH  11  12
ENDBRANCH  10  11
ENDBRANCH   9  10
ENDBRANCH   8   9
ENDBRANCH   7   8
ENDBRANCH   6   7
ENDBRANCH   5   6
ENDBRANCH   4   5
ENDBRANCH   3   4
ENDBRANCH   2   3
ENDBRANCH   1   2
BRANCH   1  18
ATOM     18  C   UNL     1     -22.640 -12.196 -18.315  1.00  0.00     0.000 C 
BRANCH  18  19
ATOM     19  C   UNL     1     -22.469 -12.563 -19.803  1.00  0.00     0.000 C 
BRANCH  19  20
ATOM     20  C   UNL     1     -21.104 -12.197 -20.425  1.00  0.00     0.000 C 
BRANCH  20  21
ATOM     21  C   UNL     1     -19.953 -12.009 -19.420  1.00  0.00     0.000 C 
BRANCH  21  22
ATOM     22  C   UNL     1     -19.121 -13.289 -19.217  1.00  0.00     0.000 C 
BRANCH  22  23
ATOM     23  C   UNL     1     -19.247 -13.871 -17.797  1.00  0.00     0.000 C 
BRANCH  23  24
ATOM     24  C   UNL     1     -19.871 -15.277 -17.723  1.00  0.00    -0.000 C 
BRANCH  24  25
ATOM     25  C   UNL     1     -20.330 -15.809 -19.089  1.00  0.00    -0.000 C 
BRANCH  25  26
ATOM     26  C   UNL     1     -21.754 -16.381 -19.007  1.00  0.00    -0.000 C 
BRANCH  26  27
ATOM     27  C   UNL     1     -22.266 -16.897 -20.370  1.00  0.00    -0.000 C 
BRANCH  27  28
ATOM     28  C   UNL     1     -22.558 -15.784 -21.391  1.00  0.00    -0.000 C 
BRANCH  28  29
ATOM     29  C   UNL     1     -21.776 -15.956 -22.704  1.00  0.00    -0.000 C 
BRANCH  29  30
ATOM     30  C   UNL     1     -20.669 -14.893 -22.876  1.00  0.00    -0.000 C 
BRANCH  30  31
ATOM     31  C   UNL     1     -19.992 -14.924 -24.256  1.00  0.00    -0.003 C 
ATOM     32  C   UNL     1     -20.514 -16.042 -25.156  1.00  0.00     0.004 C 
ENDBRANCH  30  31
ENDBRANCH  29  30
ENDBRANCH  28  29
ENDBRANCH  27  28
ENDBRANCH  26  27
ENDBRANCH  25  26
ENDBRANCH  24  25
ENDBRANCH  23  24
ENDBRANCH  22  23
ENDBRANCH  21  22
ENDBRANCH  20  21
ENDBRANCH  19  20
ENDBRANCH  18  19
ENDBRANCH   1  18
TORSDOF 28
ENDMDL
MODEL 9
REMARK VINA RESULT:    -3.892      2.709      6.420
REMARK INTER + INTRA:         -16.061
REMARK INTER:                 -10.437
REMARK INTRA:                  -5.625
REMARK UNBOUND:                -5.798
REMARK SMILES CCCCCCCCCCCCCCCCCCCCCCCCCCCCCC(=O)[O-]
REMARK SMILES IDX 16 1 17 2 18 3 19 4 20 5 21 6 22 7 23 8 24 9 25 10 26 11
REMARK SMILES IDX 27 12 28 13 29 14 30 15 31 16 32 17 15 18 14 19 13 20 12 21
REMARK SMILES IDX 11 22 10 23 9 24 8 25 7 26 6 27 5 28 4 29 3 30 2 31 1 32
REMARK H PARENT
REMARK Flexibility Score: inf
ROOT
ATOM      1  C   UNL     1     -21.113 -13.700 -16.280  1.00  0.00     0.000 C 
ENDROOT
BRANCH   1   2
ATOM      2  C   UNL     1     -20.360 -14.296 -17.485  1.00  0.00     0.000 C 
BRANCH   2   3
ATOM      3  C   UNL     1     -19.263 -13.392 -18.078  1.00  0.00     0.000 C 
BRANCH   3   4
ATOM      4  C   UNL     1     -19.748 -12.405 -19.156  1.00  0.00     0.000 C 
BRANCH   4   5
ATOM      5  C   UNL     1     -19.858 -13.046 -20.548  1.00  0.00     0.000 C 
BRANCH   5   6
ATOM      6  C   UNL     1     -21.255 -12.822 -21.146  1.00  0.00     0.000 C 
BRANCH   6   7
ATOM      7  C   UNL     1     -22.367 -12.840 -20.086  1.00  0.00     0.000 C 
BRANCH   7   8
ATOM      8  C   UNL     1     -23.317 -14.041 -20.245  1.00  0.00     0.000 C 
BRANCH   8   9
ATOM      9  C   UNL     1     -22.727 -15.346 -19.677  1.00  0.00     0.000 C 
BRANCH   9  10
ATOM     10  C   UNL     1     -22.668 -16.525 -20.667  1.00  0.00     0.000 C 
BRANCH  10  11
ATOM     11  C   UNL     1     -21.653 -16.307 -21.801  1.00  0.00     0.000 C 
BRANCH  11  12
ATOM     12  C   UNL     1     -22.368 -15.967 -23.119  1.00  0.00     0.000 C 
BRANCH  12  13
ATOM     13  C   UNL     1     -21.390 -15.760 -24.290  1.00  0.00     0.006 C 
BRANCH  13  14
ATOM     14  C   UNL     1     -19.938 -15.493 -23.859  1.00  0.00     0.053 C 
BRANCH  14  15
ATOM     15  C   UNL     1     -19.356 -14.301 -24.556  1.00  0.00     0.041 C 
ATOM     16  O   UNL     1     -19.796 -13.146 -24.312  1.00  0.00    -0.550 OA
ATOM     17  O   UNL     1     -18.315 -14.465 -25.460  1.00  0.00    -0.550 OA
ENDBRANCH  14  15
ENDBRANCH  13  14
ENDBRANCH  12  13
ENDBRANCH  11  12
ENDBRANCH  10  11
ENDBRANCH   9  10
ENDBRANCH   8   9
ENDBRANCH   7   8
ENDBRANCH   6   7
ENDBRANCH   5   6
ENDBRANCH   4   5
ENDBRANCH   3   4
ENDBRANCH   2   3
ENDBRANCH   1   2
BRANCH   1  18
ATOM     18  C   UNL     1     -22.465 -13.050 -16.653  1.00  0.00     0.000 C 
BRANCH  18  19
ATOM     19  C   UNL     1     -23.430 -12.846 -15.467  1.00  0.00     0.000 C 
BRANCH  19  20
ATOM     20  C   UNL     1     -23.460 -13.989 -14.431  1.00  0.00     0.000 C 
BRANCH  20  21
ATOM     21  C   UNL     1     -24.751 -14.826 -14.414  1.00  0.00     0.000 C 
BRANCH  21  22
ATOM     22  C   UNL     1     -24.515 -16.301 -14.792  1.00  0.00     0.000 C 
BRANCH  22  23
ATOM     23  C   UNL     1     -23.648 -16.468 -16.054  1.00  0.00     0.000 C 
BRANCH  23  24
ATOM     24  C   UNL     1     -22.823 -17.768 -16.108  1.00  0.00    -0.000 C 
BRANCH  24  25
ATOM     25  C   UNL     1     -21.659 -17.706 -17.108  1.00  0.00    -0.000 C 
BRANCH  25  26
ATOM     26  C   UNL     1     -20.307 -17.832 -16.387  1.00  0.00    -0.000 C 
BRANCH  26  27
ATOM     27  C   UNL     1     -19.108 -17.766 -17.358  1.00  0.00    -0.000 C 
BRANCH  27  28
ATOM     28  C   UNL     1     -19.494 -17.411 -18.805  1.00  0.00    -0.000 C 
BRANCH  28  29
ATOM     29  C   UNL     1     -18.326 -16.808 -19.605  1.00  0.00    -0.000 C 
BRANCH  29  30
ATOM     30  C   UNL     1     -17.172 -16.332 -18.698  1.00  0.00    -0.000 C 
BRANCH  30  31
ATOM     31  C   UNL     1     -16.037 -15.628 -19.459  1.00  0.00    -0.003 C 
ATOM     32  C   UNL     1     -16.538 -14.561 -20.431  1.00  0.00     0.004 C 
ENDBRANCH  30  31
ENDBRANCH  29  30
ENDBRANCH  28  29
ENDBRANCH  27  28
ENDBRANCH  26  27
ENDBRANCH  25  26
ENDBRANCH  24  25
ENDBRANCH  23  24
ENDBRANCH  22  23
ENDBRANCH  21  22
ENDBRANCH  20  21
ENDBRANCH  19  20
ENDBRANCH  18  19
ENDBRANCH   1  18
TORSDOF 28
ENDMDL
