MODEL 1
REMARK VINA RESULT:    -4.997      0.000      0.000
REMARK INTER + INTRA:          -6.402
REMARK INTER:                  -6.165
REMARK INTRA:                  -0.237
REMARK UNBOUND:                -0.237
REMARK SMILES CCCCC(=O)c1ccccc1
REMARK SMILES IDX 4 1 3 2 2 3 1 4 5 5 6 6 7 7 8 8 12 9 9 10 11 11 10 12
REMARK H PARENT
REMARK Flexibility Score: inf
ROOT
ATOM      1  C   UNL     1      21.418  14.026  19.818  1.00  0.00     0.081 C 
ENDROOT
BRANCH   1   2
ATOM      2  C   UNL     1      21.413  13.035  18.643  1.00  0.00     0.008 C 
BRANCH   2   3
ATOM      3  C   UNL     1      22.719  13.089  17.837  1.00  0.00    -0.003 C 
ATOM      4  C   UNL     1      22.518  12.540  16.427  1.00  0.00     0.004 C 
ENDBRANCH   2   3
ENDBRANCH   1   2
BRANCH   1   5
ATOM      5  C   UNL     1      20.101  14.745  19.999  1.00  0.00     0.162 C 
ATOM      6  O   UNL     1      19.862  15.775  19.310  1.00  0.00    -0.294 OA
BRANCH   5   7
ATOM      7  C   UNL     1      19.107  14.307  21.010  1.00  0.00     0.017 A 
ATOM      8  C   UNL     1      18.438  13.073  20.893  1.00  0.00     0.012 A 
ATOM      9  C   UNL     1      18.831  15.124  22.123  1.00  0.00     0.012 A 
ATOM     10  C   UNL     1      17.507  12.676  21.858  1.00  0.00     0.001 A 
ATOM     11  C   UNL     1      17.899  14.723  23.084  1.00  0.00     0.001 A 
ATOM     12  C   UNL     1      17.236  13.502  22.951  1.00  0.00     0.000 A 
ENDBRANCH   5   7
ENDBRANCH   1   5
TORSDOF 4
ENDMDL
MODEL 2
REMARK VINA RESULT:    -4.979      0.138      1.403
REMARK INTER + INTRA:          -6.380
REMARK INTER:                  -6.155
REMARK INTRA:                  -0.225
REMARK UNBOUND:                -0.237
REMARK SMILES CCCCC(=O)c1ccccc1
REMARK SMILES IDX 4 1 3 2 2 3 1 4 5 5 6 6 7 7 8 8 12 9 9 10 11 11 10 12
REMARK H PARENT
REMARK Flexibility Score: inf
ROOT
ATOM      1  C   UNL     1      21.444  14.118  19.707  1.00  0.00     0.081 C 
ENDROOT
BRANCH   1   2
ATOM      2  C   UNL     1      21.393  13.020  18.632  1.00  0.00     0.008 C 
BRANCH   2   3
ATOM      3  C   UNL     1      22.733  12.870  17.898  1.00  0.00    -0.003 C 
ATOM      4  C   UNL     1      22.518  12.554  16.420  1.00  0.00     0.004 C 
ENDBRANCH   2   3
ENDBRANCH   1   2
BRANCH   1   5
ATOM      5  C   UNL     1      20.123  14.829  19.897  1.00  0.00     0.162 C 
ATOM      6  O   UNL     1      19.866  15.847  19.195  1.00  0.00    -0.294 OA
BRANCH   5   7
ATOM      7  C   UNL     1      19.147  14.398  20.928  1.00  0.00     0.017 A 
ATOM      8  C   UNL     1      18.910  15.171  22.082  1.00  0.00     0.012 A 
ATOM      9  C   UNL     1      18.423  13.203  20.753  1.00  0.00     0.012 A 
ATOM     10  C   UNL     1      17.983  14.750  23.040  1.00  0.00     0.001 A 
ATOM     11  C   UNL     1      17.498  12.786  21.715  1.00  0.00     0.001 A 
ATOM     12  C   UNL     1      17.280  13.557  22.858  1.00  0.00     0.000 A 
ENDBRANCH   5   7
ENDBRANCH   1   5
TORSDOF 4
ENDMDL
MODEL 3
REMARK VINA RESULT:    -4.962      1.366      5.876
REMARK INTER + INTRA:          -6.360
REMARK INTER:                  -6.168
REMARK INTRA:                  -0.192
REMARK UNBOUND:                -0.237
REMARK SMILES CCCCC(=O)c1ccccc1
REMARK SMILES IDX 4 1 3 2 2 3 1 4 5 5 6 6 7 7 8 8 12 9 9 10 11 11 10 12
REMARK H PARENT
REMARK Flexibility Score: inf
ROOT
ATOM      1  C   UNL     1      19.808  12.203  19.774  1.00  0.00     0.081 C 
ENDROOT
BRANCH   1   2
ATOM      2  C   UNL     1      18.491  12.824  20.266  1.00  0.00     0.008 C 
BRANCH   2   3
ATOM      3  C   UNL     1      18.110  12.331  21.670  1.00  0.00    -0.003 C 
ATOM      4  C   UNL     1      17.231  13.350  22.390  1.00  0.00     0.004 C 
ENDBRANCH   2   3
ENDBRANCH   1   2
BRANCH   1   5
ATOM      5  C   UNL     1      20.812  13.229  19.300  1.00  0.00     0.162 C 
ATOM      6  O   UNL     1      20.540  14.456  19.416  1.00  0.00    -0.294 OA
BRANCH   5   7
ATOM      7  C   UNL     1      22.083  12.831  18.646  1.00  0.00     0.017 A 
ATOM      8  C   UNL     1      22.167  12.656  17.251  1.00  0.00     0.012 A 
ATOM      9  C   UNL     1      23.242  12.639  19.424  1.00  0.00     0.012 A 
ATOM     10  C   UNL     1      23.376  12.285  16.654  1.00  0.00     0.001 A 
ATOM     11  C   UNL     1      24.447  12.267  18.822  1.00  0.00     0.001 A 
ATOM     12  C   UNL     1      24.514  12.088  17.439  1.00  0.00     0.000 A 
ENDBRANCH   5   7
ENDBRANCH   1   5
TORSDOF 4
ENDMDL
MODEL 4
REMARK VINA RESULT:    -4.943      1.553      5.829
REMARK INTER + INTRA:          -6.336
REMARK INTER:                  -6.019
REMARK INTRA:                  -0.317
REMARK UNBOUND:                -0.237
REMARK SMILES CCCCC(=O)c1ccccc1
REMARK SMILES IDX 4 1 3 2 2 3 1 4 5 5 6 6 7 7 8 8 12 9 9 10 11 11 10 12
REMARK H PARENT
REMARK Flexibility Score: inf
ROOT
ATOM      1  C   UNL     1      19.848  12.318  19.807  1.00  0.00     0.081 C 
ENDROOT
BRANCH   1   2
ATOM      2  C   UNL     1      19.961  11.978  21.301  1.00  0.00     0.008 C 
BRANCH   2   3
ATOM      3  C   UNL     1      18.602  12.049  22.013  1.00  0.00    -0.003 C 
ATOM      4  C   UNL     1      17.664  13.026  21.310  1.00  0.00     0.004 C 
ENDBRANCH   2   3
ENDBRANCH   1   2
BRANCH   1   5
ATOM      5  C   UNL     1      20.878  13.324  19.344  1.00  0.00     0.162 C 
ATOM      6  O   UNL     1      20.636  14.556  19.471  1.00  0.00    -0.294 OA
BRANCH   5   7
ATOM      7  C   UNL     1      22.141  12.900  18.689  1.00  0.00     0.017 A 
ATOM      8  C   UNL     1      23.313  12.671  19.436  1.00  0.00     0.012 A 
ATOM      9  C   UNL     1      22.176  12.703  17.295  1.00  0.00     0.012 A 
ATOM     10  C   UNL     1      24.492  12.268  18.800  1.00  0.00     0.001 A 
ATOM     11  C   UNL     1      23.357  12.301  16.665  1.00  0.00     0.001 A 
ATOM     12  C   UNL     1      24.514  12.086  17.415  1.00  0.00     0.000 A 
ENDBRANCH   5   7
ENDBRANCH   1   5
TORSDOF 4
ENDMDL
MODEL 5
REMARK VINA RESULT:    -4.870      1.287      1.507
REMARK INTER + INTRA:          -6.246
REMARK INTER:                  -5.926
REMARK INTRA:                  -0.320
REMARK UNBOUND:                -0.237
REMARK SMILES CCCCC(=O)c1ccccc1
REMARK SMILES IDX 4 1 3 2 2 3 1 4 5 5 6 6 7 7 8 8 12 9 9 10 11 11 10 12
REMARK H PARENT
REMARK Flexibility Score: inf
ROOT
ATOM      1  C   UNL     1      20.393  14.285  19.692  1.00  0.00     0.081 C 
ENDROOT
BRANCH   1   2
ATOM      2  C   UNL     1      21.825  13.732  19.769  1.00  0.00     0.008 C 
BRANCH   2   3
ATOM      3  C   UNL     1      22.528  13.758  18.403  1.00  0.00    -0.003 C 
ATOM      4  C   UNL     1      22.144  12.543  17.564  1.00  0.00     0.004 C 
ENDBRANCH   2   3
ENDBRANCH   1   2
BRANCH   1   5
ATOM      5  C   UNL     1      19.352  13.324  20.218  1.00  0.00     0.162 C 
ATOM      6  O   UNL     1      19.109  12.266  19.572  1.00  0.00    -0.294 OA
BRANCH   5   7
ATOM      7  C   UNL     1      18.566  13.619  21.441  1.00  0.00     0.017 A 
ATOM      8  C   UNL     1      17.568  12.738  21.902  1.00  0.00     0.012 A 
ATOM      9  C   UNL     1      18.825  14.792  22.175  1.00  0.00     0.012 A 
ATOM     10  C   UNL     1      16.841  13.033  23.060  1.00  0.00     0.001 A 
ATOM     11  C   UNL     1      18.095  15.083  23.331  1.00  0.00     0.001 A 
ATOM     12  C   UNL     1      17.102  14.205  23.772  1.00  0.00     0.000 A 
ENDBRANCH   5   7
ENDBRANCH   1   5
TORSDOF 4
ENDMDL
MODEL 6
REMARK VINA RESULT:    -4.795      1.918      2.251
REMARK INTER + INTRA:          -6.153
REMARK INTER:                  -5.880
REMARK INTRA:                  -0.273
REMARK UNBOUND:                -0.237
REMARK SMILES CCCCC(=O)c1ccccc1
REMARK SMILES IDX 4 1 3 2 2 3 1 4 5 5 6 6 7 7 8 8 12 9 9 10 11 11 10 12
REMARK H PARENT
REMARK Flexibility Score: inf
ROOT
ATOM      1  C   UNL     1      21.802  13.506  18.682  1.00  0.00     0.081 C 
ENDROOT
BRANCH   1   2
ATOM      2  C   UNL     1      21.764  12.268  17.771  1.00  0.00     0.008 C 
BRANCH   2   3
ATOM      3  C   UNL     1      22.536  12.492  16.463  1.00  0.00    -0.003 C 
ATOM      4  C   UNL     1      24.033  12.266  16.662  1.00  0.00     0.004 C 
ENDBRANCH   2   3
ENDBRANCH   1   2
BRANCH   1   5
ATOM      5  C   UNL     1      21.692  13.169  20.152  1.00  0.00     0.162 C 
ATOM      6  O   UNL     1      22.742  13.098  20.848  1.00  0.00    -0.294 OA
BRANCH   5   7
ATOM      7  C   UNL     1      20.385  12.860  20.785  1.00  0.00     0.017 A 
ATOM      8  C   UNL     1      19.170  13.221  20.171  1.00  0.00     0.012 A 
ATOM      9  C   UNL     1      20.345  12.176  22.015  1.00  0.00     0.012 A 
ATOM     10  C   UNL     1      17.949  12.917  20.781  1.00  0.00     0.001 A 
ATOM     11  C   UNL     1      19.122  11.875  22.621  1.00  0.00     0.001 A 
ATOM     12  C   UNL     1      17.925  12.247  22.006  1.00  0.00     0.000 A 
ENDBRANCH   5   7
ENDBRANCH   1   5
TORSDOF 4
ENDMDL
MODEL 7
REMARK VINA RESULT:    -4.722      1.346      2.551
REMARK INTER + INTRA:          -6.063
REMARK INTER:                  -5.285
REMARK INTRA:                  -0.778
REMARK UNBOUND:                -0.237
REMARK SMILES CCCCC(=O)c1ccccc1
REMARK SMILES IDX 4 1 3 2 2 3 1 4 5 5 6 6 7 7 8 8 12 9 9 10 11 11 10 12
REMARK H PARENT
REMARK Flexibility Score: inf
ROOT
ATOM      1  C   UNL     1      20.920  13.850  19.371  1.00  0.00     0.081 C 
ENDROOT
BRANCH   1   2
ATOM      2  C   UNL     1      21.867  13.383  20.488  1.00  0.00     0.008 C 
BRANCH   2   3
ATOM      3  C   UNL     1      21.577  11.939  20.924  1.00  0.00    -0.003 C 
ATOM      4  C   UNL     1      21.207  11.875  22.403  1.00  0.00     0.004 C 
ENDBRANCH   2   3
ENDBRANCH   1   2
BRANCH   1   5
ATOM      5  C   UNL     1      19.843  14.794  19.856  1.00  0.00     0.162 C 
ATOM      6  O   UNL     1      19.719  15.922  19.304  1.00  0.00    -0.294 OA
BRANCH   5   7
ATOM      7  C   UNL     1      18.967  14.452  21.003  1.00  0.00     0.017 A 
ATOM      8  C   UNL     1      18.921  15.259  22.157  1.00  0.00     0.012 A 
ATOM      9  C   UNL     1      18.146  13.310  20.943  1.00  0.00     0.012 A 
ATOM     10  C   UNL     1      18.085  14.921  23.226  1.00  0.00     0.001 A 
ATOM     11  C   UNL     1      17.312  12.977  22.015  1.00  0.00     0.001 A 
ATOM     12  C   UNL     1      17.284  13.780  23.156  1.00  0.00     0.000 A 
ENDBRANCH   5   7
ENDBRANCH   1   5
TORSDOF 4
ENDMDL
MODEL 8
REMARK VINA RESULT:    -4.611      1.892      5.412
REMARK INTER + INTRA:          -5.927
REMARK INTER:                  -5.612
REMARK INTRA:                  -0.314
REMARK UNBOUND:                -0.237
REMARK SMILES CCCCC(=O)c1ccccc1
REMARK SMILES IDX 4 1 3 2 2 3 1 4 5 5 6 6 7 7 8 8 12 9 9 10 11 11 10 12
REMARK H PARENT
REMARK Flexibility Score: inf
ROOT
ATOM      1  C   UNL     1      18.080  14.504  22.507  1.00  0.00     0.081 C 
ENDROOT
BRANCH   1   2
ATOM      2  C   UNL     1      17.207  14.269  23.750  1.00  0.00     0.008 C 
BRANCH   2   3
ATOM      3  C   UNL     1      18.003  14.430  25.053  1.00  0.00    -0.003 C 
ATOM      4  C   UNL     1      19.212  15.339  24.850  1.00  0.00     0.004 C 
ENDBRANCH   2   3
ENDBRANCH   1   2
BRANCH   1   5
ATOM      5  C   UNL     1      18.304  13.252  21.690  1.00  0.00     0.162 C 
ATOM      6  O   UNL     1      17.587  12.237  21.909  1.00  0.00    -0.294 OA
BRANCH   5   7
ATOM      7  C   UNL     1      19.386  13.166  20.677  1.00  0.00     0.017 A 
ATOM      8  C   UNL     1      19.672  11.959  20.011  1.00  0.00     0.012 A 
ATOM      9  C   UNL     1      20.136  14.313  20.353  1.00  0.00     0.012 A 
ATOM     10  C   UNL     1      20.692  11.900  19.056  1.00  0.00     0.001 A 
ATOM     11  C   UNL     1      21.155  14.248  19.398  1.00  0.00     0.001 A 
ATOM     12  C   UNL     1      21.435  13.043  18.752  1.00  0.00     0.000 A 
ENDBRANCH   5   7
ENDBRANCH   1   5
TORSDOF 4
ENDMDL
MODEL 9
REMARK VINA RESULT:    -4.516      1.687      5.146
REMARK INTER + INTRA:          -5.810
REMARK INTER:                  -5.307
REMARK INTRA:                  -0.502
REMARK UNBOUND:                -0.237
REMARK SMILES CCCCC(=O)c1ccccc1
REMARK SMILES IDX 4 1 3 2 2 3 1 4 5 5 6 6 7 7 8 8 12 9 9 10 11 11 10 12
REMARK H PARENT
REMARK Flexibility Score: inf
ROOT
ATOM      1  C   UNL     1      18.611  15.277  22.617  1.00  0.00     0.081 C 
ENDROOT
BRANCH   1   2
ATOM      2  C   UNL     1      18.371  14.953  24.100  1.00  0.00     0.008 C 
BRANCH   2   3
ATOM      3  C   UNL     1      17.667  13.602  24.289  1.00  0.00    -0.003 C 
ATOM      4  C   UNL     1      16.555  13.413  23.260  1.00  0.00     0.004 C 
ENDBRANCH   2   3
ENDBRANCH   1   2
BRANCH   1   5
ATOM      5  C   UNL     1      19.987  14.880  22.133  1.00  0.00     0.162 C 
ATOM      6  O   UNL     1      21.002  15.426  22.649  1.00  0.00    -0.294 OA
BRANCH   5   7
ATOM      7  C   UNL     1      20.174  13.909  21.027  1.00  0.00     0.017 A 
ATOM      8  C   UNL     1      21.307  13.958  20.192  1.00  0.00     0.012 A 
ATOM      9  C   UNL     1      19.215  12.902  20.808  1.00  0.00     0.012 A 
ATOM     10  C   UNL     1      21.467  13.030  19.157  1.00  0.00     0.001 A 
ATOM     11  C   UNL     1      19.379  11.978  19.772  1.00  0.00     0.001 A 
ATOM     12  C   UNL     1      20.502  12.043  18.946  1.00  0.00     0.000 A 
ENDBRANCH   5   7
ENDBRANCH   1   5
TORSDOF 4
ENDMDL
