MODEL 1
REMARK VINA RESULT:    -5.308      0.000      0.000
REMARK INTER + INTRA:          -8.097
REMARK INTER:                  -8.100
REMARK INTRA:                   0.003
REMARK UNBOUND:                 0.003
REMARK SMILES CC1=CCC[C@H](C)C(=O)C[C@H](C(C)C)C(=O)C1
REMARK SMILES IDX 8 1 9 2 6 3 7 4 5 5 4 6 3 7 2 8 1 9 10 11 11 12 15 13 16 14
REMARK SMILES IDX 17 15 12 17 13 18 14 19
REMARK H PARENT
REMARK Flexibility Score: 70.00
ROOT
ATOM      1  C   UNL     1      -7.643  34.673  23.688  1.00  0.00     0.136 C 
ATOM      2  O   UNL     1      -6.598  34.937  23.108  1.00  0.00    -0.299 OA
ENDROOT
BRANCH   1   3
ATOM      3  C   UNL     1      -7.944  35.403  24.988  1.00  0.00     0.053 C 
ATOM      4  C   UNL     1      -9.383  35.927  24.953  1.00  0.00     0.016 C 
BRANCH   3   5
ATOM      5  C   UNL     1      -7.742  34.479  26.210  1.00  0.00     0.015 C 
BRANCH   5   6
ATOM      6  C   UNL     1      -8.892  33.484  26.429  1.00  0.00     0.028 C 
BRANCH   6   7
ATOM      7  C   UNL     1      -8.393  32.089  26.718  1.00  0.00    -0.028 C 
ATOM      8  C   UNL     1      -8.537  31.000  25.926  1.00  0.00    -0.070 CG0
ATOM      9  C   UNL     1      -7.993  29.688  26.434  1.00  0.00     0.039 C 
ATOM     10  G   UNL     1      -9.184  31.023  24.550  1.00  0.00     0.000 G0
ENDBRANCH   6   7
ENDBRANCH   5   6
ENDBRANCH   3   5
ENDBRANCH   1   3
BRANCH   1  11
ATOM     11  C   UNL     1      -8.530  33.614  23.059  1.00  0.00     0.087 C 
BRANCH  11  12
ATOM     12  C   UNL     1      -7.845  32.296  22.599  1.00  0.00     0.066 C 
BRANCH  12  13
ATOM     13  C   UNL     1      -8.149  31.065  23.453  1.00  0.00     0.140 C 
ATOM     14  O   UNL     1      -7.532  30.040  23.200  1.00  0.00    -0.299 OA
BRANCH  13  15
ATOM     15  C   UNL     1      -9.190  31.013  24.552  1.00  0.00     0.106 CG0
ATOM     16  G   UNL     1      -8.537  31.006  25.925  1.00  0.00     0.000 G0
ENDBRANCH  13  15
ENDBRANCH  12  13
BRANCH  12  17
ATOM     17  C   UNL     1      -8.128  31.961  21.098  1.00  0.00    -0.006 C 
ATOM     18  C   UNL     1      -9.602  31.625  20.822  1.00  0.00     0.008 C 
ATOM     19  C   UNL     1      -7.642  33.063  20.142  1.00  0.00     0.008 C 
ENDBRANCH  12  17
ENDBRANCH  11  12
ENDBRANCH   1  11
TORSDOF 1
ENDMDL
MODEL 2
REMARK VINA RESULT:    -5.179      1.834      3.050
REMARK INTER + INTRA:          -7.901
REMARK INTER:                  -7.658
REMARK INTRA:                  -0.243
REMARK UNBOUND:                 0.003
REMARK SMILES CC1=CCC[C@H](C)C(=O)C[C@H](C(C)C)C(=O)C1
REMARK SMILES IDX 8 1 9 2 6 3 7 4 5 5 4 6 3 7 2 8 1 9 10 11 11 12 15 13 16 14
REMARK SMILES IDX 17 15 12 17 13 18 14 19
REMARK H PARENT
REMARK Flexibility Score: 70.00
ROOT
ATOM      1  C   UNL     1      -9.214  32.602  22.322  1.00  0.00     0.136 C 
ATOM      2  O   UNL     1     -10.099  33.087  21.630  1.00  0.00    -0.299 OA
ENDROOT
BRANCH   1   3
ATOM      3  C   UNL     1      -7.887  33.340  22.409  1.00  0.00     0.053 C 
ATOM      4  C   UNL     1      -7.499  33.851  21.018  1.00  0.00     0.016 C 
BRANCH   3   5
ATOM      5  C   UNL     1      -7.964  34.516  23.407  1.00  0.00     0.015 C 
BRANCH   5   6
ATOM      6  C   UNL     1      -8.967  34.292  24.550  1.00  0.00     0.028 C 
BRANCH   6   7
ATOM      7  C   UNL     1      -8.285  33.907  25.841  1.00  0.00    -0.028 C 
ATOM      8  C   UNL     1      -8.560  32.826  26.609  1.00  0.00    -0.070 CG0
ATOM      9  C   UNL     1      -7.778  32.659  27.887  1.00  0.00     0.039 C 
ATOM     10  G   UNL     1      -9.583  31.760  26.249  1.00  0.00     0.000 G0
ENDBRANCH   6   7
ENDBRANCH   5   6
ENDBRANCH   3   5
ENDBRANCH   1   3
BRANCH   1  11
ATOM     11  C   UNL     1      -9.523  31.286  23.011  1.00  0.00     0.087 C 
BRANCH  11  12
ATOM     12  C   UNL     1      -8.454  30.732  23.996  1.00  0.00     0.066 C 
BRANCH  12  13
ATOM     13  C   UNL     1      -8.901  30.616  25.453  1.00  0.00     0.140 C 
ATOM     14  O   UNL     1      -8.749  29.534  26.004  1.00  0.00    -0.299 OA
BRANCH  13  15
ATOM     15  C   UNL     1      -9.560  31.727  26.245  1.00  0.00     0.106 CG0
ATOM     16  G   UNL     1      -8.559  32.814  26.603  1.00  0.00     0.000 G0
ENDBRANCH  13  15
ENDBRANCH  12  13
BRANCH  12  17
ATOM     17  C   UNL     1      -7.858  29.363  23.533  1.00  0.00    -0.006 C 
ATOM     18  C   UNL     1      -8.607  28.751  22.339  1.00  0.00     0.008 C 
ATOM     19  C   UNL     1      -6.351  29.443  23.235  1.00  0.00     0.008 C 
ENDBRANCH  12  17
ENDBRANCH  11  12
ENDBRANCH   1  11
TORSDOF 1
ENDMDL
MODEL 3
REMARK VINA RESULT:    -5.159      1.568      3.941
REMARK INTER + INTRA:          -7.870
REMARK INTER:                  -7.803
REMARK INTRA:                  -0.067
REMARK UNBOUND:                 0.003
REMARK SMILES CC1=CCC[C@H](C)C(=O)C[C@H](C(C)C)C(=O)C1
REMARK SMILES IDX 8 1 9 2 6 3 7 4 5 5 4 6 3 7 2 8 1 9 10 11 11 12 15 13 16 14
REMARK SMILES IDX 17 15 12 17 13 18 14 19
REMARK H PARENT
REMARK Flexibility Score: 70.00
ROOT
ATOM      1  C   UNL     1      -7.898  33.723  22.046  1.00  0.00     0.136 C 
ATOM      2  O   UNL     1      -8.079  34.864  21.643  1.00  0.00    -0.299 OA
ENDROOT
BRANCH   1   3
ATOM      3  C   UNL     1      -8.026  32.581  21.049  1.00  0.00     0.053 C 
ATOM      4  C   UNL     1      -7.288  32.951  19.758  1.00  0.00     0.016 C 
BRANCH   3   5
ATOM      5  C   UNL     1      -7.463  31.265  21.627  1.00  0.00     0.015 C 
BRANCH   5   6
ATOM      6  C   UNL     1      -8.544  30.312  22.160  1.00  0.00     0.028 C 
BRANCH   6   7
ATOM      7  C   UNL     1      -8.187  29.742  23.512  1.00  0.00    -0.028 C 
ATOM      8  C   UNL     1      -8.652  30.159  24.712  1.00  0.00    -0.070 CG0
ATOM      9  C   UNL     1      -8.126  29.468  25.945  1.00  0.00     0.039 C 
ATOM     10  G   UNL     1      -9.690  31.256  24.893  1.00  0.00     0.000 G0
ENDBRANCH   6   7
ENDBRANCH   5   6
ENDBRANCH   3   5
ENDBRANCH   1   3
BRANCH   1  11
ATOM     11  C   UNL     1      -7.586  33.556  23.522  1.00  0.00     0.087 C 
BRANCH  11  12
ATOM     12  C   UNL     1      -8.760  33.756  24.523  1.00  0.00     0.066 C 
BRANCH  12  13
ATOM     13  C   UNL     1      -9.088  32.549  25.400  1.00  0.00     0.140 C 
ATOM     14  O   UNL     1      -8.796  32.619  26.586  1.00  0.00    -0.299 OA
BRANCH  13  15
ATOM     15  C   UNL     1      -9.702  31.258  24.898  1.00  0.00     0.106 CG0
ATOM     16  G   UNL     1      -8.641  30.186  24.702  1.00  0.00     0.000 G0
ENDBRANCH  13  15
ENDBRANCH  12  13
BRANCH  12  17
ATOM     17  C   UNL     1      -8.571  35.013  25.432  1.00  0.00    -0.006 C 
ATOM     18  C   UNL     1      -7.095  35.335  25.719  1.00  0.00     0.008 C 
ATOM     19  C   UNL     1      -9.292  36.256  24.884  1.00  0.00     0.008 C 
ENDBRANCH  12  17
ENDBRANCH  11  12
ENDBRANCH   1  11
TORSDOF 1
ENDMDL
MODEL 4
REMARK VINA RESULT:    -5.089      1.740      3.986
REMARK INTER + INTRA:          -7.763
REMARK INTER:                  -7.816
REMARK INTRA:                   0.053
REMARK UNBOUND:                 0.003
REMARK SMILES CC1=CCC[C@H](C)C(=O)C[C@H](C(C)C)C(=O)C1
REMARK SMILES IDX 8 1 9 2 6 3 7 4 5 5 4 6 3 7 2 8 1 9 10 11 11 12 15 13 16 14
REMARK SMILES IDX 17 15 12 17 13 18 14 19
REMARK H PARENT
REMARK Flexibility Score: 70.00
ROOT
ATOM      1  C   UNL     1      -7.510  29.905  23.196  1.00  0.00     0.136 C 
ATOM      2  O   UNL     1      -6.438  29.316  23.156  1.00  0.00    -0.299 OA
ENDROOT
BRANCH   1   3
ATOM      3  C   UNL     1      -8.785  29.076  23.157  1.00  0.00     0.053 C 
ATOM      4  C   UNL     1      -8.628  27.953  22.127  1.00  0.00     0.016 C 
BRANCH   3   5
ATOM      5  C   UNL     1      -9.113  28.486  24.546  1.00  0.00     0.015 C 
BRANCH   5   6
ATOM      6  C   UNL     1      -9.923  29.434  25.444  1.00  0.00     0.028 C 
BRANCH   6   7
ATOM      7  C   UNL     1      -9.056  30.131  26.466  1.00  0.00    -0.028 C 
ATOM      8  C   UNL     1      -8.950  31.467  26.657  1.00  0.00    -0.070 CG0
ATOM      9  C   UNL     1      -7.986  31.948  27.713  1.00  0.00     0.039 C 
ATOM     10  G   UNL     1      -9.760  32.507  25.899  1.00  0.00     0.000 G0
ENDBRANCH   6   7
ENDBRANCH   5   6
ENDBRANCH   3   5
ENDBRANCH   1   3
BRANCH   1  11
ATOM     11  C   UNL     1      -7.460  31.421  23.255  1.00  0.00     0.087 C 
BRANCH  11  12
ATOM     12  C   UNL     1      -8.817  32.171  23.375  1.00  0.00     0.066 C 
BRANCH  12  13
ATOM     13  C   UNL     1      -9.004  32.990  24.652  1.00  0.00     0.140 C 
ATOM     14  O   UNL     1      -8.479  34.094  24.695  1.00  0.00    -0.299 OA
BRANCH  13  15
ATOM     15  C   UNL     1      -9.750  32.513  25.882  1.00  0.00     0.106 CG0
ATOM     16  G   UNL     1      -8.933  31.490  26.656  1.00  0.00     0.000 G0
ENDBRANCH  13  15
ENDBRANCH  12  13
BRANCH  12  17
ATOM     17  C   UNL     1      -9.118  33.078  22.138  1.00  0.00    -0.006 C 
ATOM     18  C   UNL     1      -7.975  34.052  21.811  1.00  0.00     0.008 C 
ATOM     19  C   UNL     1      -9.503  32.268  20.888  1.00  0.00     0.008 C 
ENDBRANCH  12  17
ENDBRANCH  11  12
ENDBRANCH   1  11
TORSDOF 1
ENDMDL
MODEL 5
REMARK VINA RESULT:    -4.957      2.333      4.099
REMARK INTER + INTRA:          -7.562
REMARK INTER:                  -7.681
REMARK INTRA:                   0.119
REMARK UNBOUND:                 0.003
REMARK SMILES CC1=CCC[C@H](C)C(=O)C[C@H](C(C)C)C(=O)C1
REMARK SMILES IDX 8 1 9 2 6 3 7 4 5 5 4 6 3 7 2 8 1 9 10 11 11 12 15 13 16 14
REMARK SMILES IDX 17 15 12 17 13 18 14 19
REMARK H PARENT
REMARK Flexibility Score: 70.00
ROOT
ATOM      1  C   UNL     1      -8.833  32.573  25.178  1.00  0.00     0.136 C 
ATOM      2  O   UNL     1      -9.542  32.109  26.062  1.00  0.00    -0.299 OA
ENDROOT
BRANCH   1   3
ATOM      3  C   UNL     1      -8.719  34.086  25.073  1.00  0.00     0.053 C 
ATOM      4  C   UNL     1      -8.607  34.685  26.479  1.00  0.00     0.016 C 
BRANCH   3   5
ATOM      5  C   UNL     1      -7.501  34.498  24.218  1.00  0.00     0.015 C 
BRANCH   5   6
ATOM      6  C   UNL     1      -7.874  35.269  22.942  1.00  0.00     0.028 C 
BRANCH   6   7
ATOM      7  C   UNL     1      -7.491  34.518  21.689  1.00  0.00    -0.028 C 
ATOM      8  C   UNL     1      -8.144  33.462  21.149  1.00  0.00    -0.070 CG0
ATOM      9  C   UNL     1      -7.556  32.836  19.909  1.00  0.00     0.039 C 
ATOM     10  G   UNL     1      -9.443  32.890  21.694  1.00  0.00     0.000 G0
ENDBRANCH   6   7
ENDBRANCH   5   6
ENDBRANCH   3   5
ENDBRANCH   1   3
BRANCH   1  11
ATOM     11  C   UNL     1      -8.153  31.583  24.251  1.00  0.00     0.087 C 
BRANCH  11  12
ATOM     12  C   UNL     1      -9.067  30.752  23.306  1.00  0.00     0.066 C 
BRANCH  12  13
ATOM     13  C   UNL     1      -9.350  31.383  21.943  1.00  0.00     0.140 C 
ATOM     14  O   UNL     1      -9.456  30.630  20.985  1.00  0.00    -0.299 OA
BRANCH  13  15
ATOM     15  C   UNL     1      -9.460  32.873  21.688  1.00  0.00     0.106 CG0
ATOM     16  G   UNL     1      -8.146  33.438  21.171  1.00  0.00     0.000 G0
ENDBRANCH  13  15
ENDBRANCH  12  13
BRANCH  12  17
ATOM     17  C   UNL     1      -8.550  29.292  23.096  1.00  0.00    -0.006 C 
ATOM     18  C   UNL     1      -7.018  29.182  23.135  1.00  0.00     0.008 C 
ATOM     19  C   UNL     1      -9.183  28.291  24.078  1.00  0.00     0.008 C 
ENDBRANCH  12  17
ENDBRANCH  11  12
ENDBRANCH   1  11
TORSDOF 1
ENDMDL
MODEL 6
REMARK VINA RESULT:    -4.931      2.035      4.137
REMARK INTER + INTRA:          -7.522
REMARK INTER:                  -7.588
REMARK INTRA:                   0.066
REMARK UNBOUND:                 0.003
REMARK SMILES CC1=CCC[C@H](C)C(=O)C[C@H](C(C)C)C(=O)C1
REMARK SMILES IDX 8 1 9 2 6 3 7 4 5 5 4 6 3 7 2 8 1 9 10 11 11 12 15 13 16 14
REMARK SMILES IDX 17 15 12 17 13 18 14 19
REMARK H PARENT
REMARK Flexibility Score: 70.00
ROOT
ATOM      1  C   UNL     1      -8.913  32.099  21.466  1.00  0.00     0.136 C 
ATOM      2  O   UNL     1      -9.529  31.701  20.486  1.00  0.00    -0.299 OA
ENDROOT
BRANCH   1   3
ATOM      3  C   UNL     1      -7.711  33.003  21.237  1.00  0.00     0.053 C 
ATOM      4  C   UNL     1      -7.449  33.127  19.733  1.00  0.00     0.016 C 
BRANCH   3   5
ATOM      5  C   UNL     1      -7.934  34.400  21.857  1.00  0.00     0.015 C 
BRANCH   5   6
ATOM      6  C   UNL     1      -7.068  34.670  23.098  1.00  0.00     0.028 C 
BRANCH   6   7
ATOM      7  C   UNL     1      -7.835  35.384  24.185  1.00  0.00    -0.028 C 
ATOM      8  C   UNL     1      -8.216  34.867  25.377  1.00  0.00    -0.070 CG0
ATOM      9  C   UNL     1      -9.016  35.753  26.300  1.00  0.00     0.039 C 
ATOM     10  G   UNL     1      -7.865  33.467  25.854  1.00  0.00     0.000 G0
ENDBRANCH   6   7
ENDBRANCH   5   6
ENDBRANCH   3   5
ENDBRANCH   1   3
BRANCH   1  11
ATOM     11  C   UNL     1      -9.399  31.626  22.823  1.00  0.00     0.087 C 
BRANCH  11  12
ATOM     12  C   UNL     1      -8.358  31.597  23.979  1.00  0.00     0.066 C 
BRANCH  12  13
ATOM     13  C   UNL     1      -8.740  32.392  25.227  1.00  0.00     0.140 C 
ATOM     14  O   UNL     1      -9.840  32.176  25.717  1.00  0.00    -0.299 OA
BRANCH  13  15
ATOM     15  C   UNL     1      -7.877  33.459  25.868  1.00  0.00     0.106 CG0
ATOM     16  G   UNL     1      -8.250  34.844  25.364  1.00  0.00     0.000 G0
ENDBRANCH  13  15
ENDBRANCH  12  13
BRANCH  12  17
ATOM     17  C   UNL     1      -7.963  30.144  24.399  1.00  0.00    -0.006 C 
ATOM     18  C   UNL     1      -9.178  29.250  24.697  1.00  0.00     0.008 C 
ATOM     19  C   UNL     1      -7.036  29.462  23.378  1.00  0.00     0.008 C 
ENDBRANCH  12  17
ENDBRANCH  11  12
ENDBRANCH   1  11
TORSDOF 1
ENDMDL
MODEL 7
REMARK VINA RESULT:    -4.834      2.012      3.848
REMARK INTER + INTRA:          -7.375
REMARK INTER:                  -7.305
REMARK INTRA:                  -0.070
REMARK UNBOUND:                 0.003
REMARK SMILES CC1=CCC[C@H](C)C(=O)C[C@H](C(C)C)C(=O)C1
REMARK SMILES IDX 8 1 9 2 6 3 7 4 5 5 4 6 3 7 2 8 1 9 10 11 11 12 15 13 16 14
REMARK SMILES IDX 17 15 12 17 13 18 14 19
REMARK H PARENT
REMARK Flexibility Score: 70.00
ROOT
ATOM      1  C   UNL     1      -8.591  32.617  26.846  1.00  0.00     0.136 C 
ATOM      2  O   UNL     1      -8.056  33.549  27.431  1.00  0.00    -0.299 OA
ENDROOT
BRANCH   1   3
ATOM      3  C   UNL     1      -8.530  31.239  27.487  1.00  0.00     0.053 C 
ATOM      4  C   UNL     1      -9.415  31.222  28.738  1.00  0.00     0.016 C 
BRANCH   3   5
ATOM      5  C   UNL     1      -8.981  30.140  26.499  1.00  0.00     0.015 C 
BRANCH   5   6
ATOM      6  C   UNL     1      -7.828  29.525  25.691  1.00  0.00     0.028 C 
BRANCH   6   7
ATOM      7  C   UNL     1      -8.283  29.012  24.346  1.00  0.00    -0.028 C 
ATOM      8  C   UNL     1      -8.159  29.646  23.156  1.00  0.00    -0.070 CG0
ATOM      9  C   UNL     1      -8.726  28.961  21.937  1.00  0.00     0.039 C 
ATOM     10  G   UNL     1      -7.462  30.983  22.968  1.00  0.00     0.000 G0
ENDBRANCH   6   7
ENDBRANCH   5   6
ENDBRANCH   3   5
ENDBRANCH   1   3
BRANCH   1  11
ATOM     11  C   UNL     1      -9.246  32.927  25.513  1.00  0.00     0.087 C 
BRANCH  11  12
ATOM     12  C   UNL     1      -8.305  33.161  24.296  1.00  0.00     0.066 C 
BRANCH  12  13
ATOM     13  C   UNL     1      -8.427  32.139  23.166  1.00  0.00     0.140 C 
ATOM     14  O   UNL     1      -9.387  32.244  22.415  1.00  0.00    -0.299 OA
BRANCH  13  15
ATOM     15  C   UNL     1      -7.474  30.983  22.941  1.00  0.00     0.106 CG0
ATOM     16  G   UNL     1      -8.165  29.649  23.176  1.00  0.00     0.000 G0
ENDBRANCH  13  15
ENDBRANCH  12  13
BRANCH  12  17
ATOM     17  C   UNL     1      -8.433  34.600  23.701  1.00  0.00    -0.006 C 
ATOM     18  C   UNL     1      -8.643  35.681  24.774  1.00  0.00     0.008 C 
ATOM     19  C   UNL     1      -7.250  34.974  22.791  1.00  0.00     0.008 C 
ENDBRANCH  12  17
ENDBRANCH  11  12
ENDBRANCH   1  11
TORSDOF 1
ENDMDL
MODEL 8
REMARK VINA RESULT:    -4.825      1.964      5.432
REMARK INTER + INTRA:          -7.361
REMARK INTER:                  -7.303
REMARK INTRA:                  -0.058
REMARK UNBOUND:                 0.003
REMARK SMILES CC1=CCC[C@H](C)C(=O)C[C@H](C(C)C)C(=O)C1
REMARK SMILES IDX 8 1 9 2 6 3 7 4 5 5 4 6 3 7 2 8 1 9 10 11 11 12 15 13 16 14
REMARK SMILES IDX 17 15 12 17 13 18 14 19
REMARK H PARENT
REMARK Flexibility Score: 70.00
ROOT
ATOM      1  C   UNL     1      -9.048  29.814  24.114  1.00  0.00     0.136 C 
ATOM      2  O   UNL     1      -9.404  28.652  24.257  1.00  0.00    -0.299 OA
ENDROOT
BRANCH   1   3
ATOM      3  C   UNL     1      -8.016  30.120  23.039  1.00  0.00     0.053 C 
ATOM      4  C   UNL     1      -6.810  29.192  23.215  1.00  0.00     0.016 C 
BRANCH   3   5
ATOM      5  C   UNL     1      -8.615  29.956  21.625  1.00  0.00     0.015 C 
BRANCH   5   6
ATOM      6  C   UNL     1      -9.398  31.186  21.139  1.00  0.00     0.028 C 
BRANCH   6   7
ATOM      7  C   UNL     1      -8.578  32.452  21.215  1.00  0.00    -0.028 C 
ATOM      8  C   UNL     1      -8.692  33.434  22.140  1.00  0.00    -0.070 CG0
ATOM      9  C   UNL     1      -7.793  34.636  21.998  1.00  0.00     0.039 C 
ATOM     10  G   UNL     1      -9.645  33.387  23.324  1.00  0.00     0.000 G0
ENDBRANCH   6   7
ENDBRANCH   5   6
ENDBRANCH   3   5
ENDBRANCH   1   3
BRANCH   1  11
ATOM     11  C   UNL     1      -9.659  30.840  25.050  1.00  0.00     0.087 C 
BRANCH  11  12
ATOM     12  C   UNL     1      -8.760  32.037  25.475  1.00  0.00     0.066 C 
BRANCH  12  13
ATOM     13  C   UNL     1      -8.934  33.313  24.653  1.00  0.00     0.140 C 
ATOM     14  O   UNL     1      -8.483  34.350  25.120  1.00  0.00    -0.299 OA
BRANCH  13  15
ATOM     15  C   UNL     1      -9.666  33.394  23.328  1.00  0.00     0.106 CG0
ATOM     16  G   UNL     1      -8.689  33.414  22.163  1.00  0.00     0.000 G0
ENDBRANCH  13  15
ENDBRANCH  12  13
BRANCH  12  17
ATOM     17  C   UNL     1      -8.893  32.383  26.993  1.00  0.00    -0.006 C 
ATOM     18  C   UNL     1     -10.006  31.592  27.698  1.00  0.00     0.008 C 
ATOM     19  C   UNL     1      -7.566  32.232  27.755  1.00  0.00     0.008 C 
ENDBRANCH  12  17
ENDBRANCH  11  12
ENDBRANCH   1  11
TORSDOF 1
ENDMDL
MODEL 9
REMARK VINA RESULT:    -4.090      1.660      4.132
REMARK INTER + INTRA:          -6.239
REMARK INTER:                  -7.477
REMARK INTRA:                   1.238
REMARK UNBOUND:                 0.003
REMARK SMILES CC1=CCC[C@H](C)C(=O)C[C@H](C(C)C)C(=O)C1
REMARK SMILES IDX 8 1 9 2 6 3 7 4 5 5 4 6 3 7 2 8 1 9 10 11 11 12 15 13 16 14
REMARK SMILES IDX 17 15 12 17 13 18 14 19
REMARK H PARENT
REMARK Flexibility Score: 70.00
ROOT
ATOM      1  C   UNL     1      -8.669  33.362  22.865  1.00  0.00     0.136 C 
ATOM      2  O   UNL     1      -7.586  33.659  23.350  1.00  0.00    -0.299 OA
ENDROOT
BRANCH   1   3
ATOM      3  C   UNL     1      -8.788  33.319  21.349  1.00  0.00     0.053 C 
ATOM      4  C   UNL     1      -7.515  33.900  20.725  1.00  0.00     0.016 C 
BRANCH   3   5
ATOM      5  C   UNL     1      -9.021  31.879  20.844  1.00  0.00     0.015 C 
BRANCH   5   6
ATOM      6  C   UNL     1      -7.977  30.871  21.349  1.00  0.00     0.028 C 
BRANCH   6   7
ATOM      7  C   UNL     1      -8.613  29.681  22.028  1.00  0.00    -0.028 C 
ATOM      8  C   UNL     1      -8.617  29.417  23.356  1.00  0.00    -0.070 CG0
ATOM      9  C   UNL     1      -9.280  28.141  23.813  1.00  0.00     0.039 C 
ATOM     10  G   UNL     1      -8.024  30.335  24.413  1.00  0.00     0.000 G0
ENDBRANCH   6   7
ENDBRANCH   5   6
ENDBRANCH   3   5
ENDBRANCH   1   3
BRANCH   1  11
ATOM     11  C   UNL     1      -9.805  33.087  23.833  1.00  0.00     0.087 C 
BRANCH  11  12
ATOM     12  C   UNL     1      -9.426  32.501  25.223  1.00  0.00     0.066 C 
BRANCH  12  13
ATOM     13  C   UNL     1      -9.113  31.005  25.242  1.00  0.00     0.140 C 
ATOM     14  O   UNL     1      -9.756  30.305  26.012  1.00  0.00    -0.299 OA
BRANCH  13  15
ATOM     15  C   UNL     1      -8.034  30.339  24.413  1.00  0.00     0.106 CG0
ATOM     16  G   UNL     1      -8.637  29.406  23.375  1.00  0.00     0.000 G0
ENDBRANCH  13  15
ENDBRANCH  12  13
BRANCH  12  17
ATOM     17  C   UNL     1      -8.256  33.278  25.908  1.00  0.00    -0.006 C 
ATOM     18  C   UNL     1      -8.521  34.787  26.029  1.00  0.00     0.008 C 
ATOM     19  C   UNL     1      -7.876  32.691  27.278  1.00  0.00     0.008 C 
ENDBRANCH  12  17
ENDBRANCH  11  12
ENDBRANCH   1  11
TORSDOF 1
ENDMDL
