MODEL 1
REMARK VINA RESULT:    -3.007      0.000      0.000
REMARK INTER + INTRA:         -11.625
REMARK INTER:                  -7.929
REMARK INTRA:                  -3.696
REMARK UNBOUND:                -3.696
REMARK SMILES CCCCCCCCCCCCCCCCCCCCCCCCCCCCCC(=O)[O-]
REMARK SMILES IDX 16 1 17 2 18 3 19 4 20 5 21 6 22 7 23 8 24 9 25 10 26 11
REMARK SMILES IDX 27 12 28 13 29 14 30 15 31 16 32 17 15 18 14 19 13 20 12 21
REMARK SMILES IDX 11 22 10 23 9 24 8 25 7 26 6 27 5 28 4 29 3 30 2 31 1 32
REMARK H PARENT
REMARK Flexibility Score: inf
ROOT
ATOM      1  C   UNL     1      98.931 -68.192   3.168  1.00  0.00     0.000 C 
ENDROOT
BRANCH   1   2
ATOM      2  C   UNL     1      98.664 -68.985   1.880  1.00  0.00     0.000 C 
BRANCH   2   3
ATOM      3  C   UNL     1      99.040 -68.164   0.640  1.00  0.00     0.000 C 
BRANCH   3   4
ATOM      4  C   UNL     1     100.467 -68.492   0.179  1.00  0.00     0.000 C 
BRANCH   4   5
ATOM      5  C   UNL     1     101.435 -67.301   0.333  1.00  0.00     0.000 C 
BRANCH   5   6
ATOM      6  C   UNL     1     100.839 -66.083   1.065  1.00  0.00     0.000 C 
BRANCH   6   7
ATOM      7  C   UNL     1     100.167 -65.045   0.136  1.00  0.00     0.000 C 
BRANCH   7   8
ATOM      8  C   UNL     1      98.655 -64.875   0.382  1.00  0.00     0.000 C 
BRANCH   8   9
ATOM      9  C   UNL     1      97.775 -65.023  -0.873  1.00  0.00     0.000 C 
BRANCH   9  10
ATOM     10  C   UNL     1      98.496 -65.566  -2.125  1.00  0.00     0.000 C 
BRANCH  10  11
ATOM     11  C   UNL     1      97.867 -66.821  -2.756  1.00  0.00     0.000 C 
BRANCH  11  12
ATOM     12  C   UNL     1      98.906 -67.912  -3.073  1.00  0.00     0.000 C 
BRANCH  12  13
ATOM     13  C   UNL     1      99.443 -67.825  -4.515  1.00  0.00     0.006 C 
BRANCH  13  14
ATOM     14  C   UNL     1     100.976 -67.778  -4.626  1.00  0.00     0.053 C 
BRANCH  14  15
ATOM     15  C   UNL     1     101.530 -66.441  -4.238  1.00  0.00     0.041 C 
ATOM     16  O   UNL     1     101.669 -65.537  -5.102  1.00  0.00    -0.550 OA
ATOM     17  O   UNL     1     101.928 -66.210  -2.929  1.00  0.00    -0.550 OA
ENDBRANCH  14  15
ENDBRANCH  13  14
ENDBRANCH  12  13
ENDBRANCH  11  12
ENDBRANCH  10  11
ENDBRANCH   9  10
ENDBRANCH   8   9
ENDBRANCH   7   8
ENDBRANCH   6   7
ENDBRANCH   5   6
ENDBRANCH   4   5
ENDBRANCH   3   4
ENDBRANCH   2   3
ENDBRANCH   1   2
BRANCH   1  18
ATOM     18  C   UNL     1      97.693 -67.421   3.655  1.00  0.00     0.000 C 
BRANCH  18  19
ATOM     19  C   UNL     1      98.044 -66.042   4.235  1.00  0.00     0.000 C 
BRANCH  19  20
ATOM     20  C   UNL     1      99.558 -65.896   4.431  1.00  0.00     0.000 C 
BRANCH  20  21
ATOM     21  C   UNL     1      99.873 -65.018   5.652  1.00  0.00     0.000 C 
BRANCH  21  22
ATOM     22  C   UNL     1     101.387 -64.935   5.940  1.00  0.00     0.000 C 
BRANCH  22  23
ATOM     23  C   UNL     1     101.741 -65.094   7.428  1.00  0.00     0.000 C 
BRANCH  23  24
ATOM     24  C   UNL     1     100.520 -64.948   8.351  1.00  0.00    -0.000 C 
BRANCH  24  25
ATOM     25  C   UNL     1     100.867 -65.218   9.830  1.00  0.00    -0.000 C 
BRANCH  25  26
ATOM     26  C   UNL     1      99.854 -66.128  10.548  1.00  0.00    -0.000 C 
BRANCH  26  27
ATOM     27  C   UNL     1     100.404 -67.535  10.822  1.00  0.00    -0.000 C 
BRANCH  27  28
ATOM     28  C   UNL     1     101.763 -67.740  10.138  1.00  0.00    -0.000 C 
BRANCH  28  29
ATOM     29  C   UNL     1     101.743 -68.880   9.104  1.00  0.00    -0.000 C 
BRANCH  29  30
ATOM     30  C   UNL     1     101.277 -68.472   7.692  1.00  0.00    -0.000 C 
BRANCH  30  31
ATOM     31  C   UNL     1     101.459 -69.552   6.612  1.00  0.00    -0.003 C 
ATOM     32  C   UNL     1     100.188 -69.803   5.800  1.00  0.00     0.004 C 
ENDBRANCH  30  31
ENDBRANCH  29  30
ENDBRANCH  28  29
ENDBRANCH  27  28
ENDBRANCH  26  27
ENDBRANCH  25  26
ENDBRANCH  24  25
ENDBRANCH  23  24
ENDBRANCH  22  23
ENDBRANCH  21  22
ENDBRANCH  20  21
ENDBRANCH  19  20
ENDBRANCH  18  19
ENDBRANCH   1  18
TORSDOF 28
ENDMDL
MODEL 2
REMARK VINA RESULT:    -2.609      4.051     10.318
REMARK INTER + INTRA:         -10.574
REMARK INTER:                  -8.030
REMARK INTRA:                  -2.544
REMARK UNBOUND:                -3.696
REMARK SMILES CCCCCCCCCCCCCCCCCCCCCCCCCCCCCC(=O)[O-]
REMARK SMILES IDX 16 1 17 2 18 3 19 4 20 5 21 6 22 7 23 8 24 9 25 10 26 11
REMARK SMILES IDX 27 12 28 13 29 14 30 15 31 16 32 17 15 18 14 19 13 20 12 21
REMARK SMILES IDX 11 22 10 23 9 24 8 25 7 26 6 27 5 28 4 29 3 30 2 31 1 32
REMARK H PARENT
REMARK Flexibility Score: inf
ROOT
ATOM      1  C   UNL     1     101.319 -66.800  -1.292  1.00  0.00     0.000 C 
ENDROOT
BRANCH   1   2
ATOM      2  C   UNL     1     102.082 -66.853   0.038  1.00  0.00     0.000 C 
BRANCH   2   3
ATOM      3  C   UNL     1     101.669 -65.697   0.958  1.00  0.00     0.000 C 
BRANCH   3   4
ATOM      4  C   UNL     1     102.116 -65.959   2.403  1.00  0.00     0.000 C 
BRANCH   4   5
ATOM      5  C   UNL     1     100.980 -65.765   3.427  1.00  0.00     0.000 C 
BRANCH   5   6
ATOM      6  C   UNL     1     101.428 -65.837   4.900  1.00  0.00     0.000 C 
BRANCH   6   7
ATOM      7  C   UNL     1     102.086 -67.177   5.303  1.00  0.00     0.000 C 
BRANCH   7   8
ATOM      8  C   UNL     1     101.086 -68.236   5.808  1.00  0.00     0.000 C 
BRANCH   8   9
ATOM      9  C   UNL     1     100.972 -68.340   7.340  1.00  0.00     0.000 C 
BRANCH   9  10
ATOM     10  C   UNL     1     101.625 -67.187   8.130  1.00  0.00     0.000 C 
BRANCH  10  11
ATOM     11  C   UNL     1     100.650 -66.134   8.689  1.00  0.00     0.000 C 
BRANCH  11  12
ATOM     12  C   UNL     1     100.328 -66.352  10.179  1.00  0.00     0.000 C 
BRANCH  12  13
ATOM     13  C   UNL     1     101.589 -66.592  11.032  1.00  0.00     0.006 C 
BRANCH  13  14
ATOM     14  C   UNL     1     101.414 -67.626  12.157  1.00  0.00     0.053 C 
BRANCH  14  15
ATOM     15  C   UNL     1     101.129 -68.996  11.624  1.00  0.00     0.041 C 
ATOM     16  O   UNL     1     100.265 -69.160  10.722  1.00  0.00    -0.550 OA
ATOM     17  O   UNL     1     101.788 -70.097  12.152  1.00  0.00    -0.550 OA
ENDBRANCH  14  15
ENDBRANCH  13  14
ENDBRANCH  12  13
ENDBRANCH  11  12
ENDBRANCH  10  11
ENDBRANCH   9  10
ENDBRANCH   8   9
ENDBRANCH   7   8
ENDBRANCH   6   7
ENDBRANCH   5   6
ENDBRANCH   4   5
ENDBRANCH   3   4
ENDBRANCH   2   3
ENDBRANCH   1   2
BRANCH   1  18
ATOM     18  C   UNL     1     101.938 -67.708  -2.367  1.00  0.00     0.000 C 
BRANCH  18  19
ATOM     19  C   UNL     1     101.788 -67.136  -3.785  1.00  0.00     0.000 C 
BRANCH  19  20
ATOM     20  C   UNL     1     100.489 -67.622  -4.440  1.00  0.00     0.000 C 
BRANCH  20  21
ATOM     21  C   UNL     1      99.739 -66.457  -5.104  1.00  0.00     0.000 C 
BRANCH  21  22
ATOM     22  C   UNL     1      99.356 -65.353  -4.096  1.00  0.00     0.000 C 
BRANCH  22  23
ATOM     23  C   UNL     1      98.355 -65.818  -3.024  1.00  0.00     0.000 C 
BRANCH  23  24
ATOM     24  C   UNL     1      97.744 -67.195  -3.335  1.00  0.00    -0.000 C 
BRANCH  24  25
ATOM     25  C   UNL     1      97.456 -68.010  -2.057  1.00  0.00    -0.000 C 
BRANCH  25  26
ATOM     26  C   UNL     1      98.605 -68.948  -1.649  1.00  0.00    -0.000 C 
BRANCH  26  27
ATOM     27  C   UNL     1      98.431 -69.526  -0.237  1.00  0.00    -0.000 C 
BRANCH  27  28
ATOM     28  C   UNL     1      98.511 -68.422   0.826  1.00  0.00    -0.000 C 
BRANCH  28  29
ATOM     29  C   UNL     1      98.765 -68.974   2.240  1.00  0.00    -0.000 C 
BRANCH  29  30
ATOM     30  C   UNL     1      98.523 -67.971   3.385  1.00  0.00    -0.000 C 
BRANCH  30  31
ATOM     31  C   UNL     1      97.231 -67.145   3.262  1.00  0.00    -0.003 C 
ATOM     32  C   UNL     1      97.353 -65.752   3.879  1.00  0.00     0.004 C 
ENDBRANCH  30  31
ENDBRANCH  29  30
ENDBRANCH  28  29
ENDBRANCH  27  28
ENDBRANCH  26  27
ENDBRANCH  25  26
ENDBRANCH  24  25
ENDBRANCH  23  24
ENDBRANCH  22  23
ENDBRANCH  21  22
ENDBRANCH  20  21
ENDBRANCH  19  20
ENDBRANCH  18  19
ENDBRANCH   1  18
TORSDOF 28
ENDMDL
MODEL 3
REMARK VINA RESULT:    -2.564      4.112     10.486
REMARK INTER + INTRA:         -10.456
REMARK INTER:                  -7.408
REMARK INTRA:                  -3.048
REMARK UNBOUND:                -3.696
REMARK SMILES CCCCCCCCCCCCCCCCCCCCCCCCCCCCCC(=O)[O-]
REMARK SMILES IDX 16 1 17 2 18 3 19 4 20 5 21 6 22 7 23 8 24 9 25 10 26 11
REMARK SMILES IDX 27 12 28 13 29 14 30 15 31 16 32 17 15 18 14 19 13 20 12 21
REMARK SMILES IDX 11 22 10 23 9 24 8 25 7 26 6 27 5 28 4 29 3 30 2 31 1 32
REMARK H PARENT
REMARK Flexibility Score: inf
ROOT
ATOM      1  C   UNL     1     101.427 -66.229   3.231  1.00  0.00     0.000 C 
ENDROOT
BRANCH   1   2
ATOM      2  C   UNL     1     102.072 -65.468   4.398  1.00  0.00     0.000 C 
BRANCH   2   3
ATOM      3  C   UNL     1     101.005 -64.913   5.350  1.00  0.00     0.000 C 
BRANCH   3   4
ATOM      4  C   UNL     1      99.629 -64.875   4.669  1.00  0.00     0.000 C 
BRANCH   4   5
ATOM      5  C   UNL     1      98.747 -66.087   5.030  1.00  0.00     0.000 C 
BRANCH   5   6
ATOM      6  C   UNL     1      98.502 -67.069   3.867  1.00  0.00     0.000 C 
BRANCH   6   7
ATOM      7  C   UNL     1      98.759 -68.553   4.219  1.00  0.00     0.000 C 
BRANCH   7   8
ATOM      8  C   UNL     1     100.252 -68.924   4.303  1.00  0.00     0.000 C 
BRANCH   8   9
ATOM      9  C   UNL     1     100.637 -69.788   5.517  1.00  0.00     0.000 C 
BRANCH   9  10
ATOM     10  C   UNL     1     102.029 -69.500   6.119  1.00  0.00     0.000 C 
BRANCH  10  11
ATOM     11  C   UNL     1     102.023 -68.785   7.482  1.00  0.00     0.000 C 
BRANCH  11  12
ATOM     12  C   UNL     1     100.726 -67.995   7.735  1.00  0.00     0.000 C 
BRANCH  12  13
ATOM     13  C   UNL     1     100.920 -66.831   8.726  1.00  0.00     0.006 C 
BRANCH  13  14
ATOM     14  C   UNL     1     101.451 -67.247  10.108  1.00  0.00     0.053 C 
BRANCH  14  15
ATOM     15  C   UNL     1     100.366 -67.788  10.989  1.00  0.00     0.041 C 
ATOM     16  O   UNL     1      99.622 -67.004  11.634  1.00  0.00    -0.550 OA
ATOM     17  O   UNL     1     100.205 -69.160  11.128  1.00  0.00    -0.550 OA
ENDBRANCH  14  15
ENDBRANCH  13  14
ENDBRANCH  12  13
ENDBRANCH  11  12
ENDBRANCH  10  11
ENDBRANCH   9  10
ENDBRANCH   8   9
ENDBRANCH   7   8
ENDBRANCH   6   7
ENDBRANCH   5   6
ENDBRANCH   4   5
ENDBRANCH   3   4
ENDBRANCH   2   3
ENDBRANCH   1   2
BRANCH   1  18
ATOM     18  C   UNL     1     102.119 -65.948   1.887  1.00  0.00     0.000 C 
BRANCH  18  19
ATOM     19  C   UNL     1     101.223 -65.172   0.909  1.00  0.00     0.000 C 
BRANCH  19  20
ATOM     20  C   UNL     1     100.594 -66.112  -0.126  1.00  0.00     0.000 C 
BRANCH  20  21
ATOM     21  C   UNL     1     100.955 -67.576   0.169  1.00  0.00     0.000 C 
BRANCH  21  22
ATOM     22  C   UNL     1     100.309 -68.554  -0.834  1.00  0.00     0.000 C 
BRANCH  22  23
ATOM     23  C   UNL     1      98.922 -69.058  -0.397  1.00  0.00     0.000 C 
BRANCH  23  24
ATOM     24  C   UNL     1      97.868 -68.947  -1.511  1.00  0.00    -0.000 C 
BRANCH  24  25
ATOM     25  C   UNL     1      98.485 -68.534  -2.864  1.00  0.00    -0.000 C 
BRANCH  25  26
ATOM     26  C   UNL     1      97.942 -67.203  -3.413  1.00  0.00    -0.000 C 
BRANCH  26  27
ATOM     27  C   UNL     1      98.323 -65.998  -2.542  1.00  0.00    -0.000 C 
BRANCH  27  28
ATOM     28  C   UNL     1      98.940 -64.877  -3.389  1.00  0.00    -0.000 C 
BRANCH  28  29
ATOM     29  C   UNL     1      99.731 -65.411  -4.596  1.00  0.00    -0.000 C 
BRANCH  29  30
ATOM     30  C   UNL     1     101.251 -65.155  -4.545  1.00  0.00    -0.000 C 
BRANCH  30  31
ATOM     31  C   UNL     1     102.125 -66.363  -4.925  1.00  0.00    -0.003 C 
ATOM     32  C   UNL     1     101.452 -67.703  -4.627  1.00  0.00     0.004 C 
ENDBRANCH  30  31
ENDBRANCH  29  30
ENDBRANCH  28  29
ENDBRANCH  27  28
ENDBRANCH  26  27
ENDBRANCH  25  26
ENDBRANCH  24  25
ENDBRANCH  23  24
ENDBRANCH  22  23
ENDBRANCH  21  22
ENDBRANCH  20  21
ENDBRANCH  19  20
ENDBRANCH  18  19
ENDBRANCH   1  18
TORSDOF 28
ENDMDL
MODEL 4
REMARK VINA RESULT:    -2.531      3.850     10.591
REMARK INTER + INTRA:         -10.370
REMARK INTER:                  -7.577
REMARK INTRA:                  -2.793
REMARK UNBOUND:                -3.696
REMARK SMILES CCCCCCCCCCCCCCCCCCCCCCCCCCCCCC(=O)[O-]
REMARK SMILES IDX 16 1 17 2 18 3 19 4 20 5 21 6 22 7 23 8 24 9 25 10 26 11
REMARK SMILES IDX 27 12 28 13 29 14 30 15 31 16 32 17 15 18 14 19 13 20 12 21
REMARK SMILES IDX 11 22 10 23 9 24 8 25 7 26 6 27 5 28 4 29 3 30 2 31 1 32
REMARK H PARENT
REMARK Flexibility Score: inf
ROOT
ATOM      1  C   UNL     1      99.286 -65.267   2.873  1.00  0.00     0.000 C 
ENDROOT
BRANCH   1   2
ATOM      2  C   UNL     1      97.980 -66.073   2.826  1.00  0.00     0.000 C 
BRANCH   2   3
ATOM      3  C   UNL     1      97.902 -67.062   3.995  1.00  0.00     0.000 C 
BRANCH   3   4
ATOM      4  C   UNL     1      98.637 -68.368   3.658  1.00  0.00     0.000 C 
BRANCH   4   5
ATOM      5  C   UNL     1      99.952 -68.535   4.445  1.00  0.00     0.000 C 
BRANCH   5   6
ATOM      6  C   UNL     1     101.122 -67.676   3.925  1.00  0.00     0.000 C 
BRANCH   6   7
ATOM      7  C   UNL     1     102.008 -67.064   5.035  1.00  0.00     0.000 C 
BRANCH   7   8
ATOM      8  C   UNL     1     102.058 -67.904   6.326  1.00  0.00     0.000 C 
BRANCH   8   9
ATOM      9  C   UNL     1     101.338 -67.277   7.534  1.00  0.00     0.000 C 
BRANCH   9  10
ATOM     10  C   UNL     1     100.573 -68.270   8.434  1.00  0.00     0.000 C 
BRANCH  10  11
ATOM     11  C   UNL     1     101.339 -68.760   9.676  1.00  0.00     0.000 C 
BRANCH  11  12
ATOM     12  C   UNL     1     100.554 -68.546  10.983  1.00  0.00     0.000 C 
BRANCH  12  13
ATOM     13  C   UNL     1     101.378 -67.817  12.062  1.00  0.00     0.006 C 
BRANCH  13  14
ATOM     14  C   UNL     1     101.614 -66.322  11.786  1.00  0.00     0.053 C 
BRANCH  14  15
ATOM     15  C   UNL     1     100.413 -65.665  11.175  1.00  0.00     0.041 C 
ATOM     16  O   UNL     1      99.358 -65.522  11.846  1.00  0.00    -0.550 OA
ATOM     17  O   UNL     1     100.450 -65.248   9.852  1.00  0.00    -0.550 OA
ENDBRANCH  14  15
ENDBRANCH  13  14
ENDBRANCH  12  13
ENDBRANCH  11  12
ENDBRANCH  10  11
ENDBRANCH   9  10
ENDBRANCH   8   9
ENDBRANCH   7   8
ENDBRANCH   6   7
ENDBRANCH   5   6
ENDBRANCH   4   5
ENDBRANCH   3   4
ENDBRANCH   2   3
ENDBRANCH   1   2
BRANCH   1  18
ATOM     18  C   UNL     1      99.950 -65.133   1.492  1.00  0.00     0.000 C 
BRANCH  18  19
ATOM     19  C   UNL     1     101.481 -65.042   1.577  1.00  0.00     0.000 C 
BRANCH  19  20
ATOM     20  C   UNL     1     102.125 -65.334   0.215  1.00  0.00     0.000 C 
BRANCH  20  21
ATOM     21  C   UNL     1     101.157 -65.007  -0.933  1.00  0.00     0.000 C 
BRANCH  21  22
ATOM     22  C   UNL     1     101.179 -66.080  -2.042  1.00  0.00     0.000 C 
BRANCH  22  23
ATOM     23  C   UNL     1     101.762 -65.576  -3.374  1.00  0.00     0.000 C 
BRANCH  23  24
ATOM     24  C   UNL     1     100.742 -65.615  -4.524  1.00  0.00    -0.000 C 
BRANCH  24  25
ATOM     25  C   UNL     1      99.426 -64.893  -4.166  1.00  0.00    -0.000 C 
BRANCH  25  26
ATOM     26  C   UNL     1      98.162 -65.697  -4.517  1.00  0.00    -0.000 C 
BRANCH  26  27
ATOM     27  C   UNL     1      97.674 -66.579  -3.359  1.00  0.00    -0.000 C 
BRANCH  27  28
ATOM     28  C   UNL     1      98.236 -68.003  -3.474  1.00  0.00    -0.000 C 
BRANCH  28  29
ATOM     29  C   UNL     1      98.171 -68.777  -2.145  1.00  0.00    -0.000 C 
BRANCH  29  30
ATOM     30  C   UNL     1      99.421 -68.644  -1.252  1.00  0.00    -0.000 C 
BRANCH  30  31
ATOM     31  C   UNL     1      99.221 -69.074   0.212  1.00  0.00    -0.003 C 
ATOM     32  C   UNL     1      98.012 -69.991   0.403  1.00  0.00     0.004 C 
ENDBRANCH  30  31
ENDBRANCH  29  30
ENDBRANCH  28  29
ENDBRANCH  27  28
ENDBRANCH  26  27
ENDBRANCH  25  26
ENDBRANCH  24  25
ENDBRANCH  23  24
ENDBRANCH  22  23
ENDBRANCH  21  22
ENDBRANCH  20  21
ENDBRANCH  19  20
ENDBRANCH  18  19
ENDBRANCH   1  18
TORSDOF 28
ENDMDL
MODEL 5
REMARK VINA RESULT:    -2.369      1.589      2.969
REMARK INTER + INTRA:          -9.942
REMARK INTER:                  -7.824
REMARK INTRA:                  -2.118
REMARK UNBOUND:                -3.696
REMARK SMILES CCCCCCCCCCCCCCCCCCCCCCCCCCCCCC(=O)[O-]
REMARK SMILES IDX 16 1 17 2 18 3 19 4 20 5 21 6 22 7 23 8 24 9 25 10 26 11
REMARK SMILES IDX 27 12 28 13 29 14 30 15 31 16 32 17 15 18 14 19 13 20 12 21
REMARK SMILES IDX 11 22 10 23 9 24 8 25 7 26 6 27 5 28 4 29 3 30 2 31 1 32
REMARK H PARENT
REMARK Flexibility Score: inf
ROOT
ATOM      1  C   UNL     1     100.341 -66.655   3.338  1.00  0.00     0.000 C 
ENDROOT
BRANCH   1   2
ATOM      2  C   UNL     1      99.611 -67.613   2.386  1.00  0.00     0.000 C 
BRANCH   2   3
ATOM      3  C   UNL     1      99.622 -67.076   0.949  1.00  0.00     0.000 C 
BRANCH   3   4
ATOM      4  C   UNL     1     100.785 -66.095   0.740  1.00  0.00     0.000 C 
BRANCH   4   5
ATOM      5  C   UNL     1     102.020 -66.756   0.097  1.00  0.00     0.000 C 
BRANCH   5   6
ATOM      6  C   UNL     1     101.703 -67.970  -0.799  1.00  0.00     0.000 C 
BRANCH   6   7
ATOM      7  C   UNL     1     101.890 -67.713  -2.312  1.00  0.00     0.000 C 
BRANCH   7   8
ATOM      8  C   UNL     1     100.722 -68.222  -3.180  1.00  0.00     0.000 C 
BRANCH   8   9
ATOM      9  C   UNL     1     100.818 -67.856  -4.673  1.00  0.00     0.000 C 
BRANCH   9  10
ATOM     10  C   UNL     1     101.439 -66.476  -4.976  1.00  0.00     0.000 C 
BRANCH  10  11
ATOM     11  C   UNL     1     100.625 -65.264  -4.485  1.00  0.00     0.000 C 
BRANCH  11  12
ATOM     12  C   UNL     1      99.227 -65.188  -5.125  1.00  0.00     0.000 C 
BRANCH  12  13
ATOM     13  C   UNL     1      98.134 -65.833  -4.250  1.00  0.00     0.006 C 
BRANCH  13  14
ATOM     14  C   UNL     1      97.486 -64.881  -3.230  1.00  0.00     0.053 C 
BRANCH  14  15
ATOM     15  C   UNL     1      98.051 -65.059  -1.854  1.00  0.00     0.041 C 
ATOM     16  O   UNL     1      99.293 -64.991  -1.664  1.00  0.00    -0.550 OA
ATOM     17  O   UNL     1      97.207 -65.342  -0.789  1.00  0.00    -0.550 OA
ENDBRANCH  14  15
ENDBRANCH  13  14
ENDBRANCH  12  13
ENDBRANCH  11  12
ENDBRANCH  10  11
ENDBRANCH   9  10
ENDBRANCH   8   9
ENDBRANCH   7   8
ENDBRANCH   6   7
ENDBRANCH   5   6
ENDBRANCH   4   5
ENDBRANCH   3   4
ENDBRANCH   2   3
ENDBRANCH   1   2
BRANCH   1  18
ATOM     18  C   UNL     1      99.375 -65.826   4.200  1.00  0.00     0.000 C 
BRANCH  18  19
ATOM     19  C   UNL     1     100.087 -65.085   5.342  1.00  0.00     0.000 C 
BRANCH  19  20
ATOM     20  C   UNL     1     100.944 -66.047   6.173  1.00  0.00     0.000 C 
BRANCH  20  21
ATOM     21  C   UNL     1     102.109 -65.305   6.847  1.00  0.00     0.000 C 
BRANCH  21  22
ATOM     22  C   UNL     1     101.775 -64.876   8.291  1.00  0.00     0.000 C 
BRANCH  22  23
ATOM     23  C   UNL     1     100.281 -64.990   8.637  1.00  0.00     0.000 C 
BRANCH  23  24
ATOM     24  C   UNL     1     100.024 -65.091  10.150  1.00  0.00    -0.000 C 
BRANCH  24  25
ATOM     25  C   UNL     1     100.946 -66.124  10.833  1.00  0.00    -0.000 C 
BRANCH  25  26
ATOM     26  C   UNL     1     100.277 -67.488  11.074  1.00  0.00    -0.000 C 
BRANCH  26  27
ATOM     27  C   UNL     1     101.282 -68.589  11.443  1.00  0.00    -0.000 C 
BRANCH  27  28
ATOM     28  C   UNL     1     101.853 -69.261  10.187  1.00  0.00    -0.000 C 
BRANCH  28  29
ATOM     29  C   UNL     1     101.491 -68.508   8.894  1.00  0.00    -0.000 C 
BRANCH  29  30
ATOM     30  C   UNL     1     100.614 -69.299   7.903  1.00  0.00    -0.000 C 
BRANCH  30  31
ATOM     31  C   UNL     1     101.241 -69.521   6.516  1.00  0.00    -0.003 C 
ATOM     32  C   UNL     1     100.202 -69.591   5.396  1.00  0.00     0.004 C 
ENDBRANCH  30  31
ENDBRANCH  29  30
ENDBRANCH  28  29
ENDBRANCH  27  28
ENDBRANCH  26  27
ENDBRANCH  25  26
ENDBRANCH  24  25
ENDBRANCH  23  24
ENDBRANCH  22  23
ENDBRANCH  21  22
ENDBRANCH  20  21
ENDBRANCH  19  20
ENDBRANCH  18  19
ENDBRANCH   1  18
TORSDOF 28
ENDMDL
MODEL 6
REMARK VINA RESULT:    -2.280      4.271     10.446
REMARK INTER + INTRA:          -9.708
REMARK INTER:                  -6.307
REMARK INTRA:                  -3.401
REMARK UNBOUND:                -3.696
REMARK SMILES CCCCCCCCCCCCCCCCCCCCCCCCCCCCCC(=O)[O-]
REMARK SMILES IDX 16 1 17 2 18 3 19 4 20 5 21 6 22 7 23 8 24 9 25 10 26 11
REMARK SMILES IDX 27 12 28 13 29 14 30 15 31 16 32 17 15 18 14 19 13 20 12 21
REMARK SMILES IDX 11 22 10 23 9 24 8 25 7 26 6 27 5 28 4 29 3 30 2 31 1 32
REMARK H PARENT
REMARK Flexibility Score: inf
ROOT
ATOM      1  C   UNL     1      97.802 -65.952   2.507  1.00  0.00     0.000 C 
ENDROOT
BRANCH   1   2
ATOM      2  C   UNL     1      98.180 -66.418   3.920  1.00  0.00     0.000 C 
BRANCH   2   3
ATOM      3  C   UNL     1      97.687 -67.848   4.178  1.00  0.00     0.000 C 
BRANCH   3   4
ATOM      4  C   UNL     1      98.810 -68.866   3.933  1.00  0.00     0.000 C 
BRANCH   4   5
ATOM      5  C   UNL     1     100.218 -68.257   4.092  1.00  0.00     0.000 C 
BRANCH   5   6
ATOM      6  C   UNL     1     100.832 -68.424   5.496  1.00  0.00     0.000 C 
BRANCH   6   7
ATOM      7  C   UNL     1     101.844 -67.322   5.886  1.00  0.00     0.000 C 
BRANCH   7   8
ATOM      8  C   UNL     1     101.522 -65.939   5.287  1.00  0.00     0.000 C 
BRANCH   8   9
ATOM      9  C   UNL     1     101.088 -64.875   6.311  1.00  0.00     0.000 C 
BRANCH   9  10
ATOM     10  C   UNL     1     101.864 -64.888   7.645  1.00  0.00     0.000 C 
BRANCH  10  11
ATOM     11  C   UNL     1     101.046 -65.302   8.881  1.00  0.00     0.000 C 
BRANCH  11  12
ATOM     12  C   UNL     1     101.718 -64.894  10.205  1.00  0.00     0.000 C 
BRANCH  12  13
ATOM     13  C   UNL     1     102.060 -66.102  11.098  1.00  0.00     0.006 C 
BRANCH  13  14
ATOM     14  C   UNL     1     101.549 -67.454  10.570  1.00  0.00     0.053 C 
BRANCH  14  15
ATOM     15  C   UNL     1     101.182 -68.391  11.680  1.00  0.00     0.041 C 
ATOM     16  O   UNL     1     100.081 -69.000  11.658  1.00  0.00    -0.550 OA
ATOM     17  O   UNL     1     102.040 -68.559  12.758  1.00  0.00    -0.550 OA
ENDBRANCH  14  15
ENDBRANCH  13  14
ENDBRANCH  12  13
ENDBRANCH  11  12
ENDBRANCH  10  11
ENDBRANCH   9  10
ENDBRANCH   8   9
ENDBRANCH   7   8
ENDBRANCH   6   7
ENDBRANCH   5   6
ENDBRANCH   4   5
ENDBRANCH   3   4
ENDBRANCH   2   3
ENDBRANCH   1   2
BRANCH   1  18
ATOM     18  C   UNL     1      98.884 -65.066   1.867  1.00  0.00     0.000 C 
BRANCH  18  19
ATOM     19  C   UNL     1     100.273 -65.724   1.879  1.00  0.00     0.000 C 
BRANCH  19  20
ATOM     20  C   UNL     1     101.277 -64.905   1.060  1.00  0.00     0.000 C 
BRANCH  20  21
ATOM     21  C   UNL     1     101.849 -65.735  -0.100  1.00  0.00     0.000 C 
BRANCH  21  22
ATOM     22  C   UNL     1     101.807 -64.975  -1.442  1.00  0.00     0.000 C 
BRANCH  22  23
ATOM     23  C   UNL     1     100.509 -65.199  -2.237  1.00  0.00     0.000 C 
BRANCH  23  24
ATOM     24  C   UNL     1     100.679 -64.944  -3.744  1.00  0.00    -0.000 C 
BRANCH  24  25
ATOM     25  C   UNL     1      99.346 -65.064  -4.512  1.00  0.00    -0.000 C 
BRANCH  25  26
ATOM     26  C   UNL     1      99.088 -66.467  -5.089  1.00  0.00    -0.000 C 
BRANCH  26  27
ATOM     27  C   UNL     1      98.942 -67.542  -4.003  1.00  0.00    -0.000 C 
BRANCH  27  28
ATOM     28  C   UNL     1      97.848 -67.164  -2.995  1.00  0.00    -0.000 C 
BRANCH  28  29
ATOM     29  C   UNL     1      97.749 -68.158  -1.825  1.00  0.00    -0.000 C 
BRANCH  29  30
ATOM     30  C   UNL     1      98.542 -67.762  -0.563  1.00  0.00    -0.000 C 
BRANCH  30  31
ATOM     31  C   UNL     1      99.101 -68.942   0.249  1.00  0.00    -0.003 C 
ATOM     32  C   UNL     1      98.163 -70.150   0.268  1.00  0.00     0.004 C 
ENDBRANCH  30  31
ENDBRANCH  29  30
ENDBRANCH  28  29
ENDBRANCH  27  28
ENDBRANCH  26  27
ENDBRANCH  25  26
ENDBRANCH  24  25
ENDBRANCH  23  24
ENDBRANCH  22  23
ENDBRANCH  21  22
ENDBRANCH  20  21
ENDBRANCH  19  20
ENDBRANCH  18  19
ENDBRANCH   1  18
TORSDOF 28
ENDMDL
MODEL 7
REMARK VINA RESULT:    -2.201      1.850      3.950
REMARK INTER + INTRA:          -9.498
REMARK INTER:                  -6.659
REMARK INTRA:                  -2.840
REMARK UNBOUND:                -3.696
REMARK SMILES CCCCCCCCCCCCCCCCCCCCCCCCCCCCCC(=O)[O-]
REMARK SMILES IDX 16 1 17 2 18 3 19 4 20 5 21 6 22 7 23 8 24 9 25 10 26 11
REMARK SMILES IDX 27 12 28 13 29 14 30 15 31 16 32 17 15 18 14 19 13 20 12 21
REMARK SMILES IDX 11 22 10 23 9 24 8 25 7 26 6 27 5 28 4 29 3 30 2 31 1 32
REMARK H PARENT
REMARK Flexibility Score: inf
ROOT
ATOM      1  C   UNL     1      97.128 -65.984   3.713  1.00  0.00     0.000 C 
ENDROOT
BRANCH   1   2
ATOM      2  C   UNL     1      98.444 -65.483   4.323  1.00  0.00     0.000 C 
BRANCH   2   3
ATOM      3  C   UNL     1      99.391 -64.959   3.237  1.00  0.00     0.000 C 
BRANCH   3   4
ATOM      4  C   UNL     1      98.676 -64.875   1.880  1.00  0.00     0.000 C 
BRANCH   4   5
ATOM      5  C   UNL     1      99.652 -64.880   0.686  1.00  0.00     0.000 C 
BRANCH   5   6
ATOM      6  C   UNL     1     100.701 -66.008   0.722  1.00  0.00     0.000 C 
BRANCH   6   7
ATOM      7  C   UNL     1     101.841 -65.853  -0.311  1.00  0.00     0.000 C 
BRANCH   7   8
ATOM      8  C   UNL     1     101.405 -65.174  -1.624  1.00  0.00     0.000 C 
BRANCH   8   9
ATOM      9  C   UNL     1     102.103 -65.705  -2.890  1.00  0.00     0.000 C 
BRANCH   9  10
ATOM     10  C   UNL     1     101.343 -66.814  -3.648  1.00  0.00     0.000 C 
BRANCH  10  11
ATOM     11  C   UNL     1     100.999 -68.063  -2.817  1.00  0.00     0.000 C 
BRANCH  11  12
ATOM     12  C   UNL     1      99.559 -68.556  -3.051  1.00  0.00     0.000 C 
BRANCH  12  13
ATOM     13  C   UNL     1      98.604 -68.173  -1.905  1.00  0.00     0.006 C 
BRANCH  13  14
ATOM     14  C   UNL     1      97.317 -67.459  -2.354  1.00  0.00     0.053 C 
BRANCH  14  15
ATOM     15  C   UNL     1      97.593 -66.369  -3.343  1.00  0.00     0.041 C 
ATOM     16  O   UNL     1      97.304 -66.526  -4.559  1.00  0.00    -0.550 OA
ATOM     17  O   UNL     1      98.207 -65.195  -2.929  1.00  0.00    -0.550 OA
ENDBRANCH  14  15
ENDBRANCH  13  14
ENDBRANCH  12  13
ENDBRANCH  11  12
ENDBRANCH  10  11
ENDBRANCH   9  10
ENDBRANCH   8   9
ENDBRANCH   7   8
ENDBRANCH   6   7
ENDBRANCH   5   6
ENDBRANCH   4   5
ENDBRANCH   3   4
ENDBRANCH   2   3
ENDBRANCH   1   2
BRANCH   1  18
ATOM     18  C   UNL     1      97.095 -67.512   3.546  1.00  0.00     0.000 C 
BRANCH  18  19
ATOM     19  C   UNL     1      97.613 -67.970   2.175  1.00  0.00     0.000 C 
BRANCH  19  20
ATOM     20  C   UNL     1      98.952 -68.705   2.309  1.00  0.00     0.000 C 
BRANCH  20  21
ATOM     21  C   UNL     1      99.268 -69.010   3.782  1.00  0.00     0.000 C 
BRANCH  21  22
ATOM     22  C   UNL     1     100.248 -67.989   4.396  1.00  0.00     0.000 C 
BRANCH  22  23
ATOM     23  C   UNL     1     100.471 -68.180   5.906  1.00  0.00     0.000 C 
BRANCH  23  24
ATOM     24  C   UNL     1     101.179 -69.503   6.242  1.00  0.00    -0.000 C 
BRANCH  24  25
ATOM     25  C   UNL     1     101.909 -69.448   7.601  1.00  0.00    -0.000 C 
BRANCH  25  26
ATOM     26  C   UNL     1     102.119 -68.020   8.134  1.00  0.00    -0.000 C 
BRANCH  26  27
ATOM     27  C   UNL     1     101.964 -67.924   9.659  1.00  0.00    -0.000 C 
BRANCH  27  28
ATOM     28  C   UNL     1     100.506 -68.150  10.081  1.00  0.00    -0.000 C 
BRANCH  28  29
ATOM     29  C   UNL     1     100.175 -67.510  11.441  1.00  0.00    -0.000 C 
BRANCH  29  30
ATOM     30  C   UNL     1      99.832 -66.008  11.389  1.00  0.00    -0.000 C 
BRANCH  30  31
ATOM     31  C   UNL     1     100.957 -65.069  11.860  1.00  0.00    -0.003 C 
ATOM     32  C   UNL     1     101.901 -65.728  12.866  1.00  0.00     0.004 C 
ENDBRANCH  30  31
ENDBRANCH  29  30
ENDBRANCH  28  29
ENDBRANCH  27  28
ENDBRANCH  26  27
ENDBRANCH  25  26
ENDBRANCH  24  25
ENDBRANCH  23  24
ENDBRANCH  22  23
ENDBRANCH  21  22
ENDBRANCH  20  21
ENDBRANCH  19  20
ENDBRANCH  18  19
ENDBRANCH   1  18
TORSDOF 28
ENDMDL
MODEL 8
REMARK VINA RESULT:    -2.099      4.084     10.263
REMARK INTER + INTRA:          -9.230
REMARK INTER:                  -6.898
REMARK INTRA:                  -2.331
REMARK UNBOUND:                -3.696
REMARK SMILES CCCCCCCCCCCCCCCCCCCCCCCCCCCCCC(=O)[O-]
REMARK SMILES IDX 16 1 17 2 18 3 19 4 20 5 21 6 22 7 23 8 24 9 25 10 26 11
REMARK SMILES IDX 27 12 28 13 29 14 30 15 31 16 32 17 15 18 14 19 13 20 12 21
REMARK SMILES IDX 11 22 10 23 9 24 8 25 7 26 6 27 5 28 4 29 3 30 2 31 1 32
REMARK H PARENT
REMARK Flexibility Score: inf
ROOT
ATOM      1  C   UNL     1      98.165 -67.922   3.776  1.00  0.00     0.000 C 
ENDROOT
BRANCH   1   2
ATOM      2  C   UNL     1      97.013 -66.908   3.817  1.00  0.00     0.000 C 
BRANCH   2   3
ATOM      3  C   UNL     1      97.535 -65.490   4.074  1.00  0.00     0.000 C 
BRANCH   3   4
ATOM      4  C   UNL     1      98.170 -64.902   2.806  1.00  0.00     0.000 C 
BRANCH   4   5
ATOM      5  C   UNL     1      99.711 -64.877   2.864  1.00  0.00     0.000 C 
BRANCH   5   6
ATOM      6  C   UNL     1     100.352 -66.172   3.401  1.00  0.00     0.000 C 
BRANCH   6   7
ATOM      7  C   UNL     1     101.827 -66.020   3.841  1.00  0.00     0.000 C 
BRANCH   7   8
ATOM      8  C   UNL     1     102.001 -65.702   5.339  1.00  0.00     0.000 C 
BRANCH   8   9
ATOM      9  C   UNL     1     102.124 -66.936   6.252  1.00  0.00     0.000 C 
BRANCH   9  10
ATOM     10  C   UNL     1     101.023 -68.002   6.074  1.00  0.00     0.000 C 
BRANCH  10  11
ATOM     11  C   UNL     1     100.939 -69.057   7.192  1.00  0.00     0.000 C 
BRANCH  11  12
ATOM     12  C   UNL     1     101.971 -68.824   8.310  1.00  0.00     0.000 C 
BRANCH  12  13
ATOM     13  C   UNL     1     101.323 -68.403   9.643  1.00  0.00     0.006 C 
BRANCH  13  14
ATOM     14  C   UNL     1     100.415 -67.165   9.552  1.00  0.00     0.053 C 
BRANCH  14  15
ATOM     15  C   UNL     1     100.004 -66.666  10.904  1.00  0.00     0.041 C 
ATOM     16  O   UNL     1      99.421 -67.433  11.713  1.00  0.00    -0.550 OA
ATOM     17  O   UNL     1     100.231 -65.342  11.252  1.00  0.00    -0.550 OA
ENDBRANCH  14  15
ENDBRANCH  13  14
ENDBRANCH  12  13
ENDBRANCH  11  12
ENDBRANCH  10  11
ENDBRANCH   9  10
ENDBRANCH   8   9
ENDBRANCH   7   8
ENDBRANCH   6   7
ENDBRANCH   5   6
ENDBRANCH   4   5
ENDBRANCH   3   4
ENDBRANCH   2   3
ENDBRANCH   1   2
BRANCH   1  18
ATOM     18  C   UNL     1      98.052 -68.902   2.597  1.00  0.00     0.000 C 
BRANCH  18  19
ATOM     19  C   UNL     1      98.348 -68.238   1.244  1.00  0.00     0.000 C 
BRANCH  19  20
ATOM     20  C   UNL     1      99.789 -68.515   0.798  1.00  0.00     0.000 C 
BRANCH  20  21
ATOM     21  C   UNL     1     100.161 -67.662  -0.425  1.00  0.00     0.000 C 
BRANCH  21  22
ATOM     22  C   UNL     1     100.531 -66.214  -0.040  1.00  0.00     0.000 C 
BRANCH  22  23
ATOM     23  C   UNL     1     101.983 -65.839  -0.381  1.00  0.00     0.000 C 
BRANCH  23  24
ATOM     24  C   UNL     1     102.108 -65.083  -1.714  1.00  0.00    -0.000 C 
BRANCH  24  25
ATOM     25  C   UNL     1     101.285 -65.743  -2.841  1.00  0.00    -0.000 C 
BRANCH  25  26
ATOM     26  C   UNL     1     102.111 -66.668  -3.751  1.00  0.00    -0.000 C 
BRANCH  26  27
ATOM     27  C   UNL     1     101.541 -68.092  -3.831  1.00  0.00    -0.000 C 
BRANCH  27  28
ATOM     28  C   UNL     1     100.735 -68.293  -5.122  1.00  0.00    -0.000 C 
BRANCH  28  29
ATOM     29  C   UNL     1      99.407 -67.514  -5.121  1.00  0.00    -0.000 C 
BRANCH  29  30
ATOM     30  C   UNL     1      98.456 -67.849  -3.955  1.00  0.00    -0.000 C 
BRANCH  30  31
ATOM     31  C   UNL     1      97.918 -66.630  -3.186  1.00  0.00    -0.003 C 
ATOM     32  C   UNL     1      98.016 -65.331  -3.986  1.00  0.00     0.004 C 
ENDBRANCH  30  31
ENDBRANCH  29  30
ENDBRANCH  28  29
ENDBRANCH  27  28
ENDBRANCH  26  27
ENDBRANCH  25  26
ENDBRANCH  24  25
ENDBRANCH  23  24
ENDBRANCH  22  23
ENDBRANCH  21  22
ENDBRANCH  20  21
ENDBRANCH  19  20
ENDBRANCH  18  19
ENDBRANCH   1  18
TORSDOF 28
ENDMDL
MODEL 9
REMARK VINA RESULT:    -2.083      2.036      3.990
REMARK INTER + INTRA:          -9.189
REMARK INTER:                  -7.167
REMARK INTRA:                  -2.022
REMARK UNBOUND:                -3.696
REMARK SMILES CCCCCCCCCCCCCCCCCCCCCCCCCCCCCC(=O)[O-]
REMARK SMILES IDX 16 1 17 2 18 3 19 4 20 5 21 6 22 7 23 8 24 9 25 10 26 11
REMARK SMILES IDX 27 12 28 13 29 14 30 15 31 16 32 17 15 18 14 19 13 20 12 21
REMARK SMILES IDX 11 22 10 23 9 24 8 25 7 26 6 27 5 28 4 29 3 30 2 31 1 32
REMARK H PARENT
REMARK Flexibility Score: inf
ROOT
ATOM      1  C   UNL     1      98.697 -65.470   4.365  1.00  0.00     0.000 C 
ENDROOT
BRANCH   1   2
ATOM      2  C   UNL     1      99.046 -64.875   2.993  1.00  0.00     0.000 C 
BRANCH   2   3
ATOM      3  C   UNL     1      98.399 -65.683   1.862  1.00  0.00     0.000 C 
BRANCH   3   4
ATOM      4  C   UNL     1      98.593 -64.984   0.509  1.00  0.00     0.000 C 
BRANCH   4   5
ATOM      5  C   UNL     1      99.021 -65.953  -0.612  1.00  0.00     0.000 C 
BRANCH   5   6
ATOM      6  C   UNL     1     100.546 -66.106  -0.777  1.00  0.00     0.000 C 
BRANCH   6   7
ATOM      7  C   UNL     1     101.136 -67.373  -0.116  1.00  0.00     0.000 C 
BRANCH   7   8
ATOM      8  C   UNL     1     101.533 -68.472  -1.121  1.00  0.00     0.000 C 
BRANCH   8   9
ATOM      9  C   UNL     1     101.292 -68.116  -2.599  1.00  0.00     0.000 C 
BRANCH   9  10
ATOM     10  C   UNL     1     101.798 -66.724  -3.033  1.00  0.00     0.000 C 
BRANCH  10  11
ATOM     11  C   UNL     1     101.902 -66.504  -4.554  1.00  0.00     0.000 C 
BRANCH  11  12
ATOM     12  C   UNL     1     100.753 -65.646  -5.112  1.00  0.00     0.000 C 
BRANCH  12  13
ATOM     13  C   UNL     1      99.364 -66.252  -4.830  1.00  0.00     0.006 C 
BRANCH  13  14
ATOM     14  C   UNL     1      98.213 -65.232  -4.803  1.00  0.00     0.053 C 
BRANCH  14  15
ATOM     15  C   UNL     1      96.895 -65.878  -4.504  1.00  0.00     0.041 C 
ATOM     16  O   UNL     1      95.825 -65.358  -4.919  1.00  0.00    -0.550 OA
ATOM     17  O   UNL     1      96.845 -67.031  -3.734  1.00  0.00    -0.550 OA
ENDBRANCH  14  15
ENDBRANCH  13  14
ENDBRANCH  12  13
ENDBRANCH  11  12
ENDBRANCH  10  11
ENDBRANCH   9  10
ENDBRANCH   8   9
ENDBRANCH   7   8
ENDBRANCH   6   7
ENDBRANCH   5   6
ENDBRANCH   4   5
ENDBRANCH   3   4
ENDBRANCH   2   3
ENDBRANCH   1   2
BRANCH   1  18
ATOM     18  C   UNL     1      99.912 -66.105   5.062  1.00  0.00     0.000 C 
BRANCH  18  19
ATOM     19  C   UNL     1     101.225 -65.865   4.300  1.00  0.00     0.000 C 
BRANCH  19  20
ATOM     20  C   UNL     1     102.125 -67.106   4.352  1.00  0.00     0.000 C 
BRANCH  20  21
ATOM     21  C   UNL     1     101.294 -68.394   4.240  1.00  0.00     0.000 C 
BRANCH  21  22
ATOM     22  C   UNL     1     101.935 -69.573   5.001  1.00  0.00     0.000 C 
BRANCH  22  23
ATOM     23  C   UNL     1     101.172 -69.969   6.277  1.00  0.00     0.000 C 
BRANCH  23  24
ATOM     24  C   UNL     1     101.656 -69.207   7.523  1.00  0.00    -0.000 C 
BRANCH  24  25
ATOM     25  C   UNL     1     101.024 -67.803   7.633  1.00  0.00    -0.000 C 
BRANCH  25  26
ATOM     26  C   UNL     1     102.046 -66.682   7.890  1.00  0.00    -0.000 C 
BRANCH  26  27
ATOM     27  C   UNL     1     101.400 -65.396   8.425  1.00  0.00    -0.000 C 
BRANCH  27  28
ATOM     28  C   UNL     1     102.015 -64.987   9.770  1.00  0.00    -0.000 C 
BRANCH  28  29
ATOM     29  C   UNL     1     102.124 -66.163  10.757  1.00  0.00    -0.000 C 
BRANCH  29  30
ATOM     30  C   UNL     1     101.016 -66.219  11.828  1.00  0.00    -0.000 C 
BRANCH  30  31
ATOM     31  C   UNL     1      99.840 -67.154  11.496  1.00  0.00    -0.003 C 
ATOM     32  C   UNL     1     100.291 -68.506  10.942  1.00  0.00     0.004 C 
ENDBRANCH  30  31
ENDBRANCH  29  30
ENDBRANCH  28  29
ENDBRANCH  27  28
ENDBRANCH  26  27
ENDBRANCH  25  26
ENDBRANCH  24  25
ENDBRANCH  23  24
ENDBRANCH  22  23
ENDBRANCH  21  22
ENDBRANCH  20  21
ENDBRANCH  19  20
ENDBRANCH  18  19
ENDBRANCH   1  18
TORSDOF 28
ENDMDL
