MODEL 1
REMARK VINA RESULT:    -4.598      0.000      0.000
REMARK INTER + INTRA:          -5.031
REMARK INTER:                  -5.001
REMARK INTRA:                  -0.030
REMARK UNBOUND:                -0.030
REMARK SMILES O=C([O-])c1ccc(O)cc1
REMARK SMILES IDX 4 1 5 2 10 3 6 4 9 5 7 6 2 7 1 8 3 9 8 10
REMARK H PARENT 8 11
REMARK Flexibility Score: inf
ROOT
ATOM      1  C   UNL     1       7.480 -21.723   2.409  1.00  0.00    -0.003 A 
ATOM      2  C   UNL     1       7.982 -20.921   1.367  1.00  0.00     0.014 A 
ATOM      3  C   UNL     1       6.135 -21.577   2.791  1.00  0.00     0.014 A 
ATOM      4  C   UNL     1       7.156 -19.994   0.724  1.00  0.00     0.047 A 
ATOM      5  C   UNL     1       5.311 -20.649   2.146  1.00  0.00     0.047 A 
ATOM      6  C   UNL     1       5.817 -19.856   1.113  1.00  0.00     0.115 A 
ENDROOT
BRANCH   1   7
ATOM      7  C   UNL     1       8.349 -22.705   3.092  1.00  0.00     0.071 C 
ATOM      8  O   UNL     1       7.999 -23.911   3.190  1.00  0.00    -0.545 OA
ATOM      9  O   UNL     1       9.566 -22.310   3.635  1.00  0.00    -0.545 OA
ENDBRANCH   1   7
BRANCH   6  10
ATOM     10  O   UNL     1       4.985 -18.936   0.479  1.00  0.00    -0.508 OA
ATOM     11  H   UNL     1       5.326 -18.337  -0.264  1.00  0.00     0.293 HD
ENDBRANCH   6  10
TORSDOF 2
ENDMDL
MODEL 2
REMARK VINA RESULT:    -4.514      1.492      4.466
REMARK INTER + INTRA:          -4.940
REMARK INTER:                  -4.908
REMARK INTRA:                  -0.032
REMARK UNBOUND:                -0.030
REMARK SMILES O=C([O-])c1ccc(O)cc1
REMARK SMILES IDX 4 1 5 2 10 3 6 4 9 5 7 6 2 7 1 8 3 9 8 10
REMARK H PARENT 8 11
REMARK Flexibility Score: inf
ROOT
ATOM      1  C   UNL     1       5.604 -20.896   0.933  1.00  0.00    -0.003 A 
ATOM      2  C   UNL     1       5.897 -22.047   1.687  1.00  0.00     0.014 A 
ATOM      3  C   UNL     1       6.643 -19.999   0.629  1.00  0.00     0.014 A 
ATOM      4  C   UNL     1       7.201 -22.294   2.126  1.00  0.00     0.047 A 
ATOM      5  C   UNL     1       7.946 -20.248   1.070  1.00  0.00     0.047 A 
ATOM      6  C   UNL     1       8.229 -21.394   1.818  1.00  0.00     0.115 A 
ENDROOT
BRANCH   1   7
ATOM      7  C   UNL     1       4.226 -20.630   0.465  1.00  0.00     0.071 C 
ATOM      8  O   UNL     1       3.750 -19.464   0.504  1.00  0.00    -0.545 OA
ATOM      9  O   UNL     1       3.437 -21.664  -0.024  1.00  0.00    -0.545 OA
ENDBRANCH   1   7
BRANCH   6  10
ATOM     10  O   UNL     1       9.533 -21.630   2.251  1.00  0.00    -0.508 OA
ATOM     11  H   UNL     1       9.723 -22.109   3.123  1.00  0.00     0.293 HD
ENDBRANCH   6  10
TORSDOF 2
ENDMDL
MODEL 3
REMARK VINA RESULT:    -4.452      8.347      9.455
REMARK INTER + INTRA:          -4.872
REMARK INTER:                  -4.843
REMARK INTRA:                  -0.029
REMARK UNBOUND:                -0.030
REMARK SMILES O=C([O-])c1ccc(O)cc1
REMARK SMILES IDX 4 1 5 2 10 3 6 4 9 5 7 6 2 7 1 8 3 9 8 10
REMARK H PARENT 8 11
REMARK Flexibility Score: inf
ROOT
ATOM      1  C   UNL     1       4.151 -14.685   7.143  1.00  0.00    -0.003 A 
ATOM      2  C   UNL     1       3.482 -14.164   8.266  1.00  0.00     0.014 A 
ATOM      3  C   UNL     1       3.640 -15.837   6.520  1.00  0.00     0.014 A 
ATOM      4  C   UNL     1       2.327 -14.784   8.754  1.00  0.00     0.047 A 
ATOM      5  C   UNL     1       2.485 -16.455   7.010  1.00  0.00     0.047 A 
ATOM      6  C   UNL     1       1.826 -15.932   8.126  1.00  0.00     0.115 A 
ENDROOT
BRANCH   1   7
ATOM      7  C   UNL     1       5.373 -14.033   6.623  1.00  0.00     0.071 C 
ATOM      8  O   UNL     1       5.401 -13.567   5.453  1.00  0.00    -0.545 OA
ATOM      9  O   UNL     1       6.507 -13.925   7.419  1.00  0.00    -0.545 OA
ENDBRANCH   1   7
BRANCH   6  10
ATOM     10  O   UNL     1       0.677 -16.558   8.604  1.00  0.00    -0.508 OA
ATOM     11  H   UNL     1       0.471 -17.526   8.386  1.00  0.00     0.293 HD
ENDBRANCH   6  10
TORSDOF 2
ENDMDL
MODEL 4
REMARK VINA RESULT:    -4.450      8.346      9.428
REMARK INTER + INTRA:          -4.870
REMARK INTER:                  -4.842
REMARK INTRA:                  -0.029
REMARK UNBOUND:                -0.030
REMARK SMILES O=C([O-])c1ccc(O)cc1
REMARK SMILES IDX 4 1 5 2 10 3 6 4 9 5 7 6 2 7 1 8 3 9 8 10
REMARK H PARENT 8 11
REMARK Flexibility Score: inf
ROOT
ATOM      1  C   UNL     1       4.146 -14.688   7.140  1.00  0.00    -0.003 A 
ATOM      2  C   UNL     1       3.630 -15.847   6.530  1.00  0.00     0.014 A 
ATOM      3  C   UNL     1       3.481 -14.156   8.258  1.00  0.00     0.014 A 
ATOM      4  C   UNL     1       2.476 -16.459   7.029  1.00  0.00     0.047 A 
ATOM      5  C   UNL     1       2.327 -14.769   8.756  1.00  0.00     0.047 A 
ATOM      6  C   UNL     1       1.822 -15.920   8.145  1.00  0.00     0.115 A 
ENDROOT
BRANCH   1   7
ATOM      7  C   UNL     1       5.366 -14.038   6.616  1.00  0.00     0.071 C 
ATOM      8  O   UNL     1       5.395 -13.580   5.442  1.00  0.00    -0.545 OA
ATOM      9  O   UNL     1       6.500 -13.923   7.412  1.00  0.00    -0.545 OA
ENDBRANCH   1   7
BRANCH   6  10
ATOM     10  O   UNL     1       0.671 -16.520   8.651  1.00  0.00    -0.508 OA
ATOM     11  H   UNL     1       0.681 -17.032   9.525  1.00  0.00     0.293 HD
ENDBRANCH   6  10
TORSDOF 2
ENDMDL
MODEL 5
REMARK VINA RESULT:    -4.335      7.629      8.054
REMARK INTER + INTRA:          -4.745
REMARK INTER:                  -4.710
REMARK INTRA:                  -0.035
REMARK UNBOUND:                -0.030
REMARK SMILES O=C([O-])c1ccc(O)cc1
REMARK SMILES IDX 4 1 5 2 10 3 6 4 9 5 7 6 2 7 1 8 3 9 8 10
REMARK H PARENT 8 11
REMARK Flexibility Score: inf
ROOT
ATOM      1  C   UNL     1       7.657 -15.130   6.410  1.00  0.00    -0.003 A 
ATOM      2  C   UNL     1       6.914 -14.307   5.544  1.00  0.00     0.014 A 
ATOM      3  C   UNL     1       7.105 -15.482   7.654  1.00  0.00     0.014 A 
ATOM      4  C   UNL     1       5.646 -13.848   5.915  1.00  0.00     0.047 A 
ATOM      5  C   UNL     1       5.837 -15.021   8.023  1.00  0.00     0.047 A 
ATOM      6  C   UNL     1       5.105 -14.205   7.157  1.00  0.00     0.115 A 
ENDROOT
BRANCH   1   7
ATOM      7  C   UNL     1       8.998 -15.619   6.022  1.00  0.00     0.071 C 
ATOM      8  O   UNL     1       9.649 -15.046   5.108  1.00  0.00    -0.545 OA
ATOM      9  O   UNL     1       9.559 -16.717   6.662  1.00  0.00    -0.545 OA
ENDBRANCH   1   7
BRANCH   6  10
ATOM     10  O   UNL     1       3.843 -13.752   7.538  1.00  0.00    -0.508 OA
ATOM     11  H   UNL     1       3.064 -13.748   6.890  1.00  0.00     0.293 HD
ENDBRANCH   6  10
TORSDOF 2
ENDMDL
MODEL 6
REMARK VINA RESULT:    -4.317      7.251      8.414
REMARK INTER + INTRA:          -4.726
REMARK INTER:                  -4.695
REMARK INTRA:                  -0.031
REMARK UNBOUND:                -0.030
REMARK SMILES O=C([O-])c1ccc(O)cc1
REMARK SMILES IDX 4 1 5 2 10 3 6 4 9 5 7 6 2 7 1 8 3 9 8 10
REMARK H PARENT 8 11
REMARK Flexibility Score: inf
ROOT
ATOM      1  C   UNL     1       9.084 -15.813   6.334  1.00  0.00    -0.003 A 
ATOM      2  C   UNL     1       9.287 -16.838   7.277  1.00  0.00     0.014 A 
ATOM      3  C   UNL     1      10.177 -15.362   5.574  1.00  0.00     0.014 A 
ATOM      4  C   UNL     1      10.556 -17.398   7.454  1.00  0.00     0.047 A 
ATOM      5  C   UNL     1      11.445 -15.924   5.753  1.00  0.00     0.047 A 
ATOM      6  C   UNL     1      11.638 -16.942   6.691  1.00  0.00     0.115 A 
ENDROOT
BRANCH   1   7
ATOM      7  C   UNL     1       7.743 -15.218   6.143  1.00  0.00     0.071 C 
ATOM      8  O   UNL     1       7.268 -15.070   4.986  1.00  0.00    -0.545 OA
ATOM      9  O   UNL     1       6.990 -14.813   7.238  1.00  0.00    -0.545 OA
ENDBRANCH   1   7
BRANCH   6  10
ATOM     10  O   UNL     1      12.907 -17.492   6.859  1.00  0.00    -0.508 OA
ATOM     11  H   UNL     1      13.572 -17.101   7.516  1.00  0.00     0.293 HD
ENDBRANCH   6  10
TORSDOF 2
ENDMDL
MODEL 7
REMARK VINA RESULT:    -4.307      7.607      8.115
REMARK INTER + INTRA:          -4.715
REMARK INTER:                  -4.679
REMARK INTRA:                  -0.036
REMARK UNBOUND:                -0.030
REMARK SMILES O=C([O-])c1ccc(O)cc1
REMARK SMILES IDX 4 1 5 2 10 3 6 4 9 5 7 6 2 7 1 8 3 9 8 10
REMARK H PARENT 8 11
REMARK Flexibility Score: inf
ROOT
ATOM      1  C   UNL     1       7.616 -15.177   6.425  1.00  0.00    -0.003 A 
ATOM      2  C   UNL     1       7.016 -15.606   7.623  1.00  0.00     0.014 A 
ATOM      3  C   UNL     1       6.928 -14.262   5.609  1.00  0.00     0.014 A 
ATOM      4  C   UNL     1       5.755 -15.129   7.995  1.00  0.00     0.047 A 
ATOM      5  C   UNL     1       5.666 -13.788   5.983  1.00  0.00     0.047 A 
ATOM      6  C   UNL     1       5.077 -14.218   7.175  1.00  0.00     0.115 A 
ENDROOT
BRANCH   1   7
ATOM      7  C   UNL     1       8.949 -15.678   6.026  1.00  0.00     0.071 C 
ATOM      8  O   UNL     1       9.540 -15.198   5.022  1.00  0.00    -0.545 OA
ATOM      9  O   UNL     1       9.570 -16.685   6.756  1.00  0.00    -0.545 OA
ENDBRANCH   1   7
BRANCH   6  10
ATOM     10  O   UNL     1       3.820 -13.737   7.536  1.00  0.00    -0.508 OA
ATOM     11  H   UNL     1       3.712 -13.002   8.225  1.00  0.00     0.293 HD
ENDBRANCH   6  10
TORSDOF 2
ENDMDL
MODEL 8
REMARK VINA RESULT:    -4.209      7.146      7.454
REMARK INTER + INTRA:          -4.608
REMARK INTER:                  -4.572
REMARK INTRA:                  -0.036
REMARK UNBOUND:                -0.030
REMARK SMILES O=C([O-])c1ccc(O)cc1
REMARK SMILES IDX 4 1 5 2 10 3 6 4 9 5 7 6 2 7 1 8 3 9 8 10
REMARK H PARENT 8 11
REMARK Flexibility Score: inf
ROOT
ATOM      1  C   UNL     1       8.756 -16.134   6.853  1.00  0.00    -0.003 A 
ATOM      2  C   UNL     1       7.545 -15.729   7.446  1.00  0.00     0.014 A 
ATOM      3  C   UNL     1       9.153 -15.537   5.644  1.00  0.00     0.014 A 
ATOM      4  C   UNL     1       6.752 -14.748   6.842  1.00  0.00     0.047 A 
ATOM      5  C   UNL     1       8.358 -14.557   5.041  1.00  0.00     0.047 A 
ATOM      6  C   UNL     1       7.158 -14.160   5.637  1.00  0.00     0.115 A 
ENDROOT
BRANCH   1   7
ATOM      7  C   UNL     1       9.599 -17.170   7.488  1.00  0.00     0.071 C 
ATOM      8  O   UNL     1       9.199 -17.779   8.515  1.00  0.00    -0.545 OA
ATOM      9  O   UNL     1      10.844 -17.485   6.958  1.00  0.00    -0.545 OA
ENDBRANCH   1   7
BRANCH   6  10
ATOM     10  O   UNL     1       6.375 -13.182   5.026  1.00  0.00    -0.508 OA
ATOM     11  H   UNL     1       5.596 -12.749   5.508  1.00  0.00     0.293 HD
ENDBRANCH   6  10
TORSDOF 2
ENDMDL
MODEL 9
REMARK VINA RESULT:    -4.066      8.578      9.785
REMARK INTER + INTRA:          -4.453
REMARK INTER:                  -4.422
REMARK INTRA:                  -0.031
REMARK UNBOUND:                -0.030
REMARK SMILES O=C([O-])c1ccc(O)cc1
REMARK SMILES IDX 4 1 5 2 10 3 6 4 9 5 7 6 2 7 1 8 3 9 8 10
REMARK H PARENT 8 11
REMARK Flexibility Score: inf
ROOT
ATOM      1  C   UNL     1       1.963 -15.951   7.962  1.00  0.00    -0.003 A 
ATOM      2  C   UNL     1       2.772 -16.269   6.855  1.00  0.00     0.014 A 
ATOM      3  C   UNL     1       2.296 -14.836   8.751  1.00  0.00     0.014 A 
ATOM      4  C   UNL     1       3.889 -15.488   6.546  1.00  0.00     0.047 A 
ATOM      5  C   UNL     1       3.415 -14.057   8.439  1.00  0.00     0.047 A 
ATOM      6  C   UNL     1       4.213 -14.379   7.338  1.00  0.00     0.115 A 
ENDROOT
BRANCH   1   7
ATOM      7  C   UNL     1       0.779 -16.774   8.294  1.00  0.00     0.071 C 
ATOM      8  O   UNL     1       0.855 -18.031   8.301  1.00  0.00    -0.545 OA
ATOM      9  O   UNL     1      -0.434 -16.170   8.603  1.00  0.00    -0.545 OA
ENDBRANCH   1   7
BRANCH   6  10
ATOM     10  O   UNL     1       5.325 -13.593   7.040  1.00  0.00    -0.508 OA
ATOM     11  H   UNL     1       6.268 -13.928   7.198  1.00  0.00     0.293 HD
ENDBRANCH   6  10
TORSDOF 2
ENDMDL
