MODEL 1
REMARK VINA RESULT:    -4.224      0.000      0.000
REMARK INTER + INTRA:          -5.008
REMARK INTER:                  -4.965
REMARK INTRA:                  -0.043
REMARK UNBOUND:                -0.043
REMARK SMILES O=C([O-])CCC(=O)[O-]
REMARK SMILES IDX 4 1 2 2 1 3 3 4 5 5 6 6 7 7 8 8
REMARK H PARENT
REMARK Flexibility Score: inf
ROOT
ATOM      1  C   UNL     1      11.949  -0.394  64.677  1.00  0.00     0.059 C 
ENDROOT
BRANCH   1   2
ATOM      2  C   UNL     1      12.129   0.870  65.456  1.00  0.00     0.042 C 
ATOM      3  O   UNL     1      12.327   1.961  64.858  1.00  0.00    -0.550 OA
ATOM      4  O   UNL     1      12.127   0.838  66.845  1.00  0.00    -0.550 OA
ENDBRANCH   1   2
BRANCH   1   5
ATOM      5  C   UNL     1      11.736  -1.578  65.622  1.00  0.00     0.059 C 
BRANCH   5   6
ATOM      6  C   UNL     1      10.955  -2.657  64.939  1.00  0.00     0.042 C 
ATOM      7  O   UNL     1      10.823  -3.785  65.484  1.00  0.00    -0.550 OA
ATOM      8  O   UNL     1      10.412  -2.432  63.681  1.00  0.00    -0.550 OA
ENDBRANCH   5   6
ENDBRANCH   1   5
TORSDOF 3
ENDMDL
MODEL 2
REMARK VINA RESULT:    -4.175      0.731      4.171
REMARK INTER + INTRA:          -4.950
REMARK INTER:                  -4.905
REMARK INTRA:                  -0.045
REMARK UNBOUND:                -0.043
REMARK SMILES O=C([O-])CCC(=O)[O-]
REMARK SMILES IDX 4 1 2 2 1 3 3 4 5 5 6 6 7 7 8 8
REMARK H PARENT
REMARK Flexibility Score: inf
ROOT
ATOM      1  C   UNL     1      11.878  -1.212  65.715  1.00  0.00     0.059 C 
ENDROOT
BRANCH   1   2
ATOM      2  C   UNL     1      11.230  -2.388  65.055  1.00  0.00     0.042 C 
ATOM      3  O   UNL     1      11.399  -3.547  65.518  1.00  0.00    -0.550 OA
ATOM      4  O   UNL     1      10.478  -2.211  63.901  1.00  0.00    -0.550 OA
ENDBRANCH   1   2
BRANCH   1   5
ATOM      5  C   UNL     1      11.952  -0.030  64.747  1.00  0.00     0.059 C 
BRANCH   5   6
ATOM      6  C   UNL     1      11.705   1.255  65.472  1.00  0.00     0.042 C 
ATOM      7  O   UNL     1      12.299   1.496  66.556  1.00  0.00    -0.550 OA
ATOM      8  O   UNL     1      10.782   2.167  64.976  1.00  0.00    -0.550 OA
ENDBRANCH   5   6
ENDBRANCH   1   5
TORSDOF 3
ENDMDL
MODEL 3
REMARK VINA RESULT:    -3.118     17.945     20.034
REMARK INTER + INTRA:          -3.709
REMARK INTER:                  -3.678
REMARK INTRA:                  -0.031
REMARK UNBOUND:                -0.043
REMARK SMILES O=C([O-])CCC(=O)[O-]
REMARK SMILES IDX 4 1 2 2 1 3 3 4 5 5 6 6 7 7 8 8
REMARK H PARENT
REMARK Flexibility Score: inf
ROOT
ATOM      1  C   UNL     1      -5.219 -12.629  63.922  1.00  0.00     0.059 C 
ENDROOT
BRANCH   1   2
ATOM      2  C   UNL     1      -4.729 -13.938  63.388  1.00  0.00     0.042 C 
ATOM      3  O   UNL     1      -4.940 -14.251  62.187  1.00  0.00    -0.550 OA
ATOM      4  O   UNL     1      -4.080 -14.833  64.229  1.00  0.00    -0.550 OA
ENDBRANCH   1   2
BRANCH   1   5
ATOM      5  C   UNL     1      -4.126 -11.943  64.743  1.00  0.00     0.059 C 
BRANCH   5   6
ATOM      6  C   UNL     1      -4.119 -10.471  64.475  1.00  0.00     0.042 C 
ATOM      7  O   UNL     1      -5.184  -9.805  64.567  1.00  0.00    -0.550 OA
ATOM      8  O   UNL     1      -2.946  -9.842  64.080  1.00  0.00    -0.550 OA
ENDBRANCH   5   6
ENDBRANCH   1   5
TORSDOF 3
ENDMDL
MODEL 4
REMARK VINA RESULT:    -3.102     17.941     19.659
REMARK INTER + INTRA:          -3.690
REMARK INTER:                  -3.651
REMARK INTRA:                  -0.039
REMARK UNBOUND:                -0.043
REMARK SMILES O=C([O-])CCC(=O)[O-]
REMARK SMILES IDX 4 1 2 2 1 3 3 4 5 5 6 6 7 7 8 8
REMARK H PARENT
REMARK Flexibility Score: inf
ROOT
ATOM      1  C   UNL     1      -4.133 -12.053  64.968  1.00  0.00     0.059 C 
ENDROOT
BRANCH   1   2
ATOM      2  C   UNL     1      -3.972 -10.636  64.515  1.00  0.00     0.042 C 
ATOM      3  O   UNL     1      -2.859 -10.230  64.089  1.00  0.00    -0.550 OA
ATOM      4  O   UNL     1      -5.039  -9.751  64.608  1.00  0.00    -0.550 OA
ENDBRANCH   1   2
BRANCH   1   5
ATOM      5  C   UNL     1      -5.235 -12.749  64.168  1.00  0.00     0.059 C 
BRANCH   5   6
ATOM      6  C   UNL     1      -4.714 -14.005  63.544  1.00  0.00     0.042 C 
ATOM      7  O   UNL     1      -4.032 -14.815  64.226  1.00  0.00    -0.550 OA
ATOM      8  O   UNL     1      -4.941 -14.260  62.198  1.00  0.00    -0.550 OA
ENDBRANCH   5   6
ENDBRANCH   1   5
TORSDOF 3
ENDMDL
MODEL 5
REMARK VINA RESULT:    -3.102     17.891     20.010
REMARK INTER + INTRA:          -3.689
REMARK INTER:                  -3.655
REMARK INTRA:                  -0.034
REMARK UNBOUND:                -0.043
REMARK SMILES O=C([O-])CCC(=O)[O-]
REMARK SMILES IDX 4 1 2 2 1 3 3 4 5 5 6 6 7 7 8 8
REMARK H PARENT
REMARK Flexibility Score: inf
ROOT
ATOM      1  C   UNL     1      -5.190 -12.637  64.059  1.00  0.00     0.059 C 
ENDROOT
BRANCH   1   2
ATOM      2  C   UNL     1      -4.706 -13.945  63.517  1.00  0.00     0.042 C 
ATOM      3  O   UNL     1      -4.066 -14.739  64.256  1.00  0.00    -0.550 OA
ATOM      4  O   UNL     1      -4.921 -14.268  62.183  1.00  0.00    -0.550 OA
ENDBRANCH   1   2
BRANCH   1   5
ATOM      5  C   UNL     1      -4.092 -11.961  64.882  1.00  0.00     0.059 C 
BRANCH   5   6
ATOM      6  C   UNL     1      -3.960 -10.522  64.495  1.00  0.00     0.042 C 
ATOM      7  O   UNL     1      -2.860 -10.079  64.071  1.00  0.00    -0.550 OA
ATOM      8  O   UNL     1      -5.037  -9.659  64.646  1.00  0.00    -0.550 OA
ENDBRANCH   5   6
ENDBRANCH   1   5
TORSDOF 3
ENDMDL
MODEL 6
REMARK VINA RESULT:    -2.954     20.640     21.464
REMARK INTER + INTRA:          -3.516
REMARK INTER:                  -3.405
REMARK INTRA:                  -0.111
REMARK UNBOUND:                -0.043
REMARK SMILES O=C([O-])CCC(=O)[O-]
REMARK SMILES IDX 4 1 2 2 1 3 3 4 5 5 6 6 7 7 8 8
REMARK H PARENT
REMARK Flexibility Score: inf
ROOT
ATOM      1  C   UNL     1      -4.107 -14.582  64.401  1.00  0.00     0.059 C 
ENDROOT
BRANCH   1   2
ATOM      2  C   UNL     1      -4.828 -13.781  63.362  1.00  0.00     0.042 C 
ATOM      3  O   UNL     1      -4.976 -14.240  62.199  1.00  0.00    -0.550 OA
ATOM      4  O   UNL     1      -5.293 -12.508  63.664  1.00  0.00    -0.550 OA
ENDBRANCH   1   2
BRANCH   1   5
ATOM      5  C   UNL     1      -4.285 -13.948  65.782  1.00  0.00     0.059 C 
BRANCH   5   6
ATOM      6  C   UNL     1      -5.387 -14.628  66.531  1.00  0.00     0.042 C 
ATOM      7  O   UNL     1      -5.118 -15.496  67.403  1.00  0.00    -0.550 OA
ATOM      8  O   UNL     1      -6.712 -14.338  66.234  1.00  0.00    -0.550 OA
ENDBRANCH   5   6
ENDBRANCH   1   5
TORSDOF 3
ENDMDL
MODEL 7
REMARK VINA RESULT:    -2.873     18.662     20.289
REMARK INTER + INTRA:          -3.421
REMARK INTER:                  -3.334
REMARK INTRA:                  -0.087
REMARK UNBOUND:                -0.043
REMARK SMILES O=C([O-])CCC(=O)[O-]
REMARK SMILES IDX 4 1 2 2 1 3 3 4 5 5 6 6 7 7 8 8
REMARK H PARENT
REMARK Flexibility Score: inf
ROOT
ATOM      1  C   UNL     1      -4.781 -12.544  64.004  1.00  0.00     0.059 C 
ENDROOT
BRANCH   1   2
ATOM      2  C   UNL     1      -4.703 -13.885  63.344  1.00  0.00     0.042 C 
ATOM      3  O   UNL     1      -4.191 -14.861  63.953  1.00  0.00    -0.550 OA
ATOM      4  O   UNL     1      -5.150 -14.045  62.039  1.00  0.00    -0.550 OA
ENDBRANCH   1   2
BRANCH   1   5
ATOM      5  C   UNL     1      -4.968 -12.701  65.514  1.00  0.00     0.059 C 
BRANCH   5   6
ATOM      6  C   UNL     1      -3.777 -12.168  66.246  1.00  0.00     0.042 C 
ATOM      7  O   UNL     1      -3.127 -12.913  67.026  1.00  0.00    -0.550 OA
ATOM      8  O   UNL     1      -3.412 -10.835  66.104  1.00  0.00    -0.550 OA
ENDBRANCH   5   6
ENDBRANCH   1   5
TORSDOF 3
ENDMDL
MODEL 8
REMARK VINA RESULT:    -2.827     18.261     19.997
REMARK INTER + INTRA:          -3.367
REMARK INTER:                  -3.237
REMARK INTRA:                  -0.129
REMARK UNBOUND:                -0.043
REMARK SMILES O=C([O-])CCC(=O)[O-]
REMARK SMILES IDX 4 1 2 2 1 3 3 4 5 5 6 6 7 7 8 8
REMARK H PARENT
REMARK Flexibility Score: inf
ROOT
ATOM      1  C   UNL     1      -4.251 -11.997  65.858  1.00  0.00     0.059 C 
ENDROOT
BRANCH   1   2
ATOM      2  C   UNL     1      -4.140 -10.984  64.763  1.00  0.00     0.042 C 
ATOM      3  O   UNL     1      -3.012 -10.680  64.293  1.00  0.00    -0.550 OA
ATOM      4  O   UNL     1      -5.277 -10.339  64.294  1.00  0.00    -0.550 OA
ENDBRANCH   1   2
BRANCH   1   5
ATOM      5  C   UNL     1      -4.125 -13.412  65.292  1.00  0.00     0.059 C 
BRANCH   5   6
ATOM      6  C   UNL     1      -5.370 -13.793  64.555  1.00  0.00     0.042 C 
ATOM      7  O   UNL     1      -6.392 -14.167  65.188  1.00  0.00    -0.550 OA
ATOM      8  O   UNL     1      -5.387 -13.781  63.166  1.00  0.00    -0.550 OA
ENDBRANCH   5   6
ENDBRANCH   1   5
TORSDOF 3
ENDMDL
MODEL 9
REMARK VINA RESULT:    -2.806     20.508     21.162
REMARK INTER + INTRA:          -3.341
REMARK INTER:                  -3.222
REMARK INTRA:                  -0.120
REMARK UNBOUND:                -0.043
REMARK SMILES O=C([O-])CCC(=O)[O-]
REMARK SMILES IDX 4 1 2 2 1 3 3 4 5 5 6 6 7 7 8 8
REMARK H PARENT
REMARK Flexibility Score: inf
ROOT
ATOM      1  C   UNL     1      -4.913 -12.510  63.955  1.00  0.00     0.059 C 
ENDROOT
BRANCH   1   2
ATOM      2  C   UNL     1      -4.689 -13.866  63.364  1.00  0.00     0.042 C 
ATOM      3  O   UNL     1      -5.032 -14.105  62.176  1.00  0.00    -0.550 OA
ATOM      4  O   UNL     1      -4.144 -14.882  64.141  1.00  0.00    -0.550 OA
ENDBRANCH   1   2
BRANCH   1   5
ATOM      5  C   UNL     1      -4.673 -12.538  65.465  1.00  0.00     0.059 C 
BRANCH   5   6
ATOM      6  C   UNL     1      -5.976 -12.555  66.201  1.00  0.00     0.042 C 
ATOM      7  O   UNL     1      -6.376 -11.524  66.803  1.00  0.00    -0.550 OA
ATOM      8  O   UNL     1      -6.725 -13.722  66.262  1.00  0.00    -0.550 OA
ENDBRANCH   5   6
ENDBRANCH   1   5
TORSDOF 3
ENDMDL
