MODEL 1
REMARK VINA RESULT:    -3.890      0.000      0.000
REMARK INTER + INTRA:          -6.606
REMARK INTER:                  -5.255
REMARK INTRA:                  -1.351
REMARK UNBOUND:                -1.351
REMARK SMILES CC(=O)CCC=C(C)CCC=C(C)C
REMARK SMILES IDX 7 1 6 2 8 3 9 4 10 5 11 6 13 7 12 8 14 9 5 10 4 11 2 12 3 13
REMARK SMILES IDX 1 14
REMARK H PARENT
REMARK Flexibility Score: inf
ROOT
ATOM      1  C   UNL     1      34.417  69.957 105.455  1.00  0.00    -0.077 C 
ATOM      2  C   UNL     1      33.747  71.125 105.580  1.00  0.00    -0.028 C 
ATOM      3  C   UNL     1      34.512  68.966 106.591  1.00  0.00     0.039 C 
ENDROOT
BRANCH   1   4
ATOM      4  C   UNL     1      35.103  69.643 104.143  1.00  0.00     0.034 C 
BRANCH   4   5
ATOM      5  C   UNL     1      34.079  69.560 103.004  1.00  0.00     0.032 C 
BRANCH   5   6
ATOM      6  C   UNL     1      33.344  68.243 103.041  1.00  0.00    -0.028 C 
ATOM      7  C   UNL     1      31.161  69.297 103.673  1.00  0.00     0.039 C 
ATOM      8  C   UNL     1      32.039  68.106 103.363  1.00  0.00    -0.080 C 
ATOM      9  C   UNL     1      31.449  66.720 103.397  1.00  0.00     0.039 C 
ENDBRANCH   5   6
ENDBRANCH   4   5
ENDBRANCH   1   4
BRANCH   2  10
ATOM     10  C   UNL     1      32.947  71.528 106.796  1.00  0.00     0.035 C 
BRANCH  10  11
ATOM     11  C   UNL     1      31.501  71.884 106.425  1.00  0.00     0.079 C 
BRANCH  11  12
ATOM     12  C   UNL     1      30.523  70.875 106.973  1.00  0.00     0.130 C 
ATOM     13  O   UNL     1      29.341  71.166 107.057  1.00  0.00    -0.300 OA
ATOM     14  C   UNL     1      30.975  69.513 107.412  1.00  0.00     0.087 C 
ENDBRANCH  11  12
ENDBRANCH  10  11
ENDBRANCH   2  10
TORSDOF 6
ENDMDL
MODEL 2
REMARK VINA RESULT:    -3.849      9.564     12.066
REMARK INTER + INTRA:          -6.550
REMARK INTER:                  -5.929
REMARK INTRA:                  -0.621
REMARK UNBOUND:                -1.351
REMARK SMILES CC(=O)CCC=C(C)CCC=C(C)C
REMARK SMILES IDX 7 1 6 2 8 3 9 4 10 5 11 6 13 7 12 8 14 9 5 10 4 11 2 12 3 13
REMARK SMILES IDX 1 14
REMARK H PARENT
REMARK Flexibility Score: inf
ROOT
ATOM      1  C   UNL     1      29.405  59.653  98.791  1.00  0.00    -0.077 C 
ATOM      2  C   UNL     1      28.530  60.492  98.190  1.00  0.00    -0.028 C 
ATOM      3  C   UNL     1      30.825  59.496  98.299  1.00  0.00     0.039 C 
ENDROOT
BRANCH   1   4
ATOM      4  C   UNL     1      28.941  58.838  99.978  1.00  0.00     0.034 C 
BRANCH   4   5
ATOM      5  C   UNL     1      28.975  59.681 101.258  1.00  0.00     0.032 C 
BRANCH   5   6
ATOM      6  C   UNL     1      27.732  59.452 102.082  1.00  0.00    -0.028 C 
ATOM      7  C   UNL     1      29.012  58.642 104.077  1.00  0.00     0.039 C 
ATOM      8  C   UNL     1      27.731  58.963 103.342  1.00  0.00    -0.080 C 
ATOM      9  C   UNL     1      26.407  58.750 104.028  1.00  0.00     0.039 C 
ENDBRANCH   5   6
ENDBRANCH   4   5
ENDBRANCH   1   4
BRANCH   2  10
ATOM     10  C   UNL     1      28.880  61.427  97.056  1.00  0.00     0.035 C 
BRANCH  10  11
ATOM     11  C   UNL     1      28.344  62.842  97.308  1.00  0.00     0.079 C 
BRANCH  11  12
ATOM     12  C   UNL     1      29.452  63.800  97.665  1.00  0.00     0.130 C 
ATOM     13  O   UNL     1      29.678  64.757  96.942  1.00  0.00    -0.300 OA
ATOM     14  C   UNL     1      30.283  63.603  98.900  1.00  0.00     0.087 C 
ENDBRANCH  11  12
ENDBRANCH  10  11
ENDBRANCH   2  10
TORSDOF 6
ENDMDL
MODEL 3
REMARK VINA RESULT:    -3.830      2.398      3.877
REMARK INTER + INTRA:          -6.524
REMARK INTER:                  -5.581
REMARK INTRA:                  -0.943
REMARK UNBOUND:                -1.351
REMARK SMILES CC(=O)CCC=C(C)CCC=C(C)C
REMARK SMILES IDX 7 1 6 2 8 3 9 4 10 5 11 6 13 7 12 8 14 9 5 10 4 11 2 12 3 13
REMARK SMILES IDX 1 14
REMARK H PARENT
REMARK Flexibility Score: inf
ROOT
ATOM      1  C   UNL     1      31.955  70.708 106.910  1.00  0.00    -0.077 C 
ATOM      2  C   UNL     1      33.292  70.801 106.724  1.00  0.00    -0.028 C 
ATOM      3  C   UNL     1      31.037  71.890 106.702  1.00  0.00     0.039 C 
ENDROOT
BRANCH   1   4
ATOM      4  C   UNL     1      31.367  69.387 107.354  1.00  0.00     0.034 C 
BRANCH   4   5
ATOM      5  C   UNL     1      30.315  68.899 106.350  1.00  0.00     0.032 C 
BRANCH   5   6
ATOM      6  C   UNL     1      30.943  68.002 105.312  1.00  0.00    -0.028 C 
ATOM      7  C   UNL     1      31.056  69.813 103.586  1.00  0.00     0.039 C 
ATOM      8  C   UNL     1      31.259  68.392 104.057  1.00  0.00    -0.080 C 
ATOM      9  C   UNL     1      31.845  67.373 103.115  1.00  0.00     0.039 C 
ENDBRANCH   5   6
ENDBRANCH   4   5
ENDBRANCH   1   4
BRANCH   2  10
ATOM     10  C   UNL     1      34.002  72.027 106.200  1.00  0.00     0.035 C 
BRANCH  10  11
ATOM     11  C   UNL     1      35.430  72.128 106.751  1.00  0.00     0.079 C 
BRANCH  11  12
ATOM     12  C   UNL     1      35.435  72.353 108.243  1.00  0.00     0.130 C 
ATOM     13  O   UNL     1      35.002  73.402 108.695  1.00  0.00    -0.300 OA
ATOM     14  C   UNL     1      35.958  71.309 109.185  1.00  0.00     0.087 C 
ENDBRANCH  11  12
ENDBRANCH  10  11
ENDBRANCH   2  10
TORSDOF 6
ENDMDL
MODEL 4
REMARK VINA RESULT:    -3.797     10.364     12.368
REMARK INTER + INTRA:          -6.479
REMARK INTER:                  -5.820
REMARK INTRA:                  -0.659
REMARK UNBOUND:                -1.351
REMARK SMILES CC(=O)CCC=C(C)CCC=C(C)C
REMARK SMILES IDX 7 1 6 2 8 3 9 4 10 5 11 6 13 7 12 8 14 9 5 10 4 11 2 12 3 13
REMARK SMILES IDX 1 14
REMARK H PARENT
REMARK Flexibility Score: inf
ROOT
ATOM      1  C   UNL     1      29.209  59.950 101.218  1.00  0.00    -0.077 C 
ATOM      2  C   UNL     1      28.860  59.250 100.115  1.00  0.00    -0.028 C 
ATOM      3  C   UNL     1      30.245  61.049 101.172  1.00  0.00     0.039 C 
ENDROOT
BRANCH   1   4
ATOM      4  C   UNL     1      28.553  59.610 102.539  1.00  0.00     0.034 C 
BRANCH   4   5
ATOM      5  C   UNL     1      27.122  59.104 102.317  1.00  0.00     0.032 C 
BRANCH   5   6
ATOM      6  C   UNL     1      26.465  58.766 103.632  1.00  0.00    -0.028 C 
ATOM      7  C   UNL     1      25.196  60.924 103.734  1.00  0.00     0.039 C 
ATOM      8  C   UNL     1      25.616  59.584 104.293  1.00  0.00    -0.080 C 
ATOM      9  C   UNL     1      25.066  59.127 105.619  1.00  0.00     0.039 C 
ENDBRANCH   5   6
ENDBRANCH   4   5
ENDBRANCH   1   4
BRANCH   2  10
ATOM     10  C   UNL     1      29.366  59.539  98.721  1.00  0.00     0.035 C 
BRANCH  10  11
ATOM     11  C   UNL     1      28.462  60.539  97.990  1.00  0.00     0.079 C 
BRANCH  11  12
ATOM     12  C   UNL     1      29.190  61.823  97.679  1.00  0.00     0.130 C 
ATOM     13  O   UNL     1      30.410  61.845  97.706  1.00  0.00    -0.300 OA
ATOM     14  C   UNL     1      28.441  63.076  97.331  1.00  0.00     0.087 C 
ENDBRANCH  11  12
ENDBRANCH  10  11
ENDBRANCH   2  10
TORSDOF 6
ENDMDL
MODEL 5
REMARK VINA RESULT:    -3.780      2.679      5.174
REMARK INTER + INTRA:          -6.457
REMARK INTER:                  -5.257
REMARK INTRA:                  -1.200
REMARK UNBOUND:                -1.351
REMARK SMILES CC(=O)CCC=C(C)CCC=C(C)C
REMARK SMILES IDX 7 1 6 2 8 3 9 4 10 5 11 6 13 7 12 8 14 9 5 10 4 11 2 12 3 13
REMARK SMILES IDX 1 14
REMARK H PARENT
REMARK Flexibility Score: inf
ROOT
ATOM      1  C   UNL     1      30.624  69.107 106.954  1.00  0.00    -0.077 C 
ATOM      2  C   UNL     1      30.394  68.388 105.831  1.00  0.00    -0.028 C 
ATOM      3  C   UNL     1      31.411  68.545 108.114  1.00  0.00     0.039 C 
ENDROOT
BRANCH   1   4
ATOM      4  C   UNL     1      30.061  70.508 107.054  1.00  0.00     0.034 C 
BRANCH   4   5
ATOM      5  C   UNL     1      30.785  71.451 106.086  1.00  0.00     0.032 C 
BRANCH   5   6
ATOM      6  C   UNL     1      32.037  72.007 106.717  1.00  0.00    -0.028 C 
ATOM      7  C   UNL     1      33.560  70.590 105.322  1.00  0.00     0.039 C 
ATOM      8  C   UNL     1      33.291  71.612 106.401  1.00  0.00    -0.080 C 
ATOM      9  C   UNL     1      34.446  72.230 107.145  1.00  0.00     0.039 C 
ENDBRANCH   5   6
ENDBRANCH   4   5
ENDBRANCH   1   4
BRANCH   2  10
ATOM     10  C   UNL     1      30.967  67.017 105.560  1.00  0.00     0.035 C 
BRANCH  10  11
ATOM     11  C   UNL     1      29.866  65.950 105.495  1.00  0.00     0.079 C 
BRANCH  11  12
ATOM     12  C   UNL     1      29.279  65.675 106.857  1.00  0.00     0.130 C 
ATOM     13  O   UNL     1      29.972  65.154 107.717  1.00  0.00    -0.300 OA
ATOM     14  C   UNL     1      27.858  66.034 107.179  1.00  0.00     0.087 C 
ENDBRANCH  11  12
ENDBRANCH  10  11
ENDBRANCH   2  10
TORSDOF 6
ENDMDL
MODEL 6
REMARK VINA RESULT:    -3.764      2.025      3.102
REMARK INTER + INTRA:          -6.435
REMARK INTER:                  -5.653
REMARK INTRA:                  -0.781
REMARK UNBOUND:                -1.351
REMARK SMILES CC(=O)CCC=C(C)CCC=C(C)C
REMARK SMILES IDX 7 1 6 2 8 3 9 4 10 5 11 6 13 7 12 8 14 9 5 10 4 11 2 12 3 13
REMARK SMILES IDX 1 14
REMARK H PARENT
REMARK Flexibility Score: inf
ROOT
ATOM      1  C   UNL     1      34.847  72.032 106.707  1.00  0.00    -0.077 C 
ATOM      2  C   UNL     1      33.676  71.771 106.083  1.00  0.00    -0.028 C 
ATOM      3  C   UNL     1      34.897  72.600 108.106  1.00  0.00     0.039 C 
ENDROOT
BRANCH   1   4
ATOM      4  C   UNL     1      36.143  71.763 105.974  1.00  0.00     0.034 C 
BRANCH   4   5
ATOM      5  C   UNL     1      36.057  70.448 105.189  1.00  0.00     0.032 C 
BRANCH   5   6
ATOM      6  C   UNL     1      36.270  70.689 103.716  1.00  0.00    -0.028 C 
ATOM      7  C   UNL     1      34.150  69.528 103.058  1.00  0.00     0.039 C 
ATOM      8  C   UNL     1      35.433  70.261 102.744  1.00  0.00    -0.080 C 
ATOM      9  C   UNL     1      35.796  70.543 101.309  1.00  0.00     0.039 C 
ENDBRANCH   5   6
ENDBRANCH   4   5
ENDBRANCH   1   4
BRANCH   2  10
ATOM     10  C   UNL     1      32.315  71.907 106.724  1.00  0.00     0.035 C 
BRANCH  10  11
ATOM     11  C   UNL     1      31.196  71.485 105.763  1.00  0.00     0.079 C 
BRANCH  11  12
ATOM     12  C   UNL     1      30.830  70.032 105.942  1.00  0.00     0.130 C 
ATOM     13  O   UNL     1      31.197  69.212 105.115  1.00  0.00    -0.300 OA
ATOM     14  C   UNL     1      30.025  69.573 107.122  1.00  0.00     0.087 C 
ENDBRANCH  11  12
ENDBRANCH  10  11
ENDBRANCH   2  10
TORSDOF 6
ENDMDL
MODEL 7
REMARK VINA RESULT:    -3.726      2.622      4.544
REMARK INTER + INTRA:          -6.384
REMARK INTER:                  -5.155
REMARK INTRA:                  -1.229
REMARK UNBOUND:                -1.351
REMARK SMILES CC(=O)CCC=C(C)CCC=C(C)C
REMARK SMILES IDX 7 1 6 2 8 3 9 4 10 5 11 6 13 7 12 8 14 9 5 10 4 11 2 12 3 13
REMARK SMILES IDX 1 14
REMARK H PARENT
REMARK Flexibility Score: inf
ROOT
ATOM      1  C   UNL     1      31.348  71.013 106.127  1.00  0.00    -0.077 C 
ATOM      2  C   UNL     1      32.184  71.879 106.743  1.00  0.00    -0.028 C 
ATOM      3  C   UNL     1      31.723  70.325 104.834  1.00  0.00     0.039 C 
ENDROOT
BRANCH   1   4
ATOM      4  C   UNL     1      29.994  70.739 106.742  1.00  0.00     0.034 C 
BRANCH   4   5
ATOM      5  C   UNL     1      29.869  69.263 107.140  1.00  0.00     0.032 C 
BRANCH   5   6
ATOM      6  C   UNL     1      30.964  68.875 108.102  1.00  0.00    -0.028 C 
ATOM      7  C   UNL     1      31.851  67.067 106.613  1.00  0.00     0.039 C 
ATOM      8  C   UNL     1      31.847  67.874 107.890  1.00  0.00    -0.080 C 
ATOM      9  C   UNL     1      32.863  67.574 108.961  1.00  0.00     0.039 C 
ENDBRANCH   5   6
ENDBRANCH   4   5
ENDBRANCH   1   4
BRANCH   2  10
ATOM     10  C   UNL     1      33.594  72.179 106.291  1.00  0.00     0.035 C 
BRANCH  10  11
ATOM     11  C   UNL     1      34.574  72.186 107.471  1.00  0.00     0.079 C 
BRANCH  11  12
ATOM     12  C   UNL     1      35.075  70.799 107.785  1.00  0.00     0.130 C 
ATOM     13  O   UNL     1      35.530  70.559 108.893  1.00  0.00    -0.300 OA
ATOM     14  C   UNL     1      35.022  69.703 106.762  1.00  0.00     0.087 C 
ENDBRANCH  11  12
ENDBRANCH  10  11
ENDBRANCH   2  10
TORSDOF 6
ENDMDL
MODEL 8
REMARK VINA RESULT:    -3.715      8.688     11.487
REMARK INTER + INTRA:          -6.368
REMARK INTER:                  -5.094
REMARK INTRA:                  -1.274
REMARK UNBOUND:                -1.351
REMARK SMILES CC(=O)CCC=C(C)CCC=C(C)C
REMARK SMILES IDX 7 1 6 2 8 3 9 4 10 5 11 6 13 7 12 8 14 9 5 10 4 11 2 12 3 13
REMARK SMILES IDX 1 14
REMARK H PARENT
REMARK Flexibility Score: inf
ROOT
ATOM      1  C   UNL     1      29.398  59.747  98.535  1.00  0.00    -0.077 C 
ATOM      2  C   UNL     1      28.509  60.603  97.982  1.00  0.00    -0.028 C 
ATOM      3  C   UNL     1      30.827  59.657  98.051  1.00  0.00     0.039 C 
ENDROOT
BRANCH   1   4
ATOM      4  C   UNL     1      28.942  58.844  99.660  1.00  0.00     0.034 C 
BRANCH   4   5
ATOM      5  C   UNL     1      29.829  59.031 100.897  1.00  0.00     0.032 C 
BRANCH   5   6
ATOM      6  C   UNL     1      29.575  60.372 101.539  1.00  0.00    -0.028 C 
ATOM      7  C   UNL     1      31.964  61.100 101.337  1.00  0.00     0.039 C 
ATOM      8  C   UNL     1      30.529  61.302 101.766  1.00  0.00    -0.080 C 
ATOM      9  C   UNL     1      30.134  62.583 102.454  1.00  0.00     0.039 C 
ENDBRANCH   5   6
ENDBRANCH   4   5
ENDBRANCH   1   4
BRANCH   2  10
ATOM     10  C   UNL     1      28.847  61.620  96.916  1.00  0.00     0.035 C 
BRANCH  10  11
ATOM     11  C   UNL     1      28.420  63.033  97.332  1.00  0.00     0.079 C 
BRANCH  11  12
ATOM     12  C   UNL     1      29.611  63.901  97.653  1.00  0.00     0.130 C 
ATOM     13  O   UNL     1      29.850  64.877  96.959  1.00  0.00    -0.300 OA
ATOM     14  C   UNL     1      30.508  63.591  98.816  1.00  0.00     0.087 C 
ENDBRANCH  11  12
ENDBRANCH  10  11
ENDBRANCH   2  10
TORSDOF 6
ENDMDL
MODEL 9
REMARK VINA RESULT:    -3.709      2.149      5.173
REMARK INTER + INTRA:          -6.361
REMARK INTER:                  -5.199
REMARK INTRA:                  -1.162
REMARK UNBOUND:                -1.351
REMARK SMILES CC(=O)CCC=C(C)CCC=C(C)C
REMARK SMILES IDX 7 1 6 2 8 3 9 4 10 5 11 6 13 7 12 8 14 9 5 10 4 11 2 12 3 13
REMARK SMILES IDX 1 14
REMARK H PARENT
REMARK Flexibility Score: inf
ROOT
ATOM      1  C   UNL     1      30.713  68.923 107.059  1.00  0.00    -0.077 C 
ATOM      2  C   UNL     1      30.547  68.120 105.983  1.00  0.00    -0.028 C 
ATOM      3  C   UNL     1      31.544  68.503 108.248  1.00  0.00     0.039 C 
ENDROOT
BRANCH   1   4
ATOM      4  C   UNL     1      30.031  70.273 107.076  1.00  0.00     0.034 C 
BRANCH   4   5
ATOM      5  C   UNL     1      30.723  71.241 106.108  1.00  0.00     0.032 C 
BRANCH   5   6
ATOM      6  C   UNL     1      31.927  71.877 106.757  1.00  0.00    -0.028 C 
ATOM      7  C   UNL     1      33.560  70.555 105.394  1.00  0.00     0.039 C 
ATOM      8  C   UNL     1      33.208  71.562 106.464  1.00  0.00    -0.080 C 
ATOM      9  C   UNL     1      34.309  72.254 107.224  1.00  0.00     0.039 C 
ENDBRANCH   5   6
ENDBRANCH   4   5
ENDBRANCH   1   4
BRANCH   2  10
ATOM     10  C   UNL     1      31.236  66.789 105.793  1.00  0.00     0.035 C 
BRANCH  10  11
ATOM     11  C   UNL     1      32.514  66.932 104.957  1.00  0.00     0.079 C 
BRANCH  11  12
ATOM     12  C   UNL     1      32.201  67.177 103.502  1.00  0.00     0.130 C 
ATOM     13  O   UNL     1      32.496  68.247 102.994  1.00  0.00    -0.300 OA
ATOM     14  C   UNL     1      31.538  66.125 102.662  1.00  0.00     0.087 C 
ENDBRANCH  11  12
ENDBRANCH  10  11
ENDBRANCH   2  10
TORSDOF 6
ENDMDL
