MODEL 1
REMARK VINA RESULT:    -3.761      0.000      0.000
REMARK INTER + INTRA:          -7.166
REMARK INTER:                  -6.400
REMARK INTRA:                  -0.766
REMARK UNBOUND:                -0.766
REMARK SMILES CCCCCCCCCCCCCC(=O)[O-]
REMARK SMILES IDX 8 1 9 2 10 3 11 4 12 5 13 6 14 7 15 8 16 9 7 10 6 11 5 12
REMARK SMILES IDX 4 13 3 14 2 15 1 16
REMARK H PARENT
REMARK Flexibility Score: inf
ROOT
ATOM      1  C   UNL     1     -94.801 147.713 237.761  1.00  0.00     0.000 C 
ENDROOT
BRANCH   1   2
ATOM      2  C   UNL     1     -94.776 148.816 236.685  1.00  0.00     0.000 C 
BRANCH   2   3
ATOM      3  C   UNL     1     -94.726 150.259 237.229  1.00  0.00     0.000 C 
BRANCH   3   4
ATOM      4  C   UNL     1     -95.504 151.294 236.396  1.00  0.00     0.000 C 
BRANCH   4   5
ATOM      5  C   UNL     1     -96.219 152.342 237.264  1.00  0.00     0.006 C 
BRANCH   5   6
ATOM      6  C   UNL     1     -97.059 153.313 236.424  1.00  0.00     0.053 C 
BRANCH   6   7
ATOM      7  C   UNL     1     -97.332 154.590 237.161  1.00  0.00     0.041 C 
ATOM      8  O   UNL     1     -96.474 155.511 237.171  1.00  0.00    -0.550 OA
ATOM      9  O   UNL     1     -98.519 154.746 237.865  1.00  0.00    -0.550 OA
ENDBRANCH   6   7
ENDBRANCH   5   6
ENDBRANCH   4   5
ENDBRANCH   3   4
ENDBRANCH   2   3
ENDBRANCH   1   2
BRANCH   1  10
ATOM     10  C   UNL     1     -94.464 148.191 239.187  1.00  0.00     0.000 C 
BRANCH  10  11
ATOM     11  C   UNL     1     -95.558 147.925 240.242  1.00  0.00    -0.000 C 
BRANCH  11  12
ATOM     12  C   UNL     1     -95.099 148.045 241.707  1.00  0.00    -0.000 C 
BRANCH  12  13
ATOM     13  C   UNL     1     -93.710 147.433 241.950  1.00  0.00    -0.000 C 
BRANCH  13  14
ATOM     14  C   UNL     1     -93.775 146.021 242.563  1.00  0.00    -0.000 C 
BRANCH  14  15
ATOM     15  C   UNL     1     -92.913 144.962 241.853  1.00  0.00    -0.003 C 
ATOM     16  C   UNL     1     -92.104 145.531 240.688  1.00  0.00     0.004 C 
ENDBRANCH  14  15
ENDBRANCH  13  14
ENDBRANCH  12  13
ENDBRANCH  11  12
ENDBRANCH  10  11
ENDBRANCH   1  10
TORSDOF 12
ENDMDL
MODEL 2
REMARK VINA RESULT:    -3.759      2.426      4.587
REMARK INTER + INTRA:          -7.163
REMARK INTER:                  -5.999
REMARK INTRA:                  -1.164
REMARK UNBOUND:                -0.766
REMARK SMILES CCCCCCCCCCCCCC(=O)[O-]
REMARK SMILES IDX 8 1 9 2 10 3 11 4 12 5 13 6 14 7 15 8 16 9 7 10 6 11 5 12
REMARK SMILES IDX 4 13 3 14 2 15 1 16
REMARK H PARENT
REMARK Flexibility Score: inf
ROOT
ATOM      1  C   UNL     1     -93.952 146.903 241.880  1.00  0.00     0.000 C 
ENDROOT
BRANCH   1   2
ATOM      2  C   UNL     1     -95.037 147.694 241.124  1.00  0.00     0.000 C 
BRANCH   2   3
ATOM      3  C   UNL     1     -94.612 148.230 239.742  1.00  0.00     0.000 C 
BRANCH   3   4
ATOM      4  C   UNL     1     -95.464 147.731 238.561  1.00  0.00     0.000 C 
BRANCH   4   5
ATOM      5  C   UNL     1     -95.198 148.509 237.262  1.00  0.00     0.006 C 
BRANCH   5   6
ATOM      6  C   UNL     1     -94.643 149.915 237.533  1.00  0.00     0.053 C 
BRANCH   6   7
ATOM      7  C   UNL     1     -95.243 150.934 236.612  1.00  0.00     0.041 C 
ATOM      8  O   UNL     1     -95.140 150.798 235.365  1.00  0.00    -0.550 OA
ATOM      9  O   UNL     1     -95.882 152.051 237.133  1.00  0.00    -0.550 OA
ENDBRANCH   6   7
ENDBRANCH   5   6
ENDBRANCH   4   5
ENDBRANCH   3   4
ENDBRANCH   2   3
ENDBRANCH   1   2
BRANCH   1  10
ATOM     10  C   UNL     1     -92.614 146.758 241.129  1.00  0.00     0.000 C 
BRANCH  10  11
ATOM     11  C   UNL     1     -92.089 145.314 241.001  1.00  0.00    -0.000 C 
BRANCH  11  12
ATOM     12  C   UNL     1     -91.592 144.918 239.598  1.00  0.00    -0.000 C 
BRANCH  12  13
ATOM     13  C   UNL     1     -92.549 145.358 238.479  1.00  0.00    -0.000 C 
BRANCH  13  14
ATOM     14  C   UNL     1     -92.002 145.059 237.070  1.00  0.00    -0.000 C 
BRANCH  14  15
ATOM     15  C   UNL     1     -92.556 145.961 235.951  1.00  0.00    -0.003 C 
ATOM     16  C   UNL     1     -91.464 146.723 235.201  1.00  0.00     0.004 C 
ENDBRANCH  14  15
ENDBRANCH  13  14
ENDBRANCH  12  13
ENDBRANCH  11  12
ENDBRANCH  10  11
ENDBRANCH   1  10
TORSDOF 12
ENDMDL
MODEL 3
REMARK VINA RESULT:    -3.749      4.697      7.071
REMARK INTER + INTRA:          -7.145
REMARK INTER:                  -5.676
REMARK INTRA:                  -1.470
REMARK UNBOUND:                -0.766
REMARK SMILES CCCCCCCCCCCCCC(=O)[O-]
REMARK SMILES IDX 8 1 9 2 10 3 11 4 12 5 13 6 14 7 15 8 16 9 7 10 6 11 5 12
REMARK SMILES IDX 4 13 3 14 2 15 1 16
REMARK H PARENT
REMARK Flexibility Score: inf
ROOT
ATOM      1  C   UNL     1     -94.832 146.302 242.506  1.00  0.00     0.000 C 
ENDROOT
BRANCH   1   2
ATOM      2  C   UNL     1     -96.079 147.119 242.897  1.00  0.00     0.000 C 
BRANCH   2   3
ATOM      3  C   UNL     1     -95.890 148.650 242.877  1.00  0.00     0.000 C 
BRANCH   3   4
ATOM      4  C   UNL     1     -97.150 149.463 243.223  1.00  0.00     0.000 C 
BRANCH   4   5
ATOM      5  C   UNL     1     -98.075 148.739 244.216  1.00  0.00     0.006 C 
BRANCH   5   6
ATOM      6  C   UNL     1     -97.526 148.774 245.649  1.00  0.00     0.053 C 
BRANCH   6   7
ATOM      7  C   UNL     1     -98.305 149.714 246.518  1.00  0.00     0.041 C 
ATOM      8  O   UNL     1     -97.729 150.347 247.441  1.00  0.00    -0.550 OA
ATOM      9  O   UNL     1     -99.673 149.861 246.330  1.00  0.00    -0.550 OA
ENDBRANCH   6   7
ENDBRANCH   5   6
ENDBRANCH   4   5
ENDBRANCH   3   4
ENDBRANCH   2   3
ENDBRANCH   1   2
BRANCH   1  10
ATOM     10  C   UNL     1     -93.627 147.141 242.039  1.00  0.00     0.000 C 
BRANCH  10  11
ATOM     11  C   UNL     1     -92.976 146.676 240.721  1.00  0.00    -0.000 C 
BRANCH  11  12
ATOM     12  C   UNL     1     -93.810 146.931 239.451  1.00  0.00    -0.000 C 
BRANCH  12  13
ATOM     13  C   UNL     1     -94.475 148.317 239.441  1.00  0.00    -0.000 C 
BRANCH  13  14
ATOM     14  C   UNL     1     -95.757 148.361 238.588  1.00  0.00    -0.000 C 
BRANCH  14  15
ATOM     15  C   UNL     1     -97.068 148.467 239.388  1.00  0.00    -0.003 C 
ATOM     16  C   UNL     1     -97.737 147.113 239.624  1.00  0.00     0.004 C 
ENDBRANCH  14  15
ENDBRANCH  13  14
ENDBRANCH  12  13
ENDBRANCH  11  12
ENDBRANCH  10  11
ENDBRANCH   1  10
TORSDOF 12
ENDMDL
MODEL 4
REMARK VINA RESULT:    -3.742      3.856      6.649
REMARK INTER + INTRA:          -7.133
REMARK INTER:                  -5.776
REMARK INTRA:                  -1.357
REMARK UNBOUND:                -0.766
REMARK SMILES CCCCCCCCCCCCCC(=O)[O-]
REMARK SMILES IDX 8 1 9 2 10 3 11 4 12 5 13 6 14 7 15 8 16 9 7 10 6 11 5 12
REMARK SMILES IDX 4 13 3 14 2 15 1 16
REMARK H PARENT
REMARK Flexibility Score: inf
ROOT
ATOM      1  C   UNL     1     -92.875 146.690 241.283  1.00  0.00     0.000 C 
ENDROOT
BRANCH   1   2
ATOM      2  C   UNL     1     -93.803 146.196 242.408  1.00  0.00     0.000 C 
BRANCH   2   3
ATOM      3  C   UNL     1     -95.231 146.781 242.383  1.00  0.00     0.000 C 
BRANCH   3   4
ATOM      4  C   UNL     1     -95.310 148.284 242.062  1.00  0.00     0.000 C 
BRANCH   4   5
ATOM      5  C   UNL     1     -96.287 149.039 242.979  1.00  0.00     0.006 C 
BRANCH   5   6
ATOM      6  C   UNL     1     -97.030 148.095 243.935  1.00  0.00     0.053 C 
BRANCH   6   7
ATOM      7  C   UNL     1     -97.907 148.849 244.888  1.00  0.00     0.041 C 
ATOM      8  O   UNL     1     -97.534 149.041 246.075  1.00  0.00    -0.550 OA
ATOM      9  O   UNL     1     -99.151 149.307 244.473  1.00  0.00    -0.550 OA
ENDBRANCH   6   7
ENDBRANCH   5   6
ENDBRANCH   4   5
ENDBRANCH   3   4
ENDBRANCH   2   3
ENDBRANCH   1   2
BRANCH   1  10
ATOM     10  C   UNL     1     -92.326 145.584 240.362  1.00  0.00     0.000 C 
BRANCH  10  11
ATOM     11  C   UNL     1     -92.948 145.537 238.952  1.00  0.00    -0.000 C 
BRANCH  11  12
ATOM     12  C   UNL     1     -94.446 145.181 238.907  1.00  0.00    -0.000 C 
BRANCH  12  13
ATOM     13  C   UNL     1     -95.339 146.394 238.597  1.00  0.00    -0.000 C 
BRANCH  13  14
ATOM     14  C   UNL     1     -94.602 147.499 237.818  1.00  0.00    -0.000 C 
BRANCH  14  15
ATOM     15  C   UNL     1     -94.736 148.914 238.410  1.00  0.00    -0.003 C 
ATOM     16  C   UNL     1     -94.896 149.996 237.343  1.00  0.00     0.004 C 
ENDBRANCH  14  15
ENDBRANCH  13  14
ENDBRANCH  12  13
ENDBRANCH  11  12
ENDBRANCH  10  11
ENDBRANCH   1  10
TORSDOF 12
ENDMDL
MODEL 5
REMARK VINA RESULT:    -3.719      1.440      2.986
REMARK INTER + INTRA:          -7.094
REMARK INTER:                  -5.986
REMARK INTRA:                  -1.108
REMARK UNBOUND:                -0.766
REMARK SMILES CCCCCCCCCCCCCC(=O)[O-]
REMARK SMILES IDX 8 1 9 2 10 3 11 4 12 5 13 6 14 7 15 8 16 9 7 10 6 11 5 12
REMARK SMILES IDX 4 13 3 14 2 15 1 16
REMARK H PARENT
REMARK Flexibility Score: inf
ROOT
ATOM      1  C   UNL     1     -94.357 148.285 239.451  1.00  0.00     0.000 C 
ENDROOT
BRANCH   1   2
ATOM      2  C   UNL     1     -95.597 148.580 238.585  1.00  0.00     0.000 C 
BRANCH   2   3
ATOM      3  C   UNL     1     -95.434 148.267 237.083  1.00  0.00     0.000 C 
BRANCH   3   4
ATOM      4  C   UNL     1     -94.697 149.347 236.271  1.00  0.00     0.000 C 
BRANCH   4   5
ATOM      5  C   UNL     1     -94.868 150.757 236.860  1.00  0.00     0.006 C 
BRANCH   5   6
ATOM      6  C   UNL     1     -96.066 151.498 236.250  1.00  0.00     0.053 C 
BRANCH   6   7
ATOM      7  C   UNL     1     -96.750 152.370 237.259  1.00  0.00     0.041 C 
ATOM      8  O   UNL     1     -97.731 151.930 237.915  1.00  0.00    -0.550 OA
ATOM      9  O   UNL     1     -96.326 153.679 237.447  1.00  0.00    -0.550 OA
ENDBRANCH   6   7
ENDBRANCH   5   6
ENDBRANCH   4   5
ENDBRANCH   3   4
ENDBRANCH   2   3
ENDBRANCH   1   2
BRANCH   1  10
ATOM     10  C   UNL     1     -93.867 146.825 239.406  1.00  0.00     0.000 C 
BRANCH  10  11
ATOM     11  C   UNL     1     -93.079 146.361 240.648  1.00  0.00    -0.000 C 
BRANCH  11  12
ATOM     12  C   UNL     1     -93.537 146.976 241.984  1.00  0.00    -0.000 C 
BRANCH  12  13
ATOM     13  C   UNL     1     -94.734 146.237 242.604  1.00  0.00    -0.000 C 
BRANCH  13  14
ATOM     14  C   UNL     1     -96.009 147.099 242.659  1.00  0.00    -0.000 C 
BRANCH  14  15
ATOM     15  C   UNL     1     -95.766 148.619 242.694  1.00  0.00    -0.003 C 
ATOM     16  C   UNL     1     -97.019 149.417 243.054  1.00  0.00     0.004 C 
ENDBRANCH  14  15
ENDBRANCH  13  14
ENDBRANCH  12  13
ENDBRANCH  11  12
ENDBRANCH  10  11
ENDBRANCH   1  10
TORSDOF 12
ENDMDL
MODEL 6
REMARK VINA RESULT:    -3.678      3.068      5.343
REMARK INTER + INTRA:          -7.025
REMARK INTER:                  -5.443
REMARK INTRA:                  -1.583
REMARK UNBOUND:                -0.766
REMARK SMILES CCCCCCCCCCCCCC(=O)[O-]
REMARK SMILES IDX 8 1 9 2 10 3 11 4 12 5 13 6 14 7 15 8 16 9 7 10 6 11 5 12
REMARK SMILES IDX 4 13 3 14 2 15 1 16
REMARK H PARENT
REMARK Flexibility Score: inf
ROOT
ATOM      1  C   UNL     1     -94.455 145.886 242.702  1.00  0.00     0.000 C 
ENDROOT
BRANCH   1   2
ATOM      2  C   UNL     1     -93.577 147.053 242.209  1.00  0.00     0.000 C 
BRANCH   2   3
ATOM      3  C   UNL     1     -92.917 146.838 240.831  1.00  0.00     0.000 C 
BRANCH   3   4
ATOM      4  C   UNL     1     -93.884 146.884 239.634  1.00  0.00     0.000 C 
BRANCH   4   5
ATOM      5  C   UNL     1     -94.451 148.291 239.379  1.00  0.00     0.006 C 
BRANCH   5   6
ATOM      6  C   UNL     1     -95.696 148.258 238.482  1.00  0.00     0.053 C 
BRANCH   6   7
ATOM      7  C   UNL     1     -95.774 149.467 237.599  1.00  0.00     0.041 C 
ATOM      8  O   UNL     1     -94.719 150.019 237.189  1.00  0.00    -0.550 OA
ATOM      9  O   UNL     1     -97.010 150.002 237.260  1.00  0.00    -0.550 OA
ENDBRANCH   6   7
ENDBRANCH   5   6
ENDBRANCH   4   5
ENDBRANCH   3   4
ENDBRANCH   2   3
ENDBRANCH   1   2
BRANCH   1  10
ATOM     10  C   UNL     1     -95.870 146.288 243.160  1.00  0.00     0.000 C 
BRANCH  10  11
ATOM     11  C   UNL     1     -96.822 146.730 242.031  1.00  0.00    -0.000 C 
BRANCH  11  12
ATOM     12  C   UNL     1     -97.105 148.243 241.965  1.00  0.00    -0.000 C 
BRANCH  12  13
ATOM     13  C   UNL     1     -96.646 148.992 243.226  1.00  0.00    -0.000 C 
BRANCH  13  14
ATOM     14  C   UNL     1     -97.795 149.255 244.218  1.00  0.00    -0.000 C 
BRANCH  14  15
ATOM     15  C   UNL     1     -97.577 148.690 245.633  1.00  0.00    -0.003 C 
ATOM     16  C   UNL     1     -98.199 147.308 245.829  1.00  0.00     0.004 C 
ENDBRANCH  14  15
ENDBRANCH  13  14
ENDBRANCH  12  13
ENDBRANCH  11  12
ENDBRANCH  10  11
ENDBRANCH   1  10
TORSDOF 12
ENDMDL
MODEL 7
REMARK VINA RESULT:    -3.658      5.220      7.161
REMARK INTER + INTRA:          -6.990
REMARK INTER:                  -5.508
REMARK INTRA:                  -1.482
REMARK UNBOUND:                -0.766
REMARK SMILES CCCCCCCCCCCCCC(=O)[O-]
REMARK SMILES IDX 8 1 9 2 10 3 11 4 12 5 13 6 14 7 15 8 16 9 7 10 6 11 5 12
REMARK SMILES IDX 4 13 3 14 2 15 1 16
REMARK H PARENT
REMARK Flexibility Score: inf
ROOT
ATOM      1  C   UNL     1     -96.528 146.912 242.420  1.00  0.00     0.000 C 
ENDROOT
BRANCH   1   2
ATOM      2  C   UNL     1     -95.770 148.238 242.628  1.00  0.00     0.000 C 
BRANCH   2   3
ATOM      3  C   UNL     1     -96.616 149.391 243.206  1.00  0.00     0.000 C 
BRANCH   3   4
ATOM      4  C   UNL     1     -98.117 149.328 242.867  1.00  0.00     0.000 C 
BRANCH   4   5
ATOM      5  C   UNL     1     -99.003 149.158 244.113  1.00  0.00     0.006 C 
BRANCH   5   6
ATOM      6  C   UNL     1     -98.177 148.868 245.374  1.00  0.00     0.053 C 
BRANCH   6   7
ATOM      7  C   UNL     1     -98.383 147.465 245.860  1.00  0.00     0.041 C 
ATOM      8  O   UNL     1     -97.458 146.617 245.755  1.00  0.00    -0.550 OA
ATOM      9  O   UNL     1     -99.607 147.086 246.395  1.00  0.00    -0.550 OA
ENDBRANCH   6   7
ENDBRANCH   5   6
ENDBRANCH   4   5
ENDBRANCH   3   4
ENDBRANCH   2   3
ENDBRANCH   1   2
BRANCH   1  10
ATOM     10  C   UNL     1     -95.686 145.642 242.642  1.00  0.00     0.000 C 
BRANCH  10  11
ATOM     11  C   UNL     1     -94.172 145.881 242.812  1.00  0.00    -0.000 C 
BRANCH  11  12
ATOM     12  C   UNL     1     -93.262 144.886 242.068  1.00  0.00    -0.000 C 
BRANCH  12  13
ATOM     13  C   UNL     1     -92.489 145.534 240.908  1.00  0.00    -0.000 C 
BRANCH  13  14
ATOM     14  C   UNL     1     -93.016 146.935 240.545  1.00  0.00    -0.000 C 
BRANCH  14  15
ATOM     15  C   UNL     1     -93.929 146.988 239.306  1.00  0.00    -0.003 C 
ATOM     16  C   UNL     1     -94.735 148.282 239.210  1.00  0.00     0.004 C 
ENDBRANCH  14  15
ENDBRANCH  13  14
ENDBRANCH  12  13
ENDBRANCH  11  12
ENDBRANCH  10  11
ENDBRANCH   1  10
TORSDOF 12
ENDMDL
MODEL 8
REMARK VINA RESULT:    -3.650      1.878      3.534
REMARK INTER + INTRA:          -6.976
REMARK INTER:                  -5.586
REMARK INTRA:                  -1.390
REMARK UNBOUND:                -0.766
REMARK SMILES CCCCCCCCCCCCCC(=O)[O-]
REMARK SMILES IDX 8 1 9 2 10 3 11 4 12 5 13 6 14 7 15 8 16 9 7 10 6 11 5 12
REMARK SMILES IDX 4 13 3 14 2 15 1 16
REMARK H PARENT
REMARK Flexibility Score: inf
ROOT
ATOM      1  C   UNL     1     -93.678 146.425 238.449  1.00  0.00     0.000 C 
ENDROOT
BRANCH   1   2
ATOM      2  C   UNL     1     -95.218 146.453 238.486  1.00  0.00     0.000 C 
BRANCH   2   3
ATOM      3  C   UNL     1     -95.845 147.861 238.548  1.00  0.00     0.000 C 
BRANCH   3   4
ATOM      4  C   UNL     1     -94.842 149.024 238.430  1.00  0.00     0.000 C 
BRANCH   4   5
ATOM      5  C   UNL     1     -94.829 149.661 237.030  1.00  0.00     0.006 C 
BRANCH   5   6
ATOM      6  C   UNL     1     -95.313 151.117 237.053  1.00  0.00     0.053 C 
BRANCH   6   7
ATOM      7  C   UNL     1     -96.809 151.205 237.060  1.00  0.00     0.041 C 
ATOM      8  O   UNL     1     -97.487 150.504 236.264  1.00  0.00    -0.550 OA
ATOM      9  O   UNL     1     -97.450 152.086 237.921  1.00  0.00    -0.550 OA
ENDBRANCH   6   7
ENDBRANCH   5   6
ENDBRANCH   4   5
ENDBRANCH   3   4
ENDBRANCH   2   3
ENDBRANCH   1   2
BRANCH   1  10
ATOM     10  C   UNL     1     -93.029 145.312 239.295  1.00  0.00     0.000 C 
BRANCH  10  11
ATOM     11  C   UNL     1     -92.403 145.781 240.624  1.00  0.00    -0.000 C 
BRANCH  11  12
ATOM     12  C   UNL     1     -92.894 147.149 241.134  1.00  0.00    -0.000 C 
BRANCH  12  13
ATOM     13  C   UNL     1     -94.050 147.032 242.140  1.00  0.00    -0.000 C 
BRANCH  13  14
ATOM     14  C   UNL     1     -94.893 148.318 242.237  1.00  0.00    -0.000 C 
BRANCH  14  15
ATOM     15  C   UNL     1     -96.401 148.094 242.451  1.00  0.00    -0.003 C 
ATOM     16  C   UNL     1     -97.012 149.062 243.463  1.00  0.00     0.004 C 
ENDBRANCH  14  15
ENDBRANCH  13  14
ENDBRANCH  12  13
ENDBRANCH  11  12
ENDBRANCH  10  11
ENDBRANCH   1  10
TORSDOF 12
ENDMDL
MODEL 9
REMARK VINA RESULT:    -3.639      3.095      4.445
REMARK INTER + INTRA:          -6.958
REMARK INTER:                  -5.172
REMARK INTRA:                  -1.787
REMARK UNBOUND:                -0.766
REMARK SMILES CCCCCCCCCCCCCC(=O)[O-]
REMARK SMILES IDX 8 1 9 2 10 3 11 4 12 5 13 6 14 7 15 8 16 9 7 10 6 11 5 12
REMARK SMILES IDX 4 13 3 14 2 15 1 16
REMARK H PARENT
REMARK Flexibility Score: inf
ROOT
ATOM      1  C   UNL     1     -94.302 147.040 239.466  1.00  0.00     0.000 C 
ENDROOT
BRANCH   1   2
ATOM      2  C   UNL     1     -94.676 148.489 239.098  1.00  0.00     0.000 C 
BRANCH   2   3
ATOM      3  C   UNL     1     -96.153 148.704 238.709  1.00  0.00     0.000 C 
BRANCH   3   4
ATOM      4  C   UNL     1     -97.151 147.759 239.402  1.00  0.00     0.000 C 
BRANCH   4   5
ATOM      5  C   UNL     1     -98.346 148.504 240.021  1.00  0.00     0.006 C 
BRANCH   5   6
ATOM      6  C   UNL     1     -98.394 149.978 239.593  1.00  0.00     0.053 C 
BRANCH   6   7
ATOM      7  C   UNL     1     -99.350 150.768 240.434  1.00  0.00     0.041 C 
ATOM      8  O   UNL     1     -99.597 151.970 240.151  1.00  0.00    -0.550 OA
ATOM      9  O   UNL     1     -99.939 150.188 241.549  1.00  0.00    -0.550 OA
ENDBRANCH   6   7
ENDBRANCH   5   6
ENDBRANCH   4   5
ENDBRANCH   3   4
ENDBRANCH   2   3
ENDBRANCH   1   2
BRANCH   1  10
ATOM     10  C   UNL     1     -93.173 146.906 240.506  1.00  0.00     0.000 C 
BRANCH  10  11
ATOM     11  C   UNL     1     -93.592 147.178 241.965  1.00  0.00    -0.000 C 
BRANCH  11  12
ATOM     12  C   UNL     1     -94.736 146.293 242.495  1.00  0.00    -0.000 C 
BRANCH  12  13
ATOM     13  C   UNL     1     -95.988 147.100 242.875  1.00  0.00    -0.000 C 
BRANCH  13  14
ATOM     14  C   UNL     1     -95.776 148.622 242.768  1.00  0.00    -0.000 C 
BRANCH  14  15
ATOM     15  C   UNL     1     -96.980 149.480 243.200  1.00  0.00    -0.003 C 
ATOM     16  C   UNL     1     -97.657 148.965 244.469  1.00  0.00     0.004 C 
ENDBRANCH  14  15
ENDBRANCH  13  14
ENDBRANCH  12  13
ENDBRANCH  11  12
ENDBRANCH  10  11
ENDBRANCH   1  10
TORSDOF 12
ENDMDL
