MODEL 1
REMARK VINA RESULT:    -3.500      0.000      0.000
REMARK INTER + INTRA:          -4.119
REMARK INTER:                  -4.114
REMARK INTRA:                  -0.005
REMARK UNBOUND:                -0.005
REMARK SMILES [NH3+][C@H](CO)C(=O)[O-]
REMARK SMILES IDX 3 1 2 2 1 3 5 7 6 8 7 9 4 10
REMARK H PARENT 1 4 1 5 1 6 4 11
REMARK Flexibility Score: inf
ROOT
ATOM      1  C   UNL     1     212.623 196.906 215.135  1.00  0.00     0.227 C 
ENDROOT
BRANCH   1   2
ATOM      2  C   UNL     1     213.275 196.738 213.751  1.00  0.00     0.253 C 
BRANCH   2   3
ATOM      3  N   UNL     1     213.553 195.323 213.477  1.00  0.00    -0.348 N 
ATOM      4  H   UNL     1     213.276 194.727 214.292  1.00  0.00     0.345 HD
ATOM      5  H   UNL     1     213.024 195.015 212.629  1.00  0.00     0.345 HD
ATOM      6  H   UNL     1     214.574 195.194 213.291  1.00  0.00     0.345 HD
ENDBRANCH   2   3
BRANCH   2   7
ATOM      7  C   UNL     1     212.398 197.320 212.674  1.00  0.00     0.102 C 
ATOM      8  O   UNL     1     212.096 198.543 212.688  1.00  0.00    -0.544 OA
ATOM      9  O   UNL     1     211.927 196.510 211.649  1.00  0.00    -0.544 OA
ENDBRANCH   2   7
ENDBRANCH   1   2
BRANCH   1  10
ATOM     10  O   UNL     1     213.002 195.863 215.995  1.00  0.00    -0.390 OA
ATOM     11  H   UNL     1     213.990 195.795 215.941  1.00  0.00     0.210 HD
ENDBRANCH   1  10
TORSDOF 4
ENDMDL
MODEL 2
REMARK VINA RESULT:    -3.412      2.851      3.460
REMARK INTER + INTRA:          -4.016
REMARK INTER:                  -3.621
REMARK INTRA:                  -0.395
REMARK UNBOUND:                -0.005
REMARK SMILES [NH3+][C@H](CO)C(=O)[O-]
REMARK SMILES IDX 3 1 2 2 1 3 5 7 6 8 7 9 4 10
REMARK H PARENT 1 4 1 5 1 6 4 11
REMARK Flexibility Score: inf
ROOT
ATOM      1  C   UNL     1     212.195 198.053 212.548  1.00  0.00     0.227 C 
ENDROOT
BRANCH   1   2
ATOM      2  C   UNL     1     211.897 197.516 211.136  1.00  0.00     0.253 C 
BRANCH   2   3
ATOM      3  N   UNL     1     211.489 196.107 211.194  1.00  0.00    -0.348 N 
ATOM      4  H   UNL     1     211.327 195.728 210.232  1.00  0.00     0.345 HD
ATOM      5  H   UNL     1     212.232 195.542 211.666  1.00  0.00     0.345 HD
ATOM      6  H   UNL     1     210.608 196.017 211.750  1.00  0.00     0.345 HD
ENDBRANCH   2   3
BRANCH   2   7
ATOM      7  C   UNL     1     210.834 198.344 210.463  1.00  0.00     0.102 C 
ATOM      8  O   UNL     1     209.617 198.041 210.583  1.00  0.00    -0.544 OA
ATOM      9  O   UNL     1     211.193 199.459 209.716  1.00  0.00    -0.544 OA
ENDBRANCH   2   7
ENDBRANCH   1   2
BRANCH   1  10
ATOM     10  O   UNL     1     211.488 199.241 212.789  1.00  0.00    -0.390 OA
ATOM     11  H   UNL     1     211.710 199.859 212.045  1.00  0.00     0.210 HD
ENDBRANCH   1  10
TORSDOF 4
ENDMDL
MODEL 3
REMARK VINA RESULT:    -3.402      2.304      3.263
REMARK INTER + INTRA:          -4.004
REMARK INTER:                  -3.640
REMARK INTRA:                  -0.364
REMARK UNBOUND:                -0.005
REMARK SMILES [NH3+][C@H](CO)C(=O)[O-]
REMARK SMILES IDX 3 1 2 2 1 3 5 7 6 8 7 9 4 10
REMARK H PARENT 1 4 1 5 1 6 4 11
REMARK Flexibility Score: inf
ROOT
ATOM      1  C   UNL     1     213.397 198.175 214.078  1.00  0.00     0.227 C 
ENDROOT
BRANCH   1   2
ATOM      2  C   UNL     1     212.756 196.838 214.493  1.00  0.00     0.253 C 
BRANCH   2   3
ATOM      3  N   UNL     1     213.491 195.709 213.910  1.00  0.00    -0.348 N 
ATOM      4  H   UNL     1     213.024 194.802 214.145  1.00  0.00     0.345 HD
ATOM      5  H   UNL     1     213.536 195.814 212.870  1.00  0.00     0.345 HD
ATOM      6  H   UNL     1     214.469 195.696 214.280  1.00  0.00     0.345 HD
ENDBRANCH   2   3
BRANCH   2   7
ATOM      7  C   UNL     1     212.703 196.714 215.993  1.00  0.00     0.102 C 
ATOM      8  O   UNL     1     211.612 196.858 216.607  1.00  0.00    -0.544 OA
ATOM      9  O   UNL     1     213.858 196.425 216.706  1.00  0.00    -0.544 OA
ENDBRANCH   2   7
ENDBRANCH   1   2
BRANCH   1  10
ATOM     10  O   UNL     1     213.597 199.000 215.196  1.00  0.00    -0.390 OA
ATOM     11  H   UNL     1     213.886 198.408 215.937  1.00  0.00     0.210 HD
ENDBRANCH   1  10
TORSDOF 4
ENDMDL
MODEL 4
REMARK VINA RESULT:    -3.277      2.493      3.888
REMARK INTER + INTRA:          -3.857
REMARK INTER:                  -3.630
REMARK INTRA:                  -0.227
REMARK UNBOUND:                -0.005
REMARK SMILES [NH3+][C@H](CO)C(=O)[O-]
REMARK SMILES IDX 3 1 2 2 1 3 5 7 6 8 7 9 4 10
REMARK H PARENT 1 4 1 5 1 6 4 11
REMARK Flexibility Score: inf
ROOT
ATOM      1  C   UNL     1     210.677 197.852 210.682  1.00  0.00     0.227 C 
ENDROOT
BRANCH   1   2
ATOM      2  C   UNL     1     211.851 198.223 211.606  1.00  0.00     0.253 C 
BRANCH   2   3
ATOM      3  N   UNL     1     211.448 199.258 212.566  1.00  0.00    -0.348 N 
ATOM      4  H   UNL     1     211.839 200.190 212.292  1.00  0.00     0.345 HD
ATOM      5  H   UNL     1     210.404 199.320 212.603  1.00  0.00     0.345 HD
ATOM      6  H   UNL     1     211.795 199.008 213.520  1.00  0.00     0.345 HD
ENDBRANCH   2   3
BRANCH   2   7
ATOM      7  C   UNL     1     212.367 197.007 212.329  1.00  0.00     0.102 C 
ATOM      8  O   UNL     1     212.517 197.023 213.580  1.00  0.00    -0.544 OA
ATOM      9  O   UNL     1     212.668 195.853 211.618  1.00  0.00    -0.544 OA
ENDBRANCH   2   7
ENDBRANCH   1   2
BRANCH   1  10
ATOM     10  O   UNL     1     211.139 197.216 209.520  1.00  0.00    -0.390 OA
ATOM     11  H   UNL     1     211.465 196.321 209.796  1.00  0.00     0.210 HD
ENDBRANCH   1  10
TORSDOF 4
ENDMDL
MODEL 5
REMARK VINA RESULT:    -3.276      1.474      3.182
REMARK INTER + INTRA:          -3.856
REMARK INTER:                  -3.629
REMARK INTRA:                  -0.227
REMARK UNBOUND:                -0.005
REMARK SMILES [NH3+][C@H](CO)C(=O)[O-]
REMARK SMILES IDX 3 1 2 2 1 3 5 7 6 8 7 9 4 10
REMARK H PARENT 1 4 1 5 1 6 4 11
REMARK Flexibility Score: inf
ROOT
ATOM      1  C   UNL     1     212.452 197.732 212.872  1.00  0.00     0.227 C 
ENDROOT
BRANCH   1   2
ATOM      2  C   UNL     1     212.666 196.995 214.207  1.00  0.00     0.253 C 
BRANCH   2   3
ATOM      3  N   UNL     1     213.413 195.749 213.995  1.00  0.00    -0.348 N 
ATOM      4  H   UNL     1     213.671 195.312 214.911  1.00  0.00     0.345 HD
ATOM      5  H   UNL     1     212.832 195.076 213.443  1.00  0.00     0.345 HD
ATOM      6  H   UNL     1     214.286 195.948 213.454  1.00  0.00     0.345 HD
ENDBRANCH   2   3
BRANCH   2   7
ATOM      7  C   UNL     1     213.382 197.877 215.195  1.00  0.00     0.102 C 
ATOM      8  O   UNL     1     213.324 197.630 216.430  1.00  0.00    -0.544 OA
ATOM      9  O   UNL     1     214.124 198.961 214.747  1.00  0.00    -0.544 OA
ENDBRANCH   2   7
ENDBRANCH   1   2
BRANCH   1  10
ATOM     10  O   UNL     1     211.850 198.982 213.084  1.00  0.00    -0.390 OA
ATOM     11  H   UNL     1     212.560 199.586 213.423  1.00  0.00     0.210 HD
ENDBRANCH   1  10
TORSDOF 4
ENDMDL
MODEL 6
REMARK VINA RESULT:    -3.228      1.890      2.233
REMARK INTER + INTRA:          -3.799
REMARK INTER:                  -3.602
REMARK INTRA:                  -0.196
REMARK UNBOUND:                -0.005
REMARK SMILES [NH3+][C@H](CO)C(=O)[O-]
REMARK SMILES IDX 3 1 2 2 1 3 5 7 6 8 7 9 4 10
REMARK H PARENT 1 4 1 5 1 6 4 11
REMARK Flexibility Score: inf
ROOT
ATOM      1  C   UNL     1     213.693 198.319 215.376  1.00  0.00     0.227 C 
ENDROOT
BRANCH   1   2
ATOM      2  C   UNL     1     213.651 196.823 215.013  1.00  0.00     0.253 C 
BRANCH   2   3
ATOM      3  N   UNL     1     212.905 196.066 216.026  1.00  0.00    -0.348 N 
ATOM      4  H   UNL     1     211.883 196.052 215.799  1.00  0.00     0.345 HD
ATOM      5  H   UNL     1     213.262 195.084 216.068  1.00  0.00     0.345 HD
ATOM      6  H   UNL     1     213.041 196.504 216.965  1.00  0.00     0.345 HD
ENDBRANCH   2   3
BRANCH   2   7
ATOM      7  C   UNL     1     213.043 196.621 213.651  1.00  0.00     0.102 C 
ATOM      8  O   UNL     1     212.255 197.478 213.169  1.00  0.00    -0.544 OA
ATOM      9  O   UNL     1     213.361 195.491 212.909  1.00  0.00    -0.544 OA
ENDBRANCH   2   7
ENDBRANCH   1   2
BRANCH   1  10
ATOM     10  O   UNL     1     214.124 199.085 214.282  1.00  0.00    -0.390 OA
ATOM     11  H   UNL     1     214.059 200.036 214.558  1.00  0.00     0.210 HD
ENDBRANCH   1  10
TORSDOF 4
ENDMDL
MODEL 7
REMARK VINA RESULT:    -3.170      1.859      2.274
REMARK INTER + INTRA:          -3.731
REMARK INTER:                  -3.508
REMARK INTRA:                  -0.223
REMARK UNBOUND:                -0.005
REMARK SMILES [NH3+][C@H](CO)C(=O)[O-]
REMARK SMILES IDX 3 1 2 2 1 3 5 7 6 8 7 9 4 10
REMARK H PARENT 1 4 1 5 1 6 4 11
REMARK Flexibility Score: inf
ROOT
ATOM      1  C   UNL     1     213.786 196.046 213.401  1.00  0.00     0.227 C 
ENDROOT
BRANCH   1   2
ATOM      2  C   UNL     1     212.647 197.059 213.609  1.00  0.00     0.253 C 
BRANCH   2   3
ATOM      3  N   UNL     1     213.037 198.084 214.585  1.00  0.00    -0.348 N 
ATOM      4  H   UNL     1     212.719 197.820 215.546  1.00  0.00     0.345 HD
ATOM      5  H   UNL     1     214.077 198.196 214.585  1.00  0.00     0.345 HD
ATOM      6  H   UNL     1     212.609 199.002 214.323  1.00  0.00     0.345 HD
ENDBRANCH   2   3
BRANCH   2   7
ATOM      7  C   UNL     1     212.256 197.699 212.302  1.00  0.00     0.102 C 
ATOM      8  O   UNL     1     212.508 197.124 211.209  1.00  0.00    -0.544 OA
ATOM      9  O   UNL     1     211.600 198.922 212.297  1.00  0.00    -0.544 OA
ENDBRANCH   2   7
ENDBRANCH   1   2
BRANCH   1  10
ATOM     10  O   UNL     1     213.284 194.815 212.950  1.00  0.00    -0.390 OA
ATOM     11  H   UNL     1     214.042 194.176 212.964  1.00  0.00     0.210 HD
ENDBRANCH   1  10
TORSDOF 4
ENDMDL
MODEL 8
REMARK VINA RESULT:    -3.121      3.168      4.467
REMARK INTER + INTRA:          -3.673
REMARK INTER:                  -3.452
REMARK INTRA:                  -0.222
REMARK UNBOUND:                -0.005
REMARK SMILES [NH3+][C@H](CO)C(=O)[O-]
REMARK SMILES IDX 3 1 2 2 1 3 5 7 6 8 7 9 4 10
REMARK H PARENT 1 4 1 5 1 6 4 11
REMARK Flexibility Score: inf
ROOT
ATOM      1  C   UNL     1     211.530 199.327 209.669  1.00  0.00     0.227 C 
ENDROOT
BRANCH   1   2
ATOM      2  C   UNL     1     211.141 197.907 210.117  1.00  0.00     0.253 C 
BRANCH   2   3
ATOM      3  N   UNL     1     211.533 196.918 209.106  1.00  0.00    -0.348 N 
ATOM      4  H   UNL     1     210.971 196.041 209.207  1.00  0.00     0.345 HD
ATOM      5  H   UNL     1     211.386 197.313 208.148  1.00  0.00     0.345 HD
ATOM      6  H   UNL     1     212.548 196.688 209.212  1.00  0.00     0.345 HD
ENDBRANCH   2   3
BRANCH   2   7
ATOM      7  C   UNL     1     211.766 197.577 211.447  1.00  0.00     0.102 C 
ATOM      8  O   UNL     1     211.907 198.469 212.325  1.00  0.00    -0.544 OA
ATOM      9  O   UNL     1     212.178 196.278 211.717  1.00  0.00    -0.544 OA
ENDBRANCH   2   7
ENDBRANCH   1   2
BRANCH   1  10
ATOM     10  O   UNL     1     210.827 200.293 210.404  1.00  0.00    -0.390 OA
ATOM     11  H   UNL     1     209.875 200.216 210.137  1.00  0.00     0.210 HD
ENDBRANCH   1  10
TORSDOF 4
ENDMDL
MODEL 9
REMARK VINA RESULT:    -3.071      3.194      3.673
REMARK INTER + INTRA:          -3.615
REMARK INTER:                  -3.389
REMARK INTRA:                  -0.226
REMARK UNBOUND:                -0.005
REMARK SMILES [NH3+][C@H](CO)C(=O)[O-]
REMARK SMILES IDX 3 1 2 2 1 3 5 7 6 8 7 9 4 10
REMARK H PARENT 1 4 1 5 1 6 4 11
REMARK Flexibility Score: inf
ROOT
ATOM      1  C   UNL     1     212.350 196.996 211.840  1.00  0.00     0.227 C 
ENDROOT
BRANCH   1   2
ATOM      2  C   UNL     1     211.407 198.159 211.482  1.00  0.00     0.253 C 
BRANCH   2   3
ATOM      3  N   UNL     1     211.490 199.223 212.491  1.00  0.00    -0.348 N 
ATOM      4  H   UNL     1     211.637 198.818 213.445  1.00  0.00     0.345 HD
ATOM      5  H   UNL     1     212.283 199.865 212.264  1.00  0.00     0.345 HD
ATOM      6  H   UNL     1     210.606 199.781 212.488  1.00  0.00     0.345 HD
ENDBRANCH   2   3
BRANCH   2   7
ATOM      7  C   UNL     1     211.726 198.704 210.115  1.00  0.00     0.102 C 
ATOM      8  O   UNL     1     211.262 199.815 209.746  1.00  0.00    -0.544 OA
ATOM      9  O   UNL     1     212.549 197.986 209.257  1.00  0.00    -0.544 OA
ENDBRANCH   2   7
ENDBRANCH   1   2
BRANCH   1  10
ATOM     10  O   UNL     1     211.964 195.819 211.181  1.00  0.00    -0.390 OA
ATOM     11  H   UNL     1     212.554 195.097 211.520  1.00  0.00     0.210 HD
ENDBRANCH   1  10
TORSDOF 4
ENDMDL
