MODEL 1
REMARK VINA RESULT:    -3.913      0.000      0.000
REMARK INTER + INTRA:          -5.495
REMARK INTER:                  -5.286
REMARK INTRA:                  -0.209
REMARK UNBOUND:                -0.209
REMARK SMILES [NH3+]CCCC[C@H]([NH3+])C(=O)[O-]
REMARK SMILES IDX 4 1 3 2 2 3 1 4 5 8 6 9 7 10 8 14 9 15 10 16
REMARK H PARENT 1 5 1 6 1 7 7 11 7 12 7 13
REMARK Flexibility Score: inf
ROOT
ATOM      1  C   UNL     1      24.349  -1.934   0.550  1.00  0.00     0.012 C 
ENDROOT
BRANCH   1   2
ATOM      2  C   UNL     1      24.472  -1.626   2.052  1.00  0.00     0.061 C 
BRANCH   2   3
ATOM      3  C   UNL     1      25.656  -0.699   2.371  1.00  0.00     0.258 C 
BRANCH   3   4
ATOM      4  N   UNL     1      26.908  -1.454   2.424  1.00  0.00    -0.358 N 
ATOM      5  H   UNL     1      27.017  -1.999   1.538  1.00  0.00     0.344 HD
ATOM      6  H   UNL     1      26.893  -2.119   3.231  1.00  0.00     0.344 HD
ATOM      7  H   UNL     1      27.718  -0.799   2.520  1.00  0.00     0.344 HD
ENDBRANCH   3   4
ENDBRANCH   2   3
ENDBRANCH   1   2
BRANCH   1   8
ATOM      8  C   UNL     1      24.560  -3.426   0.233  1.00  0.00     0.072 C 
BRANCH   8   9
ATOM      9  C   UNL     1      23.422  -4.016  -0.629  1.00  0.00     0.227 C 
BRANCH   9  10
ATOM     10  N   UNL     1      23.257  -3.279  -1.890  1.00  0.00    -0.350 N 
ATOM     11  H   UNL     1      24.136  -2.770  -2.141  1.00  0.00     0.345 HD
ATOM     12  H   UNL     1      22.476  -2.588  -1.798  1.00  0.00     0.345 HD
ATOM     13  H   UNL     1      23.006  -3.938  -2.661  1.00  0.00     0.345 HD
ENDBRANCH   9  10
BRANCH   9  14
ATOM     14  C   UNL     1      22.136  -4.004   0.153  1.00  0.00     0.099 C 
ATOM     15  O   UNL     1      22.013  -4.706   1.190  1.00  0.00    -0.544 OA
ATOM     16  O   UNL     1      21.067  -3.231  -0.282  1.00  0.00    -0.544 OA
ENDBRANCH   9  14
ENDBRANCH   8   9
ENDBRANCH   1   8
TORSDOF 7
ENDMDL
MODEL 2
REMARK VINA RESULT:    -3.813      2.814      4.529
REMARK INTER + INTRA:          -5.360
REMARK INTER:                  -5.135
REMARK INTRA:                  -0.225
REMARK UNBOUND:                -0.209
REMARK SMILES [NH3+]CCCC[C@H]([NH3+])C(=O)[O-]
REMARK SMILES IDX 4 1 3 2 2 3 1 4 5 8 6 9 7 10 8 14 9 15 10 16
REMARK H PARENT 1 5 1 6 1 7 7 11 7 12 7 13
REMARK Flexibility Score: inf
ROOT
ATOM      1  C   UNL     1      24.036  -4.141  -0.233  1.00  0.00     0.012 C 
ENDROOT
BRANCH   1   2
ATOM      2  C   UNL     1      22.654  -4.325   0.416  1.00  0.00     0.061 C 
BRANCH   2   3
ATOM      3  C   UNL     1      21.502  -4.141  -0.585  1.00  0.00     0.258 C 
BRANCH   3   4
ATOM      4  N   UNL     1      22.007  -3.709  -1.888  1.00  0.00    -0.358 N 
ATOM      5  H   UNL     1      22.980  -3.344  -1.773  1.00  0.00     0.344 HD
ATOM      6  H   UNL     1      21.403  -2.947  -2.273  1.00  0.00     0.344 HD
ATOM      7  H   UNL     1      22.025  -4.517  -2.552  1.00  0.00     0.344 HD
ENDBRANCH   3   4
ENDBRANCH   2   3
ENDBRANCH   1   2
BRANCH   1   8
ATOM      8  C   UNL     1      24.885  -3.070   0.475  1.00  0.00     0.072 C 
BRANCH   8   9
ATOM      9  C   UNL     1      24.055  -1.835   0.890  1.00  0.00     0.227 C 
BRANCH   9  10
ATOM     10  N   UNL     1      23.657  -1.031  -0.275  1.00  0.00    -0.350 N 
ATOM     11  H   UNL     1      24.389  -0.318  -0.502  1.00  0.00     0.345 HD
ATOM     12  H   UNL     1      22.754  -0.542  -0.077  1.00  0.00     0.345 HD
ATOM     13  H   UNL     1      23.506  -1.649  -1.103  1.00  0.00     0.345 HD
ENDBRANCH   9  10
BRANCH   9  14
ATOM     14  C   UNL     1      24.846  -0.994   1.857  1.00  0.00     0.099 C 
ATOM     15  O   UNL     1      24.603   0.235   1.980  1.00  0.00    -0.544 OA
ATOM     16  O   UNL     1      25.865  -1.569   2.604  1.00  0.00    -0.544 OA
ENDBRANCH   9  14
ENDBRANCH   8   9
ENDBRANCH   1   8
TORSDOF 7
ENDMDL
MODEL 3
REMARK VINA RESULT:    -3.769      2.508      3.709
REMARK INTER + INTRA:          -5.300
REMARK INTER:                  -4.766
REMARK INTRA:                  -0.534
REMARK UNBOUND:                -0.209
REMARK SMILES [NH3+]CCCC[C@H]([NH3+])C(=O)[O-]
REMARK SMILES IDX 4 1 3 2 2 3 1 4 5 8 6 9 7 10 8 14 9 15 10 16
REMARK H PARENT 1 5 1 6 1 7 7 11 7 12 7 13
REMARK Flexibility Score: inf
ROOT
ATOM      1  C   UNL     1      23.196  -2.785   1.538  1.00  0.00     0.012 C 
ENDROOT
BRANCH   1   2
ATOM      2  C   UNL     1      24.226  -3.067   0.432  1.00  0.00     0.061 C 
BRANCH   2   3
ATOM      3  C   UNL     1      23.723  -4.089  -0.599  1.00  0.00     0.258 C 
BRANCH   3   4
ATOM      4  N   UNL     1      23.211  -3.416  -1.793  1.00  0.00    -0.358 N 
ATOM      5  H   UNL     1      22.452  -2.753  -1.512  1.00  0.00     0.344 HD
ATOM      6  H   UNL     1      22.816  -4.118  -2.460  1.00  0.00     0.344 HD
ATOM      7  H   UNL     1      23.977  -2.876  -2.257  1.00  0.00     0.344 HD
ENDBRANCH   3   4
ENDBRANCH   2   3
ENDBRANCH   1   2
BRANCH   1   8
ATOM      8  C   UNL     1      22.116  -3.878   1.633  1.00  0.00     0.072 C 
BRANCH   8   9
ATOM      9  C   UNL     1      20.690  -3.295   1.735  1.00  0.00     0.227 C 
BRANCH   9  10
ATOM     10  N   UNL     1      19.688  -4.346   1.970  1.00  0.00    -0.350 N 
ATOM     11  H   UNL     1      20.096  -5.128   2.531  1.00  0.00     0.345 HD
ATOM     12  H   UNL     1      19.348  -4.722   1.055  1.00  0.00     0.345 HD
ATOM     13  H   UNL     1      18.864  -3.950   2.474  1.00  0.00     0.345 HD
ENDBRANCH   9  10
BRANCH   9  14
ATOM     14  C   UNL     1      20.361  -2.535   0.478  1.00  0.00     0.099 C 
ATOM     15  O   UNL     1      20.329  -3.124  -0.634  1.00  0.00    -0.544 OA
ATOM     16  O   UNL     1      20.112  -1.170   0.538  1.00  0.00    -0.544 OA
ENDBRANCH   9  14
ENDBRANCH   8   9
ENDBRANCH   1   8
TORSDOF 7
ENDMDL
MODEL 4
REMARK VINA RESULT:    -3.750      1.774      1.951
REMARK INTER + INTRA:          -5.274
REMARK INTER:                  -4.746
REMARK INTRA:                  -0.529
REMARK UNBOUND:                -0.209
REMARK SMILES [NH3+]CCCC[C@H]([NH3+])C(=O)[O-]
REMARK SMILES IDX 4 1 3 2 2 3 1 4 5 8 6 9 7 10 8 14 9 15 10 16
REMARK H PARENT 1 5 1 6 1 7 7 11 7 12 7 13
REMARK Flexibility Score: inf
ROOT
ATOM      1  C   UNL     1      24.590  -2.498   0.170  1.00  0.00     0.012 C 
ENDROOT
BRANCH   1   2
ATOM      2  C   UNL     1      24.479  -1.803   1.537  1.00  0.00     0.061 C 
BRANCH   2   3
ATOM      3  C   UNL     1      23.539  -0.588   1.508  1.00  0.00     0.258 C 
BRANCH   3   4
ATOM      4  N   UNL     1      23.109  -0.294   0.141  1.00  0.00    -0.358 N 
ATOM      5  H   UNL     1      22.943  -1.193  -0.366  1.00  0.00     0.344 HD
ATOM      6  H   UNL     1      23.852   0.245  -0.361  1.00  0.00     0.344 HD
ATOM      7  H   UNL     1      22.220   0.257   0.155  1.00  0.00     0.344 HD
ENDBRANCH   3   4
ENDBRANCH   2   3
ENDBRANCH   1   2
BRANCH   1   8
ATOM      8  C   UNL     1      23.924  -3.886   0.155  1.00  0.00     0.072 C 
BRANCH   8   9
ATOM      9  C   UNL     1      22.852  -4.017  -0.949  1.00  0.00     0.227 C 
BRANCH   9  10
ATOM     10  N   UNL     1      23.088  -3.075  -2.052  1.00  0.00    -0.350 N 
ATOM     11  H   UNL     1      22.234  -2.979  -2.648  1.00  0.00     0.345 HD
ATOM     12  H   UNL     1      23.882  -3.413  -2.644  1.00  0.00     0.345 HD
ATOM     13  H   UNL     1      23.354  -2.138  -1.673  1.00  0.00     0.345 HD
ENDBRANCH   9  10
BRANCH   9  14
ATOM     14  C   UNL     1      21.485  -3.795  -0.358  1.00  0.00     0.099 C 
ATOM     15  O   UNL     1      21.142  -2.652   0.045  1.00  0.00    -0.544 OA
ATOM     16  O   UNL     1      20.601  -4.859  -0.235  1.00  0.00    -0.544 OA
ENDBRANCH   9  14
ENDBRANCH   8   9
ENDBRANCH   1   8
TORSDOF 7
ENDMDL
MODEL 5
REMARK VINA RESULT:    -3.734      2.296      3.213
REMARK INTER + INTRA:          -5.254
REMARK INTER:                  -4.722
REMARK INTRA:                  -0.532
REMARK UNBOUND:                -0.209
REMARK SMILES [NH3+]CCCC[C@H]([NH3+])C(=O)[O-]
REMARK SMILES IDX 4 1 3 2 2 3 1 4 5 8 6 9 7 10 8 14 9 15 10 16
REMARK H PARENT 1 5 1 6 1 7 7 11 7 12 7 13
REMARK Flexibility Score: inf
ROOT
ATOM      1  C   UNL     1      22.657  -3.952  -1.023  1.00  0.00     0.012 C 
ENDROOT
BRANCH   1   2
ATOM      2  C   UNL     1      23.985  -3.921  -0.248  1.00  0.00     0.061 C 
BRANCH   2   3
ATOM      3  C   UNL     1      24.324  -2.522   0.291  1.00  0.00     0.258 C 
BRANCH   3   4
ATOM      4  N   UNL     1      23.472  -1.506  -0.327  1.00  0.00    -0.358 N 
ATOM      5  H   UNL     1      22.876  -1.958  -1.057  1.00  0.00     0.344 HD
ATOM      6  H   UNL     1      24.061  -0.770  -0.779  1.00  0.00     0.344 HD
ATOM      7  H   UNL     1      22.852  -1.071   0.395  1.00  0.00     0.344 HD
ENDBRANCH   3   4
ENDBRANCH   2   3
ENDBRANCH   1   2
BRANCH   1   8
ATOM      8  C   UNL     1      21.553  -4.719  -0.273  1.00  0.00     0.072 C 
BRANCH   8   9
ATOM      9  C   UNL     1      20.278  -3.872  -0.065  1.00  0.00     0.227 C 
BRANCH   9  10
ATOM     10  N   UNL     1      20.118  -2.863  -1.122  1.00  0.00    -0.350 N 
ATOM     11  H   UNL     1      19.205  -2.361  -1.020  1.00  0.00     0.345 HD
ATOM     12  H   UNL     1      20.153  -3.323  -2.061  1.00  0.00     0.345 HD
ATOM     13  H   UNL     1      20.900  -2.171  -1.080  1.00  0.00     0.345 HD
ENDBRANCH   9  10
BRANCH   9  14
ATOM     14  C   UNL     1      20.325  -3.209   1.286  1.00  0.00     0.099 C 
ATOM     15  O   UNL     1      20.916  -2.108   1.436  1.00  0.00    -0.544 OA
ATOM     16  O   UNL     1      19.732  -3.823   2.381  1.00  0.00    -0.544 OA
ENDBRANCH   9  14
ENDBRANCH   8   9
ENDBRANCH   1   8
TORSDOF 7
ENDMDL
MODEL 6
REMARK VINA RESULT:    -3.674      2.507      4.460
REMARK INTER + INTRA:          -5.172
REMARK INTER:                  -4.658
REMARK INTRA:                  -0.514
REMARK UNBOUND:                -0.209
REMARK SMILES [NH3+]CCCC[C@H]([NH3+])C(=O)[O-]
REMARK SMILES IDX 4 1 3 2 2 3 1 4 5 8 6 9 7 10 8 14 9 15 10 16
REMARK H PARENT 1 5 1 6 1 7 7 11 7 12 7 13
REMARK Flexibility Score: inf
ROOT
ATOM      1  C   UNL     1      21.573  -3.383   1.794  1.00  0.00     0.012 C 
ENDROOT
BRANCH   1   2
ATOM      2  C   UNL     1      20.228  -4.075   1.519  1.00  0.00     0.061 C 
BRANCH   2   3
ATOM      3  C   UNL     1      19.864  -4.090   0.026  1.00  0.00     0.258 C 
BRANCH   3   4
ATOM      4  N   UNL     1      20.384  -5.293  -0.625  1.00  0.00    -0.358 N 
ATOM      5  H   UNL     1      20.203  -6.119  -0.010  1.00  0.00     0.344 HD
ATOM      6  H   UNL     1      21.415  -5.203  -0.775  1.00  0.00     0.344 HD
ATOM      7  H   UNL     1      19.904  -5.441  -1.542  1.00  0.00     0.344 HD
ENDBRANCH   3   4
ENDBRANCH   2   3
ENDBRANCH   1   2
BRANCH   1   8
ATOM      8  C   UNL     1      21.854  -2.227   0.817  1.00  0.00     0.072 C 
BRANCH   8   9
ATOM      9  C   UNL     1      23.312  -2.224   0.306  1.00  0.00     0.227 C 
BRANCH   9  10
ATOM     10  N   UNL     1      23.617  -1.006  -0.459  1.00  0.00    -0.350 N 
ATOM     11  H   UNL     1      22.893  -0.270  -0.291  1.00  0.00     0.345 HD
ATOM     12  H   UNL     1      23.649  -1.228  -1.481  1.00  0.00     0.345 HD
ATOM     13  H   UNL     1      24.556  -0.637  -0.187  1.00  0.00     0.345 HD
ENDBRANCH   9  10
BRANCH   9  14
ATOM     14  C   UNL     1      23.555  -3.445  -0.541  1.00  0.00     0.099 C 
ATOM     15  O   UNL     1      22.882  -3.641  -1.587  1.00  0.00    -0.544 OA
ATOM     16  O   UNL     1      24.512  -4.375  -0.158  1.00  0.00    -0.544 OA
ENDBRANCH   9  14
ENDBRANCH   8   9
ENDBRANCH   1   8
TORSDOF 7
ENDMDL
MODEL 7
REMARK VINA RESULT:    -3.654      2.393      4.678
REMARK INTER + INTRA:          -5.144
REMARK INTER:                  -5.085
REMARK INTRA:                  -0.060
REMARK UNBOUND:                -0.209
REMARK SMILES [NH3+]CCCC[C@H]([NH3+])C(=O)[O-]
REMARK SMILES IDX 4 1 3 2 2 3 1 4 5 8 6 9 7 10 8 14 9 15 10 16
REMARK H PARENT 1 5 1 6 1 7 7 11 7 12 7 13
REMARK Flexibility Score: inf
ROOT
ATOM      1  C   UNL     1      23.520  -2.821   1.059  1.00  0.00     0.012 C 
ENDROOT
BRANCH   1   2
ATOM      2  C   UNL     1      23.112  -4.107   0.322  1.00  0.00     0.061 C 
BRANCH   2   3
ATOM      3  C   UNL     1      22.291  -3.828  -0.946  1.00  0.00     0.258 C 
BRANCH   3   4
ATOM      4  N   UNL     1      23.155  -3.377  -2.037  1.00  0.00    -0.358 N 
ATOM      5  H   UNL     1      23.934  -2.803  -1.641  1.00  0.00     0.344 HD
ATOM      6  H   UNL     1      22.609  -2.789  -2.708  1.00  0.00     0.344 HD
ATOM      7  H   UNL     1      23.561  -4.201  -2.537  1.00  0.00     0.344 HD
ENDBRANCH   3   4
ENDBRANCH   2   3
ENDBRANCH   1   2
BRANCH   1   8
ATOM      8  C   UNL     1      25.046  -2.617   1.093  1.00  0.00     0.072 C 
BRANCH   8   9
ATOM      9  C   UNL     1      25.461  -1.390   1.934  1.00  0.00     0.227 C 
BRANCH   9  10
ATOM     10  N   UNL     1      26.880  -1.448   2.316  1.00  0.00    -0.350 N 
ATOM     11  H   UNL     1      27.490  -1.527   1.470  1.00  0.00     0.345 HD
ATOM     12  H   UNL     1      27.046  -2.273   2.937  1.00  0.00     0.345 HD
ATOM     13  H   UNL     1      27.142  -0.591   2.853  1.00  0.00     0.345 HD
ENDBRANCH   9  10
BRANCH   9  14
ATOM     14  C   UNL     1      24.595  -1.299   3.162  1.00  0.00     0.099 C 
ATOM     15  O   UNL     1      23.781  -0.348   3.300  1.00  0.00    -0.544 OA
ATOM     16  O   UNL     1      24.706  -2.256   4.161  1.00  0.00    -0.544 OA
ENDBRANCH   9  14
ENDBRANCH   8   9
ENDBRANCH   1   8
TORSDOF 7
ENDMDL
MODEL 8
REMARK VINA RESULT:    -3.573      3.086      4.442
REMARK INTER + INTRA:          -5.036
REMARK INTER:                  -4.802
REMARK INTRA:                  -0.234
REMARK UNBOUND:                -0.209
REMARK SMILES [NH3+]CCCC[C@H]([NH3+])C(=O)[O-]
REMARK SMILES IDX 4 1 3 2 2 3 1 4 5 8 6 9 7 10 8 14 9 15 10 16
REMARK H PARENT 1 5 1 6 1 7 7 11 7 12 7 13
REMARK Flexibility Score: inf
ROOT
ATOM      1  C   UNL     1      20.125  -3.724   1.339  1.00  0.00     0.012 C 
ENDROOT
BRANCH   1   2
ATOM      2  C   UNL     1      20.101  -4.536   2.644  1.00  0.00     0.061 C 
BRANCH   2   3
ATOM      3  C   UNL     1      21.249  -5.554   2.730  1.00  0.00     0.258 C 
BRANCH   3   4
ATOM      4  N   UNL     1      20.729  -6.919   2.812  1.00  0.00    -0.358 N 
ATOM      5  H   UNL     1      21.231  -7.519   2.118  1.00  0.00     0.344 HD
ATOM      6  H   UNL     1      19.707  -6.928   2.589  1.00  0.00     0.344 HD
ATOM      7  H   UNL     1      20.886  -7.306   3.771  1.00  0.00     0.344 HD
ENDBRANCH   3   4
ENDBRANCH   2   3
ENDBRANCH   1   2
BRANCH   1   8
ATOM      8  C   UNL     1      20.952  -4.406   0.234  1.00  0.00     0.072 C 
BRANCH   8   9
ATOM      9  C   UNL     1      22.010  -3.463  -0.382  1.00  0.00     0.227 C 
BRANCH   9  10
ATOM     10  N   UNL     1      22.162  -3.687  -1.827  1.00  0.00    -0.350 N 
ATOM     11  H   UNL     1      21.229  -3.702  -2.301  1.00  0.00     0.345 HD
ATOM     12  H   UNL     1      22.646  -4.598  -1.997  1.00  0.00     0.345 HD
ATOM     13  H   UNL     1      22.751  -2.933  -2.247  1.00  0.00     0.345 HD
ENDBRANCH   9  10
BRANCH   9  14
ATOM     14  C   UNL     1      23.329  -3.657   0.316  1.00  0.00     0.099 C 
ATOM     15  O   UNL     1      23.562  -3.084   1.412  1.00  0.00    -0.544 OA
ATOM     16  O   UNL     1      24.308  -4.456  -0.261  1.00  0.00    -0.544 OA
ENDBRANCH   9  14
ENDBRANCH   8   9
ENDBRANCH   1   8
TORSDOF 7
ENDMDL
MODEL 9
REMARK VINA RESULT:    -3.562      2.302      4.214
REMARK INTER + INTRA:          -5.020
REMARK INTER:                  -4.507
REMARK INTRA:                  -0.514
REMARK UNBOUND:                -0.209
REMARK SMILES [NH3+]CCCC[C@H]([NH3+])C(=O)[O-]
REMARK SMILES IDX 4 1 3 2 2 3 1 4 5 8 6 9 7 10 8 14 9 15 10 16
REMARK H PARENT 1 5 1 6 1 7 7 11 7 12 7 13
REMARK Flexibility Score: inf
ROOT
ATOM      1  C   UNL     1      22.368  -4.020  -0.961  1.00  0.00     0.012 C 
ENDROOT
BRANCH   1   2
ATOM      2  C   UNL     1      21.291  -4.749  -0.141  1.00  0.00     0.061 C 
BRANCH   2   3
ATOM      3  C   UNL     1      20.130  -3.827   0.263  1.00  0.00     0.258 C 
BRANCH   3   4
ATOM      4  N   UNL     1      20.264  -3.400   1.655  1.00  0.00    -0.358 N 
ATOM      5  H   UNL     1      20.195  -4.237   2.278  1.00  0.00     0.344 HD
ATOM      6  H   UNL     1      19.498  -2.732   1.901  1.00  0.00     0.344 HD
ATOM      7  H   UNL     1      21.193  -2.943   1.803  1.00  0.00     0.344 HD
ENDBRANCH   3   4
ENDBRANCH   2   3
ENDBRANCH   1   2
BRANCH   1   8
ATOM      8  C   UNL     1      23.745  -4.032  -0.272  1.00  0.00     0.072 C 
BRANCH   8   9
ATOM      9  C   UNL     1      24.201  -2.623   0.166  1.00  0.00     0.227 C 
BRANCH   9  10
ATOM     10  N   UNL     1      25.607  -2.615   0.595  1.00  0.00    -0.350 N 
ATOM     11  H   UNL     1      26.123  -3.431   0.192  1.00  0.00     0.345 HD
ATOM     12  H   UNL     1      25.660  -2.659   1.639  1.00  0.00     0.345 HD
ATOM     13  H   UNL     1      26.070  -1.728   0.293  1.00  0.00     0.345 HD
ENDBRANCH   9  10
BRANCH   9  14
ATOM     14  C   UNL     1      23.315  -2.125   1.277  1.00  0.00     0.099 C 
ATOM     15  O   UNL     1      22.590  -1.109   1.108  1.00  0.00    -0.544 OA
ATOM     16  O   UNL     1      23.310  -2.774   2.504  1.00  0.00    -0.544 OA
ENDBRANCH   9  14
ENDBRANCH   8   9
ENDBRANCH   1   8
TORSDOF 7
ENDMDL
