MODEL 1
REMARK VINA RESULT:    -3.626      0.000      0.000
REMARK INTER + INTRA:          -4.446
REMARK INTER:                  -4.262
REMARK INTRA:                  -0.183
REMARK UNBOUND:                -0.183
REMARK SMILES O=C([O-])CCC(=O)[O-]
REMARK SMILES IDX 4 1 2 2 1 3 3 4 5 5 6 6 7 7 8 8
REMARK H PARENT
REMARK Flexibility Score: inf
ROOT
ATOM      1  C   UNL     1     -10.968  -4.123  -3.047  1.00  0.00     0.059 C 
ENDROOT
BRANCH   1   2
ATOM      2  C   UNL     1     -10.412  -3.596  -4.333  1.00  0.00     0.042 C 
ATOM      3  O   UNL     1     -10.788  -2.478  -4.775  1.00  0.00    -0.550 OA
ATOM      4  O   UNL     1      -9.442  -4.316  -5.018  1.00  0.00    -0.550 OA
ENDBRANCH   1   2
BRANCH   1   5
ATOM      5  C   UNL     1     -10.564  -3.220  -1.880  1.00  0.00     0.059 C 
BRANCH   5   6
ATOM      6  C   UNL     1      -9.077  -3.203  -1.721  1.00  0.00     0.042 C 
ATOM      7  O   UNL     1      -8.456  -4.264  -1.447  1.00  0.00    -0.550 OA
ATOM      8  O   UNL     1      -8.381  -2.005  -1.826  1.00  0.00    -0.550 OA
ENDBRANCH   5   6
ENDBRANCH   1   5
TORSDOF 3
ENDMDL
MODEL 2
REMARK VINA RESULT:    -3.613      0.078      3.447
REMARK INTER + INTRA:          -4.430
REMARK INTER:                  -4.252
REMARK INTRA:                  -0.177
REMARK UNBOUND:                -0.183
REMARK SMILES O=C([O-])CCC(=O)[O-]
REMARK SMILES IDX 4 1 2 2 1 3 3 4 5 5 6 6 7 7 8 8
REMARK H PARENT
REMARK Flexibility Score: inf
ROOT
ATOM      1  C   UNL     1     -10.621  -3.141  -1.878  1.00  0.00     0.059 C 
ENDROOT
BRANCH   1   2
ATOM      2  C   UNL     1      -9.138  -3.130  -1.684  1.00  0.00     0.042 C 
ATOM      3  O   UNL     1      -8.519  -4.206  -1.468  1.00  0.00    -0.550 OA
ATOM      4  O   UNL     1      -8.431  -1.938  -1.790  1.00  0.00    -0.550 OA
ENDBRANCH   1   2
BRANCH   1   5
ATOM      5  C   UNL     1     -11.004  -4.075  -3.028  1.00  0.00     0.059 C 
BRANCH   5   6
ATOM      6  C   UNL     1     -10.408  -3.595  -4.313  1.00  0.00     0.042 C 
ATOM      7  O   UNL     1     -10.776  -2.498  -4.812  1.00  0.00    -0.550 OA
ATOM      8  O   UNL     1      -9.482  -4.382  -4.987  1.00  0.00    -0.550 OA
ENDBRANCH   5   6
ENDBRANCH   1   5
TORSDOF 3
ENDMDL
MODEL 3
REMARK VINA RESULT:    -3.611      6.092      7.024
REMARK INTER + INTRA:          -4.428
REMARK INTER:                  -4.390
REMARK INTRA:                  -0.038
REMARK UNBOUND:                -0.183
REMARK SMILES O=C([O-])CCC(=O)[O-]
REMARK SMILES IDX 4 1 2 2 1 3 3 4 5 5 6 6 7 7 8 8
REMARK H PARENT
REMARK Flexibility Score: inf
ROOT
ATOM      1  C   UNL     1      -4.607  -4.757  -6.097  1.00  0.00     0.059 C 
ENDROOT
BRANCH   1   2
ATOM      2  C   UNL     1      -3.485  -3.867  -5.664  1.00  0.00     0.042 C 
ATOM      3  O   UNL     1      -2.316  -4.325  -5.560  1.00  0.00    -0.550 OA
ATOM      4  O   UNL     1      -3.721  -2.519  -5.424  1.00  0.00    -0.550 OA
ENDBRANCH   1   2
BRANCH   1   5
ATOM      5  C   UNL     1      -4.298  -6.215  -5.751  1.00  0.00     0.059 C 
BRANCH   5   6
ATOM      6  C   UNL     1      -5.564  -6.999  -5.609  1.00  0.00     0.042 C 
ATOM      7  O   UNL     1      -5.752  -8.030  -6.308  1.00  0.00    -0.550 OA
ATOM      8  O   UNL     1      -6.558  -6.564  -4.741  1.00  0.00    -0.550 OA
ENDBRANCH   5   6
ENDBRANCH   1   5
TORSDOF 3
ENDMDL
MODEL 4
REMARK VINA RESULT:    -3.587      0.194      3.295
REMARK INTER + INTRA:          -4.400
REMARK INTER:                  -4.225
REMARK INTRA:                  -0.175
REMARK UNBOUND:                -0.183
REMARK SMILES O=C([O-])CCC(=O)[O-]
REMARK SMILES IDX 4 1 2 2 1 3 3 4 5 5 6 6 7 7 8 8
REMARK H PARENT
REMARK Flexibility Score: inf
ROOT
ATOM      1  C   UNL     1     -10.534  -3.042  -1.890  1.00  0.00     0.059 C 
ENDROOT
BRANCH   1   2
ATOM      2  C   UNL     1      -9.049  -3.124  -1.731  1.00  0.00     0.042 C 
ATOM      3  O   UNL     1      -8.497  -4.231  -1.496  1.00  0.00    -0.550 OA
ATOM      4  O   UNL     1      -8.269  -1.985  -1.890  1.00  0.00    -0.550 OA
ENDBRANCH   1   2
BRANCH   1   5
ATOM      5  C   UNL     1     -11.019  -4.059  -2.924  1.00  0.00     0.059 C 
BRANCH   5   6
ATOM      6  C   UNL     1     -10.501  -3.712  -4.284  1.00  0.00     0.042 C 
ATOM      7  O   UNL     1      -9.802  -4.539  -4.926  1.00  0.00    -0.550 OA
ATOM      8  O   UNL     1     -10.748  -2.454  -4.821  1.00  0.00    -0.550 OA
ENDBRANCH   5   6
ENDBRANCH   1   5
TORSDOF 3
ENDMDL
MODEL 5
REMARK VINA RESULT:    -3.511      1.468      2.111
REMARK INTER + INTRA:          -4.310
REMARK INTER:                  -4.177
REMARK INTRA:                  -0.133
REMARK UNBOUND:                -0.183
REMARK SMILES O=C([O-])CCC(=O)[O-]
REMARK SMILES IDX 4 1 2 2 1 3 3 4 5 5 6 6 7 7 8 8
REMARK H PARENT
REMARK Flexibility Score: inf
ROOT
ATOM      1  C   UNL     1     -10.094  -3.765  -4.157  1.00  0.00     0.059 C 
ENDROOT
BRANCH   1   2
ATOM      2  C   UNL     1      -9.687  -5.163  -4.502  1.00  0.00     0.042 C 
ATOM      3  O   UNL     1      -8.501  -5.413  -4.845  1.00  0.00    -0.550 OA
ATOM      4  O   UNL     1     -10.607  -6.200  -4.398  1.00  0.00    -0.550 OA
ENDBRANCH   1   2
BRANCH   1   5
ATOM      5  C   UNL     1     -10.314  -3.628  -2.650  1.00  0.00     0.059 C 
BRANCH   5   6
ATOM      6  C   UNL     1      -9.021  -3.340  -1.955  1.00  0.00     0.042 C 
ATOM      7  O   UNL     1      -8.561  -2.167  -1.933  1.00  0.00    -0.550 OA
ATOM      8  O   UNL     1      -8.297  -4.375  -1.375  1.00  0.00    -0.550 OA
ENDBRANCH   5   6
ENDBRANCH   1   5
TORSDOF 3
ENDMDL
MODEL 6
REMARK VINA RESULT:    -3.507      1.621      3.653
REMARK INTER + INTRA:          -4.306
REMARK INTER:                  -4.197
REMARK INTRA:                  -0.109
REMARK UNBOUND:                -0.183
REMARK SMILES O=C([O-])CCC(=O)[O-]
REMARK SMILES IDX 4 1 2 2 1 3 3 4 5 5 6 6 7 7 8 8
REMARK H PARENT
REMARK Flexibility Score: inf
ROOT
ATOM      1  C   UNL     1      -9.962  -3.755  -3.145  1.00  0.00     0.059 C 
ENDROOT
BRANCH   1   2
ATOM      2  C   UNL     1      -8.947  -3.410  -2.101  1.00  0.00     0.042 C 
ATOM      3  O   UNL     1      -8.368  -4.323  -1.455  1.00  0.00    -0.550 OA
ATOM      4  O   UNL     1      -8.605  -2.083  -1.876  1.00  0.00    -0.550 OA
ENDBRANCH   1   2
BRANCH   1   5
ATOM      5  C   UNL     1      -9.357  -3.625  -4.544  1.00  0.00     0.059 C 
BRANCH   5   6
ATOM      6  C   UNL     1      -8.852  -4.950  -5.022  1.00  0.00     0.042 C 
ATOM      7  O   UNL     1      -9.529  -5.994  -4.826  1.00  0.00    -0.550 OA
ATOM      8  O   UNL     1      -7.611  -5.038  -5.639  1.00  0.00    -0.550 OA
ENDBRANCH   5   6
ENDBRANCH   1   5
TORSDOF 3
ENDMDL
MODEL 7
REMARK VINA RESULT:    -3.426      4.825      5.804
REMARK INTER + INTRA:          -4.210
REMARK INTER:                  -4.092
REMARK INTRA:                  -0.119
REMARK UNBOUND:                -0.183
REMARK SMILES O=C([O-])CCC(=O)[O-]
REMARK SMILES IDX 4 1 2 2 1 3 3 4 5 5 6 6 7 7 8 8
REMARK H PARENT
REMARK Flexibility Score: inf
ROOT
ATOM      1  C   UNL     1      -6.881  -5.639  -7.035  1.00  0.00     0.059 C 
ENDROOT
BRANCH   1   2
ATOM      2  C   UNL     1      -7.998  -5.285  -6.104  1.00  0.00     0.042 C 
ATOM      3  O   UNL     1      -8.826  -4.389  -6.419  1.00  0.00    -0.550 OA
ATOM      4  O   UNL     1      -8.155  -5.979  -4.911  1.00  0.00    -0.550 OA
ENDBRANCH   1   2
BRANCH   1   5
ATOM      5  C   UNL     1      -5.528  -5.414  -6.358  1.00  0.00     0.059 C 
BRANCH   5   6
ATOM      6  C   UNL     1      -4.872  -6.724  -6.052  1.00  0.00     0.042 C 
ATOM      7  O   UNL     1      -3.646  -6.767  -5.766  1.00  0.00    -0.550 OA
ATOM      8  O   UNL     1      -5.603  -7.903  -6.133  1.00  0.00    -0.550 OA
ENDBRANCH   5   6
ENDBRANCH   1   5
TORSDOF 3
ENDMDL
MODEL 8
REMARK VINA RESULT:    -3.422      4.764      6.043
REMARK INTER + INTRA:          -4.206
REMARK INTER:                  -4.086
REMARK INTRA:                  -0.119
REMARK UNBOUND:                -0.183
REMARK SMILES O=C([O-])CCC(=O)[O-]
REMARK SMILES IDX 4 1 2 2 1 3 3 4 5 5 6 6 7 7 8 8
REMARK H PARENT
REMARK Flexibility Score: inf
ROOT
ATOM      1  C   UNL     1      -5.655  -5.484  -6.389  1.00  0.00     0.059 C 
ENDROOT
BRANCH   1   2
ATOM      2  C   UNL     1      -4.973  -6.784  -6.097  1.00  0.00     0.042 C 
ATOM      3  O   UNL     1      -3.752  -6.804  -5.789  1.00  0.00    -0.550 OA
ATOM      4  O   UNL     1      -5.698  -7.969  -6.117  1.00  0.00    -0.550 OA
ENDBRANCH   1   2
BRANCH   1   5
ATOM      5  C   UNL     1      -7.037  -5.729  -6.997  1.00  0.00     0.059 C 
BRANCH   5   6
ATOM      6  C   UNL     1      -8.110  -5.372  -6.018  1.00  0.00     0.042 C 
ATOM      7  O   UNL     1      -8.282  -6.068  -4.982  1.00  0.00    -0.550 OA
ATOM      8  O   UNL     1      -8.955  -4.299  -6.274  1.00  0.00    -0.550 OA
ENDBRANCH   5   6
ENDBRANCH   1   5
TORSDOF 3
ENDMDL
