MODEL 1
REMARK VINA RESULT:    -6.907      0.000      0.000
REMARK INTER + INTRA:         -13.594
REMARK INTER:                 -10.541
REMARK INTRA:                  -3.053
REMARK UNBOUND:                -3.053
REMARK SMILES CC(=O)CCC=C(C)CCC=C(C)CCC=C(C)C
REMARK SMILES IDX 10 1 11 2 12 3 13 4 14 5 15 6 16 7 18 8 17 9 19 10 9 11 7 12
REMARK SMILES IDX 6 13 8 14 5 15 4 16 2 17 3 18 1 19
REMARK H PARENT
REMARK Flexibility Score: inf
ROOT
ATOM      1  C   UNL     1      27.177  10.919  81.624  1.00  0.00     0.032 C 
ENDROOT
BRANCH   1   2
ATOM      2  C   UNL     1      28.047  10.400  80.505  1.00  0.00    -0.028 C 
ATOM      3  C   UNL     1      28.130  10.944  79.270  1.00  0.00    -0.077 C 
ATOM      4  C   UNL     1      29.026  10.283  78.256  1.00  0.00     0.039 C 
BRANCH   3   5
ATOM      5  C   UNL     1      27.419  12.225  78.883  1.00  0.00     0.034 C 
BRANCH   5   6
ATOM      6  C   UNL     1      28.433  13.308  78.496  1.00  0.00     0.032 C 
BRANCH   6   7
ATOM      7  C   UNL     1      28.853  14.103  79.706  1.00  0.00    -0.028 C 
ATOM      8  C   UNL     1      31.094  12.996  79.858  1.00  0.00     0.039 C 
ATOM      9  C   UNL     1      30.054  13.993  80.314  1.00  0.00    -0.080 C 
ATOM     10  C   UNL     1      30.347  14.884  81.494  1.00  0.00     0.039 C 
ENDBRANCH   6   7
ENDBRANCH   5   6
ENDBRANCH   3   5
ENDBRANCH   1   2
BRANCH   1  11
ATOM     11  C   UNL     1      27.976  11.781  82.612  1.00  0.00     0.034 C 
BRANCH  11  12
ATOM     12  C   UNL     1      27.284  13.098  82.898  1.00  0.00    -0.077 C 
ATOM     13  C   UNL     1      26.254  13.489  82.116  1.00  0.00    -0.028 C 
ATOM     14  C   UNL     1      27.762  13.948  84.053  1.00  0.00     0.039 C 
BRANCH  13  15
ATOM     15  C   UNL     1      25.510  14.786  82.320  1.00  0.00     0.035 C 
BRANCH  15  16
ATOM     16  C   UNL     1      25.292  15.515  80.991  1.00  0.00     0.079 C 
BRANCH  16  17
ATOM     17  C   UNL     1      25.958  16.864  81.005  1.00  0.00     0.130 C 
ATOM     18  O   UNL     1      25.479  17.785  80.360  1.00  0.00    -0.300 OA
ATOM     19  C   UNL     1      27.220  17.080  81.786  1.00  0.00     0.087 C 
ENDBRANCH  16  17
ENDBRANCH  15  16
ENDBRANCH  13  15
ENDBRANCH  11  12
ENDBRANCH   1  11
TORSDOF 9
ENDMDL
MODEL 2
REMARK VINA RESULT:    -6.657      1.168      2.823
REMARK INTER + INTRA:         -13.212
REMARK INTER:                 -10.826
REMARK INTRA:                  -2.387
REMARK UNBOUND:                -3.053
REMARK SMILES CC(=O)CCC=C(C)CCC=C(C)CCC=C(C)C
REMARK SMILES IDX 10 1 11 2 12 3 13 4 14 5 15 6 16 7 18 8 17 9 19 10 9 11 7 12
REMARK SMILES IDX 6 13 8 14 5 15 4 16 2 17 3 18 1 19
REMARK H PARENT
REMARK Flexibility Score: inf
ROOT
ATOM      1  C   UNL     1      28.815  11.673  81.348  1.00  0.00     0.032 C 
ENDROOT
BRANCH   1   2
ATOM      2  C   UNL     1      30.050  12.408  81.811  1.00  0.00    -0.028 C 
ATOM      3  C   UNL     1      30.365  13.680  81.480  1.00  0.00    -0.077 C 
ATOM      4  C   UNL     1      31.656  14.255  82.002  1.00  0.00     0.039 C 
BRANCH   3   5
ATOM      5  C   UNL     1      29.449  14.574  80.668  1.00  0.00     0.034 C 
BRANCH   5   6
ATOM      6  C   UNL     1      29.477  14.171  79.189  1.00  0.00     0.032 C 
BRANCH   6   7
ATOM      7  C   UNL     1      28.260  14.698  78.469  1.00  0.00    -0.028 C 
ATOM      8  C   UNL     1      27.227  12.431  78.218  1.00  0.00     0.039 C 
ATOM      9  C   UNL     1      27.230  13.932  78.050  1.00  0.00    -0.080 C 
ATOM     10  C   UNL     1      26.060  14.606  77.378  1.00  0.00     0.039 C 
ENDBRANCH   6   7
ENDBRANCH   5   6
ENDBRANCH   3   5
ENDBRANCH   1   2
BRANCH   1  11
ATOM     11  C   UNL     1      27.782  11.534  82.476  1.00  0.00     0.034 C 
BRANCH  11  12
ATOM     12  C   UNL     1      27.164  12.869  82.841  1.00  0.00    -0.077 C 
ATOM     13  C   UNL     1      26.250  13.424  82.015  1.00  0.00    -0.028 C 
ATOM     14  C   UNL     1      27.584  13.552  84.122  1.00  0.00     0.039 C 
BRANCH  13  15
ATOM     15  C   UNL     1      25.589  14.752  82.292  1.00  0.00     0.035 C 
BRANCH  15  16
ATOM     16  C   UNL     1      25.332  15.526  80.995  1.00  0.00     0.079 C 
BRANCH  16  17
ATOM     17  C   UNL     1      25.961  16.890  81.052  1.00  0.00     0.130 C 
ATOM     18  O   UNL     1      25.540  17.784  80.334  1.00  0.00    -0.300 OA
ATOM     19  C   UNL     1      27.118  17.156  81.968  1.00  0.00     0.087 C 
ENDBRANCH  16  17
ENDBRANCH  15  16
ENDBRANCH  13  15
ENDBRANCH  11  12
ENDBRANCH   1  11
TORSDOF 9
ENDMDL
MODEL 3
REMARK VINA RESULT:    -6.545      0.932      1.413
REMARK INTER + INTRA:         -13.042
REMARK INTER:                 -10.494
REMARK INTRA:                  -2.548
REMARK UNBOUND:                -3.053
REMARK SMILES CC(=O)CCC=C(C)CCC=C(C)CCC=C(C)C
REMARK SMILES IDX 10 1 11 2 12 3 13 4 14 5 15 6 16 7 18 8 17 9 19 10 9 11 7 12
REMARK SMILES IDX 6 13 8 14 5 15 4 16 2 17 3 18 1 19
REMARK H PARENT
REMARK Flexibility Score: inf
ROOT
ATOM      1  C   UNL     1      28.290  10.943  80.190  1.00  0.00     0.032 C 
ENDROOT
BRANCH   1   2
ATOM      2  C   UNL     1      27.747  10.950  78.781  1.00  0.00    -0.028 C 
ATOM      3  C   UNL     1      27.269  12.040  78.140  1.00  0.00    -0.077 C 
ATOM      4  C   UNL     1      26.734  11.869  76.742  1.00  0.00     0.039 C 
BRANCH   3   5
ATOM      5  C   UNL     1      27.311  13.434  78.735  1.00  0.00     0.034 C 
BRANCH   5   6
ATOM      6  C   UNL     1      28.714  14.036  78.594  1.00  0.00     0.032 C 
BRANCH   6   7
ATOM      7  C   UNL     1      29.273  14.407  79.945  1.00  0.00    -0.028 C 
ATOM      8  C   UNL     1      31.274  12.921  79.705  1.00  0.00     0.039 C 
ATOM      9  C   UNL     1      30.435  13.934  80.447  1.00  0.00    -0.080 C 
ATOM     10  C   UNL     1      30.887  14.426  81.798  1.00  0.00     0.039 C 
ENDBRANCH   6   7
ENDBRANCH   5   6
ENDBRANCH   3   5
ENDBRANCH   1   2
BRANCH   1  11
ATOM     11  C   UNL     1      27.162  10.916  81.232  1.00  0.00     0.034 C 
BRANCH  11  12
ATOM     12  C   UNL     1      27.225  12.110  82.162  1.00  0.00    -0.077 C 
ATOM     13  C   UNL     1      26.355  13.130  81.991  1.00  0.00    -0.028 C 
ATOM     14  C   UNL     1      28.261  12.137  83.262  1.00  0.00     0.039 C 
BRANCH  13  15
ATOM     15  C   UNL     1      26.348  14.362  82.862  1.00  0.00     0.035 C 
BRANCH  15  16
ATOM     16  C   UNL     1      25.469  15.462  82.259  1.00  0.00     0.079 C 
BRANCH  16  17
ATOM     17  C   UNL     1      26.262  16.326  81.318  1.00  0.00     0.130 C 
ATOM     18  O   UNL     1      25.954  16.379  80.137  1.00  0.00    -0.300 OA
ATOM     19  C   UNL     1      27.443  17.105  81.814  1.00  0.00     0.087 C 
ENDBRANCH  16  17
ENDBRANCH  15  16
ENDBRANCH  13  15
ENDBRANCH  11  12
ENDBRANCH   1  11
TORSDOF 9
ENDMDL
MODEL 4
REMARK VINA RESULT:    -6.539      2.078      5.462
REMARK INTER + INTRA:         -13.033
REMARK INTER:                 -10.913
REMARK INTRA:                  -2.120
REMARK UNBOUND:                -3.053
REMARK SMILES CC(=O)CCC=C(C)CCC=C(C)CCC=C(C)C
REMARK SMILES IDX 10 1 11 2 12 3 13 4 14 5 15 6 16 7 18 8 17 9 19 10 9 11 7 12
REMARK SMILES IDX 6 13 8 14 5 15 4 16 2 17 3 18 1 19
REMARK H PARENT
REMARK Flexibility Score: inf
ROOT
ATOM      1  C   UNL     1      25.961  14.797  79.074  1.00  0.00     0.032 C 
ENDROOT
BRANCH   1   2
ATOM      2  C   UNL     1      26.457  15.914  79.961  1.00  0.00    -0.028 C 
ATOM      3  C   UNL     1      26.236  16.004  81.292  1.00  0.00    -0.077 C 
ATOM      4  C   UNL     1      26.775  17.203  82.026  1.00  0.00     0.039 C 
BRANCH   3   5
ATOM      5  C   UNL     1      25.533  14.922  82.088  1.00  0.00     0.034 C 
BRANCH   5   6
ATOM      6  C   UNL     1      26.556  13.985  82.741  1.00  0.00     0.032 C 
BRANCH   6   7
ATOM      7  C   UNL     1      26.709  12.718  81.938  1.00  0.00    -0.028 C 
ATOM      8  C   UNL     1      28.221  11.643  83.619  1.00  0.00     0.039 C 
ATOM      9  C   UNL     1      27.433  11.647  82.331  1.00  0.00    -0.080 C 
ATOM     10  C   UNL     1      27.461  10.432  81.439  1.00  0.00     0.039 C 
ENDBRANCH   6   7
ENDBRANCH   5   6
ENDBRANCH   3   5
ENDBRANCH   1   2
BRANCH   1  11
ATOM     11  C   UNL     1      26.908  14.550  77.891  1.00  0.00     0.034 C 
BRANCH  11  12
ATOM     12  C   UNL     1      27.991  13.548  78.236  1.00  0.00    -0.077 C 
ATOM     13  C   UNL     1      29.194  13.994  78.661  1.00  0.00    -0.028 C 
ATOM     14  C   UNL     1      27.704  12.071  78.096  1.00  0.00     0.039 C 
BRANCH  13  15
ATOM     15  C   UNL     1      30.334  13.072  79.019  1.00  0.00     0.035 C 
BRANCH  15  16
ATOM     16  C   UNL     1      30.266  12.651  80.491  1.00  0.00     0.079 C 
BRANCH  16  17
ATOM     17  C   UNL     1      30.719  13.770  81.388  1.00  0.00     0.130 C 
ATOM     18  O   UNL     1      31.796  13.692  81.961  1.00  0.00    -0.300 OA
ATOM     19  C   UNL     1      29.848  14.971  81.604  1.00  0.00     0.087 C 
ENDBRANCH  16  17
ENDBRANCH  15  16
ENDBRANCH  13  15
ENDBRANCH  11  12
ENDBRANCH   1  11
TORSDOF 9
ENDMDL
MODEL 5
REMARK VINA RESULT:    -6.441      2.308      3.984
REMARK INTER + INTRA:         -12.884
REMARK INTER:                 -10.846
REMARK INTRA:                  -2.038
REMARK UNBOUND:                -3.053
REMARK SMILES CC(=O)CCC=C(C)CCC=C(C)CCC=C(C)C
REMARK SMILES IDX 10 1 11 2 12 3 13 4 14 5 15 6 16 7 18 8 17 9 19 10 9 11 7 12
REMARK SMILES IDX 6 13 8 14 5 15 4 16 2 17 3 18 1 19
REMARK H PARENT
REMARK Flexibility Score: inf
ROOT
ATOM      1  C   UNL     1      26.115  16.097  79.245  1.00  0.00     0.032 C 
ENDROOT
BRANCH   1   2
ATOM      2  C   UNL     1      25.986  15.127  78.095  1.00  0.00    -0.028 C 
ATOM      3  C   UNL     1      26.708  13.994  77.951  1.00  0.00    -0.077 C 
ATOM      4  C   UNL     1      26.477  13.150  76.725  1.00  0.00     0.039 C 
BRANCH   3   5
ATOM      5  C   UNL     1      27.684  13.497  78.999  1.00  0.00     0.034 C 
BRANCH   5   6
ATOM      6  C   UNL     1      29.046  14.183  78.833  1.00  0.00     0.032 C 
BRANCH   6   7
ATOM      7  C   UNL     1      29.681  14.439  80.177  1.00  0.00    -0.028 C 
ATOM      8  C   UNL     1      31.386  12.627  79.897  1.00  0.00     0.039 C 
ATOM      9  C   UNL     1      30.749  13.766  80.658  1.00  0.00    -0.080 C 
ATOM     10  C   UNL     1      31.301  14.160  82.004  1.00  0.00     0.039 C 
ENDBRANCH   6   7
ENDBRANCH   5   6
ENDBRANCH   3   5
ENDBRANCH   1   2
BRANCH   1  11
ATOM     11  C   UNL     1      25.287  15.651  80.458  1.00  0.00     0.034 C 
BRANCH  11  12
ATOM     12  C   UNL     1      26.115  15.624  81.727  1.00  0.00    -0.077 C 
ATOM     13  C   UNL     1      26.024  14.560  82.555  1.00  0.00    -0.028 C 
ATOM     14  C   UNL     1      27.025  16.789  82.041  1.00  0.00     0.039 C 
BRANCH  13  15
ATOM     15  C   UNL     1      26.804  14.449  83.842  1.00  0.00     0.035 C 
BRANCH  15  16
ATOM     16  C   UNL     1      28.194  13.853  83.599  1.00  0.00     0.079 C 
BRANCH  16  17
ATOM     17  C   UNL     1      28.154  12.352  83.676  1.00  0.00     0.130 C 
ATOM     18  O   UNL     1      28.168  11.799  84.766  1.00  0.00    -0.300 OA
ATOM     19  C   UNL     1      28.121  11.528  82.424  1.00  0.00     0.087 C 
ENDBRANCH  16  17
ENDBRANCH  15  16
ENDBRANCH  13  15
ENDBRANCH  11  12
ENDBRANCH   1  11
TORSDOF 9
ENDMDL
MODEL 6
REMARK VINA RESULT:    -6.316      2.119      4.254
REMARK INTER + INTRA:         -12.693
REMARK INTER:                 -10.152
REMARK INTRA:                  -2.541
REMARK UNBOUND:                -3.053
REMARK SMILES CC(=O)CCC=C(C)CCC=C(C)CCC=C(C)C
REMARK SMILES IDX 10 1 11 2 12 3 13 4 14 5 15 6 16 7 18 8 17 9 19 10 9 11 7 12
REMARK SMILES IDX 6 13 8 14 5 15 4 16 2 17 3 18 1 19
REMARK H PARENT
REMARK Flexibility Score: inf
ROOT
ATOM      1  C   UNL     1      26.640  14.588  83.268  1.00  0.00     0.032 C 
ENDROOT
BRANCH   1   2
ATOM      2  C   UNL     1      27.476  13.632  84.084  1.00  0.00    -0.028 C 
ATOM      3  C   UNL     1      27.770  12.361  83.729  1.00  0.00    -0.077 C 
ATOM      4  C   UNL     1      28.594  11.527  84.675  1.00  0.00     0.039 C 
BRANCH   3   5
ATOM      5  C   UNL     1      27.369  11.762  82.396  1.00  0.00     0.034 C 
BRANCH   5   6
ATOM      6  C   UNL     1      28.585  11.143  81.697  1.00  0.00     0.032 C 
BRANCH   6   7
ATOM      7  C   UNL     1      28.964  11.944  80.477  1.00  0.00    -0.028 C 
ATOM      8  C   UNL     1      30.637  13.339  81.713  1.00  0.00     0.039 C 
ATOM      9  C   UNL     1      29.902  12.917  80.462  1.00  0.00    -0.080 C 
ATOM     10  C   UNL     1      30.202  13.606  79.156  1.00  0.00     0.039 C 
ENDBRANCH   6   7
ENDBRANCH   5   6
ENDBRANCH   3   5
ENDBRANCH   1   2
BRANCH   1  11
ATOM     11  C   UNL     1      27.504  15.422  82.311  1.00  0.00     0.034 C 
BRANCH  11  12
ATOM     12  C   UNL     1      26.783  15.713  81.011  1.00  0.00    -0.077 C 
ATOM     13  C   UNL     1      26.687  14.743  80.075  1.00  0.00    -0.028 C 
ATOM     14  C   UNL     1      26.186  17.083  80.787  1.00  0.00     0.039 C 
BRANCH  13  15
ATOM     15  C   UNL     1      25.995  14.943  78.749  1.00  0.00     0.035 C 
BRANCH  15  16
ATOM     16  C   UNL     1      26.939  14.644  77.580  1.00  0.00     0.079 C 
BRANCH  16  17
ATOM     17  C   UNL     1      26.605  13.321  76.947  1.00  0.00     0.130 C 
ATOM     18  O   UNL     1      25.815  13.275  76.016  1.00  0.00    -0.300 OA
ATOM     19  C   UNL     1      27.216  12.054  77.466  1.00  0.00     0.087 C 
ENDBRANCH  16  17
ENDBRANCH  15  16
ENDBRANCH  13  15
ENDBRANCH  11  12
ENDBRANCH   1  11
TORSDOF 9
ENDMDL
MODEL 7
REMARK VINA RESULT:    -6.299      2.394      4.454
REMARK INTER + INTRA:         -12.666
REMARK INTER:                 -10.302
REMARK INTRA:                  -2.364
REMARK UNBOUND:                -3.053
REMARK SMILES CC(=O)CCC=C(C)CCC=C(C)CCC=C(C)C
REMARK SMILES IDX 10 1 11 2 12 3 13 4 14 5 15 6 16 7 18 8 17 9 19 10 9 11 7 12
REMARK SMILES IDX 6 13 8 14 5 15 4 16 2 17 3 18 1 19
REMARK H PARENT
REMARK Flexibility Score: inf
ROOT
ATOM      1  C   UNL     1      26.619  15.582  80.915  1.00  0.00     0.032 C 
ENDROOT
BRANCH   1   2
ATOM      2  C   UNL     1      25.983  15.488  79.549  1.00  0.00    -0.028 C 
ATOM      3  C   UNL     1      26.378  14.650  78.565  1.00  0.00    -0.077 C 
ATOM      4  C   UNL     1      25.654  14.704  77.245  1.00  0.00     0.039 C 
BRANCH   3   5
ATOM      5  C   UNL     1      27.467  13.611  78.751  1.00  0.00     0.034 C 
BRANCH   5   6
ATOM      6  C   UNL     1      28.852  14.255  78.619  1.00  0.00     0.032 C 
BRANCH   6   7
ATOM      7  C   UNL     1      29.870  13.504  79.441  1.00  0.00    -0.028 C 
ATOM      8  C   UNL     1      29.870  15.198  81.285  1.00  0.00     0.039 C 
ATOM      9  C   UNL     1      30.318  13.902  80.651  1.00  0.00    -0.080 C 
ATOM     10  C   UNL     1      31.309  13.026  81.374  1.00  0.00     0.039 C 
ENDBRANCH   6   7
ENDBRANCH   5   6
ENDBRANCH   3   5
ENDBRANCH   1   2
BRANCH   1  11
ATOM     11  C   UNL     1      25.872  14.726  81.948  1.00  0.00     0.034 C 
BRANCH  11  12
ATOM     12  C   UNL     1      26.713  13.560  82.428  1.00  0.00    -0.077 C 
ATOM     13  C   UNL     1      26.774  12.437  81.680  1.00  0.00    -0.028 C 
ATOM     14  C   UNL     1      27.464  13.679  83.733  1.00  0.00     0.039 C 
BRANCH  13  15
ATOM     15  C   UNL     1      27.578  11.224  82.081  1.00  0.00     0.035 C 
BRANCH  15  16
ATOM     16  C   UNL     1      27.360  10.065  81.102  1.00  0.00     0.079 C 
BRANCH  16  17
ATOM     17  C   UNL     1      28.411  10.068  80.027  1.00  0.00     0.130 C 
ATOM     18  O   UNL     1      29.593  10.118  80.333  1.00  0.00    -0.300 OA
ATOM     19  C   UNL     1      28.020  10.033  78.580  1.00  0.00     0.087 C 
ENDBRANCH  16  17
ENDBRANCH  15  16
ENDBRANCH  13  15
ENDBRANCH  11  12
ENDBRANCH   1  11
TORSDOF 9
ENDMDL
MODEL 8
REMARK VINA RESULT:    -6.245      1.130      2.916
REMARK INTER + INTRA:         -12.584
REMARK INTER:                 -10.043
REMARK INTRA:                  -2.541
REMARK UNBOUND:                -3.053
REMARK SMILES CC(=O)CCC=C(C)CCC=C(C)CCC=C(C)C
REMARK SMILES IDX 10 1 11 2 12 3 13 4 14 5 15 6 16 7 18 8 17 9 19 10 9 11 7 12
REMARK SMILES IDX 6 13 8 14 5 15 4 16 2 17 3 18 1 19
REMARK H PARENT
REMARK Flexibility Score: inf
ROOT
ATOM      1  C   UNL     1      30.028  14.765  81.451  1.00  0.00     0.032 C 
ENDROOT
BRANCH   1   2
ATOM      2  C   UNL     1      30.874  13.898  80.549  1.00  0.00    -0.028 C 
ATOM      3  C   UNL     1      30.472  13.386  79.365  1.00  0.00    -0.077 C 
ATOM      4  C   UNL     1      31.431  12.511  78.601  1.00  0.00     0.039 C 
BRANCH   3   5
ATOM      5  C   UNL     1      29.129  13.707  78.739  1.00  0.00     0.034 C 
BRANCH   5   6
ATOM      6  C   UNL     1      28.392  12.419  78.357  1.00  0.00     0.032 C 
BRANCH   6   7
ATOM      7  C   UNL     1      27.487  11.969  79.477  1.00  0.00    -0.028 C 
ATOM      8  C   UNL     1      29.070  10.194  80.259  1.00  0.00     0.039 C 
ATOM      9  C   UNL     1      27.789  10.988  80.355  1.00  0.00    -0.080 C 
ATOM     10  C   UNL     1      26.801  10.674  81.449  1.00  0.00     0.039 C 
ENDBRANCH   6   7
ENDBRANCH   5   6
ENDBRANCH   3   5
ENDBRANCH   1   2
BRANCH   1  11
ATOM     11  C   UNL     1      29.749  14.081  82.797  1.00  0.00     0.034 C 
BRANCH  11  12
ATOM     12  C   UNL     1      28.271  13.811  82.996  1.00  0.00    -0.077 C 
ATOM     13  C   UNL     1      27.379  14.337  82.128  1.00  0.00    -0.028 C 
ATOM     14  C   UNL     1      27.826  12.958  84.161  1.00  0.00     0.039 C 
BRANCH  13  15
ATOM     15  C   UNL     1      25.890  14.129  82.250  1.00  0.00     0.035 C 
BRANCH  15  16
ATOM     16  C   UNL     1      25.122  15.420  81.945  1.00  0.00     0.079 C 
BRANCH  16  17
ATOM     17  C   UNL     1      25.594  16.030  80.654  1.00  0.00     0.130 C 
ATOM     18  O   UNL     1      25.806  17.232  80.592  1.00  0.00    -0.300 OA
ATOM     19  C   UNL     1      25.785  15.178  79.435  1.00  0.00     0.087 C 
ENDBRANCH  16  17
ENDBRANCH  15  16
ENDBRANCH  13  15
ENDBRANCH  11  12
ENDBRANCH   1  11
TORSDOF 9
ENDMDL
