MODEL 1
REMARK VINA RESULT:    -6.868      0.000      0.000
REMARK INTER + INTRA:          -7.785
REMARK INTER:                  -7.470
REMARK INTRA:                  -0.315
REMARK UNBOUND:                -0.315
REMARK SMILES C=C1C[C@]2(O)O[C@]3(C[C@H]2C(C)C)[C@@H](C)CC[C@@H]13
REMARK SMILES IDX 14 1 13 2 15 3 16 4 17 5 7 6 8 7 9 8 4 9 6 10 3 11 2 12 1 13
REMARK SMILES IDX 10 14 11 15 12 16 5 17
REMARK H PARENT 5 18
REMARK Flexibility Score: inf
ROOT
ATOM      1  C   UNL     1      29.871  18.592 -32.672  1.00  0.00     0.011 C 
ATOM      2  C   UNL     1      30.255  18.876 -31.214  1.00  0.00     0.019 C 
ATOM      3  C   UNL     1      29.280  19.834 -30.496  1.00  0.00     0.007 C 
ATOM      4  C   UNL     1      29.301  19.445 -29.003  1.00  0.00     0.011 C 
ATOM      5  C   UNL     1      30.392  18.383 -28.913  1.00  0.00     0.047 C 
ATOM      6  C   UNL     1      30.341  17.666 -30.267  1.00  0.00     0.081 C 
ATOM      7  C   UNL     1      29.159  16.659 -30.375  1.00  0.00     0.046 C 
ATOM      8  C   UNL     1      29.802  15.317 -30.022  1.00  0.00     0.054 C 
ATOM      9  C   UNL     1      31.226  15.751 -29.593  1.00  0.00     0.173 C 
ATOM     10  O   UNL     1      31.520  16.903 -30.370  1.00  0.00    -0.342 OA
ATOM     11  C   UNL     1      31.243  16.124 -28.067  1.00  0.00     0.096 C 
ATOM     12  C   UNL     1      30.403  17.364 -27.802  1.00  0.00    -0.066 C 
ATOM     13  C   UNL     1      29.904  17.618 -26.585  1.00  0.00     0.008 C 
ENDROOT
BRANCH   8  14
ATOM     14  C   UNL     1      29.752  14.255 -31.171  1.00  0.00    -0.009 C 
ATOM     15  C   UNL     1      28.564  13.299 -30.992  1.00  0.00     0.008 C 
ATOM     16  C   UNL     1      29.747  14.849 -32.591  1.00  0.00     0.008 C 
ENDBRANCH   8  14
BRANCH   9  17
ATOM     17  O   UNL     1      32.191  14.761 -29.851  1.00  0.00    -0.365 OA
ATOM     18  H   UNL     1      33.082  15.195 -29.798  1.00  0.00     0.214 HD
ENDBRANCH   9  17
TORSDOF 2
ENDMDL
MODEL 2
REMARK VINA RESULT:    -6.862      1.705      3.902
REMARK INTER + INTRA:          -7.779
REMARK INTER:                  -7.452
REMARK INTRA:                  -0.327
REMARK UNBOUND:                -0.315
REMARK SMILES C=C1C[C@]2(O)O[C@]3(C[C@H]2C(C)C)[C@@H](C)CC[C@@H]13
REMARK SMILES IDX 14 1 13 2 15 3 16 4 17 5 7 6 8 7 9 8 4 9 6 10 3 11 2 12 1 13
REMARK SMILES IDX 10 14 11 15 12 16 5 17
REMARK H PARENT 5 18
REMARK Flexibility Score: inf
ROOT
ATOM      1  C   UNL     1      30.480  15.324 -32.010  1.00  0.00     0.011 C 
ATOM      2  C   UNL     1      29.773  16.658 -32.280  1.00  0.00     0.019 C 
ATOM      3  C   UNL     1      28.430  16.503 -33.027  1.00  0.00     0.007 C 
ATOM      4  C   UNL     1      27.537  17.676 -32.573  1.00  0.00     0.011 C 
ATOM      5  C   UNL     1      28.457  18.527 -31.703  1.00  0.00     0.047 C 
ATOM      6  C   UNL     1      29.412  17.518 -31.057  1.00  0.00     0.081 C 
ATOM      7  C   UNL     1      28.763  16.741 -29.874  1.00  0.00     0.046 C 
ATOM      8  C   UNL     1      29.224  17.520 -28.642  1.00  0.00     0.054 C 
ATOM      9  C   UNL     1      29.935  18.738 -29.283  1.00  0.00     0.173 C 
ATOM     10  O   UNL     1      30.476  18.258 -30.505  1.00  0.00    -0.342 OA
ATOM     11  C   UNL     1      28.897  19.880 -29.578  1.00  0.00     0.096 C 
ATOM     12  C   UNL     1      27.904  19.449 -30.646  1.00  0.00    -0.066 C 
ATOM     13  C   UNL     1      26.702  20.030 -30.754  1.00  0.00     0.008 C 
ENDROOT
BRANCH   8  14
ATOM     14  C   UNL     1      30.101  16.692 -27.644  1.00  0.00    -0.009 C 
ATOM     15  C   UNL     1      29.402  16.536 -26.286  1.00  0.00     0.008 C 
ATOM     16  C   UNL     1      30.546  15.317 -28.174  1.00  0.00     0.008 C 
ENDBRANCH   8  14
BRANCH   9  17
ATOM     17  O   UNL     1      30.977  19.238 -28.482  1.00  0.00    -0.365 OA
ATOM     18  H   UNL     1      31.374  18.468 -27.997  1.00  0.00     0.214 HD
ENDBRANCH   9  17
TORSDOF 2
ENDMDL
MODEL 3
REMARK VINA RESULT:    -6.802      2.295      4.081
REMARK INTER + INTRA:          -7.714
REMARK INTER:                  -7.389
REMARK INTRA:                  -0.325
REMARK UNBOUND:                -0.315
REMARK SMILES C=C1C[C@]2(O)O[C@]3(C[C@H]2C(C)C)[C@@H](C)CC[C@@H]13
REMARK SMILES IDX 14 1 13 2 15 3 16 4 17 5 7 6 8 7 9 8 4 9 6 10 3 11 2 12 1 13
REMARK SMILES IDX 10 14 11 15 12 16 5 17
REMARK H PARENT 5 18
REMARK Flexibility Score: inf
ROOT
ATOM      1  C   UNL     1      29.761  15.359 -28.993  1.00  0.00     0.011 C 
ATOM      2  C   UNL     1      29.330  16.780 -28.612  1.00  0.00     0.019 C 
ATOM      3  C   UNL     1      30.475  17.634 -28.024  1.00  0.00     0.007 C 
ATOM      4  C   UNL     1      30.167  19.099 -28.396  1.00  0.00     0.011 C 
ATOM      5  C   UNL     1      28.791  19.033 -29.052  1.00  0.00     0.047 C 
ATOM      6  C   UNL     1      28.759  17.662 -29.736  1.00  0.00     0.081 C 
ATOM      7  C   UNL     1      29.562  17.632 -31.070  1.00  0.00     0.046 C 
ATOM      8  C   UNL     1      28.490  17.861 -32.136  1.00  0.00     0.054 C 
ATOM      9  C   UNL     1      27.240  18.161 -31.270  1.00  0.00     0.173 C 
ATOM     10  O   UNL     1      27.417  17.408 -30.079  1.00  0.00    -0.342 OA
ATOM     11  C   UNL     1      27.176  19.692 -30.923  1.00  0.00     0.096 C 
ATOM     12  C   UNL     1      28.333  20.093 -30.021  1.00  0.00    -0.066 C 
ATOM     13  C   UNL     1      28.751  21.364 -29.949  1.00  0.00     0.008 C 
ENDROOT
BRANCH   8  14
ATOM     14  C   UNL     1      28.324  16.679 -33.149  1.00  0.00    -0.009 C 
ATOM     15  C   UNL     1      28.655  17.124 -34.581  1.00  0.00     0.008 C 
ATOM     16  C   UNL     1      29.121  15.412 -32.789  1.00  0.00     0.008 C 
ENDBRANCH   8  14
BRANCH   9  17
ATOM     17  O   UNL     1      26.045  17.764 -31.894  1.00  0.00    -0.365 OA
ATOM     18  H   UNL     1      25.539  18.589 -32.117  1.00  0.00     0.214 HD
ENDBRANCH   9  17
TORSDOF 2
ENDMDL
MODEL 4
REMARK VINA RESULT:    -6.768      2.458      4.393
REMARK INTER + INTRA:          -7.677
REMARK INTER:                  -7.418
REMARK INTRA:                  -0.259
REMARK UNBOUND:                -0.315
REMARK SMILES C=C1C[C@]2(O)O[C@]3(C[C@H]2C(C)C)[C@@H](C)CC[C@@H]13
REMARK SMILES IDX 14 1 13 2 15 3 16 4 17 5 7 6 8 7 9 8 4 9 6 10 3 11 2 12 1 13
REMARK SMILES IDX 10 14 11 15 12 16 5 17
REMARK H PARENT 5 18
REMARK Flexibility Score: inf
ROOT
ATOM      1  C   UNL     1      28.105  21.295 -29.773  1.00  0.00     0.011 C 
ATOM      2  C   UNL     1      27.890  20.239 -30.864  1.00  0.00     0.019 C 
ATOM      3  C   UNL     1      28.785  20.448 -32.106  1.00  0.00     0.007 C 
ATOM      4  C   UNL     1      29.041  19.048 -32.702  1.00  0.00     0.011 C 
ATOM      5  C   UNL     1      28.165  18.122 -31.863  1.00  0.00     0.047 C 
ATOM      6  C   UNL     1      28.142  18.772 -30.476  1.00  0.00     0.081 C 
ATOM      7  C   UNL     1      29.447  18.519 -29.665  1.00  0.00     0.046 C 
ATOM      8  C   UNL     1      29.092  17.320 -28.786  1.00  0.00     0.054 C 
ATOM      9  C   UNL     1      27.691  16.935 -29.324  1.00  0.00     0.173 C 
ATOM     10  O   UNL     1      27.103  18.154 -29.753  1.00  0.00    -0.342 OA
ATOM     11  C   UNL     1      27.829  15.956 -30.545  1.00  0.00     0.096 C 
ATOM     12  C   UNL     1      28.482  16.654 -31.729  1.00  0.00    -0.066 C 
ATOM     13  C   UNL     1      29.099  15.958 -32.693  1.00  0.00     0.008 C 
ENDROOT
BRANCH   8  14
ATOM     14  C   UNL     1      29.154  17.607 -27.248  1.00  0.00    -0.009 C 
ATOM     15  C   UNL     1      29.804  16.440 -26.490  1.00  0.00     0.008 C 
ATOM     16  C   UNL     1      29.840  18.933 -26.872  1.00  0.00     0.008 C 
ENDBRANCH   8  14
BRANCH   9  17
ATOM     17  O   UNL     1      26.877  16.351 -28.337  1.00  0.00    -0.365 OA
ATOM     18  H   UNL     1      27.398  15.617 -27.919  1.00  0.00     0.214 HD
ENDBRANCH   9  17
TORSDOF 2
ENDMDL
MODEL 5
REMARK VINA RESULT:    -6.758      2.135      4.275
REMARK INTER + INTRA:          -7.666
REMARK INTER:                  -7.349
REMARK INTRA:                  -0.317
REMARK UNBOUND:                -0.315
REMARK SMILES C=C1C[C@]2(O)O[C@]3(C[C@H]2C(C)C)[C@@H](C)CC[C@@H]13
REMARK SMILES IDX 14 1 13 2 15 3 16 4 17 5 7 6 8 7 9 8 4 9 6 10 3 11 2 12 1 13
REMARK SMILES IDX 10 14 11 15 12 16 5 17
REMARK H PARENT 5 18
REMARK Flexibility Score: inf
ROOT
ATOM      1  C   UNL     1      30.887  17.970 -33.140  1.00  0.00     0.011 C 
ATOM      2  C   UNL     1      30.706  16.985 -31.979  1.00  0.00     0.019 C 
ATOM      3  C   UNL     1      32.020  16.664 -31.233  1.00  0.00     0.007 C 
ATOM      4  C   UNL     1      31.632  16.352 -29.773  1.00  0.00     0.011 C 
ATOM      5  C   UNL     1      30.106  16.365 -29.785  1.00  0.00     0.047 C 
ATOM      6  C   UNL     1      29.741  17.400 -30.855  1.00  0.00     0.081 C 
ATOM      7  C   UNL     1      29.900  18.867 -30.358  1.00  0.00     0.046 C 
ATOM      8  C   UNL     1      28.485  19.251 -29.925  1.00  0.00     0.054 C 
ATOM      9  C   UNL     1      27.732  17.904 -30.070  1.00  0.00     0.173 C 
ATOM     10  O   UNL     1      28.373  17.227 -31.141  1.00  0.00    -0.342 OA
ATOM     11  C   UNL     1      27.872  17.060 -28.751  1.00  0.00     0.096 C 
ATOM     12  C   UNL     1      29.315  16.635 -28.530  1.00  0.00    -0.066 C 
ATOM     13  C   UNL     1      29.765  16.310 -27.311  1.00  0.00     0.008 C 
ENDROOT
BRANCH   8  14
ATOM     14  C   UNL     1      27.866  20.444 -30.727  1.00  0.00    -0.009 C 
ATOM     15  C   UNL     1      27.452  21.588 -29.790  1.00  0.00     0.008 C 
ATOM     16  C   UNL     1      28.755  20.982 -31.862  1.00  0.00     0.008 C 
ENDBRANCH   8  14
BRANCH   9  17
ATOM     17  O   UNL     1      26.372  18.078 -30.381  1.00  0.00    -0.365 OA
ATOM     18  H   UNL     1      26.252  17.832 -31.335  1.00  0.00     0.214 HD
ENDBRANCH   9  17
TORSDOF 2
ENDMDL
MODEL 6
REMARK VINA RESULT:    -6.757      2.340      4.158
REMARK INTER + INTRA:          -7.665
REMARK INTER:                  -7.349
REMARK INTRA:                  -0.316
REMARK UNBOUND:                -0.315
REMARK SMILES C=C1C[C@]2(O)O[C@]3(C[C@H]2C(C)C)[C@@H](C)CC[C@@H]13
REMARK SMILES IDX 14 1 13 2 15 3 16 4 17 5 7 6 8 7 9 8 4 9 6 10 3 11 2 12 1 13
REMARK SMILES IDX 10 14 11 15 12 16 5 17
REMARK H PARENT 5 18
REMARK Flexibility Score: inf
ROOT
ATOM      1  C   UNL     1      28.610  15.383 -33.091  1.00  0.00     0.011 C 
ATOM      2  C   UNL     1      29.249  15.000 -31.750  1.00  0.00     0.019 C 
ATOM      3  C   UNL     1      30.794  14.970 -31.792  1.00  0.00     0.007 C 
ATOM      4  C   UNL     1      31.277  15.332 -30.372  1.00  0.00     0.011 C 
ATOM      5  C   UNL     1      29.994  15.408 -29.551  1.00  0.00     0.047 C 
ATOM      6  C   UNL     1      28.934  15.900 -30.543  1.00  0.00     0.081 C 
ATOM      7  C   UNL     1      29.027  17.430 -30.820  1.00  0.00     0.046 C 
ATOM      8  C   UNL     1      27.988  18.026 -29.870  1.00  0.00     0.054 C 
ATOM      9  C   UNL     1      27.555  16.784 -29.052  1.00  0.00     0.173 C 
ATOM     10  O   UNL     1      27.680  15.684 -29.942  1.00  0.00    -0.342 OA
ATOM     11  C   UNL     1      28.515  16.581 -27.824  1.00  0.00     0.096 C 
ATOM     12  C   UNL     1      29.920  16.226 -28.286  1.00  0.00    -0.066 C 
ATOM     13  C   UNL     1      30.985  16.435 -27.501  1.00  0.00     0.008 C 
ENDROOT
BRANCH   8  14
ATOM     14  C   UNL     1      26.821  18.788 -30.583  1.00  0.00    -0.009 C 
ATOM     15  C   UNL     1      27.084  20.300 -30.619  1.00  0.00     0.008 C 
ATOM     16  C   UNL     1      26.491  18.272 -31.996  1.00  0.00     0.008 C 
ENDBRANCH   8  14
BRANCH   9  17
ATOM     17  O   UNL     1      26.225  16.869 -28.605  1.00  0.00    -0.365 OA
ATOM     18  H   UNL     1      25.716  16.140 -29.048  1.00  0.00     0.214 HD
ENDBRANCH   9  17
TORSDOF 2
ENDMDL
MODEL 7
REMARK VINA RESULT:    -6.754      1.932      4.218
REMARK INTER + INTRA:          -7.662
REMARK INTER:                  -7.395
REMARK INTRA:                  -0.267
REMARK UNBOUND:                -0.315
REMARK SMILES C=C1C[C@]2(O)O[C@]3(C[C@H]2C(C)C)[C@@H](C)CC[C@@H]13
REMARK SMILES IDX 14 1 13 2 15 3 16 4 17 5 7 6 8 7 9 8 4 9 6 10 3 11 2 12 1 13
REMARK SMILES IDX 10 14 11 15 12 16 5 17
REMARK H PARENT 5 18
REMARK Flexibility Score: inf
ROOT
ATOM      1  C   UNL     1      26.712  16.483 -29.210  1.00  0.00     0.011 C 
ATOM      2  C   UNL     1      27.492  16.841 -30.481  1.00  0.00     0.019 C 
ATOM      3  C   UNL     1      26.771  17.875 -31.375  1.00  0.00     0.007 C 
ATOM      4  C   UNL     1      27.875  18.669 -32.105  1.00  0.00     0.011 C 
ATOM      5  C   UNL     1      29.166  17.958 -31.710  1.00  0.00     0.047 C 
ATOM      6  C   UNL     1      28.897  17.439 -30.293  1.00  0.00     0.081 C 
ATOM      7  C   UNL     1      29.000  18.552 -29.210  1.00  0.00     0.046 C 
ATOM      8  C   UNL     1      30.426  18.399 -28.678  1.00  0.00     0.054 C 
ATOM      9  C   UNL     1      31.011  17.333 -29.638  1.00  0.00     0.173 C 
ATOM     10  O   UNL     1      29.913  16.508 -30.000  1.00  0.00    -0.342 OA
ATOM     11  C   UNL     1      31.598  18.024 -30.922  1.00  0.00     0.096 C 
ATOM     12  C   UNL     1      30.494  18.671 -31.744  1.00  0.00    -0.066 C 
ATOM     13  C   UNL     1      30.758  19.663 -32.603  1.00  0.00     0.008 C 
ENDROOT
BRANCH   8  14
ATOM     14  C   UNL     1      30.512  18.038 -27.157  1.00  0.00    -0.009 C 
ATOM     15  C   UNL     1      30.477  19.300 -26.283  1.00  0.00     0.008 C 
ATOM     16  C   UNL     1      29.452  17.029 -26.678  1.00  0.00     0.008 C 
ENDBRANCH   8  14
BRANCH   9  17
ATOM     17  O   UNL     1      32.001  16.544 -29.028  1.00  0.00    -0.365 OA
ATOM     18  H   UNL     1      31.541  15.907 -28.421  1.00  0.00     0.214 HD
ENDBRANCH   9  17
TORSDOF 2
ENDMDL
MODEL 8
REMARK VINA RESULT:    -6.748      1.609      4.484
REMARK INTER + INTRA:          -7.655
REMARK INTER:                  -7.503
REMARK INTRA:                  -0.153
REMARK UNBOUND:                -0.315
REMARK SMILES C=C1C[C@]2(O)O[C@]3(C[C@H]2C(C)C)[C@@H](C)CC[C@@H]13
REMARK SMILES IDX 14 1 13 2 15 3 16 4 17 5 7 6 8 7 9 8 4 9 6 10 3 11 2 12 1 13
REMARK SMILES IDX 10 14 11 15 12 16 5 17
REMARK H PARENT 5 18
REMARK Flexibility Score: inf
ROOT
ATOM      1  C   UNL     1      29.796  18.793 -26.771  1.00  0.00     0.011 C 
ATOM      2  C   UNL     1      30.466  17.680 -27.586  1.00  0.00     0.019 C 
ATOM      3  C   UNL     1      30.136  16.259 -27.075  1.00  0.00     0.007 C 
ATOM      4  C   UNL     1      30.188  15.328 -28.303  1.00  0.00     0.011 C 
ATOM      5  C   UNL     1      30.687  16.228 -29.430  1.00  0.00     0.047 C 
ATOM      6  C   UNL     1      30.131  17.614 -29.086  1.00  0.00     0.081 C 
ATOM      7  C   UNL     1      28.620  17.763 -29.431  1.00  0.00     0.046 C 
ATOM      8  C   UNL     1      28.634  18.435 -30.805  1.00  0.00     0.054 C 
ATOM      9  C   UNL     1      30.145  18.430 -31.145  1.00  0.00     0.173 C 
ATOM     10  O   UNL     1      30.813  18.541 -29.897  1.00  0.00    -0.342 OA
ATOM     11  C   UNL     1      30.541  17.076 -31.839  1.00  0.00     0.096 C 
ATOM     12  C   UNL     1      30.394  15.910 -30.874  1.00  0.00    -0.066 C 
ATOM     13  C   UNL     1      30.238  14.656 -31.319  1.00  0.00     0.008 C 
ENDROOT
BRANCH   8  14
ATOM     14  C   UNL     1      27.951  19.843 -30.842  1.00  0.00    -0.009 C 
ATOM     15  C   UNL     1      26.421  19.721 -30.817  1.00  0.00     0.008 C 
ATOM     16  C   UNL     1      28.425  20.812 -29.743  1.00  0.00     0.008 C 
ENDBRANCH   8  14
BRANCH   9  17
ATOM     17  O   UNL     1      30.516  19.510 -31.965  1.00  0.00    -0.365 OA
ATOM     18  H   UNL     1      31.163  20.063 -31.454  1.00  0.00     0.214 HD
ENDBRANCH   9  17
TORSDOF 2
ENDMDL
MODEL 9
REMARK VINA RESULT:    -6.602      1.797      3.613
REMARK INTER + INTRA:          -7.497
REMARK INTER:                  -7.259
REMARK INTRA:                  -0.238
REMARK UNBOUND:                -0.315
REMARK SMILES C=C1C[C@]2(O)O[C@]3(C[C@H]2C(C)C)[C@@H](C)CC[C@@H]13
REMARK SMILES IDX 14 1 13 2 15 3 16 4 17 5 7 6 8 7 9 8 4 9 6 10 3 11 2 12 1 13
REMARK SMILES IDX 10 14 11 15 12 16 5 17
REMARK H PARENT 5 18
REMARK Flexibility Score: inf
ROOT
ATOM      1  C   UNL     1      27.128  18.870 -30.494  1.00  0.00     0.011 C 
ATOM      2  C   UNL     1      28.141  18.516 -31.590  1.00  0.00     0.019 C 
ATOM      3  C   UNL     1      28.865  19.746 -32.180  1.00  0.00     0.007 C 
ATOM      4  C   UNL     1      30.260  19.262 -32.626  1.00  0.00     0.011 C 
ATOM      5  C   UNL     1      30.217  17.753 -32.406  1.00  0.00     0.047 C 
ATOM      6  C   UNL     1      29.290  17.569 -31.200  1.00  0.00     0.081 C 
ATOM      7  C   UNL     1      29.984  17.898 -29.846  1.00  0.00     0.046 C 
ATOM      8  C   UNL     1      30.434  16.529 -29.336  1.00  0.00     0.054 C 
ATOM      9  C   UNL     1      30.092  15.614 -30.538  1.00  0.00     0.173 C 
ATOM     10  O   UNL     1      28.953  16.203 -31.148  1.00  0.00    -0.342 OA
ATOM     11  C   UNL     1      31.286  15.590 -31.559  1.00  0.00     0.096 C 
ATOM     12  C   UNL     1      31.479  16.955 -32.200  1.00  0.00    -0.066 C 
ATOM     13  C   UNL     1      32.653  17.310 -32.739  1.00  0.00     0.008 C 
ENDROOT
BRANCH   8  14
ATOM     14  C   UNL     1      29.788  16.103 -27.975  1.00  0.00    -0.009 C 
ATOM     15  C   UNL     1      30.809  15.393 -27.073  1.00  0.00     0.008 C 
ATOM     16  C   UNL     1      29.105  17.247 -27.205  1.00  0.00     0.008 C 
ENDBRANCH   8  14
BRANCH   9  17
ATOM     17  O   UNL     1      29.777  14.301 -30.143  1.00  0.00    -0.365 OA
ATOM     18  H   UNL     1      28.813  14.158 -30.329  1.00  0.00     0.214 HD
ENDBRANCH   9  17
TORSDOF 2
ENDMDL
