MODEL 1
REMARK VINA RESULT:    -4.316      0.000      0.000
REMARK INTER + INTRA:          -7.192
REMARK INTER:                  -6.587
REMARK INTRA:                  -0.605
REMARK UNBOUND:                -0.605
REMARK SMILES O=C([O-])CCCCCCCCC(=O)[O-]
REMARK SMILES IDX 7 1 6 2 5 3 4 4 2 5 1 6 3 7 8 8 9 9 10 10 11 11 12 12 13 13
REMARK SMILES IDX 14 14
REMARK H PARENT
REMARK Flexibility Score: inf
ROOT
ATOM      1  C   UNL     1      -1.754   5.637  -8.422  1.00  0.00     0.000 C 
ENDROOT
BRANCH   1   2
ATOM      2  C   UNL     1      -0.539   5.005  -9.116  1.00  0.00     0.000 C 
BRANCH   2   3
ATOM      3  C   UNL     1      -0.721   3.489  -9.269  1.00  0.00     0.006 C 
BRANCH   3   4
ATOM      4  C   UNL     1      -0.929   2.820  -7.907  1.00  0.00     0.053 C 
BRANCH   4   5
ATOM      5  C   UNL     1       0.067   1.723  -7.705  1.00  0.00     0.041 C 
ATOM      6  O   UNL     1       0.393   1.370  -6.541  1.00  0.00    -0.550 OA
ATOM      7  O   UNL     1       0.674   1.123  -8.802  1.00  0.00    -0.550 OA
ENDBRANCH   4   5
ENDBRANCH   3   4
ENDBRANCH   2   3
ENDBRANCH   1   2
BRANCH   1   8
ATOM      8  C   UNL     1      -2.505   6.627  -9.328  1.00  0.00     0.000 C 
BRANCH   8   9
ATOM      9  C   UNL     1      -3.915   6.140  -9.696  1.00  0.00     0.000 C 
BRANCH   9  10
ATOM     10  C   UNL     1      -4.202   4.770  -9.073  1.00  0.00     0.006 C 
BRANCH  10  11
ATOM     11  C   UNL     1      -5.430   4.119  -9.717  1.00  0.00     0.053 C 
BRANCH  11  12
ATOM     12  C   UNL     1      -5.966   3.031  -8.842  1.00  0.00     0.041 C 
ATOM     13  O   UNL     1      -6.685   3.313  -7.848  1.00  0.00    -0.550 OA
ATOM     14  O   UNL     1      -5.716   1.701  -9.154  1.00  0.00    -0.550 OA
ENDBRANCH  11  12
ENDBRANCH  10  11
ENDBRANCH   9  10
ENDBRANCH   8   9
ENDBRANCH   1   8
TORSDOF 9
ENDMDL
MODEL 2
REMARK VINA RESULT:    -4.252      1.013      5.480
REMARK INTER + INTRA:          -7.094
REMARK INTER:                  -6.366
REMARK INTRA:                  -0.727
REMARK UNBOUND:                -0.605
REMARK SMILES O=C([O-])CCCCCCCCC(=O)[O-]
REMARK SMILES IDX 7 1 6 2 5 3 4 4 2 5 1 6 3 7 8 8 9 9 10 10 11 11 12 12 13 13
REMARK SMILES IDX 14 14
REMARK H PARENT
REMARK Flexibility Score: inf
ROOT
ATOM      1  C   UNL     1      -3.424   4.981  -8.743  1.00  0.00     0.000 C 
ENDROOT
BRANCH   1   2
ATOM      2  C   UNL     1      -4.387   5.662  -9.725  1.00  0.00     0.000 C 
BRANCH   2   3
ATOM      3  C   UNL     1      -5.330   4.636 -10.369  1.00  0.00     0.006 C 
BRANCH   3   4
ATOM      4  C   UNL     1      -4.862   3.206 -10.087  1.00  0.00     0.053 C 
BRANCH   4   5
ATOM      5  C   UNL     1      -5.966   2.405  -9.474  1.00  0.00     0.041 C 
ATOM      6  O   UNL     1      -6.471   1.437 -10.101  1.00  0.00    -0.550 OA
ATOM      7  O   UNL     1      -6.473   2.757  -8.228  1.00  0.00    -0.550 OA
ENDBRANCH   4   5
ENDBRANCH   3   4
ENDBRANCH   2   3
ENDBRANCH   1   2
BRANCH   1   8
ATOM      8  C   UNL     1      -2.032   5.635  -8.729  1.00  0.00     0.000 C 
BRANCH   8   9
ATOM      9  C   UNL     1      -0.909   4.631  -8.424  1.00  0.00     0.000 C 
BRANCH   9  10
ATOM     10  C   UNL     1      -1.456   3.201  -8.356  1.00  0.00     0.006 C 
BRANCH  10  11
ATOM     11  C   UNL     1      -0.923   2.353  -9.515  1.00  0.00     0.053 C 
BRANCH  11  12
ATOM     12  C   UNL     1       0.405   1.760  -9.164  1.00  0.00     0.041 C 
ATOM     13  O   UNL     1       1.396   1.935  -9.919  1.00  0.00    -0.550 OA
ATOM     14  O   UNL     1       0.560   1.056  -7.976  1.00  0.00    -0.550 OA
ENDBRANCH  11  12
ENDBRANCH  10  11
ENDBRANCH   9  10
ENDBRANCH   8   9
ENDBRANCH   1   8
TORSDOF 9
ENDMDL
MODEL 3
REMARK VINA RESULT:    -4.242      0.799      1.168
REMARK INTER + INTRA:          -7.080
REMARK INTER:                  -6.236
REMARK INTRA:                  -0.843
REMARK UNBOUND:                -0.605
REMARK SMILES O=C([O-])CCCCCCCCC(=O)[O-]
REMARK SMILES IDX 7 1 6 2 5 3 4 4 2 5 1 6 3 7 8 8 9 9 10 10 11 11 12 12 13 13
REMARK SMILES IDX 14 14
REMARK H PARENT
REMARK Flexibility Score: inf
ROOT
ATOM      1  C   UNL     1      -1.961   5.616  -8.428  1.00  0.00     0.000 C 
ENDROOT
BRANCH   1   2
ATOM      2  C   UNL     1      -0.558   5.230  -8.919  1.00  0.00     0.000 C 
BRANCH   2   3
ATOM      3  C   UNL     1      -0.623   4.044  -9.890  1.00  0.00     0.006 C 
BRANCH   3   4
ATOM      4  C   UNL     1      -1.066   2.768  -9.170  1.00  0.00     0.053 C 
BRANCH   4   5
ATOM      5  C   UNL     1       0.116   2.046  -8.607  1.00  0.00     0.041 C 
ATOM      6  O   UNL     1       1.041   1.655  -9.367  1.00  0.00    -0.550 OA
ATOM      7  O   UNL     1       0.175   1.759  -7.248  1.00  0.00    -0.550 OA
ENDBRANCH   4   5
ENDBRANCH   3   4
ENDBRANCH   2   3
ENDBRANCH   1   2
BRANCH   1   8
ATOM      8  C   UNL     1      -2.804   6.297  -9.518  1.00  0.00     0.000 C 
BRANCH   8   9
ATOM      9  C   UNL     1      -4.196   5.665  -9.671  1.00  0.00     0.000 C 
BRANCH   9  10
ATOM     10  C   UNL     1      -4.335   4.422  -8.784  1.00  0.00     0.006 C 
BRANCH  10  11
ATOM     11  C   UNL     1      -4.649   3.180  -9.623  1.00  0.00     0.053 C 
BRANCH  11  12
ATOM     12  C   UNL     1      -5.953   2.579  -9.202  1.00  0.00     0.041 C 
ATOM     13  O   UNL     1      -6.545   3.004  -8.176  1.00  0.00    -0.550 OA
ATOM     14  O   UNL     1      -6.540   1.583  -9.972  1.00  0.00    -0.550 OA
ENDBRANCH  11  12
ENDBRANCH  10  11
ENDBRANCH   9  10
ENDBRANCH   8   9
ENDBRANCH   1   8
TORSDOF 9
ENDMDL
MODEL 4
REMARK VINA RESULT:    -4.081      1.420      2.082
REMARK INTER + INTRA:          -6.833
REMARK INTER:                  -5.874
REMARK INTRA:                  -0.959
REMARK UNBOUND:                -0.605
REMARK SMILES O=C([O-])CCCCCCCCC(=O)[O-]
REMARK SMILES IDX 7 1 6 2 5 3 4 4 2 5 1 6 3 7 8 8 9 9 10 10 11 11 12 12 13 13
REMARK SMILES IDX 14 14
REMARK H PARENT
REMARK Flexibility Score: inf
ROOT
ATOM      1  C   UNL     1      -3.310   4.699  -8.841  1.00  0.00     0.000 C 
ENDROOT
BRANCH   1   2
ATOM      2  C   UNL     1      -2.007   5.450  -8.533  1.00  0.00     0.000 C 
BRANCH   2   3
ATOM      3  C   UNL     1      -0.784   4.578  -8.847  1.00  0.00     0.006 C 
BRANCH   3   4
ATOM      4  C   UNL     1      -0.839   3.255  -8.079  1.00  0.00     0.053 C 
BRANCH   4   5
ATOM      5  C   UNL     1      -0.354   2.131  -8.937  1.00  0.00     0.041 C 
ATOM      6  O   UNL     1      -0.797   1.988 -10.107  1.00  0.00    -0.550 OA
ATOM      7  O   UNL     1       0.553   1.208  -8.428  1.00  0.00    -0.550 OA
ENDBRANCH   4   5
ENDBRANCH   3   4
ENDBRANCH   2   3
ENDBRANCH   1   2
BRANCH   1   8
ATOM      8  C   UNL     1      -3.627   4.653 -10.345  1.00  0.00     0.000 C 
BRANCH   8   9
ATOM      9  C   UNL     1      -3.920   3.231 -10.846  1.00  0.00     0.000 C 
BRANCH   9  10
ATOM     10  C   UNL     1      -4.324   2.314  -9.686  1.00  0.00     0.006 C 
BRANCH  10  11
ATOM     11  C   UNL     1      -5.759   1.808  -9.859  1.00  0.00     0.053 C 
BRANCH  11  12
ATOM     12  C   UNL     1      -6.735   2.801  -9.312  1.00  0.00     0.041 C 
ATOM     13  O   UNL     1      -6.508   3.372  -8.214  1.00  0.00    -0.550 OA
ATOM     14  O   UNL     1      -7.870   3.133 -10.039  1.00  0.00    -0.550 OA
ENDBRANCH  11  12
ENDBRANCH  10  11
ENDBRANCH   9  10
ENDBRANCH   8   9
ENDBRANCH   1   8
TORSDOF 9
ENDMDL
MODEL 5
REMARK VINA RESULT:    -3.851      2.517      5.197
REMARK INTER + INTRA:          -6.482
REMARK INTER:                  -5.731
REMARK INTRA:                  -0.750
REMARK UNBOUND:                -0.605
REMARK SMILES O=C([O-])CCCCCCCCC(=O)[O-]
REMARK SMILES IDX 7 1 6 2 5 3 4 4 2 5 1 6 3 7 8 8 9 9 10 10 11 11 12 12 13 13
REMARK SMILES IDX 14 14
REMARK H PARENT
REMARK Flexibility Score: inf
ROOT
ATOM      1  C   UNL     1      -1.468   1.501 -10.988  1.00  0.00     0.000 C 
ENDROOT
BRANCH   1   2
ATOM      2  C   UNL     1      -2.600   2.419 -11.470  1.00  0.00     0.000 C 
BRANCH   2   3
ATOM      3  C   UNL     1      -3.965   1.903 -10.998  1.00  0.00     0.006 C 
BRANCH   3   4
ATOM      4  C   UNL     1      -4.363   2.542  -9.665  1.00  0.00     0.053 C 
BRANCH   4   5
ATOM      5  C   UNL     1      -5.705   2.048  -9.227  1.00  0.00     0.041 C 
ATOM      6  O   UNL     1      -6.488   1.519 -10.059  1.00  0.00    -0.550 OA
ATOM      7  O   UNL     1      -6.113   2.218  -7.909  1.00  0.00    -0.550 OA
ENDBRANCH   4   5
ENDBRANCH   3   4
ENDBRANCH   2   3
ENDBRANCH   1   2
BRANCH   1   8
ATOM      8  C   UNL     1      -0.212   2.281 -10.566  1.00  0.00     0.000 C 
BRANCH   8   9
ATOM      9  C   UNL     1      -0.001   2.286  -9.044  1.00  0.00     0.000 C 
BRANCH   9  10
ATOM     10  C   UNL     1      -1.136   3.033  -8.336  1.00  0.00     0.006 C 
BRANCH  10  11
ATOM     11  C   UNL     1      -0.875   4.543  -8.319  1.00  0.00     0.053 C 
BRANCH  11  12
ATOM     12  C   UNL     1      -2.002   5.277  -8.974  1.00  0.00     0.041 C 
ATOM     13  O   UNL     1      -3.035   5.568  -8.317  1.00  0.00    -0.550 OA
ATOM     14  O   UNL     1      -1.891   5.684 -10.297  1.00  0.00    -0.550 OA
ENDBRANCH  11  12
ENDBRANCH  10  11
ENDBRANCH   9  10
ENDBRANCH   8   9
ENDBRANCH   1   8
TORSDOF 9
ENDMDL
MODEL 6
REMARK VINA RESULT:    -3.769      1.989      5.865
REMARK INTER + INTRA:          -6.358
REMARK INTER:                  -5.742
REMARK INTRA:                  -0.615
REMARK UNBOUND:                -0.605
REMARK SMILES O=C([O-])CCCCCCCCC(=O)[O-]
REMARK SMILES IDX 7 1 6 2 5 3 4 4 2 5 1 6 3 7 8 8 9 9 10 10 11 11 12 12 13 13
REMARK SMILES IDX 14 14
REMARK H PARENT
REMARK Flexibility Score: inf
ROOT
ATOM      1  C   UNL     1      -2.545   3.006  -8.838  1.00  0.00     0.000 C 
ENDROOT
BRANCH   1   2
ATOM      2  C   UNL     1      -3.187   3.892  -9.915  1.00  0.00     0.000 C 
BRANCH   2   3
ATOM      3  C   UNL     1      -4.355   4.700  -9.336  1.00  0.00     0.006 C 
BRANCH   3   4
ATOM      4  C   UNL     1      -5.699   4.151  -9.822  1.00  0.00     0.053 C 
BRANCH   4   5
ATOM      5  C   UNL     1      -6.145   3.016  -8.957  1.00  0.00     0.041 C 
ATOM      6  O   UNL     1      -6.120   1.836  -9.396  1.00  0.00    -0.550 OA
ATOM      7  O   UNL     1      -6.636   3.265  -7.681  1.00  0.00    -0.550 OA
ENDBRANCH   4   5
ENDBRANCH   3   4
ENDBRANCH   2   3
ENDBRANCH   1   2
BRANCH   1   8
ATOM      8  C   UNL     1      -1.185   3.542  -8.363  1.00  0.00     0.000 C 
BRANCH   8   9
ATOM      9  C   UNL     1      -0.278   2.438  -7.797  1.00  0.00     0.000 C 
BRANCH   9  10
ATOM     10  C   UNL     1       0.142   1.457  -8.897  1.00  0.00     0.006 C 
BRANCH  10  11
ATOM     11  C   UNL     1       0.856   2.184 -10.040  1.00  0.00     0.053 C 
BRANCH  11  12
ATOM     12  C   UNL     1       0.252   1.811 -11.357  1.00  0.00     0.041 C 
ATOM     13  O   UNL     1       0.902   1.978 -12.422  1.00  0.00    -0.550 OA
ATOM     14  O   UNL     1      -1.009   1.232 -11.405  1.00  0.00    -0.550 OA
ENDBRANCH  11  12
ENDBRANCH  10  11
ENDBRANCH   9  10
ENDBRANCH   8   9
ENDBRANCH   1   8
TORSDOF 9
ENDMDL
MODEL 7
REMARK VINA RESULT:    -3.756      1.538      5.502
REMARK INTER + INTRA:          -6.338
REMARK INTER:                  -5.574
REMARK INTRA:                  -0.764
REMARK UNBOUND:                -0.605
REMARK SMILES O=C([O-])CCCCCCCCC(=O)[O-]
REMARK SMILES IDX 7 1 6 2 5 3 4 4 2 5 1 6 3 7 8 8 9 9 10 10 11 11 12 12 13 13
REMARK SMILES IDX 14 14
REMARK H PARENT
REMARK Flexibility Score: inf
ROOT
ATOM      1  C   UNL     1      -3.152   4.354 -10.695  1.00  0.00     0.000 C 
ENDROOT
BRANCH   1   2
ATOM      2  C   UNL     1      -4.045   3.215 -11.207  1.00  0.00     0.000 C 
BRANCH   2   3
ATOM      3  C   UNL     1      -4.277   2.166 -10.113  1.00  0.00     0.006 C 
BRANCH   3   4
ATOM      4  C   UNL     1      -5.740   1.714 -10.085  1.00  0.00     0.053 C 
BRANCH   4   5
ATOM      5  C   UNL     1      -6.597   2.752  -9.433  1.00  0.00     0.041 C 
ATOM      6  O   UNL     1      -7.351   3.481 -10.129  1.00  0.00    -0.550 OA
ATOM      7  O   UNL     1      -6.526   2.950  -8.059  1.00  0.00    -0.550 OA
ENDBRANCH   4   5
ENDBRANCH   3   4
ENDBRANCH   2   3
ENDBRANCH   1   2
BRANCH   1   8
ATOM      8  C   UNL     1      -3.206   4.510  -9.167  1.00  0.00     0.000 C 
BRANCH   8   9
ATOM      9  C   UNL     1      -2.138   5.475  -8.631  1.00  0.00     0.000 C 
BRANCH   9  10
ATOM     10  C   UNL     1      -0.781   4.774  -8.501  1.00  0.00     0.006 C 
BRANCH  10  11
ATOM     11  C   UNL     1      -0.955   3.310  -8.086  1.00  0.00     0.053 C 
BRANCH  11  12
ATOM     12  C   UNL     1      -0.114   2.418  -8.943  1.00  0.00     0.041 C 
ATOM     13  O   UNL     1       0.488   1.435  -8.435  1.00  0.00    -0.550 OA
ATOM     14  O   UNL     1      -0.035   2.641 -10.311  1.00  0.00    -0.550 OA
ENDBRANCH  11  12
ENDBRANCH  10  11
ENDBRANCH   9  10
ENDBRANCH   8   9
ENDBRANCH   1   8
TORSDOF 9
ENDMDL
MODEL 8
REMARK VINA RESULT:    -3.696      2.395      5.569
REMARK INTER + INTRA:          -6.246
REMARK INTER:                  -5.397
REMARK INTRA:                  -0.849
REMARK UNBOUND:                -0.605
REMARK SMILES O=C([O-])CCCCCCCCC(=O)[O-]
REMARK SMILES IDX 7 1 6 2 5 3 4 4 2 5 1 6 3 7 8 8 9 9 10 10 11 11 12 12 13 13
REMARK SMILES IDX 14 14
REMARK H PARENT
REMARK Flexibility Score: inf
ROOT
ATOM      1  C   UNL     1      -0.874   3.791  -8.785  1.00  0.00     0.000 C 
ENDROOT
BRANCH   1   2
ATOM      2  C   UNL     1      -2.387   4.046  -8.727  1.00  0.00     0.000 C 
BRANCH   2   3
ATOM      3  C   UNL     1      -3.169   2.831  -9.239  1.00  0.00     0.006 C 
BRANCH   3   4
ATOM      4  C   UNL     1      -4.267   3.255 -10.218  1.00  0.00     0.053 C 
BRANCH   4   5
ATOM      5  C   UNL     1      -5.594   2.723  -9.779  1.00  0.00     0.041 C 
ATOM      6  O   UNL     1      -6.658   3.238 -10.214  1.00  0.00    -0.550 OA
ATOM      7  O   UNL     1      -5.659   1.691  -8.851  1.00  0.00    -0.550 OA
ENDBRANCH   4   5
ENDBRANCH   3   4
ENDBRANCH   2   3
ENDBRANCH   1   2
BRANCH   1   8
ATOM      8  C   UNL     1      -0.449   2.558  -7.970  1.00  0.00     0.000 C 
BRANCH   8   9
ATOM      9  C   UNL     1       0.222   1.479  -8.833  1.00  0.00     0.000 C 
BRANCH   9  10
ATOM     10  C   UNL     1       0.942   2.106 -10.032  1.00  0.00     0.006 C 
BRANCH  10  11
ATOM     11  C   UNL     1       0.658   1.322 -11.317  1.00  0.00     0.053 C 
BRANCH  11  12
ATOM     12  C   UNL     1      -0.741   1.571 -11.785  1.00  0.00     0.041 C 
ATOM     13  O   UNL     1      -1.080   2.714 -12.187  1.00  0.00    -0.550 OA
ATOM     14  O   UNL     1      -1.657   0.528 -11.825  1.00  0.00    -0.550 OA
ENDBRANCH  11  12
ENDBRANCH  10  11
ENDBRANCH   9  10
ENDBRANCH   8   9
ENDBRANCH   1   8
TORSDOF 9
ENDMDL
MODEL 9
REMARK VINA RESULT:    -3.551      2.509      3.327
REMARK INTER + INTRA:          -6.025
REMARK INTER:                  -5.383
REMARK INTRA:                  -0.642
REMARK UNBOUND:                -0.605
REMARK SMILES O=C([O-])CCCCCCCCC(=O)[O-]
REMARK SMILES IDX 7 1 6 2 5 3 4 4 2 5 1 6 3 7 8 8 9 9 10 10 11 11 12 12 13 13
REMARK SMILES IDX 14 14
REMARK H PARENT
REMARK Flexibility Score: inf
ROOT
ATOM      1  C   UNL     1      -0.383   3.218  -8.899  1.00  0.00     0.000 C 
ENDROOT
BRANCH   1   2
ATOM      2  C   UNL     1       0.168   1.814  -9.187  1.00  0.00     0.000 C 
BRANCH   2   3
ATOM      3  C   UNL     1       0.864   1.767 -10.553  1.00  0.00     0.006 C 
BRANCH   3   4
ATOM      4  C   UNL     1       0.180   0.764 -11.485  1.00  0.00     0.053 C 
BRANCH   4   5
ATOM      5  C   UNL     1      -1.118   1.313 -11.985  1.00  0.00     0.041 C 
ATOM      6  O   UNL     1      -2.166   0.618 -11.925  1.00  0.00    -0.550 OA
ATOM      7  O   UNL     1      -1.163   2.576 -12.564  1.00  0.00    -0.550 OA
ENDBRANCH   4   5
ENDBRANCH   3   4
ENDBRANCH   2   3
ENDBRANCH   1   2
BRANCH   1   8
ATOM      8  C   UNL     1      -1.839   3.195  -8.407  1.00  0.00     0.000 C 
BRANCH   8   9
ATOM      9  C   UNL     1      -2.849   3.466  -9.533  1.00  0.00     0.000 C 
BRANCH   9  10
ATOM     10  C   UNL     1      -4.158   4.033  -8.970  1.00  0.00     0.006 C 
BRANCH  10  11
ATOM     11  C   UNL     1      -5.356   3.599  -9.820  1.00  0.00     0.053 C 
BRANCH  11  12
ATOM     12  C   UNL     1      -5.738   2.187  -9.505  1.00  0.00     0.041 C 
ATOM     13  O   UNL     1      -5.994   1.378 -10.434  1.00  0.00    -0.550 OA
ATOM     14  O   UNL     1      -5.762   1.751  -8.186  1.00  0.00    -0.550 OA
ENDBRANCH  11  12
ENDBRANCH  10  11
ENDBRANCH   9  10
ENDBRANCH   8   9
ENDBRANCH   1   8
TORSDOF 9
ENDMDL
