MODEL 1
REMARK VINA RESULT:    -4.675      0.000      0.000
REMARK INTER + INTRA:          -4.675
REMARK INTER:                  -4.675
REMARK INTRA:                   0.000
REMARK UNBOUND:                 0.000
REMARK SMILES c1ccc2ccccc2c1
REMARK SMILES IDX 2 1 1 2 10 3 9 4 8 5 7 6 6 7 5 8 4 9 3 10
REMARK H PARENT
REMARK Flexibility Score: inf
ROOT
ATOM      1  C   UNL     1    -115.144  11.100  23.482  1.00  0.00     0.001 A 
ATOM      2  C   UNL     1    -115.512  10.774  22.174  1.00  0.00     0.001 A 
ATOM      3  C   UNL     1    -116.456  11.549  21.494  1.00  0.00     0.009 A 
ATOM      4  C   UNL     1    -117.039  12.661  22.122  1.00  0.00    -0.018 A 
ATOM      5  C   UNL     1    -117.987  13.448  21.452  1.00  0.00     0.009 A 
ATOM      6  C   UNL     1    -118.561  14.552  22.090  1.00  0.00     0.001 A 
ATOM      7  C   UNL     1    -118.192  14.877  23.398  1.00  0.00     0.001 A 
ATOM      8  C   UNL     1    -117.249  14.102  24.078  1.00  0.00     0.009 A 
ATOM      9  C   UNL     1    -116.665  12.991  23.450  1.00  0.00    -0.018 A 
ATOM     10  C   UNL     1    -115.717  12.203  24.120  1.00  0.00     0.009 A 
ENDROOT
TORSDOF 0
ENDMDL
MODEL 2
REMARK VINA RESULT:    -4.673      0.024      3.436
REMARK INTER + INTRA:          -4.673
REMARK INTER:                  -4.673
REMARK INTRA:                   0.000
REMARK UNBOUND:                 0.000
REMARK SMILES c1ccc2ccccc2c1
REMARK SMILES IDX 2 1 1 2 10 3 9 4 8 5 7 6 6 7 5 8 4 9 3 10
REMARK H PARENT
REMARK Flexibility Score: inf
ROOT
ATOM      1  C   UNL     1    -118.229  14.863  23.392  1.00  0.00     0.001 A 
ATOM      2  C   UNL     1    -118.592  14.533  22.084  1.00  0.00     0.001 A 
ATOM      3  C   UNL     1    -118.009  13.435  21.445  1.00  0.00     0.009 A 
ATOM      4  C   UNL     1    -117.053  12.656  22.116  1.00  0.00    -0.018 A 
ATOM      5  C   UNL     1    -116.459  11.551  21.489  1.00  0.00     0.009 A 
ATOM      6  C   UNL     1    -115.508  10.784  22.169  1.00  0.00     0.001 A 
ATOM      7  C   UNL     1    -115.145  11.114  23.477  1.00  0.00     0.001 A 
ATOM      8  C   UNL     1    -115.729  12.212  24.116  1.00  0.00     0.009 A 
ATOM      9  C   UNL     1    -116.685  12.991  23.444  1.00  0.00    -0.018 A 
ATOM     10  C   UNL     1    -117.278  14.096  24.072  1.00  0.00     0.009 A 
ENDROOT
TORSDOF 0
ENDMDL
MODEL 3
REMARK VINA RESULT:    -4.669      0.102      2.083
REMARK INTER + INTRA:          -4.669
REMARK INTER:                  -4.669
REMARK INTRA:                   0.000
REMARK UNBOUND:                 0.000
REMARK SMILES c1ccc2ccccc2c1
REMARK SMILES IDX 2 1 1 2 10 3 9 4 8 5 7 6 6 7 5 8 4 9 3 10
REMARK H PARENT
REMARK Flexibility Score: inf
ROOT
ATOM      1  C   UNL     1    -115.520  10.761  22.173  1.00  0.00     0.001 A 
ATOM      2  C   UNL     1    -115.199  11.102  23.489  1.00  0.00     0.001 A 
ATOM      3  C   UNL     1    -115.800  12.208  24.097  1.00  0.00     0.009 A 
ATOM      4  C   UNL     1    -116.731  12.983  23.387  1.00  0.00    -0.018 A 
ATOM      5  C   UNL     1    -117.343  14.095  23.984  1.00  0.00     0.009 A 
ATOM      6  C   UNL     1    -118.268  14.858  23.265  1.00  0.00     0.001 A 
ATOM      7  C   UNL     1    -118.588  14.516  21.948  1.00  0.00     0.001 A 
ATOM      8  C   UNL     1    -117.987  13.410  21.341  1.00  0.00     0.009 A 
ATOM      9  C   UNL     1    -117.057  12.636  22.051  1.00  0.00    -0.018 A 
ATOM     10  C   UNL     1    -116.445  11.523  21.454  1.00  0.00     0.009 A 
ENDROOT
TORSDOF 0
ENDMDL
MODEL 4
REMARK VINA RESULT:    -4.666      0.061      4.018
REMARK INTER + INTRA:          -4.666
REMARK INTER:                  -4.666
REMARK INTRA:                   0.000
REMARK UNBOUND:                 0.000
REMARK SMILES c1ccc2ccccc2c1
REMARK SMILES IDX 2 1 1 2 10 3 9 4 8 5 7 6 6 7 5 8 4 9 3 10
REMARK H PARENT
REMARK Flexibility Score: inf
ROOT
ATOM      1  C   UNL     1    -118.567  14.510  22.068  1.00  0.00     0.001 A 
ATOM      2  C   UNL     1    -118.194  14.827  23.376  1.00  0.00     0.001 A 
ATOM      3  C   UNL     1    -117.244  14.051  24.047  1.00  0.00     0.009 A 
ATOM      4  C   UNL     1    -116.659  12.947  23.408  1.00  0.00    -0.018 A 
ATOM      5  C   UNL     1    -115.704  12.159  24.069  1.00  0.00     0.009 A 
ATOM      6  C   UNL     1    -115.130  11.061  23.420  1.00  0.00     0.001 A 
ATOM      7  C   UNL     1    -115.503  10.744  22.112  1.00  0.00     0.001 A 
ATOM      8  C   UNL     1    -116.453  11.520  21.442  1.00  0.00     0.009 A 
ATOM      9  C   UNL     1    -117.038  12.624  22.080  1.00  0.00    -0.018 A 
ATOM     10  C   UNL     1    -117.993  13.412  21.420  1.00  0.00     0.009 A 
ENDROOT
TORSDOF 0
ENDMDL
MODEL 5
REMARK VINA RESULT:    -4.556      0.917      3.431
REMARK INTER + INTRA:          -4.556
REMARK INTER:                  -4.556
REMARK INTRA:                   0.000
REMARK UNBOUND:                 0.000
REMARK SMILES c1ccc2ccccc2c1
REMARK SMILES IDX 2 1 1 2 10 3 9 4 8 5 7 6 6 7 5 8 4 9 3 10
REMARK H PARENT
REMARK Flexibility Score: inf
ROOT
ATOM      1  C   UNL     1    -117.801  14.341  23.986  1.00  0.00     0.001 A 
ATOM      2  C   UNL     1    -118.529  14.863  22.913  1.00  0.00     0.001 A 
ATOM      3  C   UNL     1    -118.437  14.276  21.648  1.00  0.00     0.009 A 
ATOM      4  C   UNL     1    -117.613  13.157  21.448  1.00  0.00    -0.018 A 
ATOM      5  C   UNL     1    -117.512  12.557  20.184  1.00  0.00     0.009 A 
ATOM      6  C   UNL     1    -116.687  11.444  20.000  1.00  0.00     0.001 A 
ATOM      7  C   UNL     1    -115.960  10.922  21.073  1.00  0.00     0.001 A 
ATOM      8  C   UNL     1    -116.051  11.509  22.338  1.00  0.00     0.009 A 
ATOM      9  C   UNL     1    -116.875  12.628  22.538  1.00  0.00    -0.018 A 
ATOM     10  C   UNL     1    -116.976  13.228  23.802  1.00  0.00     0.009 A 
ENDROOT
TORSDOF 0
ENDMDL
MODEL 6
REMARK VINA RESULT:    -4.520      0.925      2.633
REMARK INTER + INTRA:          -4.520
REMARK INTER:                  -4.520
REMARK INTRA:                   0.000
REMARK UNBOUND:                 0.000
REMARK SMILES c1ccc2ccccc2c1
REMARK SMILES IDX 2 1 1 2 10 3 9 4 8 5 7 6 6 7 5 8 4 9 3 10
REMARK H PARENT
REMARK Flexibility Score: inf
ROOT
ATOM      1  C   UNL     1    -117.099  11.866  19.560  1.00  0.00     0.001 A 
ATOM      2  C   UNL     1    -116.295  11.153  20.454  1.00  0.00     0.001 A 
ATOM      3  C   UNL     1    -116.224  11.535  21.796  1.00  0.00     0.009 A 
ATOM      4  C   UNL     1    -116.960  12.639  22.255  1.00  0.00    -0.018 A 
ATOM      5  C   UNL     1    -116.899  13.033  23.600  1.00  0.00     0.009 A 
ATOM      6  C   UNL     1    -117.638  14.134  24.042  1.00  0.00     0.001 A 
ATOM      7  C   UNL     1    -118.442  14.847  23.149  1.00  0.00     0.001 A 
ATOM      8  C   UNL     1    -118.513  14.465  21.806  1.00  0.00     0.009 A 
ATOM      9  C   UNL     1    -117.776  13.361  21.348  1.00  0.00    -0.018 A 
ATOM     10  C   UNL     1    -117.838  12.967  20.003  1.00  0.00     0.009 A 
ENDROOT
TORSDOF 0
ENDMDL
MODEL 7
REMARK VINA RESULT:    -4.506      0.929      2.037
REMARK INTER + INTRA:          -4.506
REMARK INTER:                  -4.506
REMARK INTRA:                   0.000
REMARK UNBOUND:                 0.000
REMARK SMILES c1ccc2ccccc2c1
REMARK SMILES IDX 2 1 1 2 10 3 9 4 8 5 7 6 6 7 5 8 4 9 3 10
REMARK H PARENT
REMARK Flexibility Score: inf
ROOT
ATOM      1  C   UNL     1    -116.335  11.195  20.508  1.00  0.00     0.001 A 
ATOM      2  C   UNL     1    -117.144  11.903  19.615  1.00  0.00     0.001 A 
ATOM      3  C   UNL     1    -117.878  13.008  20.053  1.00  0.00     0.009 A 
ATOM      4  C   UNL     1    -117.807  13.415  21.395  1.00  0.00    -0.018 A 
ATOM      5  C   UNL     1    -118.538  14.523  21.848  1.00  0.00     0.009 A 
ATOM      6  C   UNL     1    -118.458  14.916  23.188  1.00  0.00     0.001 A 
ATOM      7  C   UNL     1    -117.649  14.209  24.081  1.00  0.00     0.001 A 
ATOM      8  C   UNL     1    -116.915  13.103  23.643  1.00  0.00     0.009 A 
ATOM      9  C   UNL     1    -116.986  12.697  22.301  1.00  0.00    -0.018 A 
ATOM     10  C   UNL     1    -116.255  11.588  21.847  1.00  0.00     0.009 A 
ENDROOT
TORSDOF 0
ENDMDL
MODEL 8
REMARK VINA RESULT:    -4.406      1.707      3.585
REMARK INTER + INTRA:          -4.406
REMARK INTER:                  -4.406
REMARK INTRA:                   0.000
REMARK UNBOUND:                 0.000
REMARK SMILES c1ccc2ccccc2c1
REMARK SMILES IDX 2 1 1 2 10 3 9 4 8 5 7 6 6 7 5 8 4 9 3 10
REMARK H PARENT
REMARK Flexibility Score: inf
ROOT
ATOM      1  C   UNL     1    -112.668   9.904  24.285  1.00  0.00     0.001 A 
ATOM      2  C   UNL     1    -112.711  10.907  25.256  1.00  0.00     0.001 A 
ATOM      3  C   UNL     1    -113.723  11.871  25.229  1.00  0.00     0.009 A 
ATOM      4  C   UNL     1    -114.704  11.835  24.225  1.00  0.00    -0.018 A 
ATOM      5  C   UNL     1    -115.726  12.796  24.186  1.00  0.00     0.009 A 
ATOM      6  C   UNL     1    -116.695  12.748  23.180  1.00  0.00     0.001 A 
ATOM      7  C   UNL     1    -116.652  11.745  22.209  1.00  0.00     0.001 A 
ATOM      8  C   UNL     1    -115.640  10.781  22.236  1.00  0.00     0.009 A 
ATOM      9  C   UNL     1    -114.660  10.816  23.240  1.00  0.00    -0.018 A 
ATOM     10  C   UNL     1    -113.638   9.856  23.279  1.00  0.00     0.009 A 
ENDROOT
TORSDOF 0
ENDMDL
MODEL 9
REMARK VINA RESULT:    -4.359      0.894      2.407
REMARK INTER + INTRA:          -4.359
REMARK INTER:                  -4.359
REMARK INTRA:                   0.000
REMARK UNBOUND:                 0.000
REMARK SMILES c1ccc2ccccc2c1
REMARK SMILES IDX 2 1 1 2 10 3 9 4 8 5 7 6 6 7 5 8 4 9 3 10
REMARK H PARENT
REMARK Flexibility Score: inf
ROOT
ATOM      1  C   UNL     1    -115.738  11.136  22.538  1.00  0.00     0.001 A 
ATOM      2  C   UNL     1    -115.970  11.851  23.716  1.00  0.00     0.001 A 
ATOM      3  C   UNL     1    -116.823  12.959  23.711  1.00  0.00     0.009 A 
ATOM      4  C   UNL     1    -117.451  13.360  22.521  1.00  0.00    -0.018 A 
ATOM      5  C   UNL     1    -118.309  14.469  22.502  1.00  0.00     0.009 A 
ATOM      6  C   UNL     1    -118.927  14.857  21.310  1.00  0.00     0.001 A 
ATOM      7  C   UNL     1    -118.695  14.142  20.132  1.00  0.00     0.001 A 
ATOM      8  C   UNL     1    -117.843  13.035  20.137  1.00  0.00     0.009 A 
ATOM      9  C   UNL     1    -117.215  12.634  21.326  1.00  0.00    -0.018 A 
ATOM     10  C   UNL     1    -116.356  11.524  21.346  1.00  0.00     0.009 A 
ENDROOT
TORSDOF 0
ENDMDL
