MODEL 1
REMARK VINA RESULT:     4.740      0.000      0.000
REMARK INTER + INTRA:           7.341
REMARK INTER:                   7.234
REMARK INTRA:                   0.107
REMARK UNBOUND:                 0.107
REMARK SMILES O=C([O-])CCCCCCCCC(=O)[O-]
REMARK SMILES IDX 7 1 6 2 5 3 4 4 2 5 1 6 3 7 8 8 9 9 10 10 11 11 12 12 13 13
REMARK SMILES IDX 14 14
REMARK H PARENT
REMARK Flexibility Score: inf
ROOT
ATOM      1  C   UNL     1       8.691  47.918  10.601  1.00  0.00     0.000 C 
ENDROOT
BRANCH   1   2
ATOM      2  C   UNL     1       7.178  48.186  10.533  1.00  0.00     0.000 C 
BRANCH   2   3
ATOM      3  C   UNL     1       6.851  49.593  10.006  1.00  0.00     0.006 C 
BRANCH   3   4
ATOM      4  C   UNL     1       5.528  49.641   9.229  1.00  0.00     0.053 C 
BRANCH   4   5
ATOM      5  C   UNL     1       4.573  48.620   9.763  1.00  0.00     0.041 C 
ATOM      6  O   UNL     1       3.646  48.966  10.542  1.00  0.00    -0.550 OA
ATOM      7  O   UNL     1       4.675  47.295   9.361  1.00  0.00    -0.550 OA
ENDBRANCH   4   5
ENDBRANCH   3   4
ENDBRANCH   2   3
ENDBRANCH   1   2
BRANCH   1   8
ATOM      8  C   UNL     1       9.226  47.236   9.331  1.00  0.00     0.000 C 
BRANCH   8   9
ATOM      9  C   UNL     1      10.579  47.809   8.875  1.00  0.00     0.000 C 
BRANCH   9  10
ATOM     10  C   UNL     1      11.702  46.760   8.897  1.00  0.00     0.006 C 
BRANCH  10  11
ATOM     11  C   UNL     1      13.099  47.392   8.875  1.00  0.00     0.053 C 
BRANCH  11  12
ATOM     12  C   UNL     1      14.051  46.582   9.699  1.00  0.00     0.041 C 
ATOM     13  O   UNL     1      14.141  46.779  10.940  1.00  0.00    -0.550 OA
ATOM     14  O   UNL     1      14.802  45.577   9.106  1.00  0.00    -0.550 OA
ENDBRANCH  11  12
ENDBRANCH  10  11
ENDBRANCH   9  10
ENDBRANCH   8   9
ENDBRANCH   1   8
TORSDOF 9
ENDMDL
MODEL 2
REMARK VINA RESULT:     4.907      5.946      6.869
REMARK INTER + INTRA:           7.596
REMARK INTER:                   7.104
REMARK INTRA:                   0.492
REMARK UNBOUND:                 0.107
REMARK SMILES O=C([O-])CCCCCCCCC(=O)[O-]
REMARK SMILES IDX 7 1 6 2 5 3 4 4 2 5 1 6 3 7 8 8 9 9 10 10 11 11 12 12 13 13
REMARK SMILES IDX 14 14
REMARK H PARENT
REMARK Flexibility Score: inf
ROOT
ATOM      1  C   UNL     1      14.351  42.882  10.404  1.00  0.00     0.000 C 
ENDROOT
BRANCH   1   2
ATOM      2  C   UNL     1      12.941  43.497  10.418  1.00  0.00     0.000 C 
BRANCH   2   3
ATOM      3  C   UNL     1      12.323  43.587   9.013  1.00  0.00     0.006 C 
BRANCH   3   4
ATOM      4  C   UNL     1      10.905  43.002   8.952  1.00  0.00     0.053 C 
BRANCH   4   5
ATOM      5  C   UNL     1      10.955  41.508   9.008  1.00  0.00     0.041 C 
ATOM      6  O   UNL     1       9.890  40.840   9.083  1.00  0.00    -0.550 OA
ATOM      7  O   UNL     1      12.175  40.849   8.927  1.00  0.00    -0.550 OA
ENDBRANCH   4   5
ENDBRANCH   3   4
ENDBRANCH   2   3
ENDBRANCH   1   2
BRANCH   1   8
ATOM      8  C   UNL     1      15.239  43.469   9.295  1.00  0.00     0.000 C 
BRANCH   8   9
ATOM      9  C   UNL     1      14.818  44.891   8.887  1.00  0.00     0.000 C 
BRANCH   9  10
ATOM     10  C   UNL     1      15.968  45.903   9.001  1.00  0.00     0.006 C 
BRANCH  10  11
ATOM     11  C   UNL     1      15.471  47.341   9.197  1.00  0.00     0.053 C 
BRANCH  11  12
ATOM     12  C   UNL     1      14.263  47.360  10.081  1.00  0.00     0.041 C 
ATOM     13  O   UNL     1      14.354  47.004  11.286  1.00  0.00    -0.550 OA
ATOM     14  O   UNL     1      13.049  47.818   9.588  1.00  0.00    -0.550 OA
ENDBRANCH  11  12
ENDBRANCH  10  11
ENDBRANCH   9  10
ENDBRANCH   8   9
ENDBRANCH   1   8
TORSDOF 9
ENDMDL
MODEL 3
REMARK VINA RESULT:     4.938      1.244      7.823
REMARK INTER + INTRA:           7.643
REMARK INTER:                   8.001
REMARK INTRA:                  -0.358
REMARK UNBOUND:                 0.107
REMARK SMILES O=C([O-])CCCCCCCCC(=O)[O-]
REMARK SMILES IDX 7 1 6 2 5 3 4 4 2 5 1 6 3 7 8 8 9 9 10 10 11 11 12 12 13 13
REMARK SMILES IDX 14 14
REMARK H PARENT
REMARK Flexibility Score: inf
ROOT
ATOM      1  C   UNL     1      10.453  48.695   8.875  1.00  0.00     0.000 C 
ENDROOT
BRANCH   1   2
ATOM      2  C   UNL     1      11.090  47.311   9.084  1.00  0.00     0.000 C 
BRANCH   2   3
ATOM      3  C   UNL     1      12.614  47.325   8.876  1.00  0.00     0.006 C 
BRANCH   3   4
ATOM      4  C   UNL     1      13.333  46.245   9.696  1.00  0.00     0.053 C 
BRANCH   4   5
ATOM      5  C   UNL     1      14.698  46.715  10.092  1.00  0.00     0.041 C 
ATOM      6  O   UNL     1      14.830  47.709  10.853  1.00  0.00    -0.550 OA
ATOM      7  O   UNL     1      15.823  46.024   9.660  1.00  0.00    -0.550 OA
ENDBRANCH   4   5
ENDBRANCH   3   4
ENDBRANCH   2   3
ENDBRANCH   1   2
BRANCH   1   8
ATOM      8  C   UNL     1       8.918  48.656   8.959  1.00  0.00     0.000 C 
BRANCH   8   9
ATOM      9  C   UNL     1       8.407  47.679  10.031  1.00  0.00     0.000 C 
BRANCH   9  10
ATOM     10  C   UNL     1       7.060  47.042   9.656  1.00  0.00     0.006 C 
BRANCH  10  11
ATOM     11  C   UNL     1       6.151  48.002   8.878  1.00  0.00     0.053 C 
BRANCH  11  12
ATOM     12  C   UNL     1       5.430  48.916   9.819  1.00  0.00     0.041 C 
ATOM     13  O   UNL     1       5.099  50.074   9.450  1.00  0.00    -0.550 OA
ATOM     14  O   UNL     1       5.080  48.471  11.087  1.00  0.00    -0.550 OA
ENDBRANCH  11  12
ENDBRANCH  10  11
ENDBRANCH   9  10
ENDBRANCH   8   9
ENDBRANCH   1   8
TORSDOF 9
ENDMDL
MODEL 4
REMARK VINA RESULT:     6.436      3.917      5.497
REMARK INTER + INTRA:           9.929
REMARK INTER:                  10.284
REMARK INTRA:                  -0.355
REMARK UNBOUND:                 0.107
REMARK SMILES O=C([O-])CCCCCCCCC(=O)[O-]
REMARK SMILES IDX 7 1 6 2 5 3 4 4 2 5 1 6 3 7 8 8 9 9 10 10 11 11 12 12 13 13
REMARK SMILES IDX 14 14
REMARK H PARENT
REMARK Flexibility Score: inf
ROOT
ATOM      1  C   UNL     1       3.914  48.923  10.133  1.00  0.00     0.000 C 
ENDROOT
BRANCH   1   2
ATOM      2  C   UNL     1       4.564  48.136  11.283  1.00  0.00     0.000 C 
BRANCH   2   3
ATOM      3  C   UNL     1       3.566  47.790  12.400  1.00  0.00     0.006 C 
BRANCH   3   4
ATOM      4  C   UNL     1       4.173  47.938  13.802  1.00  0.00     0.053 C 
BRANCH   4   5
ATOM      5  C   UNL     1       3.229  47.411  14.837  1.00  0.00     0.041 C 
ATOM      6  O   UNL     1       3.175  47.945  15.976  1.00  0.00    -0.550 OA
ATOM      7  O   UNL     1       2.373  46.362  14.528  1.00  0.00    -0.550 OA
ENDBRANCH   4   5
ENDBRANCH   3   4
ENDBRANCH   2   3
ENDBRANCH   1   2
BRANCH   1   8
ATOM      8  C   UNL     1       4.797  48.967   8.875  1.00  0.00     0.000 C 
BRANCH   8   9
ATOM      9  C   UNL     1       5.772  50.157   8.875  1.00  0.00     0.000 C 
BRANCH   9  10
ATOM     10  C   UNL     1       7.119  49.816   9.531  1.00  0.00     0.006 C 
BRANCH  10  11
ATOM     11  C   UNL     1       7.777  48.575   8.914  1.00  0.00     0.053 C 
BRANCH  11  12
ATOM     12  C   UNL     1       7.718  47.424   9.869  1.00  0.00     0.041 C 
ATOM     13  O   UNL     1       7.157  46.348   9.531  1.00  0.00    -0.550 OA
ATOM     14  O   UNL     1       8.325  47.522  11.114  1.00  0.00    -0.550 OA
ENDBRANCH  11  12
ENDBRANCH  10  11
ENDBRANCH   9  10
ENDBRANCH   8   9
ENDBRANCH   1   8
TORSDOF 9
ENDMDL
MODEL 5
REMARK VINA RESULT:     7.088      3.963      7.812
REMARK INTER + INTRA:          10.924
REMARK INTER:                  11.106
REMARK INTRA:                  -0.182
REMARK UNBOUND:                 0.107
REMARK SMILES O=C([O-])CCCCCCCCC(=O)[O-]
REMARK SMILES IDX 7 1 6 2 5 3 4 4 2 5 1 6 3 7 8 8 9 9 10 10 11 11 12 12 13 13
REMARK SMILES IDX 14 14
REMARK H PARENT
REMARK Flexibility Score: inf
ROOT
ATOM      1  C   UNL     1       4.204  49.441   9.804  1.00  0.00     0.000 C 
ENDROOT
BRANCH   1   2
ATOM      2  C   UNL     1       5.347  49.900   8.883  1.00  0.00     0.000 C 
BRANCH   2   3
ATOM      3  C   UNL     1       6.729  49.754   9.540  1.00  0.00     0.006 C 
BRANCH   3   4
ATOM      4  C   UNL     1       7.589  48.670   8.875  1.00  0.00     0.053 C 
BRANCH   4   5
ATOM      5  C   UNL     1       7.763  47.505   9.797  1.00  0.00     0.041 C 
ATOM      6  O   UNL     1       7.479  46.341   9.408  1.00  0.00    -0.550 OA
ATOM      7  O   UNL     1       8.285  47.696  11.070  1.00  0.00    -0.550 OA
ENDBRANCH   4   5
ENDBRANCH   3   4
ENDBRANCH   2   3
ENDBRANCH   1   2
BRANCH   1   8
ATOM      8  C   UNL     1       4.530  48.131  10.540  1.00  0.00     0.000 C 
BRANCH   8   9
ATOM      9  C   UNL     1       4.922  48.357  12.010  1.00  0.00     0.000 C 
BRANCH   9  10
ATOM     10  C   UNL     1       4.104  47.489  12.979  1.00  0.00     0.006 C 
BRANCH  10  11
ATOM     11  C   UNL     1       3.949  48.137  14.361  1.00  0.00     0.053 C 
BRANCH  11  12
ATOM     12  C   UNL     1       2.971  47.366  15.191  1.00  0.00     0.041 C 
ATOM     13  O   UNL     1       3.330  46.309  15.777  1.00  0.00    -0.550 OA
ATOM     14  O   UNL     1       1.677  47.840  15.360  1.00  0.00    -0.550 OA
ENDBRANCH  11  12
ENDBRANCH  10  11
ENDBRANCH   9  10
ENDBRANCH   8   9
ENDBRANCH   1   8
TORSDOF 9
ENDMDL
MODEL 6
REMARK VINA RESULT:     7.122      3.370      6.765
REMARK INTER + INTRA:          10.976
REMARK INTER:                   9.389
REMARK INTRA:                   1.587
REMARK UNBOUND:                 0.107
REMARK SMILES O=C([O-])CCCCCCCCC(=O)[O-]
REMARK SMILES IDX 7 1 6 2 5 3 4 4 2 5 1 6 3 7 8 8 9 9 10 10 11 11 12 12 13 13
REMARK SMILES IDX 14 14
REMARK H PARENT
REMARK Flexibility Score: inf
ROOT
ATOM      1  C   UNL     1       7.743  49.838   9.704  1.00  0.00     0.000 C 
ENDROOT
BRANCH   1   2
ATOM      2  C   UNL     1       8.732  48.957   8.921  1.00  0.00     0.000 C 
BRANCH   2   3
ATOM      3  C   UNL     1       8.403  47.459   9.031  1.00  0.00     0.006 C 
BRANCH   3   4
ATOM      4  C   UNL     1       7.373  47.159  10.129  1.00  0.00     0.053 C 
BRANCH   4   5
ATOM      5  C   UNL     1       7.926  47.516  11.473  1.00  0.00     0.041 C 
ATOM      6  O   UNL     1       9.152  47.773  11.606  1.00  0.00    -0.550 OA
ATOM      7  O   UNL     1       7.080  47.612  12.571  1.00  0.00    -0.550 OA
ENDBRANCH   4   5
ENDBRANCH   3   4
ENDBRANCH   2   3
ENDBRANCH   1   2
BRANCH   1   8
ATOM      8  C   UNL     1       6.504  50.214   8.875  1.00  0.00     0.000 C 
BRANCH   8   9
ATOM      9  C   UNL     1       5.212  50.226   9.710  1.00  0.00     0.000 C 
BRANCH   9  10
ATOM     10  C   UNL     1       4.241  49.104   9.310  1.00  0.00     0.006 C 
BRANCH  10  11
ATOM     11  C   UNL     1       4.546  47.779  10.019  1.00  0.00     0.053 C 
BRANCH  11  12
ATOM     12  C   UNL     1       3.915  47.755  11.376  1.00  0.00     0.041 C 
ATOM     13  O   UNL     1       2.794  47.205  11.544  1.00  0.00    -0.550 OA
ATOM     14  O   UNL     1       4.586  48.297  12.464  1.00  0.00    -0.550 OA
ENDBRANCH  11  12
ENDBRANCH  10  11
ENDBRANCH   9  10
ENDBRANCH   8   9
ENDBRANCH   1   8
TORSDOF 9
ENDMDL
MODEL 7
REMARK VINA RESULT:     7.282      5.972      8.005
REMARK INTER + INTRA:          11.221
REMARK INTER:                  11.714
REMARK INTRA:                  -0.493
REMARK UNBOUND:                 0.107
REMARK SMILES O=C([O-])CCCCCCCCC(=O)[O-]
REMARK SMILES IDX 7 1 6 2 5 3 4 4 2 5 1 6 3 7 8 8 9 9 10 10 11 11 12 12 13 13
REMARK SMILES IDX 14 14
REMARK H PARENT
REMARK Flexibility Score: inf
ROOT
ATOM      1  C   UNL     1      15.916  44.512   9.362  1.00  0.00     0.000 C 
ENDROOT
BRANCH   1   2
ATOM      2  C   UNL     1      14.855  45.513   8.875  1.00  0.00     0.000 C 
BRANCH   2   3
ATOM      3  C   UNL     1      15.347  46.969   8.932  1.00  0.00     0.006 C 
BRANCH   3   4
ATOM      4  C   UNL     1      14.499  47.844   9.866  1.00  0.00     0.053 C 
BRANCH   4   5
ATOM      5  C   UNL     1      14.560  47.322  11.267  1.00  0.00     0.041 C 
ATOM      6  O   UNL     1      15.581  47.525  11.976  1.00  0.00    -0.550 OA
ATOM      7  O   UNL     1      13.469  46.653  11.807  1.00  0.00    -0.550 OA
ENDBRANCH   4   5
ENDBRANCH   3   4
ENDBRANCH   2   3
ENDBRANCH   1   2
BRANCH   1   8
ATOM      8  C   UNL     1      15.624  43.074   8.902  1.00  0.00     0.000 C 
BRANCH   8   9
ATOM      9  C   UNL     1      14.494  42.410   9.708  1.00  0.00     0.000 C 
BRANCH   9  10
ATOM     10  C   UNL     1      13.219  42.202   8.875  1.00  0.00     0.006 C 
BRANCH  10  11
ATOM     11  C   UNL     1      12.004  42.926   9.467  1.00  0.00     0.053 C 
BRANCH  11  12
ATOM     12  C   UNL     1      10.757  42.133   9.230  1.00  0.00     0.041 C 
ATOM     13  O   UNL     1      10.830  40.914   8.924  1.00  0.00    -0.550 OA
ATOM     14  O   UNL     1       9.513  42.729   9.395  1.00  0.00    -0.550 OA
ENDBRANCH  11  12
ENDBRANCH  10  11
ENDBRANCH   9  10
ENDBRANCH   8   9
ENDBRANCH   1   8
TORSDOF 9
ENDMDL
MODEL 8
REMARK VINA RESULT:     7.553      3.239      4.136
REMARK INTER + INTRA:          11.633
REMARK INTER:                  10.745
REMARK INTRA:                   0.889
REMARK UNBOUND:                 0.107
REMARK SMILES O=C([O-])CCCCCCCCC(=O)[O-]
REMARK SMILES IDX 7 1 6 2 5 3 4 4 2 5 1 6 3 7 8 8 9 9 10 10 11 11 12 12 13 13
REMARK SMILES IDX 14 14
REMARK H PARENT
REMARK Flexibility Score: inf
ROOT
ATOM      1  C   UNL     1       7.194  50.560  10.088  1.00  0.00     0.000 C 
ENDROOT
BRANCH   1   2
ATOM      2  C   UNL     1       6.336  50.163   8.875  1.00  0.00     0.000 C 
BRANCH   2   3
ATOM      3  C   UNL     1       4.829  50.207   9.179  1.00  0.00     0.006 C 
BRANCH   3   4
ATOM      4  C   UNL     1       4.135  48.861   8.925  1.00  0.00     0.053 C 
BRANCH   4   5
ATOM      5  C   UNL     1       4.266  47.974  10.123  1.00  0.00     0.041 C 
ATOM      6  O   UNL     1       4.227  48.464  11.283  1.00  0.00    -0.550 OA
ATOM      7  O   UNL     1       4.383  46.599   9.962  1.00  0.00    -0.550 OA
ENDBRANCH   4   5
ENDBRANCH   3   4
ENDBRANCH   2   3
ENDBRANCH   1   2
BRANCH   1   8
ATOM      8  C   UNL     1       8.597  49.933  10.048  1.00  0.00     0.000 C 
BRANCH   8   9
ATOM      9  C   UNL     1       8.775  48.949   8.878  1.00  0.00     0.000 C 
BRANCH   9  10
ATOM     10  C   UNL     1       8.813  47.484   9.340  1.00  0.00     0.006 C 
BRANCH  10  11
ATOM     11  C   UNL     1       7.562  47.082  10.129  1.00  0.00     0.053 C 
BRANCH  11  12
ATOM     12  C   UNL     1       7.691  47.497  11.561  1.00  0.00     0.041 C 
ATOM     13  O   UNL     1       8.828  47.713  12.058  1.00  0.00    -0.550 OA
ATOM     14  O   UNL     1       6.554  47.695  12.333  1.00  0.00    -0.550 OA
ENDBRANCH  11  12
ENDBRANCH  10  11
ENDBRANCH   9  10
ENDBRANCH   8   9
ENDBRANCH   1   8
TORSDOF 9
ENDMDL
