MODEL 1
REMARK VINA RESULT:    -1.799      0.000      0.000
REMARK INTER + INTRA:          -8.660
REMARK INTER:                  -4.112
REMARK INTRA:                  -4.548
REMARK UNBOUND:                -4.548
REMARK SMILES CCCCCCCCCCCCCCCCCCCCCCCC(=O)[O-]
REMARK SMILES IDX 13 1 14 2 15 3 16 4 17 5 18 6 19 7 20 8 21 9 22 10 23 11
REMARK SMILES IDX 24 12 25 13 26 14 12 15 11 16 10 17 9 18 8 19 7 20 6 21 5 22
REMARK SMILES IDX 4 23 3 24 2 25 1 26
REMARK H PARENT
REMARK Flexibility Score: inf
ROOT
ATOM      1  C   UNL     1     177.733 204.356 200.633  1.00  0.00     0.000 C 
ENDROOT
BRANCH   1   2
ATOM      2  C   UNL     1     179.239 204.076 200.484  1.00  0.00     0.000 C 
BRANCH   2   3
ATOM      3  C   UNL     1     180.097 204.933 201.439  1.00  0.00     0.000 C 
BRANCH   3   4
ATOM      4  C   UNL     1     180.510 206.297 200.851  1.00  0.00     0.000 C 
BRANCH   4   5
ATOM      5  C   UNL     1     180.294 206.443 199.334  1.00  0.00     0.000 C 
BRANCH   5   6
ATOM      6  C   UNL     1     179.137 207.380 198.934  1.00  0.00     0.000 C 
BRANCH   6   7
ATOM      7  C   UNL     1     178.364 207.960 200.138  1.00  0.00     0.000 C 
BRANCH   7   8
ATOM      8  C   UNL     1     176.840 207.824 199.978  1.00  0.00     0.000 C 
BRANCH   8   9
ATOM      9  C   UNL     1     176.104 207.776 201.326  1.00  0.00     0.000 C 
BRANCH   9  10
ATOM     10  C   UNL     1     174.576 207.681 201.164  1.00  0.00     0.006 C 
BRANCH  10  11
ATOM     11  C   UNL     1     174.061 206.249 201.365  1.00  0.00     0.053 C 
BRANCH  11  12
ATOM     12  C   UNL     1     172.986 205.900 200.381  1.00  0.00     0.041 C 
ATOM     13  O   UNL     1     173.121 204.903 199.622  1.00  0.00    -0.550 OA
ATOM     14  O   UNL     1     171.845 206.687 200.285  1.00  0.00    -0.550 OA
ENDBRANCH  11  12
ENDBRANCH  10  11
ENDBRANCH   9  10
ENDBRANCH   8   9
ENDBRANCH   7   8
ENDBRANCH   6   7
ENDBRANCH   5   6
ENDBRANCH   4   5
ENDBRANCH   3   4
ENDBRANCH   2   3
ENDBRANCH   1   2
BRANCH   1  15
ATOM     15  C   UNL     1     176.891 203.665 199.548  1.00  0.00     0.000 C 
BRANCH  15  16
ATOM     16  C   UNL     1     176.462 204.627 198.426  1.00  0.00     0.000 C 
BRANCH  16  17
ATOM     17  C   UNL     1     177.432 204.585 197.225  1.00  0.00     0.000 C 
BRANCH  17  18
ATOM     18  C   UNL     1     176.752 204.219 195.891  1.00  0.00    -0.000 C 
BRANCH  18  19
ATOM     19  C   UNL     1     177.697 204.154 194.679  1.00  0.00    -0.000 C 
BRANCH  19  20
ATOM     20  C   UNL     1     177.781 205.488 193.917  1.00  0.00    -0.000 C 
BRANCH  20  21
ATOM     21  C   UNL     1     179.049 206.289 194.260  1.00  0.00    -0.000 C 
BRANCH  21  22
ATOM     22  C   UNL     1     178.805 207.430 195.271  1.00  0.00    -0.000 C 
BRANCH  22  23
ATOM     23  C   UNL     1     177.454 208.125 195.042  1.00  0.00    -0.000 C 
BRANCH  23  24
ATOM     24  C   UNL     1     176.606 208.120 196.323  1.00  0.00    -0.000 C 
BRANCH  24  25
ATOM     25  C   UNL     1     175.192 207.562 196.094  1.00  0.00    -0.003 C 
ATOM     26  C   UNL     1     174.336 207.574 197.360  1.00  0.00     0.004 C 
ENDBRANCH  24  25
ENDBRANCH  23  24
ENDBRANCH  22  23
ENDBRANCH  21  22
ENDBRANCH  20  21
ENDBRANCH  19  20
ENDBRANCH  18  19
ENDBRANCH  17  18
ENDBRANCH  16  17
ENDBRANCH  15  16
ENDBRANCH   1  15
TORSDOF 22
ENDMDL
MODEL 2
REMARK VINA RESULT:    -1.744      1.532      2.441
REMARK INTER + INTRA:          -8.536
REMARK INTER:                  -4.269
REMARK INTRA:                  -4.266
REMARK UNBOUND:                -4.548
REMARK SMILES CCCCCCCCCCCCCCCCCCCCCCCC(=O)[O-]
REMARK SMILES IDX 13 1 14 2 15 3 16 4 17 5 18 6 19 7 20 8 21 9 22 10 23 11
REMARK SMILES IDX 24 12 25 13 26 14 12 15 11 16 10 17 9 18 8 19 7 20 6 21 5 22
REMARK SMILES IDX 4 23 3 24 2 25 1 26
REMARK H PARENT
REMARK Flexibility Score: inf
ROOT
ATOM      1  C   UNL     1     176.499 204.557 198.172  1.00  0.00     0.000 C 
ENDROOT
BRANCH   1   2
ATOM      2  C   UNL     1     176.492 204.285 199.686  1.00  0.00     0.000 C 
BRANCH   2   3
ATOM      3  C   UNL     1     177.913 204.274 200.291  1.00  0.00     0.000 C 
BRANCH   3   4
ATOM      4  C   UNL     1     178.247 205.531 201.120  1.00  0.00     0.000 C 
BRANCH   4   5
ATOM      5  C   UNL     1     179.285 206.472 200.484  1.00  0.00     0.000 C 
BRANCH   5   6
ATOM      6  C   UNL     1     178.708 207.793 199.935  1.00  0.00     0.000 C 
BRANCH   6   7
ATOM      7  C   UNL     1     177.267 208.083 200.407  1.00  0.00     0.000 C 
BRANCH   7   8
ATOM      8  C   UNL     1     176.255 208.068 199.248  1.00  0.00     0.000 C 
BRANCH   8   9
ATOM      9  C   UNL     1     174.798 208.125 199.732  1.00  0.00     0.000 C 
BRANCH   9  10
ATOM     10  C   UNL     1     174.634 207.624 201.178  1.00  0.00     0.006 C 
BRANCH  10  11
ATOM     11  C   UNL     1     173.495 206.606 201.313  1.00  0.00     0.053 C 
BRANCH  11  12
ATOM     12  C   UNL     1     173.884 205.444 202.175  1.00  0.00     0.041 C 
ATOM     13  O   UNL     1     175.025 205.406 202.709  1.00  0.00    -0.550 OA
ATOM     14  O   UNL     1     172.997 204.393 202.372  1.00  0.00    -0.550 OA
ENDBRANCH  11  12
ENDBRANCH  10  11
ENDBRANCH   9  10
ENDBRANCH   8   9
ENDBRANCH   7   8
ENDBRANCH   6   7
ENDBRANCH   5   6
ENDBRANCH   4   5
ENDBRANCH   3   4
ENDBRANCH   2   3
ENDBRANCH   1   2
BRANCH   1  15
ATOM     15  C   UNL     1     177.532 203.703 197.420  1.00  0.00     0.000 C 
BRANCH  15  16
ATOM     16  C   UNL     1     178.298 204.501 196.350  1.00  0.00     0.000 C 
BRANCH  16  17
ATOM     17  C   UNL     1     179.429 205.355 196.963  1.00  0.00     0.000 C 
BRANCH  17  18
ATOM     18  C   UNL     1     179.235 206.872 196.771  1.00  0.00    -0.000 C 
BRANCH  18  19
ATOM     19  C   UNL     1     177.968 207.269 195.995  1.00  0.00    -0.000 C 
BRANCH  19  20
ATOM     20  C   UNL     1     178.278 207.863 194.610  1.00  0.00    -0.000 C 
BRANCH  20  21
ATOM     21  C   UNL     1     177.044 207.908 193.693  1.00  0.00    -0.000 C 
BRANCH  21  22
ATOM     22  C   UNL     1     176.271 206.573 193.630  1.00  0.00    -0.000 C 
BRANCH  22  23
ATOM     23  C   UNL     1     174.769 206.762 193.900  1.00  0.00    -0.000 C 
BRANCH  23  24
ATOM     24  C   UNL     1     174.497 208.111 194.583  1.00  0.00    -0.000 C 
BRANCH  24  25
ATOM     25  C   UNL     1     174.261 207.970 196.095  1.00  0.00    -0.003 C 
ATOM     26  C   UNL     1     173.189 206.935 196.436  1.00  0.00     0.004 C 
ENDBRANCH  24  25
ENDBRANCH  23  24
ENDBRANCH  22  23
ENDBRANCH  21  22
ENDBRANCH  20  21
ENDBRANCH  19  20
ENDBRANCH  18  19
ENDBRANCH  17  18
ENDBRANCH  16  17
ENDBRANCH  15  16
ENDBRANCH   1  15
TORSDOF 22
ENDMDL
MODEL 3
REMARK VINA RESULT:    -1.734      1.931      4.793
REMARK INTER + INTRA:          -8.512
REMARK INTER:                  -4.474
REMARK INTRA:                  -4.038
REMARK UNBOUND:                -4.548
REMARK SMILES CCCCCCCCCCCCCCCCCCCCCCCC(=O)[O-]
REMARK SMILES IDX 13 1 14 2 15 3 16 4 17 5 18 6 19 7 20 8 21 9 22 10 23 11
REMARK SMILES IDX 24 12 25 13 26 14 12 15 11 16 10 17 9 18 8 19 7 20 6 21 5 22
REMARK SMILES IDX 4 23 3 24 2 25 1 26
REMARK H PARENT
REMARK Flexibility Score: inf
ROOT
ATOM      1  C   UNL     1     178.276 202.345 200.203  1.00  0.00     0.000 C 
ENDROOT
BRANCH   1   2
ATOM      2  C   UNL     1     178.498 203.503 199.213  1.00  0.00     0.000 C 
BRANCH   2   3
ATOM      3  C   UNL     1     177.300 204.475 199.161  1.00  0.00     0.000 C 
BRANCH   3   4
ATOM      4  C   UNL     1     175.972 203.805 198.753  1.00  0.00     0.000 C 
BRANCH   4   5
ATOM      5  C   UNL     1     174.975 204.726 198.030  1.00  0.00     0.000 C 
BRANCH   5   6
ATOM      6  C   UNL     1     175.575 206.049 197.512  1.00  0.00     0.000 C 
BRANCH   6   7
ATOM      7  C   UNL     1     174.573 207.223 197.506  1.00  0.00     0.000 C 
BRANCH   7   8
ATOM      8  C   UNL     1     173.322 206.932 198.353  1.00  0.00     0.000 C 
BRANCH   8   9
ATOM      9  C   UNL     1     172.913 208.123 199.235  1.00  0.00     0.000 C 
BRANCH   9  10
ATOM     10  C   UNL     1     173.288 207.920 200.714  1.00  0.00     0.006 C 
BRANCH  10  11
ATOM     11  C   UNL     1     172.936 206.512 201.212  1.00  0.00     0.053 C 
BRANCH  11  12
ATOM     12  C   UNL     1     171.744 206.523 202.120  1.00  0.00     0.041 C 
ATOM     13  O   UNL     1     170.979 207.524 202.149  1.00  0.00    -0.550 OA
ATOM     14  O   UNL     1     171.488 205.438 202.949  1.00  0.00    -0.550 OA
ENDBRANCH  11  12
ENDBRANCH  10  11
ENDBRANCH   9  10
ENDBRANCH   8   9
ENDBRANCH   7   8
ENDBRANCH   6   7
ENDBRANCH   5   6
ENDBRANCH   4   5
ENDBRANCH   3   4
ENDBRANCH   2   3
ENDBRANCH   1   2
BRANCH   1  15
ATOM     15  C   UNL     1     178.530 202.756 201.662  1.00  0.00     0.000 C 
BRANCH  15  16
ATOM     16  C   UNL     1     179.527 203.922 201.787  1.00  0.00     0.000 C 
BRANCH  16  17
ATOM     17  C   UNL     1     178.952 205.088 202.621  1.00  0.00     0.000 C 
BRANCH  17  18
ATOM     18  C   UNL     1     177.442 204.965 202.902  1.00  0.00    -0.000 C 
BRANCH  18  19
ATOM     19  C   UNL     1     176.656 206.283 202.801  1.00  0.00    -0.000 C 
BRANCH  19  20
ATOM     20  C   UNL     1     176.366 206.695 201.347  1.00  0.00    -0.000 C 
BRANCH  20  21
ATOM     21  C   UNL     1     177.118 207.970 200.931  1.00  0.00    -0.000 C 
BRANCH  21  22
ATOM     22  C   UNL     1     177.945 207.807 199.638  1.00  0.00    -0.000 C 
BRANCH  22  23
ATOM     23  C   UNL     1     179.407 207.435 199.930  1.00  0.00    -0.000 C 
BRANCH  23  24
ATOM     24  C   UNL     1     180.144 207.038 198.642  1.00  0.00    -0.000 C 
BRANCH  24  25
ATOM     25  C   UNL     1     179.238 207.094 197.402  1.00  0.00    -0.003 C 
ATOM     26  C   UNL     1     179.637 206.083 196.328  1.00  0.00     0.004 C 
ENDBRANCH  24  25
ENDBRANCH  23  24
ENDBRANCH  22  23
ENDBRANCH  21  22
ENDBRANCH  20  21
ENDBRANCH  19  20
ENDBRANCH  18  19
ENDBRANCH  17  18
ENDBRANCH  16  17
ENDBRANCH  15  16
ENDBRANCH   1  15
TORSDOF 22
ENDMDL
MODEL 4
REMARK VINA RESULT:    -1.692      1.926      4.485
REMARK INTER + INTRA:          -8.416
REMARK INTER:                  -4.325
REMARK INTRA:                  -4.091
REMARK UNBOUND:                -4.548
REMARK SMILES CCCCCCCCCCCCCCCCCCCCCCCC(=O)[O-]
REMARK SMILES IDX 13 1 14 2 15 3 16 4 17 5 18 6 19 7 20 8 21 9 22 10 23 11
REMARK SMILES IDX 24 12 25 13 26 14 12 15 11 16 10 17 9 18 8 19 7 20 6 21 5 22
REMARK SMILES IDX 4 23 3 24 2 25 1 26
REMARK H PARENT
REMARK Flexibility Score: inf
ROOT
ATOM      1  C   UNL     1     173.955 206.398 197.732  1.00  0.00     0.000 C 
ENDROOT
BRANCH   1   2
ATOM      2  C   UNL     1     172.704 207.234 198.055  1.00  0.00     0.000 C 
BRANCH   2   3
ATOM      3  C   UNL     1     172.461 207.372 199.574  1.00  0.00     0.000 C 
BRANCH   3   4
ATOM      4  C   UNL     1     173.059 206.221 200.407  1.00  0.00     0.000 C 
BRANCH   4   5
ATOM      5  C   UNL     1     174.039 206.659 201.511  1.00  0.00     0.000 C 
BRANCH   5   6
ATOM      6  C   UNL     1     174.970 207.825 201.122  1.00  0.00     0.000 C 
BRANCH   6   7
ATOM      7  C   UNL     1     176.402 207.686 201.682  1.00  0.00     0.000 C 
BRANCH   7   8
ATOM      8  C   UNL     1     176.585 206.407 202.518  1.00  0.00     0.000 C 
BRANCH   8   9
ATOM      9  C   UNL     1     177.846 205.620 202.131  1.00  0.00     0.000 C 
BRANCH   9  10
ATOM     10  C   UNL     1     177.542 204.156 201.764  1.00  0.00     0.006 C 
BRANCH  10  11
ATOM     11  C   UNL     1     177.010 204.018 200.331  1.00  0.00     0.053 C 
BRANCH  11  12
ATOM     12  C   UNL     1     175.611 203.484 200.305  1.00  0.00     0.041 C 
ATOM     13  O   UNL     1     175.030 203.282 199.205  1.00  0.00    -0.550 OA
ATOM     14  O   UNL     1     174.939 203.229 201.494  1.00  0.00    -0.550 OA
ENDBRANCH  11  12
ENDBRANCH  10  11
ENDBRANCH   9  10
ENDBRANCH   8   9
ENDBRANCH   7   8
ENDBRANCH   6   7
ENDBRANCH   5   6
ENDBRANCH   4   5
ENDBRANCH   3   4
ENDBRANCH   2   3
ENDBRANCH   1   2
BRANCH   1  15
ATOM     15  C   UNL     1     175.206 207.263 197.512  1.00  0.00     0.000 C 
BRANCH  15  16
ATOM     16  C   UNL     1     176.499 206.568 197.975  1.00  0.00     0.000 C 
BRANCH  16  17
ATOM     17  C   UNL     1     177.679 207.557 198.089  1.00  0.00     0.000 C 
BRANCH  17  18
ATOM     18  C   UNL     1     178.833 207.047 198.975  1.00  0.00    -0.000 C 
BRANCH  18  19
ATOM     19  C   UNL     1     180.204 206.990 198.281  1.00  0.00    -0.000 C 
BRANCH  19  20
ATOM     20  C   UNL     1     180.129 206.410 196.858  1.00  0.00    -0.000 C 
BRANCH  20  21
ATOM     21  C   UNL     1     180.670 207.379 195.793  1.00  0.00    -0.000 C 
BRANCH  21  22
ATOM     22  C   UNL     1     179.571 207.993 194.899  1.00  0.00    -0.000 C 
BRANCH  22  23
ATOM     23  C   UNL     1     178.512 206.956 194.492  1.00  0.00    -0.000 C 
BRANCH  23  24
ATOM     24  C   UNL     1     177.153 207.624 194.240  1.00  0.00    -0.000 C 
BRANCH  24  25
ATOM     25  C   UNL     1     176.021 206.603 194.040  1.00  0.00    -0.003 C 
ATOM     26  C   UNL     1     176.140 205.833 192.725  1.00  0.00     0.004 C 
ENDBRANCH  24  25
ENDBRANCH  23  24
ENDBRANCH  22  23
ENDBRANCH  21  22
ENDBRANCH  20  21
ENDBRANCH  19  20
ENDBRANCH  18  19
ENDBRANCH  17  18
ENDBRANCH  16  17
ENDBRANCH  15  16
ENDBRANCH   1  15
TORSDOF 22
ENDMDL
MODEL 5
REMARK VINA RESULT:    -1.670      1.361      2.982
REMARK INTER + INTRA:          -8.367
REMARK INTER:                  -3.593
REMARK INTRA:                  -4.773
REMARK UNBOUND:                -4.548
REMARK SMILES CCCCCCCCCCCCCCCCCCCCCCCC(=O)[O-]
REMARK SMILES IDX 13 1 14 2 15 3 16 4 17 5 18 6 19 7 20 8 21 9 22 10 23 11
REMARK SMILES IDX 24 12 25 13 26 14 12 15 11 16 10 17 9 18 8 19 7 20 6 21 5 22
REMARK SMILES IDX 4 23 3 24 2 25 1 26
REMARK H PARENT
REMARK Flexibility Score: inf
ROOT
ATOM      1  C   UNL     1     177.814 204.018 197.605  1.00  0.00     0.000 C 
ENDROOT
BRANCH   1   2
ATOM      2  C   UNL     1     177.112 202.963 198.478  1.00  0.00     0.000 C 
BRANCH   2   3
ATOM      3  C   UNL     1     177.670 202.919 199.917  1.00  0.00     0.000 C 
BRANCH   3   4
ATOM      4  C   UNL     1     179.193 203.146 200.001  1.00  0.00     0.000 C 
BRANCH   4   5
ATOM      5  C   UNL     1     179.621 204.401 200.782  1.00  0.00     0.000 C 
BRANCH   5   6
ATOM      6  C   UNL     1     180.337 205.474 199.938  1.00  0.00     0.000 C 
BRANCH   6   7
ATOM      7  C   UNL     1     179.819 206.907 200.189  1.00  0.00     0.000 C 
BRANCH   7   8
ATOM      8  C   UNL     1     178.491 207.187 199.464  1.00  0.00     0.000 C 
BRANCH   8   9
ATOM      9  C   UNL     1     177.567 208.123 200.260  1.00  0.00     0.000 C 
BRANCH   9  10
ATOM     10  C   UNL     1     176.692 207.368 201.276  1.00  0.00     0.006 C 
BRANCH  10  11
ATOM     11  C   UNL     1     175.925 206.206 200.629  1.00  0.00     0.053 C 
BRANCH  11  12
ATOM     12  C   UNL     1     174.462 206.503 200.509  1.00  0.00     0.041 C 
ATOM     13  O   UNL     1     173.738 205.821 199.735  1.00  0.00    -0.550 OA
ATOM     14  O   UNL     1     173.899 207.545 201.235  1.00  0.00    -0.550 OA
ENDBRANCH  11  12
ENDBRANCH  10  11
ENDBRANCH   9  10
ENDBRANCH   8   9
ENDBRANCH   7   8
ENDBRANCH   6   7
ENDBRANCH   5   6
ENDBRANCH   4   5
ENDBRANCH   3   4
ENDBRANCH   2   3
ENDBRANCH   1   2
BRANCH   1  15
ATOM     15  C   UNL     1     177.982 203.564 196.146  1.00  0.00     0.000 C 
BRANCH  15  16
ATOM     16  C   UNL     1     178.711 204.606 195.280  1.00  0.00     0.000 C 
BRANCH  16  17
ATOM     17  C   UNL     1     179.533 205.596 196.133  1.00  0.00     0.000 C 
BRANCH  17  18
ATOM     18  C   UNL     1     179.162 207.074 195.899  1.00  0.00    -0.000 C 
BRANCH  18  19
ATOM     19  C   UNL     1     178.245 207.327 194.690  1.00  0.00    -0.000 C 
BRANCH  19  20
ATOM     20  C   UNL     1     176.956 208.077 195.067  1.00  0.00    -0.000 C 
BRANCH  20  21
ATOM     21  C   UNL     1     176.691 208.079 196.582  1.00  0.00    -0.000 C 
BRANCH  21  22
ATOM     22  C   UNL     1     175.592 207.088 197.020  1.00  0.00    -0.000 C 
BRANCH  22  23
ATOM     23  C   UNL     1     174.235 207.408 196.374  1.00  0.00    -0.000 C 
BRANCH  23  24
ATOM     24  C   UNL     1     173.674 206.186 195.632  1.00  0.00    -0.000 C 
BRANCH  24  25
ATOM     25  C   UNL     1     174.719 205.072 195.454  1.00  0.00    -0.003 C 
ATOM     26  C   UNL     1     175.184 204.921 194.007  1.00  0.00     0.004 C 
ENDBRANCH  24  25
ENDBRANCH  23  24
ENDBRANCH  22  23
ENDBRANCH  21  22
ENDBRANCH  20  21
ENDBRANCH  19  20
ENDBRANCH  18  19
ENDBRANCH  17  18
ENDBRANCH  16  17
ENDBRANCH  15  16
ENDBRANCH   1  15
TORSDOF 22
ENDMDL
MODEL 6
REMARK VINA RESULT:    -1.665      2.766      4.871
REMARK INTER + INTRA:          -8.354
REMARK INTER:                  -3.984
REMARK INTRA:                  -4.369
REMARK UNBOUND:                -4.548
REMARK SMILES CCCCCCCCCCCCCCCCCCCCCCCC(=O)[O-]
REMARK SMILES IDX 13 1 14 2 15 3 16 4 17 5 18 6 19 7 20 8 21 9 22 10 23 11
REMARK SMILES IDX 24 12 25 13 26 14 12 15 11 16 10 17 9 18 8 19 7 20 6 21 5 22
REMARK SMILES IDX 4 23 3 24 2 25 1 26
REMARK H PARENT
REMARK Flexibility Score: inf
ROOT
ATOM      1  C   UNL     1     176.154 203.979 198.900  1.00  0.00     0.000 C 
ENDROOT
BRANCH   1   2
ATOM      2  C   UNL     1     176.548 203.124 200.117  1.00  0.00     0.000 C 
BRANCH   2   3
ATOM      3  C   UNL     1     176.279 203.842 201.457  1.00  0.00     0.000 C 
BRANCH   3   4
ATOM      4  C   UNL     1     177.487 204.638 201.990  1.00  0.00     0.000 C 
BRANCH   4   5
ATOM      5  C   UNL     1     177.158 206.049 202.509  1.00  0.00     0.000 C 
BRANCH   5   6
ATOM      6  C   UNL     1     176.025 206.769 201.750  1.00  0.00     0.000 C 
BRANCH   6   7
ATOM      7  C   UNL     1     176.507 207.980 200.922  1.00  0.00     0.000 C 
BRANCH   7   8
ATOM      8  C   UNL     1     177.299 207.559 199.672  1.00  0.00     0.000 C 
BRANCH   8   9
ATOM      9  C   UNL     1     178.812 207.785 199.825  1.00  0.00     0.000 C 
BRANCH   9  10
ATOM     10  C   UNL     1     179.644 206.605 199.293  1.00  0.00     0.006 C 
BRANCH  10  11
ATOM     11  C   UNL     1     179.122 206.089 197.946  1.00  0.00     0.053 C 
BRANCH  11  12
ATOM     12  C   UNL     1     179.552 206.966 196.809  1.00  0.00     0.041 C 
ATOM     13  O   UNL     1     178.691 207.546 196.095  1.00  0.00    -0.550 OA
ATOM     14  O   UNL     1     180.903 207.126 196.524  1.00  0.00    -0.550 OA
ENDBRANCH  11  12
ENDBRANCH  10  11
ENDBRANCH   9  10
ENDBRANCH   8   9
ENDBRANCH   7   8
ENDBRANCH   6   7
ENDBRANCH   5   6
ENDBRANCH   4   5
ENDBRANCH   3   4
ENDBRANCH   2   3
ENDBRANCH   1   2
BRANCH   1  15
ATOM     15  C   UNL     1     174.669 204.379 198.913  1.00  0.00     0.000 C 
BRANCH  15  16
ATOM     16  C   UNL     1     174.341 205.475 197.884  1.00  0.00     0.000 C 
BRANCH  16  17
ATOM     17  C   UNL     1     174.062 206.836 198.556  1.00  0.00     0.000 C 
BRANCH  17  18
ATOM     18  C   UNL     1     174.132 208.033 197.588  1.00  0.00    -0.000 C 
BRANCH  18  19
ATOM     19  C   UNL     1     175.158 207.886 196.451  1.00  0.00    -0.000 C 
BRANCH  19  20
ATOM     20  C   UNL     1     174.545 208.123 195.060  1.00  0.00    -0.000 C 
BRANCH  20  21
ATOM     21  C   UNL     1     173.092 207.628 194.960  1.00  0.00    -0.000 C 
BRANCH  21  22
ATOM     22  C   UNL     1     172.972 206.124 194.634  1.00  0.00    -0.000 C 
BRANCH  22  23
ATOM     23  C   UNL     1     174.067 205.654 193.664  1.00  0.00    -0.000 C 
BRANCH  23  24
ATOM     24  C   UNL     1     174.341 204.151 193.826  1.00  0.00    -0.000 C 
BRANCH  24  25
ATOM     25  C   UNL     1     175.439 203.859 194.862  1.00  0.00    -0.003 C 
ATOM     26  C   UNL     1     176.564 204.894 194.844  1.00  0.00     0.004 C 
ENDBRANCH  24  25
ENDBRANCH  23  24
ENDBRANCH  22  23
ENDBRANCH  21  22
ENDBRANCH  20  21
ENDBRANCH  19  20
ENDBRANCH  18  19
ENDBRANCH  17  18
ENDBRANCH  16  17
ENDBRANCH  15  16
ENDBRANCH   1  15
TORSDOF 22
ENDMDL
MODEL 7
REMARK VINA RESULT:    -1.645      2.409      5.099
REMARK INTER + INTRA:          -8.309
REMARK INTER:                  -4.524
REMARK INTRA:                  -3.785
REMARK UNBOUND:                -4.548
REMARK SMILES CCCCCCCCCCCCCCCCCCCCCCCC(=O)[O-]
REMARK SMILES IDX 13 1 14 2 15 3 16 4 17 5 18 6 19 7 20 8 21 9 22 10 23 11
REMARK SMILES IDX 24 12 25 13 26 14 12 15 11 16 10 17 9 18 8 19 7 20 6 21 5 22
REMARK SMILES IDX 4 23 3 24 2 25 1 26
REMARK H PARENT
REMARK Flexibility Score: inf
ROOT
ATOM      1  C   UNL     1     177.412 205.710 201.713  1.00  0.00     0.000 C 
ENDROOT
BRANCH   1   2
ATOM      2  C   UNL     1     178.283 205.075 202.811  1.00  0.00     0.000 C 
BRANCH   2   3
ATOM      3  C   UNL     1     179.793 205.264 202.551  1.00  0.00     0.000 C 
BRANCH   3   4
ATOM      4  C   UNL     1     180.169 205.287 201.056  1.00  0.00     0.000 C 
BRANCH   4   5
ATOM      5  C   UNL     1     180.759 206.617 200.554  1.00  0.00     0.000 C 
BRANCH   5   6
ATOM      6  C   UNL     1     180.338 207.013 199.125  1.00  0.00     0.000 C 
BRANCH   6   7
ATOM      7  C   UNL     1     178.848 207.398 199.003  1.00  0.00     0.000 C 
BRANCH   7   8
ATOM      8  C   UNL     1     178.221 206.906 197.687  1.00  0.00     0.000 C 
BRANCH   8   9
ATOM      9  C   UNL     1     177.045 207.783 197.226  1.00  0.00     0.000 C 
BRANCH   9  10
ATOM     10  C   UNL     1     176.858 207.768 195.698  1.00  0.00     0.006 C 
BRANCH  10  11
ATOM     11  C   UNL     1     175.564 207.057 195.281  1.00  0.00     0.053 C 
BRANCH  11  12
ATOM     12  C   UNL     1     175.510 206.818 193.803  1.00  0.00     0.041 C 
ATOM     13  O   UNL     1     174.905 205.812 193.345  1.00  0.00    -0.550 OA
ATOM     14  O   UNL     1     176.147 207.693 192.931  1.00  0.00    -0.550 OA
ENDBRANCH  11  12
ENDBRANCH  10  11
ENDBRANCH   9  10
ENDBRANCH   8   9
ENDBRANCH   7   8
ENDBRANCH   6   7
ENDBRANCH   5   6
ENDBRANCH   4   5
ENDBRANCH   3   4
ENDBRANCH   2   3
ENDBRANCH   1   2
BRANCH   1  15
ATOM     15  C   UNL     1     176.340 206.656 202.279  1.00  0.00     0.000 C 
BRANCH  15  16
ATOM     16  C   UNL     1     176.367 208.047 201.621  1.00  0.00     0.000 C 
BRANCH  16  17
ATOM     17  C   UNL     1     175.436 208.125 200.393  1.00  0.00     0.000 C 
BRANCH  17  18
ATOM     18  C   UNL     1     174.012 207.598 200.659  1.00  0.00    -0.000 C 
BRANCH  18  19
ATOM     19  C   UNL     1     173.481 206.610 199.607  1.00  0.00    -0.000 C 
BRANCH  19  20
ATOM     20  C   UNL     1     174.603 205.953 198.785  1.00  0.00    -0.000 C 
BRANCH  20  21
ATOM     21  C   UNL     1     174.841 204.484 199.172  1.00  0.00    -0.000 C 
BRANCH  21  22
ATOM     22  C   UNL     1     176.231 203.953 198.763  1.00  0.00    -0.000 C 
BRANCH  22  23
ATOM     23  C   UNL     1     176.159 202.534 198.179  1.00  0.00    -0.000 C 
BRANCH  23  24
ATOM     24  C   UNL     1     177.068 202.396 196.949  1.00  0.00    -0.000 C 
BRANCH  24  25
ATOM     25  C   UNL     1     176.664 203.343 195.807  1.00  0.00    -0.003 C 
ATOM     26  C   UNL     1     177.840 204.157 195.266  1.00  0.00     0.004 C 
ENDBRANCH  24  25
ENDBRANCH  23  24
ENDBRANCH  22  23
ENDBRANCH  21  22
ENDBRANCH  20  21
ENDBRANCH  19  20
ENDBRANCH  18  19
ENDBRANCH  17  18
ENDBRANCH  16  17
ENDBRANCH  15  16
ENDBRANCH   1  15
TORSDOF 22
ENDMDL
MODEL 8
REMARK VINA RESULT:    -0.273      2.982      5.553
REMARK INTER + INTRA:          -5.172
REMARK INTER:                  -0.654
REMARK INTRA:                  -4.518
REMARK UNBOUND:                -4.548
REMARK SMILES CCCCCCCCCCCCCCCCCCCCCCCC(=O)[O-]
REMARK SMILES IDX 13 1 14 2 15 3 16 4 17 5 18 6 19 7 20 8 21 9 22 10 23 11
REMARK SMILES IDX 24 12 25 13 26 14 12 15 11 16 10 17 9 18 8 19 7 20 6 21 5 22
REMARK SMILES IDX 4 23 3 24 2 25 1 26
REMARK H PARENT
REMARK Flexibility Score: inf
ROOT
ATOM      1  C   UNL     1     175.252 203.626 199.301  1.00  0.00     0.000 C 
ENDROOT
BRANCH   1   2
ATOM      2  C   UNL     1     175.695 202.745 200.483  1.00  0.00     0.000 C 
BRANCH   2   3
ATOM      3  C   UNL     1     176.853 203.373 201.288  1.00  0.00     0.000 C 
BRANCH   3   4
ATOM      4  C   UNL     1     176.493 203.689 202.753  1.00  0.00     0.000 C 
BRANCH   4   5
ATOM      5  C   UNL     1     176.382 205.188 203.086  1.00  0.00     0.000 C 
BRANCH   5   6
ATOM      6  C   UNL     1     177.028 206.129 202.051  1.00  0.00     0.000 C 
BRANCH   6   7
ATOM      7  C   UNL     1     176.199 207.401 201.767  1.00  0.00     0.000 C 
BRANCH   7   8
ATOM      8  C   UNL     1     176.653 208.123 200.486  1.00  0.00     0.000 C 
BRANCH   8   9
ATOM      9  C   UNL     1     176.038 207.518 199.215  1.00  0.00     0.000 C 
BRANCH   9  10
ATOM     10  C   UNL     1     177.097 207.166 198.154  1.00  0.00     0.006 C 
BRANCH  10  11
ATOM     11  C   UNL     1     178.494 206.996 198.766  1.00  0.00     0.053 C 
BRANCH  11  12
ATOM     12  C   UNL     1     178.931 205.563 198.769  1.00  0.00     0.041 C 
ATOM     13  O   UNL     1     179.886 205.193 199.504  1.00  0.00    -0.550 OA
ATOM     14  O   UNL     1     178.300 204.639 197.945  1.00  0.00    -0.550 OA
ENDBRANCH  11  12
ENDBRANCH  10  11
ENDBRANCH   9  10
ENDBRANCH   8   9
ENDBRANCH   7   8
ENDBRANCH   6   7
ENDBRANCH   5   6
ENDBRANCH   4   5
ENDBRANCH   3   4
ENDBRANCH   2   3
ENDBRANCH   1   2
BRANCH   1  15
ATOM     15  C   UNL     1     173.889 204.294 199.538  1.00  0.00     0.000 C 
BRANCH  15  16
ATOM     16  C   UNL     1     173.101 203.647 200.691  1.00  0.00     0.000 C 
BRANCH  16  17
ATOM     17  C   UNL     1     172.746 204.667 201.794  1.00  0.00     0.000 C 
BRANCH  17  18
ATOM     18  C   UNL     1     173.193 206.107 201.475  1.00  0.00    -0.000 C 
BRANCH  18  19
ATOM     19  C   UNL     1     172.169 207.197 201.835  1.00  0.00    -0.000 C 
BRANCH  19  20
ATOM     20  C   UNL     1     171.845 208.125 200.651  1.00  0.00    -0.000 C 
BRANCH  20  21
ATOM     21  C   UNL     1     172.306 207.549 199.301  1.00  0.00    -0.000 C 
BRANCH  21  22
ATOM     22  C   UNL     1     171.146 207.053 198.411  1.00  0.00    -0.000 C 
BRANCH  22  23
ATOM     23  C   UNL     1     171.639 206.152 197.269  1.00  0.00    -0.000 C 
BRANCH  23  24
ATOM     24  C   UNL     1     173.096 206.471 196.903  1.00  0.00    -0.000 C 
BRANCH  24  25
ATOM     25  C   UNL     1     173.210 207.397 195.681  1.00  0.00    -0.003 C 
ATOM     26  C   UNL     1     174.552 208.125 195.610  1.00  0.00     0.004 C 
ENDBRANCH  24  25
ENDBRANCH  23  24
ENDBRANCH  22  23
ENDBRANCH  21  22
ENDBRANCH  20  21
ENDBRANCH  19  20
ENDBRANCH  18  19
ENDBRANCH  17  18
ENDBRANCH  16  17
ENDBRANCH  15  16
ENDBRANCH   1  15
TORSDOF 22
ENDMDL
MODEL 9
REMARK VINA RESULT:     0.620      2.672      5.489
REMARK INTER + INTRA:          -3.130
REMARK INTER:                   0.963
REMARK INTRA:                  -4.093
REMARK UNBOUND:                -4.548
REMARK SMILES CCCCCCCCCCCCCCCCCCCCCCCC(=O)[O-]
REMARK SMILES IDX 13 1 14 2 15 3 16 4 17 5 18 6 19 7 20 8 21 9 22 10 23 11
REMARK SMILES IDX 24 12 25 13 26 14 12 15 11 16 10 17 9 18 8 19 7 20 6 21 5 22
REMARK SMILES IDX 4 23 3 24 2 25 1 26
REMARK H PARENT
REMARK Flexibility Score: inf
ROOT
ATOM      1  C   UNL     1     172.673 204.384 201.542  1.00  0.00     0.000 C 
ENDROOT
BRANCH   1   2
ATOM      2  C   UNL     1     172.415 205.544 202.519  1.00  0.00     0.000 C 
BRANCH   2   3
ATOM      3  C   UNL     1     171.302 206.495 202.028  1.00  0.00     0.000 C 
BRANCH   3   4
ATOM      4  C   UNL     1     171.773 207.948 201.816  1.00  0.00     0.000 C 
BRANCH   4   5
ATOM      5  C   UNL     1     173.170 208.094 201.188  1.00  0.00     0.000 C 
BRANCH   5   6
ATOM      6  C   UNL     1     173.185 208.125 199.647  1.00  0.00     0.000 C 
BRANCH   6   7
ATOM      7  C   UNL     1     173.691 206.814 199.006  1.00  0.00     0.000 C 
BRANCH   7   8
ATOM      8  C   UNL     1     172.610 206.120 198.160  1.00  0.00     0.000 C 
BRANCH   8   9
ATOM      9  C   UNL     1     171.337 206.969 198.010  1.00  0.00     0.000 C 
BRANCH   9  10
ATOM     10  C   UNL     1     170.066 206.212 198.434  1.00  0.00     0.006 C 
BRANCH  10  11
ATOM     11  C   UNL     1     170.336 204.721 198.680  1.00  0.00     0.053 C 
BRANCH  11  12
ATOM     12  C   UNL     1     169.712 203.860 197.624  1.00  0.00     0.041 C 
ATOM     13  O   UNL     1     168.567 204.136 197.177  1.00  0.00    -0.550 OA
ATOM     14  O   UNL     1     170.385 202.741 197.149  1.00  0.00    -0.550 OA
ENDBRANCH  11  12
ENDBRANCH  10  11
ENDBRANCH   9  10
ENDBRANCH   8   9
ENDBRANCH   7   8
ENDBRANCH   6   7
ENDBRANCH   5   6
ENDBRANCH   4   5
ENDBRANCH   3   4
ENDBRANCH   2   3
ENDBRANCH   1   2
BRANCH   1  15
ATOM     15  C   UNL     1     174.170 204.106 201.333  1.00  0.00     0.000 C 
BRANCH  15  16
ATOM     16  C   UNL     1     175.068 204.997 202.210  1.00  0.00     0.000 C 
BRANCH  16  17
ATOM     17  C   UNL     1     176.223 205.628 201.402  1.00  0.00     0.000 C 
BRANCH  17  18
ATOM     18  C   UNL     1     176.576 207.062 201.840  1.00  0.00    -0.000 C 
BRANCH  18  19
ATOM     19  C   UNL     1     176.944 208.017 200.692  1.00  0.00    -0.000 C 
BRANCH  19  20
ATOM     20  C   UNL     1     178.312 207.695 200.064  1.00  0.00    -0.000 C 
BRANCH  20  21
ATOM     21  C   UNL     1     178.217 207.393 198.559  1.00  0.00    -0.000 C 
BRANCH  21  22
ATOM     22  C   UNL     1     176.787 207.523 197.991  1.00  0.00    -0.000 C 
BRANCH  22  23
ATOM     23  C   UNL     1     176.789 207.782 196.476  1.00  0.00    -0.000 C 
BRANCH  23  24
ATOM     24  C   UNL     1     175.541 207.183 195.811  1.00  0.00    -0.000 C 
BRANCH  24  25
ATOM     25  C   UNL     1     175.402 207.594 194.337  1.00  0.00    -0.003 C 
ATOM     26  C   UNL     1     174.010 208.125 193.997  1.00  0.00     0.004 C 
ENDBRANCH  24  25
ENDBRANCH  23  24
ENDBRANCH  22  23
ENDBRANCH  21  22
ENDBRANCH  20  21
ENDBRANCH  19  20
ENDBRANCH  18  19
ENDBRANCH  17  18
ENDBRANCH  16  17
ENDBRANCH  15  16
ENDBRANCH   1  15
TORSDOF 22
ENDMDL
