MODEL 1
REMARK VINA RESULT:    -5.436      0.000      0.000
REMARK INTER + INTRA:          -6.565
REMARK INTER:                  -6.231
REMARK INTRA:                  -0.335
REMARK UNBOUND:                -0.335
REMARK SMILES COc1ccc(C(C)=O)c(O)c1
REMARK SMILES IDX 6 1 10 2 12 3 3 4 4 5 5 6 7 7 8 8 9 9 11 10 2 12 1 13
REMARK H PARENT 11 11
REMARK Flexibility Score: inf
ROOT
ATOM      1  C   UNL     1      -1.152  28.948  51.883  1.00  0.00     0.059 A 
ATOM      2  C   UNL     1      -0.073  29.278  52.735  1.00  0.00     0.130 A 
ATOM      3  C   UNL     1       0.527  28.287  53.526  1.00  0.00     0.093 A 
ATOM      4  C   UNL     1       0.071  26.967  53.492  1.00  0.00     0.122 A 
ATOM      5  C   UNL     1      -1.003  26.636  52.651  1.00  0.00     0.047 A 
ATOM      6  C   UNL     1      -1.607  27.614  51.858  1.00  0.00     0.019 A 
ENDROOT
BRANCH   1   7
ATOM      7  C   UNL     1      -1.803  29.978  51.023  1.00  0.00     0.163 C 
ATOM      8  C   UNL     1      -3.289  30.011  50.817  1.00  0.00     0.093 C 
ATOM      9  O   UNL     1      -1.102  30.835  50.422  1.00  0.00    -0.294 OA
ENDBRANCH   1   7
BRANCH   2  10
ATOM     10  O   UNL     1       0.401  30.588  52.808  1.00  0.00    -0.507 OA
ATOM     11  H   UNL     1       0.601  31.035  53.695  1.00  0.00     0.293 HD
ENDBRANCH   2  10
BRANCH   4  12
ATOM     12  O   UNL     1       0.710  26.020  54.308  1.00  0.00    -0.497 OA
ATOM     13  C   UNL     1       1.894  26.274  55.057  1.00  0.00     0.278 C 
ENDBRANCH   4  12
TORSDOF 3
ENDMDL
MODEL 2
REMARK VINA RESULT:    -5.091      1.424      4.637
REMARK INTER + INTRA:          -6.170
REMARK INTER:                  -5.875
REMARK INTRA:                  -0.295
REMARK UNBOUND:                -0.335
REMARK SMILES COc1ccc(C(C)=O)c(O)c1
REMARK SMILES IDX 6 1 10 2 12 3 3 4 4 5 5 6 7 7 8 8 9 9 11 10 2 12 1 13
REMARK H PARENT 11 11
REMARK Flexibility Score: inf
ROOT
ATOM      1  C   UNL     1       0.500  26.924  53.510  1.00  0.00     0.059 A 
ATOM      2  C   UNL     1       0.578  28.137  52.787  1.00  0.00     0.130 A 
ATOM      3  C   UNL     1      -0.560  28.646  52.143  1.00  0.00     0.093 A 
ATOM      4  C   UNL     1      -1.780  27.968  52.199  1.00  0.00     0.122 A 
ATOM      5  C   UNL     1      -1.861  26.762  52.913  1.00  0.00     0.047 A 
ATOM      6  C   UNL     1      -0.735  26.247  53.560  1.00  0.00     0.019 A 
ENDROOT
BRANCH   1   7
ATOM      7  C   UNL     1       1.691  26.365  54.214  1.00  0.00     0.163 C 
ATOM      8  C   UNL     1       1.813  26.398  55.709  1.00  0.00     0.093 C 
ATOM      9  O   UNL     1       2.643  25.871  53.552  1.00  0.00    -0.294 OA
ENDBRANCH   1   7
BRANCH   2  10
ATOM     10  O   UNL     1       1.782  28.835  52.696  1.00  0.00    -0.507 OA
ATOM     11  H   UNL     1       2.267  28.949  51.813  1.00  0.00     0.293 HD
ENDBRANCH   2  10
BRANCH   4  12
ATOM     12  O   UNL     1      -2.883  28.525  51.534  1.00  0.00    -0.497 OA
ATOM     13  C   UNL     1      -2.915  29.844  50.997  1.00  0.00     0.278 C 
ENDBRANCH   4  12
TORSDOF 3
ENDMDL
MODEL 3
REMARK VINA RESULT:    -4.954      1.721      4.932
REMARK INTER + INTRA:          -6.013
REMARK INTER:                  -5.681
REMARK INTRA:                  -0.331
REMARK UNBOUND:                -0.335
REMARK SMILES COc1ccc(C(C)=O)c(O)c1
REMARK SMILES IDX 6 1 10 2 12 3 3 4 4 5 5 6 7 7 8 8 9 9 11 10 2 12 1 13
REMARK H PARENT 11 11
REMARK Flexibility Score: inf
ROOT
ATOM      1  C   UNL     1       0.032  28.123  53.220  1.00  0.00     0.059 A 
ATOM      2  C   UNL     1      -1.076  27.275  52.987  1.00  0.00     0.130 A 
ATOM      3  C   UNL     1      -2.150  27.722  52.205  1.00  0.00     0.093 A 
ATOM      4  C   UNL     1      -2.150  29.004  51.649  1.00  0.00     0.122 A 
ATOM      5  C   UNL     1      -1.054  29.850  51.882  1.00  0.00     0.047 A 
ATOM      6  C   UNL     1       0.023  29.414  52.657  1.00  0.00     0.019 A 
ENDROOT
BRANCH   1   7
ATOM      7  C   UNL     1       1.194  27.670  54.039  1.00  0.00     0.163 C 
ATOM      8  C   UNL     1       2.566  27.521  53.448  1.00  0.00     0.093 C 
ATOM      9  O   UNL     1       1.036  27.374  55.253  1.00  0.00    -0.294 OA
ENDBRANCH   1   7
BRANCH   2  10
ATOM     10  O   UNL     1      -1.119  25.993  53.536  1.00  0.00    -0.507 OA
ATOM     11  H   UNL     1      -0.844  25.176  53.005  1.00  0.00     0.293 HD
ENDBRANCH   2  10
BRANCH   4  12
ATOM     12  O   UNL     1      -3.255  29.396  50.877  1.00  0.00    -0.497 OA
ATOM     13  C   UNL     1      -3.466  30.717  50.389  1.00  0.00     0.278 C 
ENDBRANCH   4  12
TORSDOF 3
ENDMDL
MODEL 4
REMARK VINA RESULT:    -4.908      1.960      4.657
REMARK INTER + INTRA:          -5.960
REMARK INTER:                  -5.690
REMARK INTRA:                  -0.270
REMARK UNBOUND:                -0.335
REMARK SMILES COc1ccc(C(C)=O)c(O)c1
REMARK SMILES IDX 6 1 10 2 12 3 3 4 4 5 5 6 7 7 8 8 9 9 11 10 2 12 1 13
REMARK H PARENT 11 11
REMARK Flexibility Score: inf
ROOT
ATOM      1  C   UNL     1      -1.254  29.255  53.146  1.00  0.00     0.059 A 
ATOM      2  C   UNL     1      -0.119  29.530  52.348  1.00  0.00     0.130 A 
ATOM      3  C   UNL     1      -0.268  30.179  51.114  1.00  0.00     0.093 A 
ATOM      4  C   UNL     1      -1.530  30.558  50.649  1.00  0.00     0.122 A 
ATOM      5  C   UNL     1      -2.660  30.283  51.436  1.00  0.00     0.047 A 
ATOM      6  C   UNL     1      -2.523  29.640  52.668  1.00  0.00     0.019 A 
ENDROOT
BRANCH   1   7
ATOM      7  C   UNL     1      -1.125  28.577  54.468  1.00  0.00     0.163 C 
ATOM      8  C   UNL     1      -2.125  28.790  55.566  1.00  0.00     0.093 C 
ATOM      9  O   UNL     1      -0.143  27.822  54.700  1.00  0.00    -0.294 OA
ENDBRANCH   1   7
BRANCH   2  10
ATOM     10  O   UNL     1       1.156  29.154  52.771  1.00  0.00    -0.507 OA
ATOM     11  H   UNL     1       1.507  28.214  52.634  1.00  0.00     0.293 HD
ENDBRANCH   2  10
BRANCH   4  12
ATOM     12  O   UNL     1      -1.616  31.202  49.405  1.00  0.00    -0.497 OA
ATOM     13  C   UNL     1      -0.876  30.820  48.250  1.00  0.00     0.278 C 
ENDBRANCH   4  12
TORSDOF 3
ENDMDL
MODEL 5
REMARK VINA RESULT:    -4.858      1.335      2.153
REMARK INTER + INTRA:          -5.903
REMARK INTER:                  -5.601
REMARK INTRA:                  -0.303
REMARK UNBOUND:                -0.335
REMARK SMILES COc1ccc(C(C)=O)c(O)c1
REMARK SMILES IDX 6 1 10 2 12 3 3 4 4 5 5 6 7 7 8 8 9 9 11 10 2 12 1 13
REMARK H PARENT 11 11
REMARK Flexibility Score: inf
ROOT
ATOM      1  C   UNL     1      -1.075  29.182  51.956  1.00  0.00     0.059 A 
ATOM      2  C   UNL     1      -1.747  27.942  52.053  1.00  0.00     0.130 A 
ATOM      3  C   UNL     1      -1.179  26.889  52.786  1.00  0.00     0.093 A 
ATOM      4  C   UNL     1       0.054  27.043  53.425  1.00  0.00     0.122 A 
ATOM      5  C   UNL     1       0.727  28.271  53.328  1.00  0.00     0.047 A 
ATOM      6  C   UNL     1       0.169  29.327  52.603  1.00  0.00     0.019 A 
ENDROOT
BRANCH   1   7
ATOM      7  C   UNL     1      -1.661  30.322  51.193  1.00  0.00     0.163 C 
ATOM      8  C   UNL     1      -1.028  30.837  49.934  1.00  0.00     0.093 C 
ATOM      9  O   UNL     1      -2.698  30.901  51.615  1.00  0.00    -0.294 OA
ENDBRANCH   1   7
BRANCH   2  10
ATOM     10  O   UNL     1      -2.973  27.745  51.417  1.00  0.00    -0.507 OA
ATOM     11  H   UNL     1      -3.421  26.836  51.390  1.00  0.00     0.293 HD
ENDBRANCH   2  10
BRANCH   4  12
ATOM     12  O   UNL     1       0.573  25.954  54.142  1.00  0.00    -0.497 OA
ATOM     13  C   UNL     1       1.794  25.982  54.874  1.00  0.00     0.278 C 
ENDBRANCH   4  12
TORSDOF 3
ENDMDL
MODEL 6
REMARK VINA RESULT:    -4.735      2.409      3.294
REMARK INTER + INTRA:          -5.762
REMARK INTER:                  -5.445
REMARK INTRA:                  -0.317
REMARK UNBOUND:                -0.335
REMARK SMILES COc1ccc(C(C)=O)c(O)c1
REMARK SMILES IDX 6 1 10 2 12 3 3 4 4 5 5 6 7 7 8 8 9 9 11 10 2 12 1 13
REMARK H PARENT 11 11
REMARK Flexibility Score: inf
ROOT
ATOM      1  C   UNL     1      -1.188  30.096  50.657  1.00  0.00     0.059 A 
ATOM      2  C   UNL     1      -2.385  29.650  51.265  1.00  0.00     0.130 A 
ATOM      3  C   UNL     1      -2.377  29.219  52.600  1.00  0.00     0.093 A 
ATOM      4  C   UNL     1      -1.196  29.216  53.346  1.00  0.00     0.122 A 
ATOM      5  C   UNL     1      -0.005  29.654  52.745  1.00  0.00     0.047 A 
ATOM      6  C   UNL     1      -0.002  30.088  51.417  1.00  0.00     0.019 A 
ENDROOT
BRANCH   1   7
ATOM      7  C   UNL     1      -1.169  30.570  49.242  1.00  0.00     0.163 C 
ATOM      8  C   UNL     1       0.028  30.373  48.360  1.00  0.00     0.093 C 
ATOM      9  O   UNL     1      -2.164  31.179  48.765  1.00  0.00    -0.294 OA
ENDBRANCH   1   7
BRANCH   2  10
ATOM     10  O   UNL     1      -3.581  29.624  50.548  1.00  0.00    -0.507 OA
ATOM     11  H   UNL     1      -4.425  30.058  50.902  1.00  0.00     0.293 HD
ENDBRANCH   2  10
BRANCH   4  12
ATOM     12  O   UNL     1      -1.250  28.772  54.677  1.00  0.00    -0.497 OA
ATOM     13  C   UNL     1      -2.398  28.876  55.512  1.00  0.00     0.278 C 
ENDBRANCH   4  12
TORSDOF 3
ENDMDL
MODEL 7
REMARK VINA RESULT:    -4.686      2.121      2.561
REMARK INTER + INTRA:          -5.706
REMARK INTER:                  -5.426
REMARK INTRA:                  -0.279
REMARK UNBOUND:                -0.335
REMARK SMILES COc1ccc(C(C)=O)c(O)c1
REMARK SMILES IDX 6 1 10 2 12 3 3 4 4 5 5 6 7 7 8 8 9 9 11 10 2 12 1 13
REMARK H PARENT 11 11
REMARK Flexibility Score: inf
ROOT
ATOM      1  C   UNL     1      -1.029  29.865  50.852  1.00  0.00     0.059 A 
ATOM      2  C   UNL     1      -0.018  29.654  51.818  1.00  0.00     0.130 A 
ATOM      3  C   UNL     1      -0.338  29.075  53.055  1.00  0.00     0.093 A 
ATOM      4  C   UNL     1      -1.651  28.704  53.356  1.00  0.00     0.122 A 
ATOM      5  C   UNL     1      -2.658  28.916  52.402  1.00  0.00     0.047 A 
ATOM      6  C   UNL     1      -2.351  29.489  51.166  1.00  0.00     0.019 A 
ENDROOT
BRANCH   1   7
ATOM      7  C   UNL     1      -0.717  30.469  49.524  1.00  0.00     0.163 C 
ATOM      8  C   UNL     1      -1.760  31.183  48.716  1.00  0.00     0.093 C 
ATOM      9  O   UNL     1       0.441  30.364  49.037  1.00  0.00    -0.294 OA
ENDBRANCH   1   7
BRANCH   2  10
ATOM     10  O   UNL     1       1.302  30.025  51.560  1.00  0.00    -0.507 OA
ATOM     11  H   UNL     1       2.060  29.354  51.589  1.00  0.00     0.293 HD
ENDBRANCH   2  10
BRANCH   4  12
ATOM     12  O   UNL     1      -1.910  28.131  54.611  1.00  0.00    -0.497 OA
ATOM     13  C   UNL     1      -2.356  28.859  55.750  1.00  0.00     0.278 C 
ENDBRANCH   4  12
TORSDOF 3
ENDMDL
MODEL 8
REMARK VINA RESULT:    -4.112      2.524      4.595
REMARK INTER + INTRA:          -5.048
REMARK INTER:                  -4.960
REMARK INTRA:                  -0.088
REMARK UNBOUND:                -0.335
REMARK SMILES COc1ccc(C(C)=O)c(O)c1
REMARK SMILES IDX 6 1 10 2 12 3 3 4 4 5 5 6 7 7 8 8 9 9 11 10 2 12 1 13
REMARK H PARENT 11 11
REMARK Flexibility Score: inf
ROOT
ATOM      1  C   UNL     1       1.038  27.815  53.815  1.00  0.00     0.059 A 
ATOM      2  C   UNL     1       0.452  27.688  55.096  1.00  0.00     0.130 A 
ATOM      3  C   UNL     1      -0.850  28.158  55.323  1.00  0.00     0.093 A 
ATOM      4  C   UNL     1      -1.585  28.759  54.299  1.00  0.00     0.122 A 
ATOM      5  C   UNL     1      -1.006  28.891  53.027  1.00  0.00     0.047 A 
ATOM      6  C   UNL     1       0.289  28.425  52.789  1.00  0.00     0.019 A 
ENDROOT
BRANCH   1   7
ATOM      7  C   UNL     1       2.417  27.315  53.542  1.00  0.00     0.163 C 
ATOM      8  C   UNL     1       2.734  25.849  53.515  1.00  0.00     0.093 C 
ATOM      9  O   UNL     1       3.360  28.129  53.352  1.00  0.00    -0.294 OA
ENDBRANCH   1   7
BRANCH   2  10
ATOM     10  O   UNL     1       1.160  27.107  56.148  1.00  0.00    -0.507 OA
ATOM     11  H   UNL     1       2.112  27.377  56.364  1.00  0.00     0.293 HD
ENDBRANCH   2  10
BRANCH   4  12
ATOM     12  O   UNL     1      -2.883  29.211  54.586  1.00  0.00    -0.497 OA
ATOM     13  C   UNL     1      -3.434  29.289  55.897  1.00  0.00     0.278 C 
ENDBRANCH   4  12
TORSDOF 3
ENDMDL
MODEL 9
REMARK VINA RESULT:    -4.030     10.199     10.607
REMARK INTER + INTRA:          -4.954
REMARK INTER:                  -4.637
REMARK INTRA:                  -0.317
REMARK UNBOUND:                -0.335
REMARK SMILES COc1ccc(C(C)=O)c(O)c1
REMARK SMILES IDX 6 1 10 2 12 3 3 4 4 5 5 6 7 7 8 8 9 9 11 10 2 12 1 13
REMARK H PARENT 11 11
REMARK Flexibility Score: inf
ROOT
ATOM      1  C   UNL     1      -2.162  37.944  57.654  1.00  0.00     0.059 A 
ATOM      2  C   UNL     1      -0.781  37.743  57.423  1.00  0.00     0.130 A 
ATOM      3  C   UNL     1      -0.075  36.790  58.171  1.00  0.00     0.093 A 
ATOM      4  C   UNL     1      -0.714  36.031  59.154  1.00  0.00     0.122 A 
ATOM      5  C   UNL     1      -2.084  36.230  59.390  1.00  0.00     0.047 A 
ATOM      6  C   UNL     1      -2.798  37.175  58.649  1.00  0.00     0.019 A 
ENDROOT
BRANCH   1   7
ATOM      7  C   UNL     1      -2.942  38.943  56.866  1.00  0.00     0.163 C 
ATOM      8  C   UNL     1      -4.015  38.526  55.905  1.00  0.00     0.093 C 
ATOM      9  O   UNL     1      -2.689  40.172  56.976  1.00  0.00    -0.294 OA
ENDBRANCH   1   7
BRANCH   2  10
ATOM     10  O   UNL     1      -0.105  38.492  56.460  1.00  0.00    -0.507 OA
ATOM     11  H   UNL     1      -0.184  38.287  55.471  1.00  0.00     0.293 HD
ENDBRANCH   2  10
BRANCH   4  12
ATOM     12  O   UNL     1       0.046  35.094  59.872  1.00  0.00    -0.497 OA
ATOM     13  C   UNL     1      -0.038  34.901  61.280  1.00  0.00     0.278 C 
ENDBRANCH   4  12
TORSDOF 3
ENDMDL
