MODEL 1
REMARK VINA RESULT:    -3.244      0.000      0.000
REMARK INTER + INTRA:          -3.987
REMARK INTER:                  -3.813
REMARK INTRA:                  -0.174
REMARK UNBOUND:                -0.174
REMARK SMILES COc1ccc(C=CC(=O)[O-])cc1
REMARK SMILES IDX 6 1 5 2 12 3 4 4 13 5 3 6 7 7 8 8 9 9 10 10 11 11 2 12 1 13
REMARK H PARENT
REMARK Flexibility Score: inf
ROOT
ATOM      1  C   UNL     1      12.350  14.250  21.145  1.00  0.00    -0.025 A 
ATOM      2  C   UNL     1      12.492  14.688  19.818  1.00  0.00     0.012 A 
ATOM      3  C   UNL     1      11.337  13.319  21.446  1.00  0.00     0.012 A 
ATOM      4  C   UNL     1      11.628  14.231  18.819  1.00  0.00     0.047 A 
ATOM      5  C   UNL     1      10.475  12.862  20.445  1.00  0.00     0.047 A 
ATOM      6  C   UNL     1      10.608  13.313  19.129  1.00  0.00     0.118 A 
ENDROOT
BRANCH   1   7
ATOM      7  C   UNL     1      13.299  14.759  22.167  1.00  0.00     0.010 C 
ATOM      8  C   UNL     1      13.605  16.054  22.322  1.00  0.00     0.025 C 
BRANCH   8   9
ATOM      9  C   UNL     1      14.560  16.520  23.341  1.00  0.00     0.064 C 
ATOM     10  O   UNL     1      15.124  15.710  24.124  1.00  0.00    -0.545 OA
ATOM     11  O   UNL     1      14.842  17.876  23.442  1.00  0.00    -0.545 OA
ENDBRANCH   8   9
ENDBRANCH   1   7
BRANCH   6  12
ATOM     12  O   UNL     1       9.716  12.825  18.162  1.00  0.00    -0.497 OA
ATOM     13  C   UNL     1       8.477  12.191  18.458  1.00  0.00     0.278 C 
ENDBRANCH   6  12
TORSDOF 3
ENDMDL
MODEL 2
REMARK VINA RESULT:    -2.610      1.155      6.183
REMARK INTER + INTRA:          -3.242
REMARK INTER:                  -3.077
REMARK INTRA:                  -0.165
REMARK UNBOUND:                -0.174
REMARK SMILES COc1ccc(C=CC(=O)[O-])cc1
REMARK SMILES IDX 6 1 5 2 12 3 4 4 13 5 3 6 7 7 8 8 9 9 10 10 11 11 2 12 1 13
REMARK H PARENT
REMARK Flexibility Score: inf
ROOT
ATOM      1  C   UNL     1      12.363  14.196  21.778  1.00  0.00    -0.025 A 
ATOM      2  C   UNL     1      13.375  14.949  21.161  1.00  0.00     0.012 A 
ATOM      3  C   UNL     1      12.216  14.277  23.177  1.00  0.00     0.012 A 
ATOM      4  C   UNL     1      14.238  15.744  21.921  1.00  0.00     0.047 A 
ATOM      5  C   UNL     1      13.079  15.074  23.934  1.00  0.00     0.047 A 
ATOM      6  C   UNL     1      14.095  15.809  23.319  1.00  0.00     0.118 A 
ENDROOT
BRANCH   1   7
ATOM      7  C   UNL     1      11.468  13.374  20.926  1.00  0.00     0.010 C 
ATOM      8  C   UNL     1      10.767  13.861  19.894  1.00  0.00     0.025 C 
BRANCH   8   9
ATOM      9  C   UNL     1       9.879  13.016  19.077  1.00  0.00     0.064 C 
ATOM     10  O   UNL     1       9.520  11.875  19.473  1.00  0.00    -0.545 OA
ATOM     11  O   UNL     1       9.431  13.485  17.850  1.00  0.00    -0.545 OA
ENDBRANCH   8   9
ENDBRANCH   1   7
BRANCH   6  12
ATOM     12  O   UNL     1      14.936  16.593  24.125  1.00  0.00    -0.497 OA
ATOM     13  C   UNL     1      15.120  17.995  23.970  1.00  0.00     0.278 C 
ENDBRANCH   6  12
TORSDOF 3
ENDMDL
MODEL 3
REMARK VINA RESULT:    -2.562     24.314     25.651
REMARK INTER + INTRA:          -3.185
REMARK INTER:                  -3.028
REMARK INTRA:                  -0.156
REMARK UNBOUND:                -0.174
REMARK SMILES COc1ccc(C=CC(=O)[O-])cc1
REMARK SMILES IDX 6 1 5 2 12 3 4 4 13 5 3 6 7 7 8 8 9 9 10 10 11 11 2 12 1 13
REMARK H PARENT
REMARK Flexibility Score: inf
ROOT
ATOM      1  C   UNL     1      -2.230  30.451   6.647  1.00  0.00    -0.025 A 
ATOM      2  C   UNL     1      -1.671  29.902   5.482  1.00  0.00     0.012 A 
ATOM      3  C   UNL     1      -3.601  30.250   6.902  1.00  0.00     0.012 A 
ATOM      4  C   UNL     1      -2.464  29.190   4.577  1.00  0.00     0.047 A 
ATOM      5  C   UNL     1      -4.391  29.537   5.997  1.00  0.00     0.047 A 
ATOM      6  C   UNL     1      -3.836  29.005   4.829  1.00  0.00     0.118 A 
ENDROOT
BRANCH   1   7
ATOM      7  C   UNL     1      -1.344  31.191   7.581  1.00  0.00     0.010 C 
ATOM      8  C   UNL     1      -1.350  31.018   8.909  1.00  0.00     0.025 C 
BRANCH   8   9
ATOM      9  C   UNL     1      -0.463  31.779   9.805  1.00  0.00     0.064 C 
ATOM     10  O   UNL     1      -0.840  32.123  10.958  1.00  0.00    -0.545 OA
ATOM     11  O   UNL     1       0.810  32.125   9.373  1.00  0.00    -0.545 OA
ENDBRANCH   8   9
ENDBRANCH   1   7
BRANCH   6  12
ATOM     12  O   UNL     1      -4.674  28.299   3.952  1.00  0.00    -0.497 OA
ATOM     13  C   UNL     1      -5.113  26.962   4.163  1.00  0.00     0.278 C 
ENDBRANCH   6  12
TORSDOF 3
ENDMDL
MODEL 4
REMARK VINA RESULT:    -2.231     23.893     25.938
REMARK INTER + INTRA:          -2.796
REMARK INTER:                  -2.635
REMARK INTRA:                  -0.161
REMARK UNBOUND:                -0.174
REMARK SMILES COc1ccc(C=CC(=O)[O-])cc1
REMARK SMILES IDX 6 1 5 2 12 3 4 4 13 5 3 6 7 7 8 8 9 9 10 10 11 11 2 12 1 13
REMARK H PARENT
REMARK Flexibility Score: inf
ROOT
ATOM      1  C   UNL     1      -1.819  30.424   7.504  1.00  0.00    -0.025 A 
ATOM      2  C   UNL     1      -2.537  31.536   7.970  1.00  0.00     0.012 A 
ATOM      3  C   UNL     1      -0.803  29.883   8.318  1.00  0.00     0.012 A 
ATOM      4  C   UNL     1      -2.235  32.115   9.207  1.00  0.00     0.047 A 
ATOM      5  C   UNL     1      -0.503  30.463   9.553  1.00  0.00     0.047 A 
ATOM      6  C   UNL     1      -1.210  31.580  10.008  1.00  0.00     0.118 A 
ENDROOT
BRANCH   1   7
ATOM      7  C   UNL     1      -2.184  29.841   6.189  1.00  0.00     0.010 C 
ATOM      8  C   UNL     1      -3.417  29.418   5.877  1.00  0.00     0.025 C 
BRANCH   8   9
ATOM      9  C   UNL     1      -3.739  28.835   4.564  1.00  0.00     0.064 C 
ATOM     10  O   UNL     1      -4.714  29.256   3.885  1.00  0.00    -0.545 OA
ATOM     11  O   UNL     1      -2.958  27.801   4.066  1.00  0.00    -0.545 OA
ENDBRANCH   8   9
ENDBRANCH   1   7
BRANCH   6  12
ATOM     12  O   UNL     1      -0.868  32.125  11.255  1.00  0.00    -0.497 OA
ATOM     13  C   UNL     1      -1.680  32.035  12.421  1.00  0.00     0.278 C 
ENDBRANCH   6  12
TORSDOF 3
ENDMDL
MODEL 5
REMARK VINA RESULT:    -1.621     24.212     25.329
REMARK INTER + INTRA:          -2.079
REMARK INTER:                  -1.911
REMARK INTRA:                  -0.168
REMARK UNBOUND:                -0.174
REMARK SMILES COc1ccc(C=CC(=O)[O-])cc1
REMARK SMILES IDX 6 1 5 2 12 3 4 4 13 5 3 6 7 7 8 8 9 9 10 10 11 11 2 12 1 13
REMARK H PARENT
REMARK Flexibility Score: inf
ROOT
ATOM      1  C   UNL     1      -1.107  31.672   9.046  1.00  0.00    -0.025 A 
ATOM      2  C   UNL     1       0.171  31.368   8.552  1.00  0.00     0.012 A 
ATOM      3  C   UNL     1      -2.141  31.947   8.130  1.00  0.00     0.012 A 
ATOM      4  C   UNL     1       0.422  31.363   7.176  1.00  0.00     0.047 A 
ATOM      5  C   UNL     1      -1.888  31.941   6.755  1.00  0.00     0.047 A 
ATOM      6  C   UNL     1      -0.610  31.654   6.266  1.00  0.00     0.118 A 
ENDROOT
BRANCH   1   7
ATOM      7  C   UNL     1      -1.324  31.654  10.515  1.00  0.00     0.010 C 
ATOM      8  C   UNL     1      -2.428  32.124  11.111  1.00  0.00     0.025 C 
BRANCH   8   9
ATOM      9  C   UNL     1      -2.603  32.100  12.573  1.00  0.00     0.064 C 
ATOM     10  O   UNL     1      -1.610  32.090  13.348  1.00  0.00    -0.545 OA
ATOM     11  O   UNL     1      -3.885  32.087  13.106  1.00  0.00    -0.545 OA
ENDBRANCH   8   9
ENDBRANCH   1   7
BRANCH   6  12
ATOM     12  O   UNL     1      -0.409  31.663   4.877  1.00  0.00    -0.497 OA
ATOM     13  C   UNL     1      -1.389  31.275   3.921  1.00  0.00     0.278 C 
ENDBRANCH   6  12
TORSDOF 3
ENDMDL
MODEL 6
REMARK VINA RESULT:    -1.467      1.237      1.806
REMARK INTER + INTRA:          -1.898
REMARK INTER:                  -1.737
REMARK INTRA:                  -0.161
REMARK UNBOUND:                -0.174
REMARK SMILES COc1ccc(C=CC(=O)[O-])cc1
REMARK SMILES IDX 6 1 5 2 12 3 4 4 13 5 3 6 7 7 8 8 9 9 10 10 11 11 2 12 1 13
REMARK H PARENT
REMARK Flexibility Score: inf
ROOT
ATOM      1  C   UNL     1      11.900  13.959  20.373  1.00  0.00    -0.025 A 
ATOM      2  C   UNL     1      11.621  12.667  20.847  1.00  0.00     0.012 A 
ATOM      3  C   UNL     1      11.021  14.543  19.439  1.00  0.00     0.012 A 
ATOM      4  C   UNL     1      10.507  11.961  20.384  1.00  0.00     0.047 A 
ATOM      5  C   UNL     1       9.907  13.836  18.978  1.00  0.00     0.047 A 
ATOM      6  C   UNL     1       9.641  12.544  19.440  1.00  0.00     0.118 A 
ENDROOT
BRANCH   1   7
ATOM      7  C   UNL     1      13.090  14.670  20.903  1.00  0.00     0.010 C 
ATOM      8  C   UNL     1      13.032  15.842  21.550  1.00  0.00     0.025 C 
BRANCH   8   9
ATOM      9  C   UNL     1      14.237  16.523  22.053  1.00  0.00     0.064 C 
ATOM     10  O   UNL     1      14.479  16.593  23.287  1.00  0.00    -0.545 OA
ATOM     11  O   UNL     1      15.121  17.100  21.150  1.00  0.00    -0.545 OA
ENDBRANCH   8   9
ENDBRANCH   1   7
BRANCH   6  12
ATOM     12  O   UNL     1       8.510  11.877  18.944  1.00  0.00    -0.497 OA
ATOM     13  C   UNL     1       7.896  12.157  17.691  1.00  0.00     0.278 C 
ENDBRANCH   6  12
TORSDOF 3
ENDMDL
MODEL 7
REMARK VINA RESULT:    -0.699      3.562      4.773
REMARK INTER + INTRA:          -0.995
REMARK INTER:                  -0.820
REMARK INTRA:                  -0.175
REMARK UNBOUND:                -0.174
REMARK SMILES COc1ccc(C=CC(=O)[O-])cc1
REMARK SMILES IDX 6 1 5 2 12 3 4 4 13 5 3 6 7 7 8 8 9 9 10 10 11 11 2 12 1 13
REMARK H PARENT
REMARK Flexibility Score: inf
ROOT
ATOM      1  C   UNL     1      12.166  13.963  21.378  1.00  0.00    -0.025 A 
ATOM      2  C   UNL     1      12.521  12.765  20.736  1.00  0.00     0.012 A 
ATOM      3  C   UNL     1      12.766  15.164  20.952  1.00  0.00     0.012 A 
ATOM      4  C   UNL     1      13.471  12.759  19.710  1.00  0.00     0.047 A 
ATOM      5  C   UNL     1      13.715  15.155  19.926  1.00  0.00     0.047 A 
ATOM      6  C   UNL     1      14.078  13.960  19.299  1.00  0.00     0.118 A 
ENDROOT
BRANCH   1   7
ATOM      7  C   UNL     1      11.146  13.917  22.455  1.00  0.00     0.010 C 
ATOM      8  C   UNL     1      10.210  12.963  22.556  1.00  0.00     0.025 C 
BRANCH   8   9
ATOM      9  C   UNL     1       9.206  12.957  23.634  1.00  0.00     0.064 C 
ATOM     10  O   UNL     1       8.779  11.876  24.120  1.00  0.00    -0.545 OA
ATOM     11  O   UNL     1       8.721  14.163  24.120  1.00  0.00    -0.545 OA
ENDBRANCH   8   9
ENDBRANCH   1   7
BRANCH   6  12
ATOM     12  O   UNL     1      15.037  14.006  18.275  1.00  0.00    -0.497 OA
ATOM     13  C   UNL     1      15.125  13.063  17.213  1.00  0.00     0.278 C 
ENDBRANCH   6  12
TORSDOF 3
ENDMDL
