MODEL 1
REMARK VINA RESULT:    -6.972      0.000      0.000
REMARK INTER + INTRA:          -8.667
REMARK INTER:                  -8.602
REMARK INTRA:                  -0.065
REMARK UNBOUND:                -0.065
REMARK SMILES Oc1cc(O)c2cc(O)c(-c3cc(O)c(O)c(O)c3)[o+]c2c1
REMARK SMILES IDX 10 1 20 2 21 3 22 4 2 5 3 6 4 7 6 8 7 9 8 10 11 11 12 12
REMARK SMILES IDX 13 13 19 14 15 15 17 16 14 17 16 19 18 21 9 23 1 25 5 27
REMARK H PARENT 14 18 16 20 18 22 9 24 1 26 5 28
REMARK Flexibility Score: inf
ROOT
ATOM      1  C   UNL     1       0.562  20.901 -35.113  1.00  0.00     0.402 A 
ATOM      2  O   UNL     1       1.831  20.795 -35.495  1.00  0.00    -0.202 OA
ATOM      3  C   UNL     1       2.244  21.043 -36.733  1.00  0.00     0.368 A 
ATOM      4  C   UNL     1       3.600  20.900 -37.039  1.00  0.00     0.162 A 
ATOM      5  C   UNL     1       4.062  21.150 -38.332  1.00  0.00     0.128 A 
ATOM      6  C   UNL     1       3.163  21.545 -39.329  1.00  0.00     0.093 A 
ATOM      7  C   UNL     1       1.798  21.695 -39.047  1.00  0.00     0.136 A 
ATOM      8  C   UNL     1       1.326  21.443 -37.734  1.00  0.00     0.125 A 
ATOM      9  C   UNL     1      -0.021  21.581 -37.357  1.00  0.00     0.078 A 
ATOM     10  C   UNL     1      -0.411  21.321 -36.040  1.00  0.00     0.223 A 
ENDROOT
BRANCH   1  11
ATOM     11  C   UNL     1       0.225  20.589 -33.705  1.00  0.00     0.091 A 
ATOM     12  C   UNL     1      -0.857  19.752 -33.380  1.00  0.00     0.068 A 
ATOM     13  C   UNL     1      -1.146  19.450 -32.042  1.00  0.00     0.162 A 
ATOM     14  C   UNL     1       1.034  21.090 -32.675  1.00  0.00     0.068 A 
ATOM     15  C   UNL     1      -0.344  19.976 -31.015  1.00  0.00     0.200 A 
ATOM     16  C   UNL     1       0.751  20.796 -31.337  1.00  0.00     0.162 A 
BRANCH  13  17
ATOM     17  O   UNL     1      -2.225  18.624 -31.731  1.00  0.00    -0.504 OA
ATOM     18  H   UNL     1      -2.617  17.983 -32.411  1.00  0.00     0.293 HD
ENDBRANCH  13  17
BRANCH  15  19
ATOM     19  O   UNL     1      -0.621  19.688 -29.678  1.00  0.00    -0.502 OA
ATOM     20  H   UNL     1      -1.304  20.211 -29.143  1.00  0.00     0.293 HD
ENDBRANCH  15  19
BRANCH  16  21
ATOM     21  O   UNL     1       1.571  21.326 -30.341  1.00  0.00    -0.504 OA
ATOM     22  H   UNL     1       2.063  22.203 -30.457  1.00  0.00     0.293 HD
ENDBRANCH  16  21
ENDBRANCH   1  11
BRANCH  10  23
ATOM     23  O   UNL     1      -1.738  21.505 -35.655  1.00  0.00    -0.500 OA
ATOM     24  H   UNL     1      -1.987  21.764 -34.706  1.00  0.00     0.294 HD
ENDBRANCH  10  23
BRANCH   5  25
ATOM     25  O   UNL     1       5.417  21.002 -38.618  1.00  0.00    -0.507 OA
ATOM     26  H   UNL     1       6.122  21.072 -37.893  1.00  0.00     0.293 HD
ENDBRANCH   5  25
BRANCH   7  27
ATOM     27  O   UNL     1       0.965  22.089 -40.098  1.00  0.00    -0.507 OA
ATOM     28  H   UNL     1       0.056  22.512 -39.976  1.00  0.00     0.293 HD
ENDBRANCH   7  27
TORSDOF 7
ENDMDL
MODEL 2
REMARK VINA RESULT:    -6.929      1.837      7.286
REMARK INTER + INTRA:          -8.615
REMARK INTER:                  -8.460
REMARK INTRA:                  -0.154
REMARK UNBOUND:                -0.065
REMARK SMILES Oc1cc(O)c2cc(O)c(-c3cc(O)c(O)c(O)c3)[o+]c2c1
REMARK SMILES IDX 10 1 20 2 21 3 22 4 2 5 3 6 4 7 6 8 7 9 8 10 11 11 12 12
REMARK SMILES IDX 13 13 19 14 15 15 17 16 14 17 16 19 18 21 9 23 1 25 5 27
REMARK H PARENT 14 18 16 20 18 22 9 24 1 26 5 28
REMARK Flexibility Score: inf
ROOT
ATOM      1  C   UNL     1      -0.240  19.835 -33.600  1.00  0.00     0.402 A 
ATOM      2  O   UNL     1       0.195  19.993 -32.353  1.00  0.00    -0.202 OA
ATOM      3  C   UNL     1      -0.550  19.739 -31.283  1.00  0.00     0.368 A 
ATOM      4  C   UNL     1      -0.005  19.939 -30.012  1.00  0.00     0.162 A 
ATOM      5  C   UNL     1      -0.765  19.684 -28.870  1.00  0.00     0.128 A 
ATOM      6  C   UNL     1      -2.082  19.228 -28.997  1.00  0.00     0.093 A 
ATOM      7  C   UNL     1      -2.652  19.021 -30.260  1.00  0.00     0.136 A 
ATOM      8  C   UNL     1      -1.881  19.276 -31.423  1.00  0.00     0.125 A 
ATOM      9  C   UNL     1      -2.364  19.084 -32.728  1.00  0.00     0.078 A 
ATOM     10  C   UNL     1      -1.542  19.353 -33.827  1.00  0.00     0.223 A 
ENDROOT
BRANCH   1  11
ATOM     11  C   UNL     1       0.684  20.160 -34.711  1.00  0.00     0.091 A 
ATOM     12  C   UNL     1       0.324  21.071 -35.720  1.00  0.00     0.068 A 
ATOM     13  C   UNL     1       1.222  21.382 -36.751  1.00  0.00     0.162 A 
ATOM     14  C   UNL     1       1.967  19.592 -34.730  1.00  0.00     0.068 A 
ATOM     15  C   UNL     1       2.496  20.791 -36.774  1.00  0.00     0.200 A 
ATOM     16  C   UNL     1       2.867  19.896 -35.756  1.00  0.00     0.162 A 
BRANCH  13  17
ATOM     17  O   UNL     1       0.851  22.282 -37.749  1.00  0.00    -0.504 OA
ATOM     18  H   UNL     1       1.540  22.739 -38.335  1.00  0.00     0.293 HD
ENDBRANCH  13  17
BRANCH  15  19
ATOM     19  O   UNL     1       3.400  21.088 -37.796  1.00  0.00    -0.502 OA
ATOM     20  H   UNL     1       3.176  20.944 -38.773  1.00  0.00     0.293 HD
ENDBRANCH  15  19
BRANCH  16  21
ATOM     21  O   UNL     1       4.128  19.300 -35.746  1.00  0.00    -0.504 OA
ATOM     22  H   UNL     1       4.266  18.334 -35.476  1.00  0.00     0.293 HD
ENDBRANCH  16  21
ENDBRANCH   1  11
BRANCH  10  23
ATOM     23  O   UNL     1      -2.005  19.115 -35.121  1.00  0.00    -0.500 OA
ATOM     24  H   UNL     1      -1.494  18.527 -35.770  1.00  0.00     0.294 HD
ENDBRANCH  10  23
BRANCH   5  25
ATOM     25  O   UNL     1      -0.204  19.889 -27.612  1.00  0.00    -0.507 OA
ATOM     26  H   UNL     1       0.558  20.543 -27.471  1.00  0.00     0.293 HD
ENDBRANCH   5  25
BRANCH   7  27
ATOM     27  O   UNL     1      -3.973  18.567 -30.302  1.00  0.00    -0.507 OA
ATOM     28  H   UNL     1      -4.614  18.747 -31.062  1.00  0.00     0.293 HD
ENDBRANCH   7  27
TORSDOF 7
ENDMDL
MODEL 3
REMARK VINA RESULT:    -6.918      0.199      1.804
REMARK INTER + INTRA:          -8.600
REMARK INTER:                  -8.662
REMARK INTRA:                   0.062
REMARK UNBOUND:                -0.065
REMARK SMILES Oc1cc(O)c2cc(O)c(-c3cc(O)c(O)c(O)c3)[o+]c2c1
REMARK SMILES IDX 10 1 20 2 21 3 22 4 2 5 3 6 4 7 6 8 7 9 8 10 11 11 12 12
REMARK SMILES IDX 13 13 19 14 15 15 17 16 14 17 16 19 18 21 9 23 1 25 5 27
REMARK H PARENT 14 18 16 20 18 22 9 24 1 26 5 28
REMARK Flexibility Score: inf
ROOT
ATOM      1  C   UNL     1       0.664  20.879 -34.947  1.00  0.00     0.402 A 
ATOM      2  O   UNL     1       1.918  20.786 -35.381  1.00  0.00    -0.202 OA
ATOM      3  C   UNL     1       2.275  21.032 -36.637  1.00  0.00     0.368 A 
ATOM      4  C   UNL     1       3.619  20.904 -36.999  1.00  0.00     0.162 A 
ATOM      5  C   UNL     1       4.023  21.152 -38.312  1.00  0.00     0.128 A 
ATOM      6  C   UNL     1       3.078  21.530 -39.272  1.00  0.00     0.093 A 
ATOM      7  C   UNL     1       1.725  21.664 -38.934  1.00  0.00     0.136 A 
ATOM      8  C   UNL     1       1.311  21.415 -37.600  1.00  0.00     0.125 A 
ATOM      9  C   UNL     1      -0.020  21.538 -37.168  1.00  0.00     0.078 A 
ATOM     10  C   UNL     1      -0.351  21.280 -35.834  1.00  0.00     0.223 A 
ENDROOT
BRANCH   1  11
ATOM     11  C   UNL     1       0.390  20.570 -33.524  1.00  0.00     0.091 A 
ATOM     12  C   UNL     1       1.221  21.052 -32.498  1.00  0.00     0.068 A 
ATOM     13  C   UNL     1       0.932  20.768 -31.156  1.00  0.00     0.162 A 
ATOM     14  C   UNL     1      -0.752  19.830 -33.187  1.00  0.00     0.068 A 
ATOM     15  C   UNL     1      -0.202  20.006 -30.828  1.00  0.00     0.200 A 
ATOM     16  C   UNL     1      -1.047  19.540 -31.851  1.00  0.00     0.162 A 
BRANCH  13  17
ATOM     17  O   UNL     1       1.767  21.246 -30.147  1.00  0.00    -0.504 OA
ATOM     18  H   UNL     1       1.869  20.757 -29.266  1.00  0.00     0.293 HD
ENDBRANCH  13  17
BRANCH  15  19
ATOM     19  O   UNL     1      -0.501  19.711 -29.498  1.00  0.00    -0.502 OA
ATOM     20  H   UNL     1      -0.167  20.280 -28.730  1.00  0.00     0.293 HD
ENDBRANCH  15  19
BRANCH  16  21
ATOM     21  O   UNL     1      -2.184  18.788 -31.557  1.00  0.00    -0.504 OA
ATOM     22  H   UNL     1      -2.641  18.207 -32.250  1.00  0.00     0.293 HD
ENDBRANCH  16  21
ENDBRANCH   1  11
BRANCH  10  23
ATOM     23  O   UNL     1      -1.664  21.451 -35.394  1.00  0.00    -0.500 OA
ATOM     24  H   UNL     1      -1.936  22.242 -34.822  1.00  0.00     0.294 HD
ENDBRANCH  10  23
BRANCH   5  25
ATOM     25  O   UNL     1       5.366  21.019 -38.653  1.00  0.00    -0.507 OA
ATOM     26  H   UNL     1       6.058  20.716 -37.977  1.00  0.00     0.293 HD
ENDBRANCH   5  25
BRANCH   7  27
ATOM     27  O   UNL     1       0.843  22.042 -39.951  1.00  0.00    -0.507 OA
ATOM     28  H   UNL     1       1.053  21.988 -40.937  1.00  0.00     0.293 HD
ENDBRANCH   7  27
TORSDOF 7
ENDMDL
MODEL 4
REMARK VINA RESULT:    -6.873      1.825      7.357
REMARK INTER + INTRA:          -8.545
REMARK INTER:                  -8.481
REMARK INTRA:                  -0.063
REMARK UNBOUND:                -0.065
REMARK SMILES Oc1cc(O)c2cc(O)c(-c3cc(O)c(O)c(O)c3)[o+]c2c1
REMARK SMILES IDX 10 1 20 2 21 3 22 4 2 5 3 6 4 7 6 8 7 9 8 10 11 11 12 12
REMARK SMILES IDX 13 13 19 14 15 15 17 16 14 17 16 19 18 21 9 23 1 25 5 27
REMARK H PARENT 14 18 16 20 18 22 9 24 1 26 5 28
REMARK Flexibility Score: inf
ROOT
ATOM      1  C   UNL     1      -0.174  19.883 -33.564  1.00  0.00     0.402 A 
ATOM      2  O   UNL     1       0.246  20.005 -32.308  1.00  0.00    -0.202 OA
ATOM      3  C   UNL     1      -0.521  19.751 -31.254  1.00  0.00     0.368 A 
ATOM      4  C   UNL     1       0.011  19.912 -29.972  1.00  0.00     0.162 A 
ATOM      5  C   UNL     1      -0.773  19.657 -28.845  1.00  0.00     0.128 A 
ATOM      6  C   UNL     1      -2.100  19.238 -29.000  1.00  0.00     0.093 A 
ATOM      7  C   UNL     1      -2.656  19.070 -30.275  1.00  0.00     0.136 A 
ATOM      8  C   UNL     1      -1.861  19.327 -31.422  1.00  0.00     0.125 A 
ATOM      9  C   UNL     1      -2.330  19.172 -32.737  1.00  0.00     0.078 A 
ATOM     10  C   UNL     1      -1.485  19.440 -33.819  1.00  0.00     0.223 A 
ENDROOT
BRANCH   1  11
ATOM     11  C   UNL     1       0.774  20.204 -34.655  1.00  0.00     0.091 A 
ATOM     12  C   UNL     1       2.049  19.613 -34.715  1.00  0.00     0.068 A 
ATOM     13  C   UNL     1       2.923  19.913 -35.769  1.00  0.00     0.162 A 
ATOM     14  C   UNL     1       0.375  21.072 -35.683  1.00  0.00     0.068 A 
ATOM     15  C   UNL     1       2.524  20.801 -36.782  1.00  0.00     0.200 A 
ATOM     16  C   UNL     1       1.243  21.378 -36.737  1.00  0.00     0.162 A 
BRANCH  13  17
ATOM     17  O   UNL     1       4.187  19.326 -35.814  1.00  0.00    -0.504 OA
ATOM     18  H   UNL     1       4.366  18.417 -35.403  1.00  0.00     0.293 HD
ENDBRANCH  13  17
BRANCH  15  19
ATOM     19  O   UNL     1       3.384  21.113 -37.835  1.00  0.00    -0.502 OA
ATOM     20  H   UNL     1       3.195  20.831 -38.789  1.00  0.00     0.293 HD
ENDBRANCH  15  19
BRANCH  16  21
ATOM     21  O   UNL     1       0.814  22.256 -37.731  1.00  0.00    -0.504 OA
ATOM     22  H   UNL     1       1.197  22.240 -38.668  1.00  0.00     0.293 HD
ENDBRANCH  16  21
ENDBRANCH   1  11
BRANCH  10  23
ATOM     23  O   UNL     1      -1.935  19.239 -35.123  1.00  0.00    -0.500 OA
ATOM     24  H   UNL     1      -1.901  18.327 -35.565  1.00  0.00     0.294 HD
ENDBRANCH  10  23
BRANCH   5  25
ATOM     25  O   UNL     1      -0.225  19.822 -27.576  1.00  0.00    -0.507 OA
ATOM     26  H   UNL     1       0.082  20.730 -27.245  1.00  0.00     0.293 HD
ENDBRANCH   5  25
BRANCH   7  27
ATOM     27  O   UNL     1      -3.988  18.653 -30.345  1.00  0.00    -0.507 OA
ATOM     28  H   UNL     1      -4.371  18.093 -31.093  1.00  0.00     0.293 HD
ENDBRANCH   7  27
TORSDOF 7
ENDMDL
MODEL 5
REMARK VINA RESULT:    -6.818      1.112      3.171
REMARK INTER + INTRA:          -8.478
REMARK INTER:                  -8.461
REMARK INTRA:                  -0.017
REMARK UNBOUND:                -0.065
REMARK SMILES Oc1cc(O)c2cc(O)c(-c3cc(O)c(O)c(O)c3)[o+]c2c1
REMARK SMILES IDX 10 1 20 2 21 3 22 4 2 5 3 6 4 7 6 8 7 9 8 10 11 11 12 12
REMARK SMILES IDX 13 13 19 14 15 15 17 16 14 17 16 19 18 21 9 23 1 25 5 27
REMARK H PARENT 14 18 16 20 18 22 9 24 1 26 5 28
REMARK Flexibility Score: inf
ROOT
ATOM      1  C   UNL     1       1.969  20.551 -34.867  1.00  0.00     0.402 A 
ATOM      2  O   UNL     1       1.331  20.906 -35.979  1.00  0.00    -0.202 OA
ATOM      3  C   UNL     1       1.947  21.123 -37.135  1.00  0.00     0.368 A 
ATOM      4  C   UNL     1       1.190  21.496 -38.249  1.00  0.00     0.162 A 
ATOM      5  C   UNL     1       1.810  21.735 -39.476  1.00  0.00     0.128 A 
ATOM      6  C   UNL     1       3.198  21.601 -39.593  1.00  0.00     0.093 A 
ATOM      7  C   UNL     1       3.979  21.229 -38.491  1.00  0.00     0.136 A 
ATOM      8  C   UNL     1       3.351  20.984 -37.243  1.00  0.00     0.125 A 
ATOM      9  C   UNL     1       4.052  20.593 -36.089  1.00  0.00     0.078 A 
ATOM     10  C   UNL     1       3.363  20.364 -34.894  1.00  0.00     0.223 A 
ENDROOT
BRANCH   1  11
ATOM     11  C   UNL     1       1.171  20.346 -33.636  1.00  0.00     0.091 A 
ATOM     12  C   UNL     1       1.599  20.847 -32.394  1.00  0.00     0.068 A 
ATOM     13  C   UNL     1       0.818  20.663 -31.245  1.00  0.00     0.162 A 
ATOM     14  C   UNL     1      -0.066  19.688 -33.717  1.00  0.00     0.068 A 
ATOM     15  C   UNL     1      -0.408  19.982 -31.331  1.00  0.00     0.200 A 
ATOM     16  C   UNL     1      -0.850  19.498 -32.575  1.00  0.00     0.162 A 
BRANCH  13  17
ATOM     17  O   UNL     1       1.256  21.159 -30.017  1.00  0.00    -0.504 OA
ATOM     18  H   UNL     1       2.128  20.853 -29.602  1.00  0.00     0.293 HD
ENDBRANCH  13  17
BRANCH  15  19
ATOM     19  O   UNL     1      -1.195  19.786 -30.195  1.00  0.00    -0.502 OA
ATOM     20  H   UNL     1      -2.205  19.860 -30.219  1.00  0.00     0.293 HD
ENDBRANCH  15  19
BRANCH  16  21
ATOM     21  O   UNL     1      -2.066  18.826 -32.695  1.00  0.00    -0.504 OA
ATOM     22  H   UNL     1      -2.732  18.774 -31.933  1.00  0.00     0.293 HD
ENDBRANCH  16  21
ENDBRANCH   1  11
BRANCH  10  23
ATOM     23  O   UNL     1       4.052  19.929 -33.762  1.00  0.00    -0.500 OA
ATOM     24  H   UNL     1       4.753  19.198 -33.813  1.00  0.00     0.294 HD
ENDBRANCH  10  23
BRANCH   5  25
ATOM     25  O   UNL     1       1.038  22.105 -40.575  1.00  0.00    -0.507 OA
ATOM     26  H   UNL     1       0.935  21.498 -41.380  1.00  0.00     0.293 HD
ENDBRANCH   5  25
BRANCH   7  27
ATOM     27  O   UNL     1       5.359  21.120 -38.688  1.00  0.00    -0.507 OA
ATOM     28  H   UNL     1       5.977  21.905 -38.836  1.00  0.00     0.293 HD
ENDBRANCH   7  27
TORSDOF 7
ENDMDL
MODEL 6
REMARK VINA RESULT:    -6.798      1.869      7.689
REMARK INTER + INTRA:          -8.452
REMARK INTER:                  -8.265
REMARK INTRA:                  -0.187
REMARK UNBOUND:                -0.065
REMARK SMILES Oc1cc(O)c2cc(O)c(-c3cc(O)c(O)c(O)c3)[o+]c2c1
REMARK SMILES IDX 10 1 20 2 21 3 22 4 2 5 3 6 4 7 6 8 7 9 8 10 11 11 12 12
REMARK SMILES IDX 13 13 19 14 15 15 17 16 14 17 16 19 18 21 9 23 1 25 5 27
REMARK H PARENT 14 18 16 20 18 22 9 24 1 26 5 28
REMARK Flexibility Score: inf
ROOT
ATOM      1  C   UNL     1       0.431  20.166 -32.974  1.00  0.00     0.402 A 
ATOM      2  O   UNL     1      -0.792  19.642 -32.996  1.00  0.00    -0.202 OA
ATOM      3  C   UNL     1      -1.496  19.388 -31.899  1.00  0.00     0.368 A 
ATOM      4  C   UNL     1      -2.772  18.833 -32.024  1.00  0.00     0.162 A 
ATOM      5  C   UNL     1      -3.534  18.551 -30.889  1.00  0.00     0.128 A 
ATOM      6  C   UNL     1      -3.017  18.825 -29.618  1.00  0.00     0.093 A 
ATOM      7  C   UNL     1      -1.739  19.380 -29.466  1.00  0.00     0.136 A 
ATOM      8  C   UNL     1      -0.964  19.669 -30.618  1.00  0.00     0.125 A 
ATOM      9  C   UNL     1       0.320  20.238 -30.562  1.00  0.00     0.078 A 
ATOM     10  C   UNL     1       1.023  20.500 -31.742  1.00  0.00     0.223 A 
ENDROOT
BRANCH   1  11
ATOM     11  C   UNL     1       1.119  20.395 -34.266  1.00  0.00     0.091 A 
ATOM     12  C   UNL     1       2.366  19.810 -34.546  1.00  0.00     0.068 A 
ATOM     13  C   UNL     1       2.990  20.020 -35.783  1.00  0.00     0.162 A 
ATOM     14  C   UNL     1       0.489  21.166 -35.255  1.00  0.00     0.068 A 
ATOM     15  C   UNL     1       2.363  20.813 -36.759  1.00  0.00     0.200 A 
ATOM     16  C   UNL     1       1.106  21.382 -36.492  1.00  0.00     0.162 A 
BRANCH  13  17
ATOM     17  O   UNL     1       4.230  19.440 -36.046  1.00  0.00    -0.504 OA
ATOM     18  H   UNL     1       4.511  19.191 -36.987  1.00  0.00     0.293 HD
ENDBRANCH  13  17
BRANCH  15  19
ATOM     19  O   UNL     1       2.973  21.036 -37.995  1.00  0.00    -0.502 OA
ATOM     20  H   UNL     1       2.891  21.918 -38.485  1.00  0.00     0.293 HD
ENDBRANCH  15  19
BRANCH  16  21
ATOM     21  O   UNL     1       0.454  22.167 -37.443  1.00  0.00    -0.504 OA
ATOM     22  H   UNL     1       0.944  22.851 -38.007  1.00  0.00     0.293 HD
ENDBRANCH  16  21
ENDBRANCH   1  11
BRANCH  10  23
ATOM     23  O   UNL     1       2.275  21.111 -31.689  1.00  0.00    -0.500 OA
ATOM     24  H   UNL     1       2.995  20.913 -32.375  1.00  0.00     0.294 HD
ENDBRANCH  10  23
BRANCH   5  25
ATOM     25  O   UNL     1      -4.804  17.999 -31.035  1.00  0.00    -0.507 OA
ATOM     26  H   UNL     1      -5.073  17.502 -31.876  1.00  0.00     0.293 HD
ENDBRANCH   5  25
BRANCH   7  27
ATOM     27  O   UNL     1      -1.293  19.620 -28.163  1.00  0.00    -0.507 OA
ATOM     28  H   UNL     1      -1.465  19.006 -27.380  1.00  0.00     0.293 HD
ENDBRANCH   7  27
TORSDOF 7
ENDMDL
MODEL 7
REMARK VINA RESULT:    -6.515      1.043      2.575
REMARK INTER + INTRA:          -8.104
REMARK INTER:                  -8.100
REMARK INTRA:                  -0.004
REMARK UNBOUND:                -0.065
REMARK SMILES Oc1cc(O)c2cc(O)c(-c3cc(O)c(O)c(O)c3)[o+]c2c1
REMARK SMILES IDX 10 1 20 2 21 3 22 4 2 5 3 6 4 7 6 8 7 9 8 10 11 11 12 12
REMARK SMILES IDX 13 13 19 14 15 15 17 16 14 17 16 19 18 21 9 23 1 25 5 27
REMARK H PARENT 14 18 16 20 18 22 9 24 1 26 5 28
REMARK Flexibility Score: inf
ROOT
ATOM      1  C   UNL     1       1.063  20.640 -34.890  1.00  0.00     0.402 A 
ATOM      2  O   UNL     1       0.268  21.053 -35.873  1.00  0.00    -0.202 OA
ATOM      3  C   UNL     1       0.701  21.310 -37.102  1.00  0.00     0.368 A 
ATOM      4  C   UNL     1      -0.211  21.743 -38.068  1.00  0.00     0.162 A 
ATOM      5  C   UNL     1       0.215  22.024 -39.367  1.00  0.00     0.128 A 
ATOM      6  C   UNL     1       1.565  21.871 -39.705  1.00  0.00     0.093 A 
ATOM      7  C   UNL     1       2.499  21.439 -38.754  1.00  0.00     0.136 A 
ATOM      8  C   UNL     1       2.068  21.151 -37.434  1.00  0.00     0.125 A 
ATOM      9  C   UNL     1       2.931  20.700 -36.421  1.00  0.00     0.078 A 
ATOM     10  C   UNL     1       2.431  20.431 -35.143  1.00  0.00     0.223 A 
ENDROOT
BRANCH   1  11
ATOM     11  C   UNL     1       0.462  20.396 -33.558  1.00  0.00     0.091 A 
ATOM     12  C   UNL     1      -0.707  19.629 -33.412  1.00  0.00     0.068 A 
ATOM     13  C   UNL     1      -1.247  19.390 -32.141  1.00  0.00     0.162 A 
ATOM     14  C   UNL     1       1.102  20.891 -32.412  1.00  0.00     0.068 A 
ATOM     15  C   UNL     1      -0.613  19.910 -31.000  1.00  0.00     0.200 A 
ATOM     16  C   UNL     1       0.568  20.660 -31.140  1.00  0.00     0.162 A 
BRANCH  13  17
ATOM     17  O   UNL     1      -2.410  18.633 -32.009  1.00  0.00    -0.504 OA
ATOM     18  H   UNL     1      -2.638  17.892 -32.660  1.00  0.00     0.293 HD
ENDBRANCH  13  17
BRANCH  15  19
ATOM     19  O   UNL     1      -1.140  19.685 -29.727  1.00  0.00    -0.502 OA
ATOM     20  H   UNL     1      -1.276  20.434 -29.059  1.00  0.00     0.293 HD
ENDBRANCH  15  19
BRANCH  16  21
ATOM     21  O   UNL     1       1.226  21.182 -30.026  1.00  0.00    -0.504 OA
ATOM     22  H   UNL     1       2.232  21.297 -29.998  1.00  0.00     0.293 HD
ENDBRANCH  16  21
ENDBRANCH   1  11
BRANCH  10  23
ATOM     23  O   UNL     1       3.278  19.936 -34.151  1.00  0.00    -0.500 OA
ATOM     24  H   UNL     1       3.090  19.059 -33.679  1.00  0.00     0.294 HD
ENDBRANCH  10  23
BRANCH   5  25
ATOM     25  O   UNL     1      -0.709  22.454 -40.315  1.00  0.00    -0.507 OA
ATOM     26  H   UNL     1      -1.701  22.277 -40.207  1.00  0.00     0.293 HD
ENDBRANCH   5  25
BRANCH   7  27
ATOM     27  O   UNL     1       3.828  21.316 -39.170  1.00  0.00    -0.507 OA
ATOM     28  H   UNL     1       4.318  20.437 -39.259  1.00  0.00     0.293 HD
ENDBRANCH   7  27
TORSDOF 7
ENDMDL
MODEL 8
REMARK VINA RESULT:    -6.363      2.269      6.942
REMARK INTER + INTRA:          -7.916
REMARK INTER:                  -7.735
REMARK INTRA:                  -0.181
REMARK UNBOUND:                -0.065
REMARK SMILES Oc1cc(O)c2cc(O)c(-c3cc(O)c(O)c(O)c3)[o+]c2c1
REMARK SMILES IDX 10 1 20 2 21 3 22 4 2 5 3 6 4 7 6 8 7 9 8 10 11 11 12 12
REMARK SMILES IDX 13 13 19 14 15 15 17 16 14 17 16 19 18 21 9 23 1 25 5 27
REMARK H PARENT 14 18 16 20 18 22 9 24 1 26 5 28
REMARK Flexibility Score: inf
ROOT
ATOM      1  C   UNL     1      -0.395  20.720 -34.706  1.00  0.00     0.402 A 
ATOM      2  O   UNL     1       0.722  20.820 -33.990  1.00  0.00    -0.202 OA
ATOM      3  C   UNL     1       0.772  20.593 -32.681  1.00  0.00     0.368 A 
ATOM      4  C   UNL     1       1.993  20.728 -32.015  1.00  0.00     0.162 A 
ATOM      5  C   UNL     1       2.076  20.500 -30.641  1.00  0.00     0.128 A 
ATOM      6  C   UNL     1       0.930  20.135 -29.925  1.00  0.00     0.093 A 
ATOM      7  C   UNL     1      -0.306  19.994 -30.570  1.00  0.00     0.136 A 
ATOM      8  C   UNL     1      -0.392  20.224 -31.967  1.00  0.00     0.125 A 
ATOM      9  C   UNL     1      -1.585  20.093 -32.699  1.00  0.00     0.078 A 
ATOM     10  C   UNL     1      -1.592  20.330 -34.077  1.00  0.00     0.223 A 
ENDROOT
BRANCH   1  11
ATOM     11  C   UNL     1      -0.325  21.007 -36.157  1.00  0.00     0.091 A 
ATOM     12  C   UNL     1       0.069  22.269 -36.636  1.00  0.00     0.068 A 
ATOM     13  C   UNL     1       0.151  22.513 -38.013  1.00  0.00     0.162 A 
ATOM     14  C   UNL     1      -0.601  19.984 -37.077  1.00  0.00     0.068 A 
ATOM     15  C   UNL     1      -0.150  21.490 -38.927  1.00  0.00     0.200 A 
ATOM     16  C   UNL     1      -0.524  20.220 -38.453  1.00  0.00     0.162 A 
BRANCH  13  17
ATOM     17  O   UNL     1       0.536  23.771 -38.476  1.00  0.00    -0.504 OA
ATOM     18  H   UNL     1       1.383  24.221 -38.150  1.00  0.00     0.293 HD
ENDBRANCH  13  17
BRANCH  15  19
ATOM     19  O   UNL     1      -0.078  21.718 -40.302  1.00  0.00    -0.502 OA
ATOM     20  H   UNL     1       0.328  21.045 -40.941  1.00  0.00     0.293 HD
ENDBRANCH  15  19
BRANCH  16  21
ATOM     21  O   UNL     1      -0.820  19.181 -39.335  1.00  0.00    -0.504 OA
ATOM     22  H   UNL     1      -1.495  19.284 -40.083  1.00  0.00     0.293 HD
ENDBRANCH  16  21
ENDBRANCH   1  11
BRANCH  10  23
ATOM     23  O   UNL     1      -2.764  20.152 -34.811  1.00  0.00    -0.500 OA
ATOM     24  H   UNL     1      -2.767  19.663 -35.700  1.00  0.00     0.294 HD
ENDBRANCH  10  23
BRANCH   5  25
ATOM     25  O   UNL     1       3.301  20.639 -29.994  1.00  0.00    -0.507 OA
ATOM     26  H   UNL     1       4.083  20.029 -30.203  1.00  0.00     0.293 HD
ENDBRANCH   5  25
BRANCH   7  27
ATOM     27  O   UNL     1      -1.404  19.631 -29.785  1.00  0.00    -0.507 OA
ATOM     28  H   UNL     1      -1.341  19.096 -28.931  1.00  0.00     0.293 HD
ENDBRANCH   7  27
TORSDOF 7
ENDMDL
MODEL 9
REMARK VINA RESULT:    -6.312      2.160      2.932
REMARK INTER + INTRA:          -7.852
REMARK INTER:                  -7.667
REMARK INTRA:                  -0.186
REMARK UNBOUND:                -0.065
REMARK SMILES Oc1cc(O)c2cc(O)c(-c3cc(O)c(O)c(O)c3)[o+]c2c1
REMARK SMILES IDX 10 1 20 2 21 3 22 4 2 5 3 6 4 7 6 8 7 9 8 10 11 11 12 12
REMARK SMILES IDX 13 13 19 14 15 15 17 16 14 17 16 19 18 21 9 23 1 25 5 27
REMARK H PARENT 14 18 16 20 18 22 9 24 1 26 5 28
REMARK Flexibility Score: inf
ROOT
ATOM      1  C   UNL     1      -0.555  20.300 -34.400  1.00  0.00     0.402 A 
ATOM      2  O   UNL     1       0.693  20.094 -33.988  1.00  0.00    -0.202 OA
ATOM      3  C   UNL     1       1.754  20.250 -34.772  1.00  0.00     0.368 A 
ATOM      4  C   UNL     1       3.027  20.007 -34.249  1.00  0.00     0.162 A 
ATOM      5  C   UNL     1       4.160  20.159 -35.049  1.00  0.00     0.128 A 
ATOM      6  C   UNL     1       4.022  20.557 -36.383  1.00  0.00     0.093 A 
ATOM      7  C   UNL     1       2.757  20.806 -36.931  1.00  0.00     0.136 A 
ATOM      8  C   UNL     1       1.603  20.654 -36.120  1.00  0.00     0.125 A 
ATOM      9  C   UNL     1       0.298  20.896 -36.580  1.00  0.00     0.078 A 
ATOM     10  C   UNL     1      -0.791  20.730 -35.719  1.00  0.00     0.223 A 
ENDROOT
BRANCH   1  11
ATOM     11  C   UNL     1      -1.656  20.083 -33.433  1.00  0.00     0.091 A 
ATOM     12  C   UNL     1      -1.881  18.824 -32.850  1.00  0.00     0.068 A 
ATOM     13  C   UNL     1      -2.914  18.645 -31.920  1.00  0.00     0.162 A 
ATOM     14  C   UNL     1      -2.459  21.168 -33.047  1.00  0.00     0.068 A 
ATOM     15  C   UNL     1      -3.728  19.732 -31.556  1.00  0.00     0.200 A 
ATOM     16  C   UNL     1      -3.493  20.997 -32.122  1.00  0.00     0.162 A 
BRANCH  13  17
ATOM     17  O   UNL     1      -3.132  17.390 -31.352  1.00  0.00    -0.504 OA
ATOM     18  H   UNL     1      -3.162  17.260 -30.348  1.00  0.00     0.293 HD
ENDBRANCH  13  17
BRANCH  15  19
ATOM     19  O   UNL     1      -4.764  19.569 -30.635  1.00  0.00    -0.502 OA
ATOM     20  H   UNL     1      -4.592  19.476 -29.641  1.00  0.00     0.293 HD
ENDBRANCH  15  19
BRANCH  16  21
ATOM     21  O   UNL     1      -4.277  22.097 -31.775  1.00  0.00    -0.504 OA
ATOM     22  H   UNL     1      -4.572  22.271 -30.822  1.00  0.00     0.293 HD
ENDBRANCH  16  21
ENDBRANCH   1  11
BRANCH  10  23
ATOM     23  O   UNL     1      -2.082  21.017 -36.161  1.00  0.00    -0.500 OA
ATOM     24  H   UNL     1      -2.451  21.961 -36.152  1.00  0.00     0.294 HD
ENDBRANCH  10  23
BRANCH   5  25
ATOM     25  O   UNL     1       5.420  19.913 -34.509  1.00  0.00    -0.507 OA
ATOM     26  H   UNL     1       5.838  20.538 -33.829  1.00  0.00     0.293 HD
ENDBRANCH   5  25
BRANCH   7  27
ATOM     27  O   UNL     1       2.703  21.196 -38.273  1.00  0.00    -0.507 OA
ATOM     28  H   UNL     1       2.319  22.072 -38.597  1.00  0.00     0.293 HD
ENDBRANCH   7  27
TORSDOF 7
ENDMDL
