MODEL 1
REMARK VINA RESULT:    -5.864      0.000      0.000
REMARK INTER + INTRA:          -6.378
REMARK INTER:                  -6.378
REMARK INTRA:                   0.000
REMARK UNBOUND:                 0.000
REMARK SMILES Cc1cc(O)c2c(c1)C(=O)c1cc(O)cc(O)c1C2=O
REMARK SMILES IDX 1 1 2 2 8 3 7 4 6 5 4 6 3 7 19 8 20 9 18 10 11 11 9 12 10 13
REMARK SMILES IDX 12 14 13 15 15 16 16 17 5 18 17 20 14 22
REMARK H PARENT 5 19 17 21 14 23
REMARK Flexibility Score: inf
ROOT
ATOM      1  C   UNL     1      -6.747 -14.066   0.712  1.00  0.00     0.044 C 
ATOM      2  C   UNL     1      -7.120 -14.265   2.151  1.00  0.00    -0.047 A 
ATOM      3  C   UNL     1      -6.882 -13.252   3.088  1.00  0.00     0.016 A 
ATOM      4  C   UNL     1      -7.194 -13.442   4.445  1.00  0.00     0.038 A 
ATOM      5  C   UNL     1      -7.746 -14.668   4.873  1.00  0.00     0.076 A 
ATOM      6  C   UNL     1      -7.960 -15.698   3.929  1.00  0.00     0.127 A 
ATOM      7  C   UNL     1      -7.642 -15.490   2.580  1.00  0.00     0.050 A 
ATOM      8  C   UNL     1      -8.109 -14.838   6.305  1.00  0.00     0.201 C 
ATOM      9  O   UNL     1      -8.915 -15.748   6.636  1.00  0.00    -0.288 OA
ATOM     10  C   UNL     1      -7.614 -13.870   7.322  1.00  0.00     0.076 A 
ATOM     11  C   UNL     1      -7.118 -12.622   6.877  1.00  0.00     0.041 A 
ATOM     12  C   UNL     1      -6.946 -12.364   5.427  1.00  0.00     0.194 C 
ATOM     13  O   UNL     1      -6.569 -11.226   5.031  1.00  0.00    -0.289 OA
ATOM     14  C   UNL     1      -6.778 -11.628   7.812  1.00  0.00     0.059 A 
ATOM     15  C   UNL     1      -6.912 -11.868   9.182  1.00  0.00     0.120 A 
ATOM     16  C   UNL     1      -7.354 -13.112   9.628  1.00  0.00     0.093 A 
ATOM     17  C   UNL     1      -7.673 -14.126   8.720  1.00  0.00     0.131 A 
ENDROOT
BRANCH   6  18
ATOM     18  O   UNL     1      -8.475 -16.932   4.327  1.00  0.00    -0.507 OA
ATOM     19  H   UNL     1      -8.073 -17.457   5.095  1.00  0.00     0.293 HD
ENDBRANCH   6  18
BRANCH  17  20
ATOM     20  O   UNL     1      -8.005 -15.375   9.251  1.00  0.00    -0.507 OA
ATOM     21  H   UNL     1      -8.711 -15.514   9.960  1.00  0.00     0.293 HD
ENDBRANCH  17  20
BRANCH  15  22
ATOM     22  O   UNL     1      -6.593 -10.880  10.110  1.00  0.00    -0.508 OA
ATOM     23  H   UNL     1      -6.484 -11.092  11.095  1.00  0.00     0.293 HD
ENDBRANCH  15  22
TORSDOF 3
ENDMDL
MODEL 2
REMARK VINA RESULT:    -5.824     10.516     12.902
REMARK INTER + INTRA:          -6.334
REMARK INTER:                  -6.334
REMARK INTRA:                   0.000
REMARK UNBOUND:                 0.000
REMARK SMILES Cc1cc(O)c2c(c1)C(=O)c1cc(O)cc(O)c1C2=O
REMARK SMILES IDX 1 1 2 2 8 3 7 4 6 5 4 6 3 7 19 8 20 9 18 10 11 11 9 12 10 13
REMARK SMILES IDX 12 14 13 15 15 16 16 17 5 18 17 20 14 22
REMARK H PARENT 5 19 17 21 14 23
REMARK Flexibility Score: inf
ROOT
ATOM      1  C   UNL     1      -3.061 -16.394  -0.499  1.00  0.00     0.044 C 
ATOM      2  C   UNL     1      -1.576 -16.601  -0.567  1.00  0.00    -0.047 A 
ATOM      3  C   UNL     1      -1.020 -17.834  -0.204  1.00  0.00     0.016 A 
ATOM      4  C   UNL     1       0.372 -18.028  -0.228  1.00  0.00     0.038 A 
ATOM      5  C   UNL     1       1.221 -16.969  -0.613  1.00  0.00     0.076 A 
ATOM      6  C   UNL     1       0.658 -15.718  -0.953  1.00  0.00     0.127 A 
ATOM      7  C   UNL     1      -0.733 -15.543  -0.923  1.00  0.00     0.050 A 
ATOM      8  C   UNL     1       2.688 -17.203  -0.673  1.00  0.00     0.201 C 
ATOM      9  O   UNL     1       3.413 -16.421  -1.345  1.00  0.00    -0.288 OA
ATOM     10  C   UNL     1       3.279 -18.415  -0.041  1.00  0.00     0.076 A 
ATOM     11  C   UNL     1       2.420 -19.490   0.285  1.00  0.00     0.041 A 
ATOM     12  C   UNL     1       0.951 -19.336   0.150  1.00  0.00     0.194 C 
ATOM     13  O   UNL     1       0.191 -20.320   0.375  1.00  0.00    -0.289 OA
ATOM     14  C   UNL     1       2.958 -20.704   0.747  1.00  0.00     0.059 A 
ATOM     15  C   UNL     1       4.338 -20.853   0.903  1.00  0.00     0.120 A 
ATOM     16  C   UNL     1       5.187 -19.782   0.629  1.00  0.00     0.093 A 
ATOM     17  C   UNL     1       4.675 -18.556   0.194  1.00  0.00     0.131 A 
ENDROOT
BRANCH   6  18
ATOM     18  O   UNL     1       1.473 -14.643  -1.308  1.00  0.00    -0.507 OA
ATOM     19  H   UNL     1       1.113 -13.844  -1.816  1.00  0.00     0.293 HD
ENDBRANCH   6  18
BRANCH  17  20
ATOM     20  O   UNL     1       5.581 -17.504   0.045  1.00  0.00    -0.507 OA
ATOM     21  H   UNL     1       5.348 -16.534   0.209  1.00  0.00     0.293 HD
ENDBRANCH  17  20
BRANCH  15  22
ATOM     22  O   UNL     1       4.877 -22.060   1.344  1.00  0.00    -0.508 OA
ATOM     23  H   UNL     1       5.511 -22.600   0.768  1.00  0.00     0.293 HD
ENDBRANCH  15  22
TORSDOF 3
ENDMDL
MODEL 3
REMARK VINA RESULT:    -5.704     11.195     13.191
REMARK INTER + INTRA:          -6.204
REMARK INTER:                  -6.204
REMARK INTRA:                   0.000
REMARK UNBOUND:                 0.000
REMARK SMILES Cc1cc(O)c2c(c1)C(=O)c1cc(O)cc(O)c1C2=O
REMARK SMILES IDX 1 1 2 2 8 3 7 4 6 5 4 6 3 7 19 8 20 9 18 10 11 11 9 12 10 13
REMARK SMILES IDX 12 14 13 15 15 16 16 17 5 18 17 20 14 22
REMARK H PARENT 5 19 17 21 14 23
REMARK Flexibility Score: inf
ROOT
ATOM      1  C   UNL     1       0.466 -13.221  -1.295  1.00  0.00     0.044 C 
ATOM      2  C   UNL     1       1.343 -14.383  -0.934  1.00  0.00    -0.047 A 
ATOM      3  C   UNL     1       0.823 -15.683  -0.927  1.00  0.00     0.016 A 
ATOM      4  C   UNL     1       1.626 -16.774  -0.554  1.00  0.00     0.038 A 
ATOM      5  C   UNL     1       2.969 -16.561  -0.175  1.00  0.00     0.076 A 
ATOM      6  C   UNL     1       3.482 -15.244  -0.157  1.00  0.00     0.127 A 
ATOM      7  C   UNL     1       2.666 -14.168  -0.532  1.00  0.00     0.050 A 
ATOM      8  C   UNL     1       3.817 -17.731   0.177  1.00  0.00     0.201 C 
ATOM      9  O   UNL     1       5.071 -17.614   0.159  1.00  0.00    -0.288 OA
ATOM     10  C   UNL     1       3.191 -19.058   0.433  1.00  0.00     0.076 A 
ATOM     11  C   UNL     1       1.864 -19.272  -0.007  1.00  0.00     0.041 A 
ATOM     12  C   UNL     1       1.071 -18.146  -0.557  1.00  0.00     0.194 C 
ATOM     13  O   UNL     1      -0.088 -18.355  -1.012  1.00  0.00    -0.289 OA
ATOM     14  C   UNL     1       1.292 -20.553   0.087  1.00  0.00     0.059 A 
ATOM     15  C   UNL     1       2.019 -21.616   0.627  1.00  0.00     0.120 A 
ATOM     16  C   UNL     1       3.310 -21.401   1.106  1.00  0.00     0.093 A 
ATOM     17  C   UNL     1       3.892 -20.131   1.049  1.00  0.00     0.131 A 
ENDROOT
BRANCH   6  18
ATOM     18  O   UNL     1       4.796 -14.998   0.243  1.00  0.00    -0.507 OA
ATOM     19  H   UNL     1       5.460 -14.528  -0.362  1.00  0.00     0.293 HD
ENDBRANCH   6  18
BRANCH  17  20
ATOM     20  O   UNL     1       5.145 -19.977   1.647  1.00  0.00    -0.507 OA
ATOM     21  H   UNL     1       5.334 -19.327   2.398  1.00  0.00     0.293 HD
ENDBRANCH  17  20
BRANCH  15  22
ATOM     22  O   UNL     1       1.462 -22.891   0.705  1.00  0.00    -0.508 OA
ATOM     23  H   UNL     1       1.323 -23.355   1.595  1.00  0.00     0.293 HD
ENDBRANCH  15  22
TORSDOF 3
ENDMDL
MODEL 4
REMARK VINA RESULT:    -5.651     10.377     12.946
REMARK INTER + INTRA:          -6.147
REMARK INTER:                  -6.147
REMARK INTRA:                   0.000
REMARK UNBOUND:                 0.000
REMARK SMILES Cc1cc(O)c2c(c1)C(=O)c1cc(O)cc(O)c1C2=O
REMARK SMILES IDX 1 1 2 2 8 3 7 4 6 5 4 6 3 7 19 8 20 9 18 10 11 11 9 12 10 13
REMARK SMILES IDX 12 14 13 15 15 16 16 17 5 18 17 20 14 22
REMARK H PARENT 5 19 17 21 14 23
REMARK Flexibility Score: inf
ROOT
ATOM      1  C   UNL     1       5.166 -21.793   1.581  1.00  0.00     0.044 C 
ATOM      2  C   UNL     1       4.381 -20.587   1.156  1.00  0.00    -0.047 A 
ATOM      3  C   UNL     1       3.014 -20.700   0.874  1.00  0.00     0.016 A 
ATOM      4  C   UNL     1       2.277 -19.585   0.439  1.00  0.00     0.038 A 
ATOM      5  C   UNL     1       2.920 -18.339   0.275  1.00  0.00     0.076 A 
ATOM      6  C   UNL     1       4.305 -18.236   0.535  1.00  0.00     0.127 A 
ATOM      7  C   UNL     1       5.024 -19.359   0.967  1.00  0.00     0.050 A 
ATOM      8  C   UNL     1       2.118 -17.161  -0.146  1.00  0.00     0.201 C 
ATOM      9  O   UNL     1       2.569 -16.001   0.052  1.00  0.00    -0.288 OA
ATOM     10  C   UNL     1       0.744 -17.347  -0.690  1.00  0.00     0.076 A 
ATOM     11  C   UNL     1       0.092 -18.582  -0.465  1.00  0.00     0.041 A 
ATOM     12  C   UNL     1       0.831 -19.711   0.151  1.00  0.00     0.194 C 
ATOM     13  O   UNL     1       0.228 -20.789   0.414  1.00  0.00    -0.289 OA
ATOM     14  C   UNL     1      -1.254 -18.743  -0.834  1.00  0.00     0.059 A 
ATOM     15  C   UNL     1      -1.953 -17.696  -1.439  1.00  0.00     0.120 A 
ATOM     16  C   UNL     1      -1.304 -16.492  -1.706  1.00  0.00     0.093 A 
ATOM     17  C   UNL     1       0.042 -16.315  -1.373  1.00  0.00     0.131 A 
ENDROOT
BRANCH   6  18
ATOM     18  O   UNL     1       4.975 -17.026   0.352  1.00  0.00    -0.507 OA
ATOM     19  H   UNL     1       5.024 -16.326   1.083  1.00  0.00     0.293 HD
ENDBRANCH   6  18
BRANCH  17  20
ATOM     20  O   UNL     1       0.645 -15.120  -1.772  1.00  0.00    -0.507 OA
ATOM     21  H   UNL     1       0.589 -14.259  -1.245  1.00  0.00     0.293 HD
ENDBRANCH  17  20
BRANCH  15  22
ATOM     22  O   UNL     1      -3.293 -17.846  -1.791  1.00  0.00    -0.508 OA
ATOM     23  H   UNL     1      -3.569 -18.101  -2.731  1.00  0.00     0.293 HD
ENDBRANCH  15  22
TORSDOF 3
ENDMDL
MODEL 5
REMARK VINA RESULT:    -5.601     11.273     13.056
REMARK INTER + INTRA:          -6.092
REMARK INTER:                  -6.092
REMARK INTRA:                   0.000
REMARK UNBOUND:                 0.000
REMARK SMILES Cc1cc(O)c2c(c1)C(=O)c1cc(O)cc(O)c1C2=O
REMARK SMILES IDX 1 1 2 2 8 3 7 4 6 5 4 6 3 7 19 8 20 9 18 10 11 11 9 12 10 13
REMARK SMILES IDX 12 14 13 15 15 16 16 17 5 18 17 20 14 22
REMARK H PARENT 5 19 17 21 14 23
REMARK Flexibility Score: inf
ROOT
ATOM      1  C   UNL     1       0.993 -22.805   0.533  1.00  0.00     0.044 C 
ATOM      2  C   UNL     1       1.689 -21.475   0.532  1.00  0.00    -0.047 A 
ATOM      3  C   UNL     1       1.005 -20.323   0.127  1.00  0.00     0.016 A 
ATOM      4  C   UNL     1       1.657 -19.079   0.086  1.00  0.00     0.038 A 
ATOM      5  C   UNL     1       3.018 -18.987   0.450  1.00  0.00     0.076 A 
ATOM      6  C   UNL     1       3.712 -20.157   0.833  1.00  0.00     0.127 A 
ATOM      7  C   UNL     1       3.044 -21.389   0.867  1.00  0.00     0.050 A 
ATOM      8  C   UNL     1       3.682 -17.657   0.441  1.00  0.00     0.201 C 
ATOM      9  O   UNL     1       4.748 -17.493   1.092  1.00  0.00    -0.288 OA
ATOM     10  C   UNL     1       3.031 -16.501  -0.235  1.00  0.00     0.076 A 
ATOM     11  C   UNL     1       1.652 -16.587  -0.539  1.00  0.00     0.041 A 
ATOM     12  C   UNL     1       0.925 -17.864  -0.337  1.00  0.00     0.194 C 
ATOM     13  O   UNL     1      -0.320 -17.919  -0.543  1.00  0.00    -0.289 OA
ATOM     14  C   UNL     1       0.972 -15.465  -1.042  1.00  0.00     0.059 A 
ATOM     15  C   UNL     1       1.651 -14.264  -1.262  1.00  0.00     0.120 A 
ATOM     16  C   UNL     1       3.020 -14.186  -1.009  1.00  0.00     0.093 A 
ATOM     17  C   UNL     1       3.725 -15.295  -0.533  1.00  0.00     0.131 A 
ENDROOT
BRANCH   6  18
ATOM     18  O   UNL     1       5.065 -20.105   1.168  1.00  0.00    -0.507 OA
ATOM     19  H   UNL     1       5.377 -20.089   2.132  1.00  0.00     0.293 HD
ENDBRANCH   6  18
BRANCH  17  20
ATOM     20  O   UNL     1       5.110 -15.165  -0.409  1.00  0.00    -0.507 OA
ATOM     21  H   UNL     1       5.684 -14.633  -1.049  1.00  0.00     0.293 HD
ENDBRANCH  17  20
BRANCH  15  22
ATOM     22  O   UNL     1       0.978 -13.145  -1.744  1.00  0.00    -0.508 OA
ATOM     23  H   UNL     1       0.885 -12.968  -2.738  1.00  0.00     0.293 HD
ENDBRANCH  15  22
TORSDOF 3
ENDMDL
MODEL 6
REMARK VINA RESULT:    -5.599     11.159     12.631
REMARK INTER + INTRA:          -6.090
REMARK INTER:                  -6.090
REMARK INTRA:                   0.000
REMARK UNBOUND:                 0.000
REMARK SMILES Cc1cc(O)c2c(c1)C(=O)c1cc(O)cc(O)c1C2=O
REMARK SMILES IDX 1 1 2 2 8 3 7 4 6 5 4 6 3 7 19 8 20 9 18 10 11 11 9 12 10 13
REMARK SMILES IDX 12 14 13 15 15 16 16 17 5 18 17 20 14 22
REMARK H PARENT 5 19 17 21 14 23
REMARK Flexibility Score: inf
ROOT
ATOM      1  C   UNL     1       0.582 -13.771  -2.088  1.00  0.00     0.044 C 
ATOM      2  C   UNL     1       0.663 -15.176  -1.567  1.00  0.00    -0.047 A 
ATOM      3  C   UNL     1       1.797 -15.604  -0.867  1.00  0.00     0.016 A 
ATOM      4  C   UNL     1       1.900 -16.928  -0.407  1.00  0.00     0.038 A 
ATOM      5  C   UNL     1       0.853 -17.841  -0.657  1.00  0.00     0.076 A 
ATOM      6  C   UNL     1      -0.279 -17.413  -1.387  1.00  0.00     0.127 A 
ATOM      7  C   UNL     1      -0.363 -16.088  -1.839  1.00  0.00     0.050 A 
ATOM      8  C   UNL     1       0.958 -19.226  -0.128  1.00  0.00     0.201 C 
ATOM      9  O   UNL     1      -0.082 -19.928  -0.018  1.00  0.00    -0.288 OA
ATOM     10  C   UNL     1       2.263 -19.737   0.376  1.00  0.00     0.076 A 
ATOM     11  C   UNL     1       3.281 -18.802   0.677  1.00  0.00     0.041 A 
ATOM     12  C   UNL     1       3.100 -17.370   0.339  1.00  0.00     0.194 C 
ATOM     13  O   UNL     1       3.980 -16.528   0.671  1.00  0.00    -0.289 OA
ATOM     14  C   UNL     1       4.470 -19.233   1.290  1.00  0.00     0.059 A 
ATOM     15  C   UNL     1       4.665 -20.583   1.591  1.00  0.00     0.120 A 
ATOM     16  C   UNL     1       3.686 -21.516   1.253  1.00  0.00     0.093 A 
ATOM     17  C   UNL     1       2.505 -21.118   0.619  1.00  0.00     0.131 A 
ENDROOT
BRANCH   6  18
ATOM     18  O   UNL     1      -1.316 -18.300  -1.678  1.00  0.00    -0.507 OA
ATOM     19  H   UNL     1      -1.158 -19.297  -1.760  1.00  0.00     0.293 HD
ENDBRANCH   6  18
BRANCH  17  20
ATOM     20  O   UNL     1       1.625 -22.126   0.219  1.00  0.00    -0.507 OA
ATOM     21  H   UNL     1       1.606 -23.050   0.628  1.00  0.00     0.293 HD
ENDBRANCH  17  20
BRANCH  15  22
ATOM     22  O   UNL     1       5.835 -21.011   2.213  1.00  0.00    -0.508 OA
ATOM     23  H   UNL     1       5.963 -21.975   2.496  1.00  0.00     0.293 HD
ENDBRANCH  15  22
TORSDOF 3
ENDMDL
MODEL 7
REMARK VINA RESULT:    -5.492      1.529      2.414
REMARK INTER + INTRA:          -5.974
REMARK INTER:                  -5.974
REMARK INTRA:                   0.000
REMARK UNBOUND:                 0.000
REMARK SMILES Cc1cc(O)c2c(c1)C(=O)c1cc(O)cc(O)c1C2=O
REMARK SMILES IDX 1 1 2 2 8 3 7 4 6 5 4 6 3 7 19 8 20 9 18 10 11 11 9 12 10 13
REMARK SMILES IDX 12 14 13 15 15 16 16 17 5 18 17 20 14 22
REMARK H PARENT 5 19 17 21 14 23
REMARK Flexibility Score: inf
ROOT
ATOM      1  C   UNL     1      -7.979 -15.798  -1.271  1.00  0.00     0.044 C 
ATOM      2  C   UNL     1      -8.008 -15.722   0.227  1.00  0.00    -0.047 A 
ATOM      3  C   UNL     1      -7.618 -14.547   0.880  1.00  0.00     0.016 A 
ATOM      4  C   UNL     1      -7.606 -14.477   2.284  1.00  0.00     0.038 A 
ATOM      5  C   UNL     1      -7.982 -15.604   3.046  1.00  0.00     0.076 A 
ATOM      6  C   UNL     1      -8.349 -16.797   2.383  1.00  0.00     0.127 A 
ATOM      7  C   UNL     1      -8.355 -16.847   0.982  1.00  0.00     0.050 A 
ATOM      8  C   UNL     1      -8.004 -15.500   4.529  1.00  0.00     0.201 C 
ATOM      9  O   UNL     1      -8.666 -16.337   5.199  1.00  0.00    -0.288 OA
ATOM     10  C   UNL     1      -7.344 -14.351   5.208  1.00  0.00     0.076 A 
ATOM     11  C   UNL     1      -7.027 -13.206   4.440  1.00  0.00     0.041 A 
ATOM     12  C   UNL     1      -7.199 -13.228   2.967  1.00  0.00     0.194 C 
ATOM     13  O   UNL     1      -6.982 -12.184   2.292  1.00  0.00    -0.289 OA
ATOM     14  C   UNL     1      -6.538 -12.050   5.072  1.00  0.00     0.059 A 
ATOM     15  C   UNL     1      -6.347 -12.025   6.455  1.00  0.00     0.120 A 
ATOM     16  C   UNL     1      -6.612 -13.165   7.212  1.00  0.00     0.093 A 
ATOM     17  C   UNL     1      -7.073 -14.336   6.605  1.00  0.00     0.131 A 
ENDROOT
BRANCH   6  18
ATOM     18  O   UNL     1      -8.696 -17.937   3.109  1.00  0.00    -0.507 OA
ATOM     19  H   UNL     1      -9.508 -17.957   3.715  1.00  0.00     0.293 HD
ENDBRANCH   6  18
BRANCH  17  20
ATOM     20  O   UNL     1      -7.211 -15.464   7.418  1.00  0.00    -0.507 OA
ATOM     21  H   UNL     1      -7.135 -16.413   7.080  1.00  0.00     0.293 HD
ENDBRANCH  17  20
BRANCH  15  22
ATOM     22  O   UNL     1      -5.879 -10.875   7.087  1.00  0.00    -0.508 OA
ATOM     23  H   UNL     1      -5.131 -10.318   6.690  1.00  0.00     0.293 HD
ENDBRANCH  15  22
TORSDOF 3
ENDMDL
MODEL 8
REMARK VINA RESULT:    -5.432     17.395     20.346
REMARK INTER + INTRA:          -5.908
REMARK INTER:                  -5.908
REMARK INTRA:                   0.000
REMARK UNBOUND:                 0.000
REMARK SMILES Cc1cc(O)c2c(c1)C(=O)c1cc(O)cc(O)c1C2=O
REMARK SMILES IDX 1 1 2 2 8 3 7 4 6 5 4 6 3 7 19 8 20 9 18 10 11 11 9 12 10 13
REMARK SMILES IDX 12 14 13 15 15 16 16 17 5 18 17 20 14 22
REMARK H PARENT 5 19 17 21 14 23
REMARK Flexibility Score: inf
ROOT
ATOM      1  C   UNL     1      -1.966 -24.408  -8.842  1.00  0.00     0.044 C 
ATOM      2  C   UNL     1      -0.992 -24.864  -7.796  1.00  0.00    -0.047 A 
ATOM      3  C   UNL     1      -0.075 -25.883  -8.084  1.00  0.00     0.016 A 
ATOM      4  C   UNL     1       0.817 -26.344  -7.101  1.00  0.00     0.038 A 
ATOM      5  C   UNL     1       0.787 -25.782  -5.807  1.00  0.00     0.076 A 
ATOM      6  C   UNL     1      -0.158 -24.773  -5.512  1.00  0.00     0.127 A 
ATOM      7  C   UNL     1      -1.040 -24.326  -6.506  1.00  0.00     0.050 A 
ATOM      8  C   UNL     1       1.765 -26.252  -4.790  1.00  0.00     0.201 C 
ATOM      9  O   UNL     1       2.000 -25.536  -3.780  1.00  0.00    -0.288 OA
ATOM     10  C   UNL     1       2.544 -27.499  -5.022  1.00  0.00     0.076 A 
ATOM     11  C   UNL     1       2.612 -28.015  -6.338  1.00  0.00     0.041 A 
ATOM     12  C   UNL     1       1.788 -27.416  -7.415  1.00  0.00     0.194 C 
ATOM     13  O   UNL     1       1.902 -27.834  -8.602  1.00  0.00    -0.289 OA
ATOM     14  C   UNL     1       3.453 -29.105  -6.622  1.00  0.00     0.059 A 
ATOM     15  C   UNL     1       4.215 -29.695  -5.611  1.00  0.00     0.120 A 
ATOM     16  C   UNL     1       4.117 -29.222  -4.303  1.00  0.00     0.093 A 
ATOM     17  C   UNL     1       3.267 -28.157  -3.989  1.00  0.00     0.131 A 
ENDROOT
BRANCH   6  18
ATOM     18  O   UNL     1      -0.233 -24.219  -4.234  1.00  0.00    -0.507 OA
ATOM     19  H   UNL     1       0.038 -24.741  -3.409  1.00  0.00     0.293 HD
ENDBRANCH   6  18
BRANCH  17  20
ATOM     20  O   UNL     1       3.147 -27.815  -2.640  1.00  0.00    -0.507 OA
ATOM     21  H   UNL     1       2.749 -26.944  -2.315  1.00  0.00     0.293 HD
ENDBRANCH  17  20
BRANCH  15  22
ATOM     22  O   UNL     1       5.063 -30.763  -5.892  1.00  0.00    -0.508 OA
ATOM     23  H   UNL     1       5.124 -31.162  -6.821  1.00  0.00     0.293 HD
ENDBRANCH  15  22
TORSDOF 3
ENDMDL
MODEL 9
REMARK VINA RESULT:    -5.321      2.103      3.955
REMARK INTER + INTRA:          -5.787
REMARK INTER:                  -5.787
REMARK INTRA:                   0.000
REMARK UNBOUND:                 0.000
REMARK SMILES Cc1cc(O)c2c(c1)C(=O)c1cc(O)cc(O)c1C2=O
REMARK SMILES IDX 1 1 2 2 8 3 7 4 6 5 4 6 3 7 19 8 20 9 18 10 11 11 9 12 10 13
REMARK SMILES IDX 12 14 13 15 15 16 16 17 5 18 17 20 14 22
REMARK H PARENT 5 19 17 21 14 23
REMARK Flexibility Score: inf
ROOT
ATOM      1  C   UNL     1     -10.731 -17.245   0.733  1.00  0.00     0.044 C 
ATOM      2  C   UNL     1      -9.800 -16.238   1.341  1.00  0.00    -0.047 A 
ATOM      3  C   UNL     1      -9.479 -16.308   2.702  1.00  0.00     0.016 A 
ATOM      4  C   UNL     1      -8.637 -15.348   3.290  1.00  0.00     0.038 A 
ATOM      5  C   UNL     1      -8.115 -14.297   2.506  1.00  0.00     0.076 A 
ATOM      6  C   UNL     1      -8.463 -14.215   1.139  1.00  0.00     0.127 A 
ATOM      7  C   UNL     1      -9.304 -15.181   0.570  1.00  0.00     0.050 A 
ATOM      8  C   UNL     1      -7.193 -13.314   3.134  1.00  0.00     0.201 C 
ATOM      9  O   UNL     1      -6.446 -12.611   2.403  1.00  0.00    -0.288 OA
ATOM     10  C   UNL     1      -7.072 -13.244   4.617  1.00  0.00     0.076 A 
ATOM     11  C   UNL     1      -7.548 -14.333   5.383  1.00  0.00     0.041 A 
ATOM     12  C   UNL     1      -8.297 -15.433   4.728  1.00  0.00     0.194 C 
ATOM     13  O   UNL     1      -8.660 -16.437   5.403  1.00  0.00    -0.289 OA
ATOM     14  C   UNL     1      -7.320 -14.368   6.770  1.00  0.00     0.059 A 
ATOM     15  C   UNL     1      -6.640 -13.326   7.403  1.00  0.00     0.120 A 
ATOM     16  C   UNL     1      -6.209 -12.227   6.661  1.00  0.00     0.093 A 
ATOM     17  C   UNL     1      -6.447 -12.155   5.285  1.00  0.00     0.131 A 
ENDROOT
BRANCH   6  18
ATOM     18  O   UNL     1      -7.988 -13.171   0.345  1.00  0.00    -0.507 OA
ATOM     19  H   UNL     1      -8.510 -12.310   0.225  1.00  0.00     0.293 HD
ENDBRANCH   6  18
BRANCH  17  20
ATOM     20  O   UNL     1      -6.079 -10.974   4.636  1.00  0.00    -0.507 OA
ATOM     21  H   UNL     1      -6.706 -10.434   4.055  1.00  0.00     0.293 HD
ENDBRANCH  17  20
BRANCH  15  22
ATOM     22  O   UNL     1      -6.397 -13.365   8.774  1.00  0.00    -0.508 OA
ATOM     23  H   UNL     1      -7.147 -13.276   9.449  1.00  0.00     0.293 HD
ENDBRANCH  15  22
TORSDOF 3
ENDMDL
