MODEL 1
REMARK VINA RESULT:    -3.311      0.000      0.000
REMARK INTER + INTRA:          -5.237
REMARK INTER:                  -5.053
REMARK INTRA:                  -0.184
REMARK UNBOUND:                -0.184
REMARK SMILES CC1=CCC[C@H](C)C(=O)C[C@@H](C(C)C)C(=O)C1
REMARK SMILES IDX 8 1 9 2 6 3 7 4 5 5 4 6 3 7 2 8 1 9 10 11 11 12 15 13 16 14
REMARK SMILES IDX 17 15 12 17 13 18 14 19
REMARK H PARENT
REMARK Flexibility Score: 70.00
ROOT
ATOM      1  C   UNL     1      -0.469  29.297  51.423  1.00  0.00     0.136 C 
ATOM      2  O   UNL     1      -0.996  28.335  50.886  1.00  0.00    -0.299 OA
ENDROOT
BRANCH   1   3
ATOM      3  C   UNL     1      -0.855  30.707  50.953  1.00  0.00     0.053 C 
ATOM      4  C   UNL     1      -1.237  30.730  49.469  1.00  0.00     0.016 C 
BRANCH   3   5
ATOM      5  C   UNL     1      -1.996  31.096  51.860  1.00  0.00     0.015 C 
BRANCH   5   6
ATOM      6  C   UNL     1      -3.313  30.410  52.068  1.00  0.00     0.028 C 
BRANCH   6   7
ATOM      7  C   UNL     1      -3.549  30.299  53.580  1.00  0.00    -0.028 C 
ATOM      8  C   UNL     1      -3.086  29.353  54.479  1.00  0.00    -0.070 CG0
ATOM      9  C   UNL     1      -3.395  29.625  55.933  1.00  0.00     0.039 C 
ATOM     10  G   UNL     1      -2.332  28.032  54.164  1.00  0.00     0.000 G0
ENDBRANCH   6   7
ENDBRANCH   5   6
ENDBRANCH   3   5
ENDBRANCH   1   3
BRANCH   1  11
ATOM     11  C   UNL     1       0.533  29.062  52.570  1.00  0.00     0.087 C 
BRANCH  11  12
ATOM     12  C   UNL     1       0.308  27.868  53.592  1.00  0.00     0.066 C 
BRANCH  12  13
ATOM     13  C   UNL     1      -0.852  27.970  54.610  1.00  0.00     0.140 C 
ATOM     14  O   UNL     1      -0.604  27.928  55.807  1.00  0.00    -0.299 OA
BRANCH  13  15
ATOM     15  C   UNL     1      -2.325  28.028  54.175  1.00  0.00     0.106 CG0
ATOM     16  G   UNL     1      -3.063  29.363  54.474  1.00  0.00     0.000 G0
ENDBRANCH  13  15
ENDBRANCH  12  13
BRANCH  12  17
ATOM     17  C   UNL     1       1.621  27.363  54.279  1.00  0.00    -0.006 C 
ATOM     18  C   UNL     1       1.635  25.837  54.465  1.00  0.00     0.008 C 
ATOM     19  C   UNL     1       2.902  27.818  53.562  1.00  0.00     0.008 C 
ENDBRANCH  12  17
ENDBRANCH  11  12
ENDBRANCH   1  11
TORSDOF 1
ENDMDL
MODEL 2
REMARK VINA RESULT:    -3.079      7.267      9.759
REMARK INTER + INTRA:          -4.883
REMARK INTER:                  -4.253
REMARK INTRA:                  -0.630
REMARK UNBOUND:                -0.184
REMARK SMILES CC1=CCC[C@H](C)C(=O)C[C@@H](C(C)C)C(=O)C1
REMARK SMILES IDX 8 1 9 2 6 3 7 4 5 5 4 6 3 7 2 8 1 9 10 11 11 12 15 13 16 14
REMARK SMILES IDX 17 15 12 17 13 18 14 19
REMARK H PARENT
REMARK Flexibility Score: 70.00
ROOT
ATOM      1  C   UNL     1      -0.350  33.695  61.919  1.00  0.00     0.136 C 
ATOM      2  O   UNL     1       0.046  34.734  61.413  1.00  0.00    -0.299 OA
ENDROOT
BRANCH   1   3
ATOM      3  C   UNL     1      -0.925  33.740  63.342  1.00  0.00     0.053 C 
ATOM      4  C   UNL     1       0.153  34.047  64.386  1.00  0.00     0.016 C 
BRANCH   3   5
ATOM      5  C   UNL     1      -1.994  34.804  63.271  1.00  0.00     0.015 C 
BRANCH   5   6
ATOM      6  C   UNL     1      -3.479  34.644  63.145  1.00  0.00     0.028 C 
BRANCH   6   7
ATOM      7  C   UNL     1      -3.801  33.148  63.264  1.00  0.00    -0.028 C 
ATOM      8  C   UNL     1      -3.947  32.194  62.271  1.00  0.00    -0.070 CG0
ATOM      9  C   UNL     1      -4.124  30.772  62.750  1.00  0.00     0.039 C 
ATOM     10  G   UNL     1      -3.996  32.421  60.735  1.00  0.00     0.000 G0
ENDBRANCH   6   7
ENDBRANCH   5   6
ENDBRANCH   3   5
ENDBRANCH   1   3
BRANCH   1  11
ATOM     11  C   UNL     1      -0.289  32.391  61.101  1.00  0.00     0.087 C 
BRANCH  11  12
ATOM     12  C   UNL     1      -1.424  32.064  60.039  1.00  0.00     0.066 C 
BRANCH  12  13
ATOM     13  C   UNL     1      -2.718  32.911  60.050  1.00  0.00     0.140 C 
ATOM     14  O   UNL     1      -2.697  34.042  59.583  1.00  0.00    -0.299 OA
BRANCH  13  15
ATOM     15  C   UNL     1      -4.015  32.423  60.714  1.00  0.00     0.106 CG0
ATOM     16  G   UNL     1      -3.945  32.211  62.252  1.00  0.00     0.000 G0
ENDBRANCH  13  15
ENDBRANCH  12  13
BRANCH  12  17
ATOM     17  C   UNL     1      -1.749  30.538  59.907  1.00  0.00    -0.006 C 
ATOM     18  C   UNL     1      -2.099  30.137  58.464  1.00  0.00     0.008 C 
ATOM     19  C   UNL     1      -0.641  29.625  60.453  1.00  0.00     0.008 C 
ENDBRANCH  12  17
ENDBRANCH  11  12
ENDBRANCH   1  11
TORSDOF 1
ENDMDL
MODEL 3
REMARK VINA RESULT:    -3.065      1.736      4.094
REMARK INTER + INTRA:          -4.863
REMARK INTER:                  -4.841
REMARK INTRA:                  -0.022
REMARK UNBOUND:                -0.184
REMARK SMILES CC1=CCC[C@H](C)C(=O)C[C@@H](C(C)C)C(=O)C1
REMARK SMILES IDX 8 1 9 2 6 3 7 4 5 5 4 6 3 7 2 8 1 9 10 11 11 12 15 13 16 14
REMARK SMILES IDX 17 15 12 17 13 18 14 19
REMARK H PARENT
REMARK Flexibility Score: 70.00
ROOT
ATOM      1  C   UNL     1      -2.079  30.335  51.788  1.00  0.00     0.136 C 
ATOM      2  O   UNL     1      -2.025  31.529  52.035  1.00  0.00    -0.299 OA
ENDROOT
BRANCH   1   3
ATOM      3  C   UNL     1      -1.379  29.810  50.526  1.00  0.00     0.053 C 
ATOM      4  C   UNL     1      -1.410  30.835  49.387  1.00  0.00     0.016 C 
BRANCH   3   5
ATOM      5  C   UNL     1       0.021  29.490  50.990  1.00  0.00     0.015 C 
BRANCH   5   6
ATOM      6  C   UNL     1       0.716  29.905  52.251  1.00  0.00     0.028 C 
BRANCH   6   7
ATOM      7  C   UNL     1       1.632  28.752  52.684  1.00  0.00    -0.028 C 
ATOM      8  C   UNL     1       1.419  27.760  53.625  1.00  0.00    -0.070 CG0
ATOM      9  C   UNL     1       2.482  26.688  53.700  1.00  0.00     0.039 C 
ATOM     10  G   UNL     1       0.245  27.647  54.637  1.00  0.00     0.000 G0
ENDBRANCH   6   7
ENDBRANCH   5   6
ENDBRANCH   3   5
ENDBRANCH   1   3
BRANCH   1  11
ATOM     11  C   UNL     1      -2.814  29.398  52.766  1.00  0.00     0.087 C 
BRANCH  11  12
ATOM     12  C   UNL     1      -2.089  28.900  54.089  1.00  0.00     0.066 C 
BRANCH  12  13
ATOM     13  C   UNL     1      -1.171  27.657  54.011  1.00  0.00     0.140 C 
ATOM     14  O   UNL     1      -1.601  26.626  53.514  1.00  0.00    -0.299 OA
BRANCH  13  15
ATOM     15  C   UNL     1       0.238  27.636  54.625  1.00  0.00     0.106 CG0
ATOM     16  G   UNL     1       1.413  27.762  53.616  1.00  0.00     0.000 G0
ENDBRANCH  13  15
ENDBRANCH  12  13
BRANCH  12  17
ATOM     17  C   UNL     1      -3.027  28.834  55.340  1.00  0.00    -0.006 C 
ATOM     18  C   UNL     1      -2.242  28.868  56.663  1.00  0.00     0.008 C 
ATOM     19  C   UNL     1      -4.118  29.916  55.348  1.00  0.00     0.008 C 
ENDBRANCH  12  17
ENDBRANCH  11  12
ENDBRANCH   1  11
TORSDOF 1
ENDMDL
MODEL 4
REMARK VINA RESULT:    -2.981      2.277      4.761
REMARK INTER + INTRA:          -4.733
REMARK INTER:                  -5.035
REMARK INTRA:                   0.302
REMARK UNBOUND:                -0.184
REMARK SMILES CC1=CCC[C@H](C)C(=O)C[C@@H](C(C)C)C(=O)C1
REMARK SMILES IDX 8 1 9 2 6 3 7 4 5 5 4 6 3 7 2 8 1 9 10 11 11 12 15 13 16 14
REMARK SMILES IDX 17 15 12 17 13 18 14 19
REMARK H PARENT
REMARK Flexibility Score: 70.00
ROOT
ATOM      1  C   UNL     1      -2.589  28.522  51.732  1.00  0.00     0.136 C 
ATOM      2  O   UNL     1      -3.368  29.444  51.914  1.00  0.00    -0.299 OA
ENDROOT
BRANCH   1   3
ATOM      3  C   UNL     1      -2.587  27.351  52.726  1.00  0.00     0.053 C 
ATOM      4  C   UNL     1      -1.497  26.325  52.399  1.00  0.00     0.016 C 
BRANCH   3   5
ATOM      5  C   UNL     1      -2.388  28.011  54.069  1.00  0.00     0.015 C 
BRANCH   5   6
ATOM      6  C   UNL     1      -1.178  28.714  54.605  1.00  0.00     0.028 C 
BRANCH   6   7
ATOM      7  C   UNL     1       0.050  27.855  54.272  1.00  0.00    -0.028 C 
ATOM      8  C   UNL     1       1.158  28.160  53.501  1.00  0.00    -0.070 CG0
ATOM      9  C   UNL     1       2.258  27.124  53.497  1.00  0.00     0.039 C 
ATOM     10  G   UNL     1       1.379  29.412  52.607  1.00  0.00     0.000 G0
ENDBRANCH   6   7
ENDBRANCH   5   6
ENDBRANCH   3   5
ENDBRANCH   1   3
BRANCH   1  11
ATOM     11  C   UNL     1      -1.666  28.550  50.499  1.00  0.00     0.087 C 
BRANCH  11  12
ATOM     12  C   UNL     1      -0.335  29.417  50.520  1.00  0.00     0.066 C 
BRANCH  12  13
ATOM     13  C   UNL     1       0.161  29.983  51.871  1.00  0.00     0.140 C 
ATOM     14  O   UNL     1      -0.393  30.963  52.350  1.00  0.00    -0.299 OA
BRANCH  13  15
ATOM     15  C   UNL     1       1.393  29.418  52.596  1.00  0.00     0.106 CG0
ATOM     16  G   UNL     1       1.134  28.176  53.494  1.00  0.00     0.000 G0
ENDBRANCH  13  15
ENDBRANCH  12  13
BRANCH  12  17
ATOM     17  C   UNL     1      -0.266  30.501  49.393  1.00  0.00    -0.006 C 
ATOM     18  C   UNL     1       0.462  29.993  48.136  1.00  0.00     0.008 C 
ATOM     19  C   UNL     1      -1.638  31.077  49.010  1.00  0.00     0.008 C 
ENDBRANCH  12  17
ENDBRANCH  11  12
ENDBRANCH   1  11
TORSDOF 1
ENDMDL
MODEL 5
REMARK VINA RESULT:    -2.863      8.184     10.651
REMARK INTER + INTRA:          -4.554
REMARK INTER:                  -4.008
REMARK INTRA:                  -0.546
REMARK UNBOUND:                -0.184
REMARK SMILES CC1=CCC[C@H](C)C(=O)C[C@@H](C(C)C)C(=O)C1
REMARK SMILES IDX 8 1 9 2 6 3 7 4 5 5 4 6 3 7 2 8 1 9 10 11 11 12 15 13 16 14
REMARK SMILES IDX 17 15 12 17 13 18 14 19
REMARK H PARENT
REMARK Flexibility Score: 70.00
ROOT
ATOM      1  C   UNL     1      -1.877  33.725  64.042  1.00  0.00     0.136 C 
ATOM      2  O   UNL     1      -1.032  34.134  64.823  1.00  0.00    -0.299 OA
ENDROOT
BRANCH   1   3
ATOM      3  C   UNL     1      -3.144  34.563  63.820  1.00  0.00     0.053 C 
ATOM      4  C   UNL     1      -4.028  34.606  65.071  1.00  0.00     0.016 C 
BRANCH   3   5
ATOM      5  C   UNL     1      -2.619  35.922  63.426  1.00  0.00     0.015 C 
BRANCH   5   6
ATOM      6  C   UNL     1      -2.660  36.598  62.089  1.00  0.00     0.028 C 
BRANCH   6   7
ATOM      7  C   UNL     1      -3.415  35.678  61.121  1.00  0.00    -0.028 C 
ATOM      8  C   UNL     1      -2.933  34.679  60.293  1.00  0.00    -0.070 CG0
ATOM      9  C   UNL     1      -3.980  33.864  59.570  1.00  0.00     0.039 C 
ATOM     10  G   UNL     1      -1.449  34.331  59.988  1.00  0.00     0.000 G0
ENDBRANCH   6   7
ENDBRANCH   5   6
ENDBRANCH   3   5
ENDBRANCH   1   3
BRANCH   1  11
ATOM     11  C   UNL     1      -1.625  32.406  63.286  1.00  0.00     0.087 C 
BRANCH  11  12
ATOM     12  C   UNL     1      -0.940  32.428  61.854  1.00  0.00     0.066 C 
BRANCH  12  13
ATOM     13  C   UNL     1      -0.636  33.795  61.196  1.00  0.00     0.140 C 
ATOM     14  O   UNL     1       0.220  34.518  61.685  1.00  0.00    -0.299 OA
BRANCH  13  15
ATOM     15  C   UNL     1      -1.441  34.327  59.999  1.00  0.00     0.106 CG0
ATOM     16  G   UNL     1      -2.928  34.672  60.288  1.00  0.00     0.000 G0
ENDBRANCH  13  15
ENDBRANCH  12  13
BRANCH  12  17
ATOM     17  C   UNL     1      -1.583  31.436  60.827  1.00  0.00    -0.006 C 
ATOM     18  C   UNL     1      -0.550  30.475  60.216  1.00  0.00     0.008 C 
ATOM     19  C   UNL     1      -2.767  30.643  61.399  1.00  0.00     0.008 C 
ENDBRANCH  12  17
ENDBRANCH  11  12
ENDBRANCH   1  11
TORSDOF 1
ENDMDL
MODEL 6
REMARK VINA RESULT:    -2.846      7.590     10.230
REMARK INTER + INTRA:          -4.528
REMARK INTER:                  -4.436
REMARK INTRA:                  -0.092
REMARK UNBOUND:                -0.184
REMARK SMILES CC1=CCC[C@H](C)C(=O)C[C@@H](C(C)C)C(=O)C1
REMARK SMILES IDX 8 1 9 2 6 3 7 4 5 5 4 6 3 7 2 8 1 9 10 11 11 12 15 13 16 14
REMARK SMILES IDX 17 15 12 17 13 18 14 19
REMARK H PARENT
REMARK Flexibility Score: 70.00
ROOT
ATOM      1  C   UNL     1      -1.054  33.368  63.076  1.00  0.00     0.136 C 
ATOM      2  O   UNL     1      -0.139  34.175  63.117  1.00  0.00    -0.299 OA
ENDROOT
BRANCH   1   3
ATOM      3  C   UNL     1      -2.272  33.587  63.985  1.00  0.00     0.053 C 
ATOM      4  C   UNL     1      -1.935  33.346  65.460  1.00  0.00     0.016 C 
BRANCH   3   5
ATOM      5  C   UNL     1      -2.689  35.010  63.703  1.00  0.00     0.015 C 
BRANCH   5   6
ATOM      6  C   UNL     1      -3.589  35.534  62.626  1.00  0.00     0.028 C 
BRANCH   6   7
ATOM      7  C   UNL     1      -2.703  36.041  61.480  1.00  0.00    -0.028 C 
ATOM      8  C   UNL     1      -2.566  35.559  60.189  1.00  0.00    -0.070 CG0
ATOM      9  C   UNL     1      -1.703  36.390  59.268  1.00  0.00     0.039 C 
ATOM     10  G   UNL     1      -3.153  34.248  59.597  1.00  0.00     0.000 G0
ENDBRANCH   6   7
ENDBRANCH   5   6
ENDBRANCH   3   5
ENDBRANCH   1   3
BRANCH   1  11
ATOM     11  C   UNL     1      -0.969  32.185  62.092  1.00  0.00     0.087 C 
BRANCH  11  12
ATOM     12  C   UNL     1      -1.554  32.329  60.622  1.00  0.00     0.066 C 
BRANCH  12  13
ATOM     13  C   UNL     1      -2.941  32.988  60.436  1.00  0.00     0.140 C 
ATOM     14  O   UNL     1      -3.929  32.452  60.917  1.00  0.00    -0.299 OA
BRANCH  13  15
ATOM     15  C   UNL     1      -3.142  34.251  59.583  1.00  0.00     0.106 CG0
ATOM     16  G   UNL     1      -2.582  35.568  60.188  1.00  0.00     0.000 G0
ENDBRANCH  13  15
ENDBRANCH  12  13
BRANCH  12  17
ATOM     17  C   UNL     1      -1.425  31.030  59.758  1.00  0.00    -0.006 C 
ATOM     18  C   UNL     1      -1.085  29.793  60.608  1.00  0.00     0.008 C 
ATOM     19  C   UNL     1      -2.657  30.747  58.886  1.00  0.00     0.008 C 
ENDBRANCH  12  17
ENDBRANCH  11  12
ENDBRANCH   1  11
TORSDOF 1
ENDMDL
MODEL 7
REMARK VINA RESULT:    -2.844      8.855     10.872
REMARK INTER + INTRA:          -4.525
REMARK INTER:                  -4.284
REMARK INTRA:                  -0.241
REMARK UNBOUND:                -0.184
REMARK SMILES CC1=CCC[C@H](C)C(=O)C[C@@H](C(C)C)C(=O)C1
REMARK SMILES IDX 8 1 9 2 6 3 7 4 5 5 4 6 3 7 2 8 1 9 10 11 11 12 15 13 16 14
REMARK SMILES IDX 17 15 12 17 13 18 14 19
REMARK H PARENT
REMARK Flexibility Score: 70.00
ROOT
ATOM      1  C   UNL     1      -0.802  34.544  61.086  1.00  0.00     0.136 C 
ATOM      2  O   UNL     1       0.316  34.883  61.441  1.00  0.00    -0.299 OA
ENDROOT
BRANCH   1   3
ATOM      3  C   UNL     1      -1.770  35.621  60.575  1.00  0.00     0.053 C 
ATOM      4  C   UNL     1      -2.805  35.045  59.603  1.00  0.00     0.016 C 
BRANCH   3   5
ATOM      5  C   UNL     1      -2.392  36.181  61.831  1.00  0.00     0.015 C 
BRANCH   5   6
ATOM      6  C   UNL     1      -3.636  35.745  62.544  1.00  0.00     0.028 C 
BRANCH   6   7
ATOM      7  C   UNL     1      -3.327  35.709  64.046  1.00  0.00    -0.028 C 
ATOM      8  C   UNL     1      -2.493  34.863  64.757  1.00  0.00    -0.070 CG0
ATOM      9  C   UNL     1      -2.309  35.200  66.219  1.00  0.00     0.039 C 
ATOM     10  G   UNL     1      -1.766  33.590  64.240  1.00  0.00     0.000 G0
ENDBRANCH   6   7
ENDBRANCH   5   6
ENDBRANCH   3   5
ENDBRANCH   1   3
BRANCH   1  11
ATOM     11  C   UNL     1      -1.187  33.053  61.132  1.00  0.00     0.087 C 
BRANCH  11  12
ATOM     12  C   UNL     1      -2.529  32.599  61.849  1.00  0.00     0.066 C 
BRANCH  12  13
ATOM     13  C   UNL     1      -2.581  32.593  63.395  1.00  0.00     0.140 C 
ATOM     14  O   UNL     1      -3.364  31.847  63.965  1.00  0.00    -0.299 OA
BRANCH  13  15
ATOM     15  C   UNL     1      -1.749  33.564  64.248  1.00  0.00     0.106 CG0
ATOM     16  G   UNL     1      -2.498  34.832  64.748  1.00  0.00     0.000 G0
ENDBRANCH  13  15
ENDBRANCH  12  13
BRANCH  12  17
ATOM     17  C   UNL     1      -3.153  31.290  61.257  1.00  0.00    -0.006 C 
ATOM     18  C   UNL     1      -3.963  31.556  59.976  1.00  0.00     0.008 C 
ATOM     19  C   UNL     1      -2.124  30.178  61.007  1.00  0.00     0.008 C 
ENDBRANCH  12  17
ENDBRANCH  11  12
ENDBRANCH   1  11
TORSDOF 1
ENDMDL
MODEL 8
REMARK VINA RESULT:    -2.840      7.352      9.783
REMARK INTER + INTRA:          -4.519
REMARK INTER:                  -4.272
REMARK INTRA:                  -0.247
REMARK UNBOUND:                -0.184
REMARK SMILES CC1=CCC[C@H](C)C(=O)C[C@@H](C(C)C)C(=O)C1
REMARK SMILES IDX 8 1 9 2 6 3 7 4 5 5 4 6 3 7 2 8 1 9 10 11 11 12 15 13 16 14
REMARK SMILES IDX 17 15 12 17 13 18 14 19
REMARK H PARENT
REMARK Flexibility Score: 70.00
ROOT
ATOM      1  C   UNL     1      -2.001  31.293  61.136  1.00  0.00     0.136 C 
ATOM      2  O   UNL     1      -2.798  30.602  61.752  1.00  0.00    -0.299 OA
ENDROOT
BRANCH   1   3
ATOM      3  C   UNL     1      -1.928  31.152  59.609  1.00  0.00     0.053 C 
ATOM      4  C   UNL     1      -1.852  29.685  59.174  1.00  0.00     0.016 C 
BRANCH   3   5
ATOM      5  C   UNL     1      -3.172  31.847  59.116  1.00  0.00     0.015 C 
BRANCH   5   6
ATOM      6  C   UNL     1      -4.125  32.726  59.869  1.00  0.00     0.028 C 
BRANCH   6   7
ATOM      7  C   UNL     1      -4.002  34.146  59.301  1.00  0.00    -0.028 C 
ATOM      8  C   UNL     1      -2.992  35.079  59.463  1.00  0.00    -0.070 CG0
ATOM      9  C   UNL     1      -3.125  36.339  58.639  1.00  0.00     0.039 C 
ATOM     10  G   UNL     1      -1.771  35.001  60.421  1.00  0.00     0.000 G0
ENDBRANCH   6   7
ENDBRANCH   5   6
ENDBRANCH   3   5
ENDBRANCH   1   3
BRANCH   1  11
ATOM     11  C   UNL     1      -1.129  32.302  61.908  1.00  0.00     0.087 C 
BRANCH  11  12
ATOM     12  C   UNL     1      -1.807  33.512  62.682  1.00  0.00     0.066 C 
BRANCH  12  13
ATOM     13  C   UNL     1      -2.082  34.826  61.913  1.00  0.00     0.140 C 
ATOM     14  O   UNL     1      -2.646  35.748  62.484  1.00  0.00    -0.299 OA
BRANCH  13  15
ATOM     15  C   UNL     1      -1.758  34.985  60.418  1.00  0.00     0.106 CG0
ATOM     16  G   UNL     1      -2.986  35.098  59.472  1.00  0.00     0.000 G0
ENDBRANCH  13  15
ENDBRANCH  12  13
BRANCH  12  17
ATOM     17  C   UNL     1      -1.177  33.800  64.086  1.00  0.00    -0.006 C 
ATOM     18  C   UNL     1      -1.824  32.960  65.201  1.00  0.00     0.008 C 
ATOM     19  C   UNL     1       0.350  33.633  64.120  1.00  0.00     0.008 C 
ENDBRANCH  12  17
ENDBRANCH  11  12
ENDBRANCH   1  11
TORSDOF 1
ENDMDL
MODEL 9
REMARK VINA RESULT:    -2.703      8.043     10.581
REMARK INTER + INTRA:          -4.310
REMARK INTER:                  -4.200
REMARK INTRA:                  -0.109
REMARK UNBOUND:                -0.184
REMARK SMILES CC1=CCC[C@H](C)C(=O)C[C@@H](C(C)C)C(=O)C1
REMARK SMILES IDX 8 1 9 2 6 3 7 4 5 5 4 6 3 7 2 8 1 9 10 11 11 12 15 13 16 14
REMARK SMILES IDX 17 15 12 17 13 18 14 19
REMARK H PARENT
REMARK Flexibility Score: 70.00
ROOT
ATOM      1  C   UNL     1      -2.064  32.293  60.037  1.00  0.00     0.136 C 
ATOM      2  O   UNL     1      -0.881  32.376  59.749  1.00  0.00    -0.299 OA
ENDROOT
BRANCH   1   3
ATOM      3  C   UNL     1      -2.613  30.942  60.520  1.00  0.00     0.053 C 
ATOM      4  C   UNL     1      -1.668  29.786  60.179  1.00  0.00     0.016 C 
BRANCH   3   5
ATOM      5  C   UNL     1      -2.796  31.132  62.006  1.00  0.00     0.015 C 
BRANCH   5   6
ATOM      6  C   UNL     1      -3.662  32.115  62.733  1.00  0.00     0.028 C 
BRANCH   6   7
ATOM      7  C   UNL     1      -2.853  32.669  63.914  1.00  0.00    -0.028 C 
ATOM      8  C   UNL     1      -1.890  33.664  63.936  1.00  0.00    -0.070 CG0
ATOM      9  C   UNL     1      -1.391  34.063  65.305  1.00  0.00     0.039 C 
ATOM     10  G   UNL     1      -1.235  34.380  62.722  1.00  0.00     0.000 G0
ENDBRANCH   6   7
ENDBRANCH   5   6
ENDBRANCH   3   5
ENDBRANCH   1   3
BRANCH   1  11
ATOM     11  C   UNL     1      -2.952  33.549  59.939  1.00  0.00     0.087 C 
BRANCH  11  12
ATOM     12  C   UNL     1      -2.372  34.967  60.358  1.00  0.00     0.066 C 
BRANCH  12  13
ATOM     13  C   UNL     1      -2.138  35.260  61.859  1.00  0.00     0.140 C 
ATOM     14  O   UNL     1      -2.645  36.252  62.362  1.00  0.00    -0.299 OA
BRANCH  13  15
ATOM     15  C   UNL     1      -1.208  34.399  62.728  1.00  0.00     0.106 CG0
ATOM     16  G   UNL     1      -1.884  33.682  63.930  1.00  0.00     0.000 G0
ENDBRANCH  13  15
ENDBRANCH  12  13
BRANCH  12  17
ATOM     17  C   UNL     1      -3.074  36.174  59.649  1.00  0.00    -0.006 C 
ATOM     18  C   UNL     1      -2.065  37.204  59.112  1.00  0.00     0.008 C 
ATOM     19  C   UNL     1      -4.040  35.752  58.532  1.00  0.00     0.008 C 
ENDBRANCH  12  17
ENDBRANCH  11  12
ENDBRANCH   1  11
TORSDOF 1
ENDMDL
