MODEL 1
REMARK VINA RESULT:    -4.973      0.000      0.000
REMARK INTER + INTRA:          -6.763
REMARK INTER:                  -7.299
REMARK INTRA:                   0.536
REMARK UNBOUND:                 0.536
REMARK SMILES C=C1CC=CC(C)(C)CC=C(C)CCC1
REMARK SMILES IDX 2 1 1 2 15 3 14 4 13 5 11 6 12 7 10 8 3 10 4 11 5 12 6 13
REMARK SMILES IDX 7 14 8 15 9 16
REMARK H PARENT
REMARK Flexibility Score: 60.00
ROOT
ATOM      1  C   UNL     1     113.015 110.521 108.236  1.00  0.00    -0.074 C 
ATOM      2  C   UNL     1     113.132 109.348 107.592  1.00  0.00     0.008 C 
ENDROOT
BRANCH   1   3
ATOM      3  C   UNL     1     112.939 111.804 107.424  1.00  0.00     0.031 C 
BRANCH   3   4
ATOM      4  C   UNL     1     111.798 111.779 106.394  1.00  0.00     0.009 C 
BRANCH   4   5
ATOM      5  C   UNL     1     110.427 112.167 106.981  1.00  0.00     0.030 C 
BRANCH   5   6
ATOM      6  C   UNL     1     109.667 110.975 107.553  1.00  0.00    -0.077 C 
ATOM      7  C   UNL     1     109.120 109.953 106.585  1.00  0.00     0.039 C 
ATOM      8  C   UNL     1     109.405 110.778 108.871  1.00  0.00    -0.027 CG0
ATOM      9  G   UNL     1     109.704 111.722 110.021  1.00  0.00     0.000 G0
ENDBRANCH   5   6
ENDBRANCH   4   5
ENDBRANCH   3   4
ENDBRANCH   1   3
BRANCH   1  10
ATOM     10  C   UNL     1     113.062 110.539 109.752  1.00  0.00     0.057 C 
BRANCH  10  11
ATOM     11  C   UNL     1     112.154 109.500 110.359  1.00  0.00    -0.026 C 
ATOM     12  C   UNL     1     110.979 109.704 110.992  1.00  0.00    -0.024 C 
BRANCH  12  13
ATOM     13  C   UNL     1     110.271 111.032 111.299  1.00  0.00    -0.014 C 
ATOM     14  C   UNL     1     109.102 110.728 112.270  1.00  0.00     0.016 C 
ATOM     15  C   UNL     1     111.230 111.989 112.043  1.00  0.00     0.016 C 
BRANCH  13  16
ATOM     16  C   UNL     1     109.692 111.728 110.026  1.00  0.00     0.038 CG0
ATOM     17  G   UNL     1     109.410 110.766 108.887  1.00  0.00     0.000 G0
ENDBRANCH  13  16
ENDBRANCH  12  13
ENDBRANCH  10  11
ENDBRANCH   1  10
TORSDOF 0
ENDMDL
MODEL 2
REMARK VINA RESULT:    -4.929      1.695      3.328
REMARK INTER + INTRA:          -6.698
REMARK INTER:                  -7.249
REMARK INTRA:                   0.551
REMARK UNBOUND:                 0.536
REMARK SMILES C=C1CC=CC(C)(C)CC=C(C)CCC1
REMARK SMILES IDX 2 1 1 2 15 3 14 4 13 5 11 6 12 7 10 8 3 10 4 11 5 12 6 13
REMARK SMILES IDX 7 14 8 15 9 16
REMARK H PARENT
REMARK Flexibility Score: 60.00
ROOT
ATOM      1  C   UNL     1     109.338 110.794 107.120  1.00  0.00    -0.074 C 
ATOM      2  C   UNL     1     109.000 109.974 106.111  1.00  0.00     0.008 C 
ENDROOT
BRANCH   1   3
ATOM      3  C   UNL     1     109.549 112.271 106.831  1.00  0.00     0.031 C 
BRANCH   3   4
ATOM      4  C   UNL     1     110.395 112.505 105.568  1.00  0.00     0.009 C 
BRANCH   4   5
ATOM      5  C   UNL     1     111.903 112.643 105.851  1.00  0.00     0.030 C 
BRANCH   5   6
ATOM      6  C   UNL     1     112.532 111.353 106.364  1.00  0.00    -0.077 C 
ATOM      7  C   UNL     1     112.652 110.193 105.403  1.00  0.00     0.039 C 
ATOM      8  C   UNL     1     112.957 111.146 107.637  1.00  0.00    -0.027 CG0
ATOM      9  G   UNL     1     112.810 112.083 108.821  1.00  0.00     0.000 G0
ENDBRANCH   5   6
ENDBRANCH   4   5
ENDBRANCH   3   4
ENDBRANCH   1   3
BRANCH   1  10
ATOM     10  C   UNL     1     109.596 110.206 108.495  1.00  0.00     0.057 C 
BRANCH  10  11
ATOM     11  C   UNL     1     109.588 111.260 109.572  1.00  0.00    -0.026 C 
ATOM     12  C   UNL     1     110.651 111.777 110.224  1.00  0.00    -0.024 C 
BRANCH  12  13
ATOM     13  C   UNL     1     112.136 111.415 110.078  1.00  0.00    -0.014 C 
ATOM     14  C   UNL     1     112.866 111.896 111.358  1.00  0.00     0.016 C 
ATOM     15  C   UNL     1     112.308 109.880 110.018  1.00  0.00     0.016 C 
BRANCH  13  16
ATOM     16  C   UNL     1     112.814 112.084 108.839  1.00  0.00     0.038 CG0
ATOM     17  G   UNL     1     112.949 111.153 107.648  1.00  0.00     0.000 G0
ENDBRANCH  13  16
ENDBRANCH  12  13
ENDBRANCH  10  11
ENDBRANCH   1  10
TORSDOF 0
ENDMDL
MODEL 3
REMARK VINA RESULT:    -4.915      3.673      6.061
REMARK INTER + INTRA:          -6.678
REMARK INTER:                  -7.267
REMARK INTRA:                   0.590
REMARK UNBOUND:                 0.536
REMARK SMILES C=C1CC=CC(C)(C)CC=C(C)CCC1
REMARK SMILES IDX 2 1 1 2 15 3 14 4 13 5 11 6 12 7 10 8 3 10 4 11 5 12 6 13
REMARK SMILES IDX 7 14 8 15 9 16
REMARK H PARENT
REMARK Flexibility Score: 60.00
ROOT
ATOM      1  C   UNL     1     109.211 111.756 113.091  1.00  0.00    -0.074 C 
ATOM      2  C   UNL     1     109.147 112.961 112.501  1.00  0.00     0.008 C 
ENDROOT
BRANCH   1   3
ATOM      3  C   UNL     1     109.192 110.508 112.224  1.00  0.00     0.031 C 
BRANCH   3   4
ATOM      4  C   UNL     1     110.431 110.403 111.321  1.00  0.00     0.009 C 
BRANCH   4   5
ATOM      5  C   UNL     1     111.696 109.925 112.060  1.00  0.00     0.030 C 
BRANCH   5   6
ATOM      6  C   UNL     1     112.539 111.076 112.599  1.00  0.00    -0.077 C 
ATOM      7  C   UNL     1     113.160 112.027 111.603  1.00  0.00     0.039 C 
ATOM      8  C   UNL     1     112.813 111.292 113.912  1.00  0.00    -0.027 CG0
ATOM      9  G   UNL     1     112.445 110.407 115.088  1.00  0.00     0.000 G0
ENDBRANCH   5   6
ENDBRANCH   4   5
ENDBRANCH   3   4
ENDBRANCH   1   3
BRANCH   1  10
ATOM     10  C   UNL     1     109.200 111.674 114.605  1.00  0.00     0.057 C 
BRANCH  10  11
ATOM     11  C   UNL     1     110.080 112.723 115.236  1.00  0.00    -0.026 C 
ATOM     12  C   UNL     1     111.215 112.529 115.941  1.00  0.00    -0.024 C 
BRANCH  12  13
ATOM     13  C   UNL     1     111.894 111.206 116.323  1.00  0.00    -0.014 C 
ATOM     14  C   UNL     1     113.085 111.541 117.257  1.00  0.00     0.016 C 
ATOM     15  C   UNL     1     110.922 110.324 117.139  1.00  0.00     0.016 C 
BRANCH  13  16
ATOM     16  C   UNL     1     112.437 110.415 115.090  1.00  0.00     0.038 CG0
ATOM     17  G   UNL     1     112.808 111.303 113.917  1.00  0.00     0.000 G0
ENDBRANCH  13  16
ENDBRANCH  12  13
ENDBRANCH  10  11
ENDBRANCH   1  10
TORSDOF 0
ENDMDL
MODEL 4
REMARK VINA RESULT:    -4.890      1.169      2.079
REMARK INTER + INTRA:          -6.640
REMARK INTER:                  -7.147
REMARK INTRA:                   0.506
REMARK UNBOUND:                 0.536
REMARK SMILES C=C1CC=CC(C)(C)CC=C(C)CCC1
REMARK SMILES IDX 2 1 1 2 15 3 14 4 13 5 11 6 12 7 10 8 3 10 4 11 5 12 6 13
REMARK SMILES IDX 7 14 8 15 9 16
REMARK H PARENT
REMARK Flexibility Score: 60.00
ROOT
ATOM      1  C   UNL     1     112.820 110.960 107.439  1.00  0.00    -0.074 C 
ATOM      2  C   UNL     1     113.176 112.062 106.757  1.00  0.00     0.008 C 
ENDROOT
BRANCH   1   3
ATOM      3  C   UNL     1     111.891 109.954 106.781  1.00  0.00     0.031 C 
BRANCH   3   4
ATOM      4  C   UNL     1     110.485 110.526 106.539  1.00  0.00     0.009 C 
BRANCH   4   5
ATOM      5  C   UNL     1     109.526 110.334 107.730  1.00  0.00     0.030 C 
BRANCH   5   6
ATOM      6  C   UNL     1     109.375 111.591 108.580  1.00  0.00    -0.077 C 
ATOM      7  C   UNL     1     108.927 112.860 107.893  1.00  0.00     0.039 C 
ATOM      8  C   UNL     1     109.654 111.673 109.906  1.00  0.00    -0.027 CG0
ATOM      9  G   UNL     1     110.259 110.597 110.789  1.00  0.00     0.000 G0
ENDBRANCH   5   6
ENDBRANCH   4   5
ENDBRANCH   3   4
ENDBRANCH   1   3
BRANCH   1  10
ATOM     10  C   UNL     1     113.275 110.804 108.877  1.00  0.00     0.057 C 
BRANCH  10  11
ATOM     11  C   UNL     1     113.046 112.057 109.684  1.00  0.00    -0.026 C 
ATOM     12  C   UNL     1     112.330 112.183 110.822  1.00  0.00    -0.024 C 
BRANCH  12  13
ATOM     13  C   UNL     1     111.533 111.111 111.578  1.00  0.00    -0.014 C 
ATOM     14  C   UNL     1     112.477 109.905 111.820  1.00  0.00     0.016 C 
ATOM     15  C   UNL     1     111.119 111.638 112.971  1.00  0.00     0.016 C 
BRANCH  13  16
ATOM     16  C   UNL     1     110.278 110.610 110.795  1.00  0.00     0.038 CG0
ATOM     17  G   UNL     1     109.652 111.675 109.913  1.00  0.00     0.000 G0
ENDBRANCH  13  16
ENDBRANCH  12  13
ENDBRANCH  10  11
ENDBRANCH   1  10
TORSDOF 0
ENDMDL
MODEL 5
REMARK VINA RESULT:    -4.866      3.496      5.582
REMARK INTER + INTRA:          -6.606
REMARK INTER:                  -7.154
REMARK INTRA:                   0.547
REMARK UNBOUND:                 0.536
REMARK SMILES C=C1CC=CC(C)(C)CC=C(C)CCC1
REMARK SMILES IDX 2 1 1 2 15 3 14 4 13 5 11 6 12 7 10 8 3 10 4 11 5 12 6 13
REMARK SMILES IDX 7 14 8 15 9 16
REMARK H PARENT
REMARK Flexibility Score: 60.00
ROOT
ATOM      1  C   UNL     1     109.695 110.950 111.525  1.00  0.00    -0.074 C 
ATOM      2  C   UNL     1     109.377 110.058 110.573  1.00  0.00     0.008 C 
ENDROOT
BRANCH   1   3
ATOM      3  C   UNL     1     110.681 112.059 111.196  1.00  0.00     0.031 C 
BRANCH   3   4
ATOM      4  C   UNL     1     112.140 111.576 111.232  1.00  0.00     0.009 C 
BRANCH   4   5
ATOM      5  C   UNL     1     112.811 111.734 112.611  1.00  0.00     0.030 C 
BRANCH   5   6
ATOM      6  C   UNL     1     112.793 110.449 113.431  1.00  0.00    -0.077 C 
ATOM      7  C   UNL     1     113.140 109.157 112.729  1.00  0.00     0.039 C 
ATOM      8  C   UNL     1     112.448 110.366 114.742  1.00  0.00    -0.027 CG0
ATOM      9  G   UNL     1     111.917 111.478 115.627  1.00  0.00     0.000 G0
ENDBRANCH   5   6
ENDBRANCH   4   5
ENDBRANCH   3   4
ENDBRANCH   1   3
BRANCH   1  10
ATOM     10  C   UNL     1     109.141 110.766 112.925  1.00  0.00     0.057 C 
BRANCH  10  11
ATOM     11  C   UNL     1     109.070 112.068 113.682  1.00  0.00    -0.026 C 
ATOM     12  C   UNL     1     109.599 112.344 114.893  1.00  0.00    -0.024 C 
BRANCH  12  13
ATOM     13  C   UNL     1     110.374 111.414 115.838  1.00  0.00    -0.014 C 
ATOM     14  C   UNL     1     110.054 111.847 117.292  1.00  0.00     0.016 C 
ATOM     15  C   UNL     1     109.871 109.960 115.686  1.00  0.00     0.016 C 
BRANCH  13  16
ATOM     16  C   UNL     1     111.921 111.475 115.630  1.00  0.00     0.038 CG0
ATOM     17  G   UNL     1     112.455 110.370 114.738  1.00  0.00     0.000 G0
ENDBRANCH  13  16
ENDBRANCH  12  13
ENDBRANCH  10  11
ENDBRANCH   1  10
TORSDOF 0
ENDMDL
MODEL 6
REMARK VINA RESULT:    -4.827      3.176      4.572
REMARK INTER + INTRA:          -6.549
REMARK INTER:                  -7.041
REMARK INTRA:                   0.492
REMARK UNBOUND:                 0.536
REMARK SMILES C=C1CC=CC(C)(C)CC=C(C)CCC1
REMARK SMILES IDX 2 1 1 2 15 3 14 4 13 5 11 6 12 7 10 8 3 10 4 11 5 12 6 13
REMARK SMILES IDX 7 14 8 15 9 16
REMARK H PARENT
REMARK Flexibility Score: 60.00
ROOT
ATOM      1  C   UNL     1     112.905 111.138 112.329  1.00  0.00    -0.074 C 
ATOM      2  C   UNL     1     113.242 112.125 111.481  1.00  0.00     0.008 C 
ENDROOT
BRANCH   1   3
ATOM      3  C   UNL     1     112.495 109.789 111.763  1.00  0.00     0.031 C 
BRANCH   3   4
ATOM      4  C   UNL     1     111.311 109.898 110.787  1.00  0.00     0.009 C 
BRANCH   4   5
ATOM      5  C   UNL     1     109.934 109.846 111.478  1.00  0.00     0.030 C 
BRANCH   5   6
ATOM      6  C   UNL     1     109.518 111.187 112.073  1.00  0.00    -0.077 C 
ATOM      7  C   UNL     1     109.565 112.404 111.180  1.00  0.00     0.039 C 
ATOM      8  C   UNL     1     109.145 111.383 113.364  1.00  0.00    -0.027 CG0
ATOM      9  G   UNL     1     109.161 110.369 114.493  1.00  0.00     0.000 G0
ENDBRANCH   5   6
ENDBRANCH   4   5
ENDBRANCH   3   4
ENDBRANCH   1   3
BRANCH   1  10
ATOM     10  C   UNL     1     112.848 111.429 113.816  1.00  0.00     0.057 C 
BRANCH  10  11
ATOM     11  C   UNL     1     112.630 110.180 114.630  1.00  0.00    -0.026 C 
ATOM     12  C   UNL     1     111.539 109.851 115.355  1.00  0.00    -0.024 C 
BRANCH  12  13
ATOM     13  C   UNL     1     110.254 110.662 115.578  1.00  0.00    -0.014 C 
ATOM     14  C   UNL     1     109.689 110.274 116.969  1.00  0.00     0.016 C 
ATOM     15  C   UNL     1     110.579 112.172 115.636  1.00  0.00     0.016 C 
BRANCH  13  16
ATOM     16  C   UNL     1     109.157 110.386 114.501  1.00  0.00     0.038 CG0
ATOM     17  G   UNL     1     109.152 111.398 113.371  1.00  0.00     0.000 G0
ENDBRANCH  13  16
ENDBRANCH  12  13
ENDBRANCH  10  11
ENDBRANCH   1  10
TORSDOF 0
ENDMDL
MODEL 7
REMARK VINA RESULT:    -4.769      1.283      3.129
REMARK INTER + INTRA:          -6.463
REMARK INTER:                  -6.963
REMARK INTRA:                   0.500
REMARK UNBOUND:                 0.536
REMARK SMILES C=C1CC=CC(C)(C)CC=C(C)CCC1
REMARK SMILES IDX 2 1 1 2 15 3 14 4 13 5 11 6 12 7 10 8 3 10 4 11 5 12 6 13
REMARK SMILES IDX 7 14 8 15 9 16
REMARK H PARENT
REMARK Flexibility Score: 60.00
ROOT
ATOM      1  C   UNL     1     109.535 110.735 106.510  1.00  0.00    -0.074 C 
ATOM      2  C   UNL     1     109.174 109.810 105.605  1.00  0.00     0.008 C 
ENDROOT
BRANCH   1   3
ATOM      3  C   UNL     1     110.426 111.886 106.072  1.00  0.00     0.031 C 
BRANCH   3   4
ATOM      4  C   UNL     1     111.873 111.439 105.808  1.00  0.00     0.009 C 
BRANCH   4   5
ATOM      5  C   UNL     1     112.809 111.631 107.017  1.00  0.00     0.030 C 
BRANCH   5   6
ATOM      6  C   UNL     1     112.777 110.455 107.986  1.00  0.00    -0.077 C 
ATOM      7  C   UNL     1     113.054 109.076 107.435  1.00  0.00     0.039 C 
ATOM      8  C   UNL     1     112.476 110.542 109.307  1.00  0.00    -0.027 CG0
ATOM      9  G   UNL     1     112.014 111.771 110.068  1.00  0.00     0.000 G0
ENDBRANCH   5   6
ENDBRANCH   4   5
ENDBRANCH   3   4
ENDBRANCH   1   3
BRANCH   1  10
ATOM     10  C   UNL     1     109.127 110.550 107.959  1.00  0.00     0.057 C 
BRANCH  10  11
ATOM     11  C   UNL     1     108.888 111.867 108.653  1.00  0.00    -0.026 C 
ATOM     12  C   UNL     1     109.497 112.333 109.763  1.00  0.00    -0.024 C 
BRANCH  12  13
ATOM     13  C   UNL     1     110.559 111.648 110.636  1.00  0.00    -0.014 C 
ATOM     14  C   UNL     1     110.519 112.314 112.035  1.00  0.00     0.016 C 
ATOM     15  C   UNL     1     110.201 110.159 110.842  1.00  0.00     0.016 C 
BRANCH  13  16
ATOM     16  C   UNL     1     112.006 111.782 110.063  1.00  0.00     0.038 CG0
ATOM     17  G   UNL     1     112.471 110.553 109.304  1.00  0.00     0.000 G0
ENDBRANCH  13  16
ENDBRANCH  12  13
ENDBRANCH  10  11
ENDBRANCH   1  10
TORSDOF 0
ENDMDL
MODEL 8
REMARK VINA RESULT:    -4.745      2.798      6.369
REMARK INTER + INTRA:          -6.428
REMARK INTER:                  -6.998
REMARK INTRA:                   0.570
REMARK UNBOUND:                 0.536
REMARK SMILES C=C1CC=CC(C)(C)CC=C(C)CCC1
REMARK SMILES IDX 2 1 1 2 15 3 14 4 13 5 11 6 12 7 10 8 3 10 4 11 5 12 6 13
REMARK SMILES IDX 7 14 8 15 9 16
REMARK H PARENT
REMARK Flexibility Score: 60.00
ROOT
ATOM      1  C   UNL     1     109.399 111.182 114.344  1.00  0.00    -0.074 C 
ATOM      2  C   UNL     1     109.552 112.385 114.921  1.00  0.00     0.008 C 
ENDROOT
BRANCH   1   3
ATOM      3  C   UNL     1     109.652 109.931 115.169  1.00  0.00     0.031 C 
BRANCH   3   4
ATOM      4  C   UNL     1     110.893 110.063 116.068  1.00  0.00     0.009 C 
BRANCH   4   5
ATOM      5  C   UNL     1     112.215 109.736 115.348  1.00  0.00     0.030 C 
BRANCH   5   6
ATOM      6  C   UNL     1     112.786 110.927 114.585  1.00  0.00    -0.077 C 
ATOM      7  C   UNL     1     113.334 112.085 115.387  1.00  0.00     0.039 C 
ATOM      8  C   UNL     1     112.804 111.050 113.233  1.00  0.00    -0.027 CG0
ATOM      9  G   UNL     1     112.185 110.111 112.214  1.00  0.00     0.000 G0
ENDBRANCH   5   6
ENDBRANCH   4   5
ENDBRANCH   3   4
ENDBRANCH   1   3
BRANCH   1  10
ATOM     10  C   UNL     1     109.075 111.108 112.864  1.00  0.00     0.057 C 
BRANCH  10  11
ATOM     11  C   UNL     1     109.747 112.208 112.082  1.00  0.00    -0.026 C 
ATOM     12  C   UNL     1     110.814 112.101 111.262  1.00  0.00    -0.024 C 
BRANCH  12  13
ATOM     13  C   UNL     1     111.650 110.856 110.932  1.00  0.00    -0.014 C 
ATOM     14  C   UNL     1     110.748 109.881 110.132  1.00  0.00     0.016 C 
ATOM     15  C   UNL     1     112.828 111.235 110.005  1.00  0.00     0.016 C 
BRANCH  13  16
ATOM     16  C   UNL     1     112.179 110.116 112.202  1.00  0.00     0.038 CG0
ATOM     17  G   UNL     1     112.800 111.045 113.228  1.00  0.00     0.000 G0
ENDBRANCH  13  16
ENDBRANCH  12  13
ENDBRANCH  10  11
ENDBRANCH   1  10
TORSDOF 0
ENDMDL
MODEL 9
REMARK VINA RESULT:    -4.688      1.659      5.018
REMARK INTER + INTRA:          -6.345
REMARK INTER:                  -7.023
REMARK INTRA:                   0.678
REMARK UNBOUND:                 0.536
REMARK SMILES C=C1CC=CC(C)(C)CC=C(C)CCC1
REMARK SMILES IDX 2 1 1 2 15 3 14 4 13 5 11 6 12 7 10 8 3 10 4 11 5 12 6 13
REMARK SMILES IDX 7 14 8 15 9 16
REMARK H PARENT
REMARK Flexibility Score: 60.00
ROOT
ATOM      1  C   UNL     1     109.490 110.543 109.459  1.00  0.00    -0.074 C 
ATOM      2  C   UNL     1     109.108 111.764 109.868  1.00  0.00     0.008 C 
ENDROOT
BRANCH   1   3
ATOM      3  C   UNL     1     109.877 109.505 110.500  1.00  0.00     0.031 C 
BRANCH   3   4
ATOM      4  C   UNL     1     111.143 109.900 111.279  1.00  0.00     0.009 C 
BRANCH   4   5
ATOM      5  C   UNL     1     112.437 109.794 110.449  1.00  0.00     0.030 C 
BRANCH   5   6
ATOM      6  C   UNL     1     112.884 111.134 109.873  1.00  0.00    -0.077 C 
ATOM      7  C   UNL     1     113.193 112.252 110.840  1.00  0.00     0.039 C 
ATOM      8  C   UNL     1     112.987 111.416 108.549  1.00  0.00    -0.027 CG0
ATOM      9  G   UNL     1     112.592 110.528 107.384  1.00  0.00     0.000 G0
ENDBRANCH   5   6
ENDBRANCH   4   5
ENDBRANCH   3   4
ENDBRANCH   1   3
BRANCH   1  10
ATOM     10  C   UNL     1     109.619 110.268 107.974  1.00  0.00     0.057 C 
BRANCH  10  11
ATOM     11  C   UNL     1     109.673 111.539 107.165  1.00  0.00    -0.026 C 
ATOM     12  C   UNL     1     110.686 111.975 106.386  1.00  0.00    -0.024 C 
BRANCH  12  13
ATOM     13  C   UNL     1     112.057 111.328 106.141  1.00  0.00    -0.014 C 
ATOM     14  C   UNL     1     111.907 110.346 104.950  1.00  0.00     0.016 C 
ATOM     15  C   UNL     1     113.083 112.400 105.707  1.00  0.00     0.016 C 
BRANCH  13  16
ATOM     16  C   UNL     1     112.593 110.535 107.375  1.00  0.00     0.038 CG0
ATOM     17  G   UNL     1     112.982 111.425 108.542  1.00  0.00     0.000 G0
ENDBRANCH  13  16
ENDBRANCH  12  13
ENDBRANCH  10  11
ENDBRANCH   1  10
TORSDOF 0
ENDMDL
