MODEL 1
REMARK VINA RESULT:    -3.876      0.000      0.000
REMARK INTER + INTRA:          -4.216
REMARK INTER:                  -4.216
REMARK INTRA:                   0.000
REMARK UNBOUND:                 0.000
REMARK SMILES Cc1cc(O)c2c(c1)C(=O)c1cc(O)cc(O)c1C2=O
REMARK SMILES IDX 1 1 2 2 8 3 7 4 6 5 4 6 3 7 19 8 20 9 18 10 11 11 9 12 10 13
REMARK SMILES IDX 12 14 13 15 15 16 16 17 5 18 17 20 14 22
REMARK H PARENT 5 19 17 21 14 23
REMARK Flexibility Score: inf
ROOT
ATOM      1  C   UNL     1    -102.341  36.032 -35.661  1.00  0.00     0.044 C 
ATOM      2  C   UNL     1    -100.987  35.453 -35.373  1.00  0.00    -0.047 A 
ATOM      3  C   UNL     1    -100.845  34.430 -34.429  1.00  0.00     0.016 A 
ATOM      4  C   UNL     1     -99.588  33.853 -34.177  1.00  0.00     0.038 A 
ATOM      5  C   UNL     1     -98.453  34.300 -34.891  1.00  0.00     0.076 A 
ATOM      6  C   UNL     1     -98.608  35.320 -35.860  1.00  0.00     0.127 A 
ATOM      7  C   UNL     1     -99.870  35.881 -36.095  1.00  0.00     0.050 A 
ATOM      8  C   UNL     1     -97.125  33.683 -34.612  1.00  0.00     0.201 C 
ATOM      9  O   UNL     1     -96.108  34.081 -35.240  1.00  0.00    -0.288 OA
ATOM     10  C   UNL     1     -96.991  32.601 -33.597  1.00  0.00     0.076 A 
ATOM     11  C   UNL     1     -98.136  32.165 -32.893  1.00  0.00     0.041 A 
ATOM     12  C   UNL     1     -99.455  32.780 -33.165  1.00  0.00     0.194 C 
ATOM     13  O   UNL     1    -100.474  32.385 -32.531  1.00  0.00    -0.289 OA
ATOM     14  C   UNL     1     -98.020  31.144 -31.933  1.00  0.00     0.059 A 
ATOM     15  C   UNL     1     -96.781  30.557 -31.665  1.00  0.00     0.120 A 
ATOM     16  C   UNL     1     -95.649  30.982 -32.357  1.00  0.00     0.093 A 
ATOM     17  C   UNL     1     -95.740  31.997 -33.318  1.00  0.00     0.131 A 
ENDROOT
BRANCH   6  18
ATOM     18  O   UNL     1     -97.514  35.782 -36.594  1.00  0.00    -0.507 OA
ATOM     19  H   UNL     1     -96.686  36.154 -36.142  1.00  0.00     0.293 HD
ENDBRANCH   6  18
BRANCH  17  20
ATOM     20  O   UNL     1     -94.585  32.398 -33.991  1.00  0.00    -0.507 OA
ATOM     21  H   UNL     1     -93.680  31.988 -33.790  1.00  0.00     0.293 HD
ENDBRANCH  17  20
BRANCH  15  22
ATOM     22  O   UNL     1     -96.664  29.545 -30.714  1.00  0.00    -0.508 OA
ATOM     23  H   UNL     1     -97.104  29.621 -29.804  1.00  0.00     0.293 HD
ENDBRANCH  15  22
TORSDOF 3
ENDMDL
MODEL 2
REMARK VINA RESULT:    -3.828      1.138      5.485
REMARK INTER + INTRA:          -4.164
REMARK INTER:                  -4.164
REMARK INTRA:                   0.000
REMARK UNBOUND:                 0.000
REMARK SMILES Cc1cc(O)c2c(c1)C(=O)c1cc(O)cc(O)c1C2=O
REMARK SMILES IDX 1 1 2 2 8 3 7 4 6 5 4 6 3 7 19 8 20 9 18 10 11 11 9 12 10 13
REMARK SMILES IDX 12 14 13 15 15 16 16 17 5 18 17 20 14 22
REMARK H PARENT 5 19 17 21 14 23
REMARK Flexibility Score: inf
ROOT
ATOM      1  C   UNL     1     -96.605  29.538 -30.574  1.00  0.00     0.044 C 
ATOM      2  C   UNL     1     -96.729  30.587 -31.639  1.00  0.00    -0.047 A 
ATOM      3  C   UNL     1     -97.971  31.172 -31.911  1.00  0.00     0.016 A 
ATOM      4  C   UNL     1     -98.094  32.182 -32.880  1.00  0.00     0.038 A 
ATOM      5  C   UNL     1     -96.951  32.625 -33.582  1.00  0.00     0.076 A 
ATOM      6  C   UNL     1     -95.694  32.045 -33.287  1.00  0.00     0.127 A 
ATOM      7  C   UNL     1     -95.594  31.039 -32.318  1.00  0.00     0.050 A 
ATOM      8  C   UNL     1     -97.095  33.695 -34.610  1.00  0.00     0.201 C 
ATOM      9  O   UNL     1     -96.081  34.091 -35.246  1.00  0.00    -0.288 OA
ATOM     10  C   UNL     1     -98.427  34.299 -34.894  1.00  0.00     0.076 A 
ATOM     11  C   UNL     1     -99.559  33.845 -34.181  1.00  0.00     0.041 A 
ATOM     12  C   UNL     1     -99.419  32.780 -33.163  1.00  0.00     0.194 C 
ATOM     13  O   UNL     1    -100.437  32.378 -32.531  1.00  0.00    -0.289 OA
ATOM     14  C   UNL     1    -100.821  34.409 -34.440  1.00  0.00     0.059 A 
ATOM     15  C   UNL     1    -100.968  35.415 -35.399  1.00  0.00     0.120 A 
ATOM     16  C   UNL     1     -99.855  35.866 -36.105  1.00  0.00     0.093 A 
ATOM     17  C   UNL     1     -98.587  35.321 -35.863  1.00  0.00     0.131 A 
ENDROOT
BRANCH   6  18
ATOM     18  O   UNL     1     -94.540  32.463 -33.951  1.00  0.00    -0.507 OA
ATOM     19  H   UNL     1     -94.325  33.445 -34.082  1.00  0.00     0.293 HD
ENDBRANCH   6  18
BRANCH  17  20
ATOM     20  O   UNL     1     -97.494  35.797 -36.588  1.00  0.00    -0.507 OA
ATOM     21  H   UNL     1     -97.434  36.763 -36.890  1.00  0.00     0.293 HD
ENDBRANCH  17  20
BRANCH  15  22
ATOM     22  O   UNL     1    -102.218  35.974 -35.658  1.00  0.00    -0.508 OA
ATOM     23  H   UNL     1    -102.685  35.837 -36.547  1.00  0.00     0.293 HD
ENDBRANCH  15  22
TORSDOF 3
ENDMDL
MODEL 3
REMARK VINA RESULT:    -3.741     10.243     10.834
REMARK INTER + INTRA:          -4.069
REMARK INTER:                  -4.069
REMARK INTRA:                   0.000
REMARK UNBOUND:                 0.000
REMARK SMILES Cc1cc(O)c2c(c1)C(=O)c1cc(O)cc(O)c1C2=O
REMARK SMILES IDX 1 1 2 2 8 3 7 4 6 5 4 6 3 7 19 8 20 9 18 10 11 11 9 12 10 13
REMARK SMILES IDX 12 14 13 15 15 16 16 17 5 18 17 20 14 22
REMARK H PARENT 5 19 17 21 14 23
REMARK Flexibility Score: inf
ROOT
ATOM      1  C   UNL     1     -99.502  22.421 -31.775  1.00  0.00     0.044 C 
ATOM      2  C   UNL     1     -99.457  23.352 -30.599  1.00  0.00    -0.047 A 
ATOM      3  C   UNL     1     -98.242  23.619 -29.958  1.00  0.00     0.016 A 
ATOM      4  C   UNL     1     -98.181  24.519 -28.879  1.00  0.00     0.038 A 
ATOM      5  C   UNL     1     -99.355  25.173 -28.442  1.00  0.00     0.076 A 
ATOM      6  C   UNL     1    -100.576  24.915 -29.109  1.00  0.00     0.127 A 
ATOM      7  C   UNL     1    -100.615  24.014 -30.181  1.00  0.00     0.050 A 
ATOM      8  C   UNL     1     -99.277  26.122 -27.295  1.00  0.00     0.201 C 
ATOM      9  O   UNL     1    -100.321  26.703 -26.894  1.00  0.00    -0.288 OA
ATOM     10  C   UNL     1     -97.977  26.387 -26.617  1.00  0.00     0.076 A 
ATOM     11  C   UNL     1     -96.813  25.726 -27.069  1.00  0.00     0.041 A 
ATOM     12  C   UNL     1     -96.889  24.779 -28.205  1.00  0.00     0.194 C 
ATOM     13  O   UNL     1     -95.844  24.191 -28.602  1.00  0.00    -0.289 OA
ATOM     14  C   UNL     1     -95.581  25.969 -26.436  1.00  0.00     0.059 A 
ATOM     15  C   UNL     1     -95.495  26.859 -25.363  1.00  0.00     0.120 A 
ATOM     16  C   UNL     1     -96.640  27.514 -24.914  1.00  0.00     0.093 A 
ATOM     17  C   UNL     1     -97.878  27.288 -25.528  1.00  0.00     0.131 A 
ENDROOT
BRANCH   6  18
ATOM     18  O   UNL     1    -101.755  25.549 -28.714  1.00  0.00    -0.507 OA
ATOM     19  H   UNL     1    -102.624  25.039 -28.603  1.00  0.00     0.293 HD
ENDBRANCH   6  18
BRANCH  17  20
ATOM     20  O   UNL     1     -99.004  27.961 -25.052  1.00  0.00    -0.507 OA
ATOM     21  H   UNL     1     -98.935  28.871 -24.609  1.00  0.00     0.293 HD
ENDBRANCH  17  20
BRANCH  15  22
ATOM     22  O   UNL     1     -94.275  27.101 -24.735  1.00  0.00    -0.508 OA
ATOM     23  H   UNL     1     -93.399  26.799 -25.146  1.00  0.00     0.293 HD
ENDBRANCH  15  22
TORSDOF 3
ENDMDL
MODEL 4
REMARK VINA RESULT:    -3.737     10.375     11.359
REMARK INTER + INTRA:          -4.065
REMARK INTER:                  -4.065
REMARK INTRA:                   0.000
REMARK UNBOUND:                 0.000
REMARK SMILES Cc1cc(O)c2c(c1)C(=O)c1cc(O)cc(O)c1C2=O
REMARK SMILES IDX 1 1 2 2 8 3 7 4 6 5 4 6 3 7 19 8 20 9 18 10 11 11 9 12 10 13
REMARK SMILES IDX 12 14 13 15 15 16 16 17 5 18 17 20 14 22
REMARK H PARENT 5 19 17 21 14 23
REMARK Flexibility Score: inf
ROOT
ATOM      1  C   UNL     1     -93.883  28.085 -24.137  1.00  0.00     0.044 C 
ATOM      2  C   UNL     1     -95.192  27.748 -24.787  1.00  0.00    -0.047 A 
ATOM      3  C   UNL     1     -95.267  26.715 -25.728  1.00  0.00     0.016 A 
ATOM      4  C   UNL     1     -96.494  26.365 -26.317  1.00  0.00     0.038 A 
ATOM      5  C   UNL     1     -97.672  27.053 -25.948  1.00  0.00     0.076 A 
ATOM      6  C   UNL     1     -97.594  28.082 -24.980  1.00  0.00     0.127 A 
ATOM      7  C   UNL     1     -96.360  28.415 -24.406  1.00  0.00     0.050 A 
ATOM      8  C   UNL     1     -98.967  26.674 -26.582  1.00  0.00     0.201 C 
ATOM      9  O   UNL     1    -100.021  27.288 -26.263  1.00  0.00    -0.288 OA
ATOM     10  C   UNL     1     -99.026  25.579 -27.589  1.00  0.00     0.076 A 
ATOM     11  C   UNL     1     -97.839  24.900 -27.945  1.00  0.00     0.041 A 
ATOM     12  C   UNL     1     -96.551  25.277 -27.320  1.00  0.00     0.194 C 
ATOM     13  O   UNL     1     -95.494  24.666 -27.644  1.00  0.00    -0.289 OA
ATOM     14  C   UNL     1     -97.883  23.864 -28.895  1.00  0.00     0.059 A 
ATOM     15  C   UNL     1     -99.092  23.498 -29.493  1.00  0.00     0.120 A 
ATOM     16  C   UNL     1    -100.265  24.164 -29.146  1.00  0.00     0.093 A 
ATOM     17  C   UNL     1    -100.246  25.198 -28.201  1.00  0.00     0.131 A 
ENDROOT
BRANCH   6  18
ATOM     18  O   UNL     1     -98.736  28.778 -24.581  1.00  0.00    -0.507 OA
ATOM     19  H   UNL     1     -99.523  28.915 -25.205  1.00  0.00     0.293 HD
ENDBRANCH   6  18
BRANCH  17  20
ATOM     20  O   UNL     1    -101.441  25.844 -27.878  1.00  0.00    -0.507 OA
ATOM     21  H   UNL     1    -101.488  26.543 -27.146  1.00  0.00     0.293 HD
ENDBRANCH  17  20
BRANCH  15  22
ATOM     22  O   UNL     1     -99.138  22.472 -30.434  1.00  0.00    -0.508 OA
ATOM     23  H   UNL     1    -100.018  22.077 -30.745  1.00  0.00     0.293 HD
ENDBRANCH  15  22
TORSDOF 3
ENDMDL
MODEL 5
REMARK VINA RESULT:    -3.735      9.919     10.852
REMARK INTER + INTRA:          -4.062
REMARK INTER:                  -4.062
REMARK INTRA:                   0.000
REMARK UNBOUND:                 0.000
REMARK SMILES Cc1cc(O)c2c(c1)C(=O)c1cc(O)cc(O)c1C2=O
REMARK SMILES IDX 1 1 2 2 8 3 7 4 6 5 4 6 3 7 19 8 20 9 18 10 11 11 9 12 10 13
REMARK SMILES IDX 12 14 13 15 15 16 16 17 5 18 17 20 14 22
REMARK H PARENT 5 19 17 21 14 23
REMARK Flexibility Score: inf
ROOT
ATOM      1  C   UNL     1     -97.600  30.123 -23.875  1.00  0.00     0.044 C 
ATOM      2  C   UNL     1     -97.420  28.873 -24.685  1.00  0.00    -0.047 A 
ATOM      3  C   UNL     1     -98.444  28.426 -25.528  1.00  0.00     0.016 A 
ATOM      4  C   UNL     1     -98.274  27.276 -26.319  1.00  0.00     0.038 A 
ATOM      5  C   UNL     1     -97.051  26.569 -26.278  1.00  0.00     0.076 A 
ATOM      6  C   UNL     1     -96.012  27.039 -25.440  1.00  0.00     0.127 A 
ATOM      7  C   UNL     1     -96.203  28.186 -24.659  1.00  0.00     0.050 A 
ATOM      8  C   UNL     1     -96.885  25.350 -27.120  1.00  0.00     0.201 C 
ATOM      9  O   UNL     1     -95.800  24.710 -27.083  1.00  0.00    -0.288 OA
ATOM     10  C   UNL     1     -97.989  24.882 -28.003  1.00  0.00     0.076 A 
ATOM     11  C   UNL     1     -99.204  25.603 -28.034  1.00  0.00     0.041 A 
ATOM     12  C   UNL     1     -99.373  26.811 -27.195  1.00  0.00     0.194 C 
ATOM     13  O   UNL     1    -100.463  27.450 -27.228  1.00  0.00    -0.289 OA
ATOM     14  C   UNL     1    -100.253  25.171 -28.865  1.00  0.00     0.059 A 
ATOM     15  C   UNL     1    -100.106  24.032 -29.661  1.00  0.00     0.120 A 
ATOM     16  C   UNL     1     -98.910  23.318 -29.635  1.00  0.00     0.093 A 
ATOM     17  C   UNL     1     -97.851  23.730 -28.816  1.00  0.00     0.131 A 
ENDROOT
BRANCH   6  18
ATOM     18  O   UNL     1     -94.787  26.375 -25.379  1.00  0.00    -0.507 OA
ATOM     19  H   UNL     1     -94.670  25.434 -25.739  1.00  0.00     0.293 HD
ENDBRANCH   6  18
BRANCH  17  20
ATOM     20  O   UNL     1     -96.667  22.990 -28.815  1.00  0.00    -0.507 OA
ATOM     21  H   UNL     1     -95.828  23.325 -29.275  1.00  0.00     0.293 HD
ENDBRANCH  17  20
BRANCH  15  22
ATOM     22  O   UNL     1    -101.145  23.602 -30.485  1.00  0.00    -0.508 OA
ATOM     23  H   UNL     1    -100.983  23.350 -31.453  1.00  0.00     0.293 HD
ENDBRANCH  15  22
TORSDOF 3
ENDMDL
MODEL 6
REMARK VINA RESULT:    -3.733     10.388     10.558
REMARK INTER + INTRA:          -4.060
REMARK INTER:                  -4.060
REMARK INTRA:                   0.000
REMARK UNBOUND:                 0.000
REMARK SMILES Cc1cc(O)c2c(c1)C(=O)c1cc(O)cc(O)c1C2=O
REMARK SMILES IDX 1 1 2 2 8 3 7 4 6 5 4 6 3 7 19 8 20 9 18 10 11 11 9 12 10 13
REMARK SMILES IDX 12 14 13 15 15 16 16 17 5 18 17 20 14 22
REMARK H PARENT 5 19 17 21 14 23
REMARK Flexibility Score: inf
ROOT
ATOM      1  C   UNL     1    -104.004  26.000 -27.246  1.00  0.00     0.044 C 
ATOM      2  C   UNL     1    -102.519  25.848 -27.406  1.00  0.00    -0.047 A 
ATOM      3  C   UNL     1    -101.645  26.522 -26.547  1.00  0.00     0.016 A 
ATOM      4  C   UNL     1    -100.253  26.359 -26.664  1.00  0.00     0.038 A 
ATOM      5  C   UNL     1     -99.727  25.495 -27.651  1.00  0.00     0.076 A 
ATOM      6  C   UNL     1    -100.618  24.799 -28.502  1.00  0.00     0.127 A 
ATOM      7  C   UNL     1    -102.001  24.977 -28.369  1.00  0.00     0.050 A 
ATOM      8  C   UNL     1     -98.250  25.333 -27.766  1.00  0.00     0.201 C 
ATOM      9  O   UNL     1     -97.773  24.569 -28.648  1.00  0.00    -0.288 OA
ATOM     10  C   UNL     1     -97.333  26.067 -26.850  1.00  0.00     0.076 A 
ATOM     11  C   UNL     1     -97.876  26.925 -25.868  1.00  0.00     0.041 A 
ATOM     12  C   UNL     1     -99.343  27.091 -25.754  1.00  0.00     0.194 C 
ATOM     13  O   UNL     1     -99.821  27.862 -24.874  1.00  0.00    -0.289 OA
ATOM     14  C   UNL     1     -97.020  27.623 -24.997  1.00  0.00     0.059 A 
ATOM     15  C   UNL     1     -95.634  27.476 -25.094  1.00  0.00     0.120 A 
ATOM     16  C   UNL     1     -95.093  26.630 -26.060  1.00  0.00     0.093 A 
ATOM     17  C   UNL     1     -95.926  25.924 -26.938  1.00  0.00     0.131 A 
ENDROOT
BRANCH   6  18
ATOM     18  O   UNL     1    -100.138  23.928 -29.481  1.00  0.00    -0.507 OA
ATOM     19  H   UNL     1     -99.622  23.089 -29.243  1.00  0.00     0.293 HD
ENDBRANCH   6  18
BRANCH  17  20
ATOM     20  O   UNL     1     -95.350  25.086 -27.893  1.00  0.00    -0.507 OA
ATOM     21  H   UNL     1     -95.751  24.976 -28.818  1.00  0.00     0.293 HD
ENDBRANCH  17  20
BRANCH  15  22
ATOM     22  O   UNL     1     -94.783  28.166 -24.232  1.00  0.00    -0.508 OA
ATOM     23  H   UNL     1     -94.702  29.176 -24.265  1.00  0.00     0.293 HD
ENDBRANCH  15  22
TORSDOF 3
ENDMDL
MODEL 7
REMARK VINA RESULT:    -3.712     10.309     10.730
REMARK INTER + INTRA:          -4.037
REMARK INTER:                  -4.037
REMARK INTRA:                   0.000
REMARK UNBOUND:                 0.000
REMARK SMILES Cc1cc(O)c2c(c1)C(=O)c1cc(O)cc(O)c1C2=O
REMARK SMILES IDX 1 1 2 2 8 3 7 4 6 5 4 6 3 7 19 8 20 9 18 10 11 11 9 12 10 13
REMARK SMILES IDX 12 14 13 15 15 16 16 17 5 18 17 20 14 22
REMARK H PARENT 5 19 17 21 14 23
REMARK Flexibility Score: inf
ROOT
ATOM      1  C   UNL     1    -104.386  23.899 -30.183  1.00  0.00     0.044 C 
ATOM      2  C   UNL     1    -103.143  24.348 -29.472  1.00  0.00    -0.047 A 
ATOM      3  C   UNL     1    -101.900  23.803 -29.812  1.00  0.00     0.016 A 
ATOM      4  C   UNL     1    -100.724  24.242 -29.179  1.00  0.00     0.038 A 
ATOM      5  C   UNL     1    -100.792  25.255 -28.196  1.00  0.00     0.076 A 
ATOM      6  C   UNL     1    -102.049  25.817 -27.871  1.00  0.00     0.127 A 
ATOM      7  C   UNL     1    -103.209  25.364 -28.514  1.00  0.00     0.050 A 
ATOM      8  C   UNL     1     -99.538  25.709 -27.529  1.00  0.00     0.201 C 
ATOM      9  O   UNL     1     -99.591  26.607 -26.646  1.00  0.00    -0.288 OA
ATOM     10  C   UNL     1     -98.224  25.111 -27.897  1.00  0.00     0.076 A 
ATOM     11  C   UNL     1     -98.175  24.101 -28.884  1.00  0.00     0.041 A 
ATOM     12  C   UNL     1     -99.419  23.645 -29.544  1.00  0.00     0.194 C 
ATOM     13  O   UNL     1     -99.367  22.740 -30.425  1.00  0.00    -0.289 OA
ATOM     14  C   UNL     1     -96.940  23.530 -29.239  1.00  0.00     0.059 A 
ATOM     15  C   UNL     1     -95.759  23.950 -28.624  1.00  0.00     0.120 A 
ATOM     16  C   UNL     1     -95.801  24.946 -27.651  1.00  0.00     0.093 A 
ATOM     17  C   UNL     1     -97.019  25.531 -27.281  1.00  0.00     0.131 A 
ENDROOT
BRANCH   6  18
ATOM     18  O   UNL     1    -102.156  26.826 -26.913  1.00  0.00    -0.507 OA
ATOM     19  H   UNL     1    -101.343  27.192 -26.431  1.00  0.00     0.293 HD
ENDBRANCH   6  18
BRANCH  17  20
ATOM     20  O   UNL     1     -97.025  26.525 -26.302  1.00  0.00    -0.507 OA
ATOM     21  H   UNL     1     -97.806  26.644 -25.666  1.00  0.00     0.293 HD
ENDBRANCH  17  20
BRANCH  15  22
ATOM     22  O   UNL     1     -94.534  23.385 -28.975  1.00  0.00    -0.508 OA
ATOM     23  H   UNL     1     -94.245  23.305 -29.943  1.00  0.00     0.293 HD
ENDBRANCH  15  22
TORSDOF 3
ENDMDL
MODEL 8
REMARK VINA RESULT:    -3.656     10.854     11.658
REMARK INTER + INTRA:          -3.976
REMARK INTER:                  -3.976
REMARK INTRA:                   0.000
REMARK UNBOUND:                 0.000
REMARK SMILES Cc1cc(O)c2c(c1)C(=O)c1cc(O)cc(O)c1C2=O
REMARK SMILES IDX 1 1 2 2 8 3 7 4 6 5 4 6 3 7 19 8 20 9 18 10 11 11 9 12 10 13
REMARK SMILES IDX 12 14 13 15 15 16 16 17 5 18 17 20 14 22
REMARK H PARENT 5 19 17 21 14 23
REMARK Flexibility Score: inf
ROOT
ATOM      1  C   UNL     1     -99.758  21.320 -44.125  1.00  0.00     0.044 C 
ATOM      2  C   UNL     1     -99.603  22.424 -43.120  1.00  0.00    -0.047 A 
ATOM      3  C   UNL     1     -98.338  22.952 -42.843  1.00  0.00     0.016 A 
ATOM      4  C   UNL     1     -98.184  24.011 -41.931  1.00  0.00     0.038 A 
ATOM      5  C   UNL     1     -99.319  24.561 -41.295  1.00  0.00     0.076 A 
ATOM      6  C   UNL     1    -100.599  24.037 -41.597  1.00  0.00     0.127 A 
ATOM      7  C   UNL     1    -100.729  22.981 -42.508  1.00  0.00     0.050 A 
ATOM      8  C   UNL     1     -99.142  25.682 -40.328  1.00  0.00     0.201 C 
ATOM      9  O   UNL     1    -100.150  26.173 -39.751  1.00  0.00    -0.288 OA
ATOM     10  C   UNL     1     -97.786  26.225 -40.037  1.00  0.00     0.076 A 
ATOM     11  C   UNL     1     -96.662  25.664 -40.684  1.00  0.00     0.041 A 
ATOM     12  C   UNL     1     -96.835  24.548 -41.641  1.00  0.00     0.194 C 
ATOM     13  O   UNL     1     -95.824  24.051 -42.214  1.00  0.00    -0.289 OA
ATOM     14  C   UNL     1     -95.377  26.170 -40.417  1.00  0.00     0.059 A 
ATOM     15  C   UNL     1     -95.200  27.222 -39.515  1.00  0.00     0.120 A 
ATOM     16  C   UNL     1     -96.305  27.779 -38.875  1.00  0.00     0.093 A 
ATOM     17  C   UNL     1     -97.595  27.293 -39.125  1.00  0.00     0.131 A 
ENDROOT
BRANCH   6  18
ATOM     18  O   UNL     1    -101.745  24.560 -40.997  1.00  0.00    -0.507 OA
ATOM     19  H   UNL     1    -102.328  25.245 -41.466  1.00  0.00     0.293 HD
ENDBRANCH   6  18
BRANCH  17  20
ATOM     20  O   UNL     1     -98.678  27.874 -38.466  1.00  0.00    -0.507 OA
ATOM     21  H   UNL     1     -98.659  28.839 -38.155  1.00  0.00     0.293 HD
ENDBRANCH  17  20
BRANCH  15  22
ATOM     22  O   UNL     1     -93.927  27.724 -39.249  1.00  0.00    -0.508 OA
ATOM     23  H   UNL     1     -93.669  28.672 -39.498  1.00  0.00     0.293 HD
ENDBRANCH  15  22
TORSDOF 3
ENDMDL
MODEL 9
REMARK VINA RESULT:    -3.639     10.396     10.841
REMARK INTER + INTRA:          -3.958
REMARK INTER:                  -3.958
REMARK INTRA:                   0.000
REMARK UNBOUND:                 0.000
REMARK SMILES Cc1cc(O)c2c(c1)C(=O)c1cc(O)cc(O)c1C2=O
REMARK SMILES IDX 1 1 2 2 8 3 7 4 6 5 4 6 3 7 19 8 20 9 18 10 11 11 9 12 10 13
REMARK SMILES IDX 12 14 13 15 15 16 16 17 5 18 17 20 14 22
REMARK H PARENT 5 19 17 21 14 23
REMARK Flexibility Score: inf
ROOT
ATOM      1  C   UNL     1    -102.028  28.395 -39.411  1.00  0.00     0.044 C 
ATOM      2  C   UNL     1    -100.726  27.651 -39.468  1.00  0.00    -0.047 A 
ATOM      3  C   UNL     1    -100.459  26.780 -40.530  1.00  0.00     0.016 A 
ATOM      4  C   UNL     1     -99.228  26.105 -40.615  1.00  0.00     0.038 A 
ATOM      5  C   UNL     1     -98.242  26.315 -39.625  1.00  0.00     0.076 A 
ATOM      6  C   UNL     1     -98.511  27.213 -38.565  1.00  0.00     0.127 A 
ATOM      7  C   UNL     1     -99.744  27.875 -38.500  1.00  0.00     0.050 A 
ATOM      8  C   UNL     1     -96.943  25.590 -39.724  1.00  0.00     0.201 C 
ATOM      9  O   UNL     1     -96.061  25.767 -38.841  1.00  0.00    -0.288 OA
ATOM     10  C   UNL     1     -96.679  24.659 -40.856  1.00  0.00     0.076 A 
ATOM     11  C   UNL     1     -97.675  24.463 -41.839  1.00  0.00     0.041 A 
ATOM     12  C   UNL     1     -98.968  25.178 -41.740  1.00  0.00     0.194 C 
ATOM     13  O   UNL     1     -99.855  24.996 -42.621  1.00  0.00    -0.289 OA
ATOM     14  C   UNL     1     -97.436  23.586 -42.912  1.00  0.00     0.059 A 
ATOM     15  C   UNL     1     -96.221  22.905 -43.017  1.00  0.00     0.120 A 
ATOM     16  C   UNL     1     -95.235  23.095 -42.052  1.00  0.00     0.093 A 
ATOM     17  C   UNL     1     -95.450  23.964 -40.974  1.00  0.00     0.131 A 
ENDROOT
BRANCH   6  18
ATOM     18  O   UNL     1     -97.559  27.455 -37.574  1.00  0.00    -0.507 OA
ATOM     19  H   UNL     1     -97.402  28.385 -37.200  1.00  0.00     0.293 HD
ENDBRANCH   6  18
BRANCH  17  20
ATOM     20  O   UNL     1     -94.440  24.130 -40.025  1.00  0.00    -0.507 OA
ATOM     21  H   UNL     1     -93.731  24.849 -40.120  1.00  0.00     0.293 HD
ENDBRANCH  17  20
BRANCH  15  22
ATOM     22  O   UNL     1     -95.983  22.035 -44.080  1.00  0.00    -0.508 OA
ATOM     23  H   UNL     1     -95.942  22.368 -45.037  1.00  0.00     0.293 HD
ENDBRANCH  15  22
TORSDOF 3
ENDMDL
