MODEL 1
REMARK VINA RESULT:    -5.898      0.000      0.000
REMARK INTER + INTRA:          -7.246
REMARK INTER:                  -6.932
REMARK INTRA:                  -0.314
REMARK UNBOUND:                -0.314
REMARK SMILES O=c1cc(-c2ccc(O)c(O)c2)oc2cc(O)cc(O)c12
REMARK SMILES IDX 4 1 3 2 2 3 1 4 21 5 19 6 18 7 16 8 15 9 14 10 13 11 5 12
REMARK SMILES IDX 6 13 7 14 8 15 12 16 10 17 9 18 11 20 20 22 17 24
REMARK H PARENT 9 19 11 21 20 23 17 25
REMARK Flexibility Score: inf
ROOT
ATOM      1  C   UNL     1      46.595  16.543  -4.306  1.00  0.00     0.138 A 
ATOM      2  C   UNL     1      46.293  17.605  -5.169  1.00  0.00     0.100 A 
ATOM      3  C   UNL     1      45.048  18.230  -5.085  1.00  0.00     0.197 A 
ATOM      4  O   UNL     1      44.829  19.220  -5.829  1.00  0.00    -0.289 OA
ATOM      5  C   UNL     1      44.090  17.766  -4.152  1.00  0.00     0.107 A 
ATOM      6  C   UNL     1      42.774  18.300  -4.006  1.00  0.00     0.134 A 
ATOM      7  C   UNL     1      41.954  17.837  -2.969  1.00  0.00     0.093 A 
ATOM      8  C   UNL     1      42.379  16.818  -2.112  1.00  0.00     0.123 A 
ATOM      9  C   UNL     1      43.642  16.255  -2.281  1.00  0.00     0.094 A 
ATOM     10  C   UNL     1      44.497  16.718  -3.284  1.00  0.00     0.146 A 
ATOM     11  O   UNL     1      45.699  16.163  -3.403  1.00  0.00    -0.456 OA
ENDROOT
BRANCH   1  12
ATOM     12  C   UNL     1      47.904  15.842  -4.354  1.00  0.00     0.021 A 
ATOM     13  C   UNL     1      48.983  16.439  -5.028  1.00  0.00     0.016 A 
ATOM     14  C   UNL     1      50.226  15.804  -5.081  1.00  0.00     0.051 A 
ATOM     15  C   UNL     1      50.415  14.568  -4.453  1.00  0.00     0.157 A 
ATOM     16  C   UNL     1      48.105  14.603  -3.714  1.00  0.00     0.062 A 
ATOM     17  C   UNL     1      49.354  13.967  -3.766  1.00  0.00     0.158 A 
BRANCH  15  18
ATOM     18  O   UNL     1      51.654  13.930  -4.506  1.00  0.00    -0.504 OA
ATOM     19  H   UNL     1      51.755  12.948  -4.279  1.00  0.00     0.293 HD
ENDBRANCH  15  18
BRANCH  17  20
ATOM     20  O   UNL     1      49.548  12.741  -3.133  1.00  0.00    -0.504 OA
ATOM     21  H   UNL     1      50.056  11.988  -3.581  1.00  0.00     0.293 HD
ENDBRANCH  17  20
ENDBRANCH   1  12
BRANCH   6  22
ATOM     22  O   UNL     1      42.220  19.258  -4.859  1.00  0.00    -0.507 OA
ATOM     23  H   UNL     1      42.746  19.830  -5.502  1.00  0.00     0.293 HD
ENDBRANCH   6  22
BRANCH   8  24
ATOM     24  O   UNL     1      41.551  16.354  -1.093  1.00  0.00    -0.508 OA
ATOM     25  H   UNL     1      40.991  16.988  -0.536  1.00  0.00     0.293 HD
ENDBRANCH   8  24
TORSDOF 5
ENDMDL
MODEL 2
REMARK VINA RESULT:    -5.877      1.578      6.785
REMARK INTER + INTRA:          -7.222
REMARK INTER:                  -6.909
REMARK INTRA:                  -0.313
REMARK UNBOUND:                -0.314
REMARK SMILES O=c1cc(-c2ccc(O)c(O)c2)oc2cc(O)cc(O)c12
REMARK SMILES IDX 4 1 3 2 2 3 1 4 21 5 19 6 18 7 16 8 15 9 14 10 13 11 5 12
REMARK SMILES IDX 6 13 7 14 8 15 12 16 10 17 9 18 11 20 20 22 17 24
REMARK H PARENT 9 19 11 21 20 23 17 25
REMARK Flexibility Score: inf
ROOT
ATOM      1  C   UNL     1      45.481  16.511  -3.479  1.00  0.00     0.138 A 
ATOM      2  C   UNL     1      46.153  17.158  -4.525  1.00  0.00     0.100 A 
ATOM      3  C   UNL     1      47.376  16.657  -4.974  1.00  0.00     0.197 A 
ATOM      4  O   UNL     1      47.925  17.222  -5.955  1.00  0.00    -0.289 OA
ATOM      5  C   UNL     1      47.943  15.522  -4.348  1.00  0.00     0.107 A 
ATOM      6  C   UNL     1      49.204  14.948  -4.693  1.00  0.00     0.134 A 
ATOM      7  C   UNL     1      49.609  13.754  -4.083  1.00  0.00     0.093 A 
ATOM      8  C   UNL     1      48.827  13.147  -3.097  1.00  0.00     0.123 A 
ATOM      9  C   UNL     1      47.620  13.729  -2.715  1.00  0.00     0.094 A 
ATOM     10  C   UNL     1      47.173  14.900  -3.330  1.00  0.00     0.146 A 
ATOM     11  O   UNL     1      46.009  15.415  -2.946  1.00  0.00    -0.456 OA
ENDROOT
BRANCH   1  12
ATOM     12  C   UNL     1      44.178  17.002  -2.963  1.00  0.00     0.021 A 
ATOM     13  C   UNL     1      43.786  18.326  -3.224  1.00  0.00     0.016 A 
ATOM     14  C   UNL     1      42.562  18.810  -2.756  1.00  0.00     0.051 A 
ATOM     15  C   UNL     1      41.705  17.976  -2.029  1.00  0.00     0.157 A 
ATOM     16  C   UNL     1      43.304  16.165  -2.241  1.00  0.00     0.062 A 
ATOM     17  C   UNL     1      42.074  16.651  -1.773  1.00  0.00     0.158 A 
BRANCH  15  18
ATOM     18  O   UNL     1      40.483  18.457  -1.559  1.00  0.00    -0.504 OA
ATOM     19  H   UNL     1      39.785  18.837  -2.187  1.00  0.00     0.293 HD
ENDBRANCH  15  18
BRANCH  17  20
ATOM     20  O   UNL     1      41.214  15.820  -1.058  1.00  0.00    -0.504 OA
ATOM     21  H   UNL     1      41.367  15.617  -0.077  1.00  0.00     0.293 HD
ENDBRANCH  17  20
ENDBRANCH   1  12
BRANCH   6  22
ATOM     22  O   UNL     1      50.099  15.518  -5.602  1.00  0.00    -0.507 OA
ATOM     23  H   UNL     1      51.104  15.478  -5.523  1.00  0.00     0.293 HD
ENDBRANCH   6  22
BRANCH   8  24
ATOM     24  O   UNL     1      49.246  11.968  -2.485  1.00  0.00    -0.508 OA
ATOM     25  H   UNL     1      48.864  11.668  -1.595  1.00  0.00     0.293 HD
ENDBRANCH   8  24
TORSDOF 5
ENDMDL
MODEL 3
REMARK VINA RESULT:    -5.630      1.378      7.259
REMARK INTER + INTRA:          -6.932
REMARK INTER:                  -6.636
REMARK INTRA:                  -0.296
REMARK UNBOUND:                -0.314
REMARK SMILES O=c1cc(-c2ccc(O)c(O)c2)oc2cc(O)cc(O)c12
REMARK SMILES IDX 4 1 3 2 2 3 1 4 21 5 19 6 18 7 16 8 15 9 14 10 13 11 5 12
REMARK SMILES IDX 6 13 7 14 8 15 12 16 10 17 9 18 11 20 20 22 17 24
REMARK H PARENT 9 19 11 21 20 23 17 25
REMARK Flexibility Score: inf
ROOT
ATOM      1  C   UNL     1      45.852  15.960  -3.368  1.00  0.00     0.138 A 
ATOM      2  C   UNL     1      46.164  14.714  -2.807  1.00  0.00     0.100 A 
ATOM      3  C   UNL     1      47.419  14.148  -3.039  1.00  0.00     0.197 A 
ATOM      4  O   UNL     1      47.692  13.059  -2.472  1.00  0.00    -0.289 OA
ATOM      5  C   UNL     1      48.352  14.819  -3.864  1.00  0.00     0.107 A 
ATOM      6  C   UNL     1      49.644  14.318  -4.203  1.00  0.00     0.134 A 
ATOM      7  C   UNL     1      50.527  15.124  -4.934  1.00  0.00     0.093 A 
ATOM      8  C   UNL     1      50.142  16.389  -5.387  1.00  0.00     0.123 A 
ATOM      9  C   UNL     1      48.863  16.864  -5.106  1.00  0.00     0.094 A 
ATOM     10  C   UNL     1      47.972  16.099  -4.351  1.00  0.00     0.146 A 
ATOM     11  O   UNL     1      46.766  16.595  -4.093  1.00  0.00    -0.456 OA
ENDROOT
BRANCH   1  12
ATOM     12  C   UNL     1      44.533  16.608  -3.154  1.00  0.00     0.021 A 
ATOM     13  C   UNL     1      44.218  17.784  -3.857  1.00  0.00     0.016 A 
ATOM     14  C   UNL     1      42.981  18.408  -3.679  1.00  0.00     0.051 A 
ATOM     15  C   UNL     1      42.034  17.862  -2.805  1.00  0.00     0.157 A 
ATOM     16  C   UNL     1      43.570  16.057  -2.285  1.00  0.00     0.062 A 
ATOM     17  C   UNL     1      42.327  16.683  -2.109  1.00  0.00     0.158 A 
BRANCH  15  18
ATOM     18  O   UNL     1      40.799  18.484  -2.623  1.00  0.00    -0.504 OA
ATOM     19  H   UNL     1      40.719  19.491  -2.547  1.00  0.00     0.293 HD
ENDBRANCH  15  18
BRANCH  17  20
ATOM     20  O   UNL     1      41.378  16.137  -1.247  1.00  0.00    -0.504 OA
ATOM     21  H   UNL     1      40.528  15.710  -1.597  1.00  0.00     0.293 HD
ENDBRANCH  17  20
ENDBRANCH   1  12
BRANCH   6  22
ATOM     22  O   UNL     1      50.097  13.038  -3.874  1.00  0.00    -0.507 OA
ATOM     23  H   UNL     1      50.911  12.841  -3.310  1.00  0.00     0.293 HD
ENDBRANCH   6  22
BRANCH   8  24
ATOM     24  O   UNL     1      51.021  17.177  -6.125  1.00  0.00    -0.508 OA
ATOM     25  H   UNL     1      51.320  16.910  -7.055  1.00  0.00     0.293 HD
ENDBRANCH   8  24
TORSDOF 5
ENDMDL
MODEL 4
REMARK VINA RESULT:    -5.417      1.436      7.259
REMARK INTER + INTRA:          -6.682
REMARK INTER:                  -6.407
REMARK INTRA:                  -0.275
REMARK UNBOUND:                -0.314
REMARK SMILES O=c1cc(-c2ccc(O)c(O)c2)oc2cc(O)cc(O)c12
REMARK SMILES IDX 4 1 3 2 2 3 1 4 21 5 19 6 18 7 16 8 15 9 14 10 13 11 5 12
REMARK SMILES IDX 6 13 7 14 8 15 12 16 10 17 9 18 11 20 20 22 17 24
REMARK H PARENT 9 19 11 21 20 23 17 25
REMARK Flexibility Score: inf
ROOT
ATOM      1  C   UNL     1      46.297  16.097  -3.855  1.00  0.00     0.138 A 
ATOM      2  C   UNL     1      46.055  14.772  -3.467  1.00  0.00     0.100 A 
ATOM      3  C   UNL     1      47.097  13.844  -3.494  1.00  0.00     0.197 A 
ATOM      4  O   UNL     1      46.865  12.678  -3.081  1.00  0.00    -0.289 OA
ATOM      5  C   UNL     1      48.379  14.239  -3.944  1.00  0.00     0.107 A 
ATOM      6  C   UNL     1      49.505  13.369  -4.053  1.00  0.00     0.134 A 
ATOM      7  C   UNL     1      50.755  13.899  -4.400  1.00  0.00     0.093 A 
ATOM      8  C   UNL     1      50.906  15.256  -4.699  1.00  0.00     0.123 A 
ATOM      9  C   UNL     1      49.800  16.102  -4.646  1.00  0.00     0.094 A 
ATOM     10  C   UNL     1      48.548  15.611  -4.271  1.00  0.00     0.146 A 
ATOM     11  O   UNL     1      47.523  16.455  -4.220  1.00  0.00    -0.456 OA
ENDROOT
BRANCH   1  12
ATOM     12  C   UNL     1      45.224  17.124  -3.845  1.00  0.00     0.021 A 
ATOM     13  C   UNL     1      45.041  17.942  -4.974  1.00  0.00     0.016 A 
ATOM     14  C   UNL     1      44.035  18.912  -4.993  1.00  0.00     0.051 A 
ATOM     15  C   UNL     1      43.188  19.072  -3.890  1.00  0.00     0.157 A 
ATOM     16  C   UNL     1      44.360  17.283  -2.744  1.00  0.00     0.062 A 
ATOM     17  C   UNL     1      43.348  18.255  -2.765  1.00  0.00     0.158 A 
BRANCH  15  18
ATOM     18  O   UNL     1      42.184  20.039  -3.905  1.00  0.00    -0.504 OA
ATOM     19  H   UNL     1      42.392  21.016  -4.076  1.00  0.00     0.293 HD
ENDBRANCH  15  18
BRANCH  17  20
ATOM     20  O   UNL     1      42.497  18.410  -1.673  1.00  0.00    -0.504 OA
ATOM     21  H   UNL     1      41.499  18.538  -1.793  1.00  0.00     0.293 HD
ENDBRANCH  17  20
ENDBRANCH   1  12
BRANCH   6  22
ATOM     22  O   UNL     1      49.447  11.987  -3.859  1.00  0.00    -0.507 OA
ATOM     23  H   UNL     1      50.238  11.402  -3.633  1.00  0.00     0.293 HD
ENDBRANCH   6  22
BRANCH   8  24
ATOM     24  O   UNL     1      52.149  15.771  -5.056  1.00  0.00    -0.508 OA
ATOM     25  H   UNL     1      52.531  15.637  -5.985  1.00  0.00     0.293 HD
ENDBRANCH   8  24
TORSDOF 5
ENDMDL
MODEL 5
REMARK VINA RESULT:    -5.349      1.913      6.918
REMARK INTER + INTRA:          -6.602
REMARK INTER:                  -6.295
REMARK INTRA:                  -0.307
REMARK UNBOUND:                -0.314
REMARK SMILES O=c1cc(-c2ccc(O)c(O)c2)oc2cc(O)cc(O)c12
REMARK SMILES IDX 4 1 3 2 2 3 1 4 21 5 19 6 18 7 16 8 15 9 14 10 13 11 5 12
REMARK SMILES IDX 6 13 7 14 8 15 12 16 10 17 9 18 11 20 20 22 17 24
REMARK H PARENT 9 19 11 21 20 23 17 25
REMARK Flexibility Score: inf
ROOT
ATOM      1  C   UNL     1      45.802  15.420  -3.395  1.00  0.00     0.138 A 
ATOM      2  C   UNL     1      46.451  15.323  -4.634  1.00  0.00     0.100 A 
ATOM      3  C   UNL     1      47.485  14.400  -4.802  1.00  0.00     0.197 A 
ATOM      4  O   UNL     1      48.006  14.293  -5.942  1.00  0.00    -0.289 OA
ATOM      5  C   UNL     1      47.892  13.596  -3.711  1.00  0.00     0.107 A 
ATOM      6  C   UNL     1      48.962  12.651  -3.754  1.00  0.00     0.134 A 
ATOM      7  C   UNL     1      49.198  11.827  -2.646  1.00  0.00     0.093 A 
ATOM      8  C   UNL     1      48.444  11.955  -1.477  1.00  0.00     0.123 A 
ATOM      9  C   UNL     1      47.432  12.911  -1.408  1.00  0.00     0.094 A 
ATOM     10  C   UNL     1      47.149  13.724  -2.508  1.00  0.00     0.146 A 
ATOM     11  O   UNL     1      46.167  14.614  -2.405  1.00  0.00    -0.456 OA
ENDROOT
BRANCH   1  12
ATOM     12  C   UNL     1      44.697  16.384  -3.163  1.00  0.00     0.021 A 
ATOM     13  C   UNL     1      44.662  17.585  -3.894  1.00  0.00     0.016 A 
ATOM     14  C   UNL     1      43.629  18.505  -3.699  1.00  0.00     0.051 A 
ATOM     15  C   UNL     1      42.608  18.236  -2.780  1.00  0.00     0.157 A 
ATOM     16  C   UNL     1      43.659  16.115  -2.249  1.00  0.00     0.062 A 
ATOM     17  C   UNL     1      42.621  17.038  -2.056  1.00  0.00     0.158 A 
BRANCH  15  18
ATOM     18  O   UNL     1      41.577  19.153  -2.582  1.00  0.00    -0.504 OA
ATOM     19  H   UNL     1      40.723  19.116  -3.125  1.00  0.00     0.293 HD
ENDBRANCH  15  18
BRANCH  17  20
ATOM     20  O   UNL     1      41.598  16.770  -1.149  1.00  0.00    -0.504 OA
ATOM     21  H   UNL     1      41.434  15.834  -0.796  1.00  0.00     0.293 HD
ENDBRANCH  17  20
ENDBRANCH   1  12
BRANCH   6  22
ATOM     22  O   UNL     1      49.829  12.501  -4.839  1.00  0.00    -0.507 OA
ATOM     23  H   UNL     1      50.433  13.226  -5.199  1.00  0.00     0.293 HD
ENDBRANCH   6  22
BRANCH   8  24
ATOM     24  O   UNL     1      48.696  11.141  -0.376  1.00  0.00    -0.508 OA
ATOM     25  H   UNL     1      48.627  11.494   0.571  1.00  0.00     0.293 HD
ENDBRANCH   8  24
TORSDOF 5
ENDMDL
MODEL 6
REMARK VINA RESULT:    -5.238      1.287      2.132
REMARK INTER + INTRA:          -6.471
REMARK INTER:                  -6.177
REMARK INTRA:                  -0.293
REMARK UNBOUND:                -0.314
REMARK SMILES O=c1cc(-c2ccc(O)c(O)c2)oc2cc(O)cc(O)c12
REMARK SMILES IDX 4 1 3 2 2 3 1 4 21 5 19 6 18 7 16 8 15 9 14 10 13 11 5 12
REMARK SMILES IDX 6 13 7 14 8 15 12 16 10 17 9 18 11 20 20 22 17 24
REMARK H PARENT 9 19 11 21 20 23 17 25
REMARK Flexibility Score: inf
ROOT
ATOM      1  C   UNL     1      46.048  15.744  -3.550  1.00  0.00     0.138 A 
ATOM      2  C   UNL     1      46.286  16.633  -4.607  1.00  0.00     0.100 A 
ATOM      3  C   UNL     1      45.383  17.668  -4.856  1.00  0.00     0.197 A 
ATOM      4  O   UNL     1      45.655  18.486  -5.771  1.00  0.00    -0.289 OA
ATOM      5  C   UNL     1      44.218  17.790  -4.061  1.00  0.00     0.107 A 
ATOM      6  C   UNL     1      43.208  18.780  -4.249  1.00  0.00     0.134 A 
ATOM      7  C   UNL     1      42.157  18.877  -3.328  1.00  0.00     0.093 A 
ATOM      8  C   UNL     1      42.049  17.982  -2.260  1.00  0.00     0.123 A 
ATOM      9  C   UNL     1      43.003  16.979  -2.100  1.00  0.00     0.094 A 
ATOM     10  C   UNL     1      44.080  16.878  -2.981  1.00  0.00     0.146 A 
ATOM     11  O   UNL     1      44.976  15.915  -2.785  1.00  0.00    -0.456 OA
ENDROOT
BRANCH   1  12
ATOM     12  C   UNL     1      46.975  14.626  -3.242  1.00  0.00     0.021 A 
ATOM     13  C   UNL     1      46.529  13.557  -2.444  1.00  0.00     0.016 A 
ATOM     14  C   UNL     1      47.380  12.490  -2.146  1.00  0.00     0.051 A 
ATOM     15  C   UNL     1      48.686  12.467  -2.648  1.00  0.00     0.157 A 
ATOM     16  C   UNL     1      48.287  14.589  -3.754  1.00  0.00     0.062 A 
ATOM     17  C   UNL     1      49.140  13.516  -3.456  1.00  0.00     0.158 A 
BRANCH  15  18
ATOM     18  O   UNL     1      49.538  11.404  -2.351  1.00  0.00    -0.504 OA
ATOM     19  H   UNL     1      49.466  10.895  -1.478  1.00  0.00     0.293 HD
ENDBRANCH  15  18
BRANCH  17  20
ATOM     20  O   UNL     1      50.438  13.484  -3.963  1.00  0.00    -0.504 OA
ATOM     21  H   UNL     1      50.685  12.897  -4.751  1.00  0.00     0.293 HD
ENDBRANCH  17  20
ENDBRANCH   1  12
BRANCH   6  22
ATOM     22  O   UNL     1      43.174  19.668  -5.328  1.00  0.00    -0.507 OA
ATOM     23  H   UNL     1      43.977  20.148  -5.705  1.00  0.00     0.293 HD
ENDBRANCH   6  22
BRANCH   8  24
ATOM     24  O   UNL     1      40.993  18.077  -1.357  1.00  0.00    -0.508 OA
ATOM     25  H   UNL     1      41.097  17.799  -0.389  1.00  0.00     0.293 HD
ENDBRANCH   8  24
TORSDOF 5
ENDMDL
MODEL 7
REMARK VINA RESULT:    -5.235      1.498      2.695
REMARK INTER + INTRA:          -6.467
REMARK INTER:                  -6.182
REMARK INTRA:                  -0.285
REMARK UNBOUND:                -0.314
REMARK SMILES O=c1cc(-c2ccc(O)c(O)c2)oc2cc(O)cc(O)c12
REMARK SMILES IDX 4 1 3 2 2 3 1 4 21 5 19 6 18 7 16 8 15 9 14 10 13 11 5 12
REMARK SMILES IDX 6 13 7 14 8 15 12 16 10 17 9 18 11 20 20 22 17 24
REMARK H PARENT 9 19 11 21 20 23 17 25
REMARK Flexibility Score: inf
ROOT
ATOM      1  C   UNL     1      46.035  15.877  -3.742  1.00  0.00     0.138 A 
ATOM      2  C   UNL     1      45.319  14.685  -3.567  1.00  0.00     0.100 A 
ATOM      3  C   UNL     1      44.000  14.732  -3.113  1.00  0.00     0.197 A 
ATOM      4  O   UNL     1      43.363  13.650  -3.025  1.00  0.00    -0.289 OA
ATOM      5  C   UNL     1      43.408  15.979  -2.802  1.00  0.00     0.107 A 
ATOM      6  C   UNL     1      42.084  16.145  -2.293  1.00  0.00     0.134 A 
ATOM      7  C   UNL     1      41.564  17.436  -2.133  1.00  0.00     0.093 A 
ATOM      8  C   UNL     1      42.340  18.565  -2.406  1.00  0.00     0.123 A 
ATOM      9  C   UNL     1      43.651  18.413  -2.853  1.00  0.00     0.094 A 
ATOM     10  C   UNL     1      44.186  17.139  -3.056  1.00  0.00     0.146 A 
ATOM     11  O   UNL     1      45.437  17.038  -3.496  1.00  0.00    -0.456 OA
ENDROOT
BRANCH   1  12
ATOM     12  C   UNL     1      47.440  15.885  -4.222  1.00  0.00     0.021 A 
ATOM     13  C   UNL     1      47.888  16.940  -5.035  1.00  0.00     0.016 A 
ATOM     14  C   UNL     1      49.207  16.974  -5.493  1.00  0.00     0.051 A 
ATOM     15  C   UNL     1      50.104  15.960  -5.138  1.00  0.00     0.157 A 
ATOM     16  C   UNL     1      48.352  14.874  -3.858  1.00  0.00     0.062 A 
ATOM     17  C   UNL     1      49.677  14.910  -4.316  1.00  0.00     0.158 A 
BRANCH  15  18
ATOM     18  O   UNL     1      51.421  15.990  -5.595  1.00  0.00    -0.504 OA
ATOM     19  H   UNL     1      52.076  16.695  -5.278  1.00  0.00     0.293 HD
ENDBRANCH  15  18
BRANCH  17  20
ATOM     20  O   UNL     1      50.576  13.908  -3.956  1.00  0.00    -0.504 OA
ATOM     21  H   UNL     1      50.265  13.053  -3.511  1.00  0.00     0.293 HD
ENDBRANCH  17  20
ENDBRANCH   1  12
BRANCH   6  22
ATOM     22  O   UNL     1      41.256  15.087  -1.909  1.00  0.00    -0.507 OA
ATOM     23  H   UNL     1      40.619  15.109  -1.127  1.00  0.00     0.293 HD
ENDBRANCH   6  22
BRANCH   8  24
ATOM     24  O   UNL     1      41.819  19.845  -2.230  1.00  0.00    -0.508 OA
ATOM     25  H   UNL     1      41.222  20.274  -2.927  1.00  0.00     0.293 HD
ENDBRANCH   8  24
TORSDOF 5
ENDMDL
MODEL 8
REMARK VINA RESULT:    -5.164      1.715      3.690
REMARK INTER + INTRA:          -6.384
REMARK INTER:                  -6.078
REMARK INTRA:                  -0.306
REMARK UNBOUND:                -0.314
REMARK SMILES O=c1cc(-c2ccc(O)c(O)c2)oc2cc(O)cc(O)c12
REMARK SMILES IDX 4 1 3 2 2 3 1 4 21 5 19 6 18 7 16 8 15 9 14 10 13 11 5 12
REMARK SMILES IDX 6 13 7 14 8 15 12 16 10 17 9 18 11 20 20 22 17 24
REMARK H PARENT 9 19 11 21 20 23 17 25
REMARK Flexibility Score: inf
ROOT
ATOM      1  C   UNL     1      48.388  15.461  -4.466  1.00  0.00     0.138 A 
ATOM      2  C   UNL     1      47.679  14.668  -3.553  1.00  0.00     0.100 A 
ATOM      3  C   UNL     1      46.370  15.012  -3.210  1.00  0.00     0.197 A 
ATOM      4  O   UNL     1      45.738  14.247  -2.437  1.00  0.00    -0.289 OA
ATOM      5  C   UNL     1      45.782  16.176  -3.761  1.00  0.00     0.107 A 
ATOM      6  C   UNL     1      44.471  16.647  -3.452  1.00  0.00     0.134 A 
ATOM      7  C   UNL     1      43.952  17.747  -4.148  1.00  0.00     0.093 A 
ATOM      8  C   UNL     1      44.719  18.428  -5.096  1.00  0.00     0.123 A 
ATOM      9  C   UNL     1      46.019  18.007  -5.366  1.00  0.00     0.094 A 
ATOM     10  C   UNL     1      46.553  16.893  -4.714  1.00  0.00     0.146 A 
ATOM     11  O   UNL     1      47.793  16.516  -5.010  1.00  0.00    -0.456 OA
ENDROOT
BRANCH   1  12
ATOM     12  C   UNL     1      49.782  15.140  -4.864  1.00  0.00     0.021 A 
ATOM     13  C   UNL     1      50.212  13.802  -4.857  1.00  0.00     0.016 A 
ATOM     14  C   UNL     1      51.517  13.474  -5.235  1.00  0.00     0.051 A 
ATOM     15  C   UNL     1      52.409  14.474  -5.636  1.00  0.00     0.157 A 
ATOM     16  C   UNL     1      50.682  16.141  -5.282  1.00  0.00     0.062 A 
ATOM     17  C   UNL     1      51.990  15.810  -5.663  1.00  0.00     0.158 A 
BRANCH  15  18
ATOM     18  O   UNL     1      53.712  14.150  -6.012  1.00  0.00    -0.504 OA
ATOM     19  H   UNL     1      54.310  14.818  -6.483  1.00  0.00     0.293 HD
ENDBRANCH  15  18
BRANCH  17  20
ATOM     20  O   UNL     1      52.878  16.803  -6.073  1.00  0.00    -0.504 OA
ATOM     21  H   UNL     1      53.204  16.860  -7.031  1.00  0.00     0.293 HD
ENDBRANCH  17  20
ENDBRANCH   1  12
BRANCH   6  22
ATOM     22  O   UNL     1      43.654  16.093  -2.463  1.00  0.00    -0.507 OA
ATOM     23  H   UNL     1      43.796  15.189  -2.037  1.00  0.00     0.293 HD
ENDBRANCH   6  22
BRANCH   8  24
ATOM     24  O   UNL     1      44.199  19.529  -5.772  1.00  0.00    -0.508 OA
ATOM     25  H   UNL     1      43.948  20.380  -5.284  1.00  0.00     0.293 HD
ENDBRANCH   8  24
TORSDOF 5
ENDMDL
MODEL 9
REMARK VINA RESULT:    -5.129      1.759      3.338
REMARK INTER + INTRA:          -6.343
REMARK INTER:                  -6.034
REMARK INTRA:                  -0.309
REMARK UNBOUND:                -0.314
REMARK SMILES O=c1cc(-c2ccc(O)c(O)c2)oc2cc(O)cc(O)c12
REMARK SMILES IDX 4 1 3 2 2 3 1 4 21 5 19 6 18 7 16 8 15 9 14 10 13 11 5 12
REMARK SMILES IDX 6 13 7 14 8 15 12 16 10 17 9 18 11 20 20 22 17 24
REMARK H PARENT 9 19 11 21 20 23 17 25
REMARK Flexibility Score: inf
ROOT
ATOM      1  C   UNL     1      44.830  15.967  -2.980  1.00  0.00     0.138 A 
ATOM      2  C   UNL     1      43.697  15.156  -2.824  1.00  0.00     0.100 A 
ATOM      3  C   UNL     1      42.446  15.747  -2.633  1.00  0.00     0.197 A 
ATOM      4  O   UNL     1      41.440  14.996  -2.558  1.00  0.00    -0.289 OA
ATOM      5  C   UNL     1      42.338  17.156  -2.566  1.00  0.00     0.107 A 
ATOM      6  C   UNL     1      41.122  17.867  -2.334  1.00  0.00     0.134 A 
ATOM      7  C   UNL     1      41.116  19.266  -2.404  1.00  0.00     0.093 A 
ATOM      8  C   UNL     1      42.294  19.981  -2.639  1.00  0.00     0.123 A 
ATOM      9  C   UNL     1      43.495  19.297  -2.814  1.00  0.00     0.094 A 
ATOM     10  C   UNL     1      43.527  17.902  -2.783  1.00  0.00     0.146 A 
ATOM     11  O   UNL     1      44.692  17.288  -2.968  1.00  0.00    -0.456 OA
ENDROOT
BRANCH   1  12
ATOM     12  C   UNL     1      46.183  15.391  -3.185  1.00  0.00     0.021 A 
ATOM     13  C   UNL     1      46.465  14.100  -2.704  1.00  0.00     0.016 A 
ATOM     14  C   UNL     1      47.728  13.533  -2.890  1.00  0.00     0.051 A 
ATOM     15  C   UNL     1      48.726  14.240  -3.569  1.00  0.00     0.157 A 
ATOM     16  C   UNL     1      47.189  16.092  -3.879  1.00  0.00     0.062 A 
ATOM     17  C   UNL     1      48.456  15.521  -4.067  1.00  0.00     0.158 A 
BRANCH  15  18
ATOM     18  O   UNL     1      49.988  13.678  -3.755  1.00  0.00    -0.504 OA
ATOM     19  H   UNL     1      50.638  13.567  -2.986  1.00  0.00     0.293 HD
ENDBRANCH  15  18
BRANCH  17  20
ATOM     20  O   UNL     1      49.450  16.218  -4.752  1.00  0.00    -0.504 OA
ATOM     21  H   UNL     1      50.134  16.783  -4.263  1.00  0.00     0.293 HD
ENDBRANCH  17  20
ENDBRANCH   1  12
BRANCH   6  22
ATOM     22  O   UNL     1      39.909  17.254  -2.008  1.00  0.00    -0.507 OA
ATOM     23  H   UNL     1      39.159  17.076  -2.660  1.00  0.00     0.293 HD
ENDBRANCH   6  22
BRANCH   8  24
ATOM     24  O   UNL     1      42.281  21.372  -2.693  1.00  0.00    -0.508 OA
ATOM     25  H   UNL     1      42.914  21.885  -3.294  1.00  0.00     0.293 HD
ENDBRANCH   8  24
TORSDOF 5
ENDMDL
