MODEL 1
REMARK VINA RESULT:    -4.458      0.000      0.000
REMARK INTER + INTRA:          -5.555
REMARK INTER:                  -5.501
REMARK INTRA:                  -0.054
REMARK UNBOUND:                -0.054
REMARK SMILES CCCCCC(=O)[O-]
REMARK SMILES IDX 4 1 5 2 6 3 7 4 8 5 3 6 2 7 1 8
REMARK H PARENT
REMARK Flexibility Score: inf
ROOT
ATOM      1  C   UNL     1     -15.124  33.986 -10.672  1.00  0.00     0.006 C 
ENDROOT
BRANCH   1   2
ATOM      2  C   UNL     1     -14.720  34.361  -9.244  1.00  0.00     0.053 C 
BRANCH   2   3
ATOM      3  C   UNL     1     -13.583  35.333  -9.259  1.00  0.00     0.041 C 
ATOM      4  O   UNL     1     -12.984  35.592 -10.335  1.00  0.00    -0.550 OA
ATOM      5  O   UNL     1     -13.216  35.991  -8.091  1.00  0.00    -0.550 OA
ENDBRANCH   2   3
ENDBRANCH   1   2
BRANCH   1   6
ATOM      6  C   UNL     1     -16.614  33.619 -10.744  1.00  0.00     0.000 C 
BRANCH   6   7
ATOM      7  C   UNL     1     -17.067  33.264 -12.167  1.00  0.00    -0.003 C 
ATOM      8  C   UNL     1     -18.294  34.059 -12.613  1.00  0.00     0.004 C 
ENDBRANCH   6   7
ENDBRANCH   1   6
TORSDOF 4
ENDMDL
MODEL 2
REMARK VINA RESULT:    -4.372      1.181      1.891
REMARK INTER + INTRA:          -5.448
REMARK INTER:                  -5.340
REMARK INTRA:                  -0.108
REMARK UNBOUND:                -0.054
REMARK SMILES CCCCCC(=O)[O-]
REMARK SMILES IDX 4 1 5 2 6 3 7 4 8 5 3 6 2 7 1 8
REMARK H PARENT
REMARK Flexibility Score: inf
ROOT
ATOM      1  C   UNL     1     -16.983  33.637 -10.111  1.00  0.00     0.006 C 
ENDROOT
BRANCH   1   2
ATOM      2  C   UNL     1     -15.619  33.660 -10.804  1.00  0.00     0.053 C 
BRANCH   2   3
ATOM      3  C   UNL     1     -14.637  34.459 -10.005  1.00  0.00     0.041 C 
ATOM      4  O   UNL     1     -14.679  34.440  -8.747  1.00  0.00    -0.550 OA
ATOM      5  O   UNL     1     -13.645  35.186 -10.650  1.00  0.00    -0.550 OA
ENDBRANCH   2   3
ENDBRANCH   1   2
BRANCH   1   6
ATOM      6  C   UNL     1     -18.106  34.005 -11.093  1.00  0.00     0.000 C 
BRANCH   6   7
ATOM      7  C   UNL     1     -17.758  33.651 -12.547  1.00  0.00    -0.003 C 
ATOM      8  C   UNL     1     -18.868  34.025 -13.529  1.00  0.00     0.004 C 
ENDBRANCH   6   7
ENDBRANCH   1   6
TORSDOF 4
ENDMDL
MODEL 3
REMARK VINA RESULT:    -4.217     13.919     14.521
REMARK INTER + INTRA:          -5.257
REMARK INTER:                  -5.168
REMARK INTRA:                  -0.089
REMARK UNBOUND:                -0.054
REMARK SMILES CCCCCC(=O)[O-]
REMARK SMILES IDX 4 1 5 2 6 3 7 4 8 5 3 6 2 7 1 8
REMARK H PARENT
REMARK Flexibility Score: inf
ROOT
ATOM      1  C   UNL     1     -21.169  24.255  -3.934  1.00  0.00     0.006 C 
ENDROOT
BRANCH   1   2
ATOM      2  C   UNL     1     -20.361  22.981  -4.193  1.00  0.00     0.053 C 
BRANCH   2   3
ATOM      3  C   UNL     1     -20.669  21.944  -3.159  1.00  0.00     0.041 C 
ATOM      4  O   UNL     1     -20.100  20.822  -3.197  1.00  0.00    -0.550 OA
ATOM      5  O   UNL     1     -21.549  22.235  -2.124  1.00  0.00    -0.550 OA
ENDBRANCH   2   3
ENDBRANCH   1   2
BRANCH   1   6
ATOM      6  C   UNL     1     -21.692  24.852  -5.249  1.00  0.00     0.000 C 
BRANCH   6   7
ATOM      7  C   UNL     1     -22.689  25.997  -5.021  1.00  0.00    -0.003 C 
ATOM      8  C   UNL     1     -23.599  25.760  -3.816  1.00  0.00     0.004 C 
ENDBRANCH   6   7
ENDBRANCH   1   6
TORSDOF 4
ENDMDL
MODEL 4
REMARK VINA RESULT:    -4.157      3.102      4.879
REMARK INTER + INTRA:          -5.184
REMARK INTER:                  -5.123
REMARK INTRA:                  -0.061
REMARK UNBOUND:                -0.054
REMARK SMILES CCCCCC(=O)[O-]
REMARK SMILES IDX 4 1 5 2 6 3 7 4 8 5 3 6 2 7 1 8
REMARK H PARENT
REMARK Flexibility Score: inf
ROOT
ATOM      1  C   UNL     1     -15.915  33.682 -10.492  1.00  0.00     0.006 C 
ENDROOT
BRANCH   1   2
ATOM      2  C   UNL     1     -16.377  33.282 -11.895  1.00  0.00     0.053 C 
BRANCH   2   3
ATOM      3  C   UNL     1     -17.775  33.756 -12.143  1.00  0.00     0.041 C 
ATOM      4  O   UNL     1     -18.352  33.488 -13.229  1.00  0.00    -0.550 OA
ATOM      5  O   UNL     1     -18.457  34.453 -11.153  1.00  0.00    -0.550 OA
ENDBRANCH   2   3
ENDBRANCH   1   2
BRANCH   1   6
ATOM      6  C   UNL     1     -14.584  34.447 -10.549  1.00  0.00     0.000 C 
BRANCH   6   7
ATOM      7  C   UNL     1     -14.075  34.852  -9.158  1.00  0.00    -0.003 C 
ATOM      8  C   UNL     1     -12.842  35.753  -9.217  1.00  0.00     0.004 C 
ENDBRANCH   6   7
ENDBRANCH   1   6
TORSDOF 4
ENDMDL
MODEL 5
REMARK VINA RESULT:    -3.981     12.659     13.460
REMARK INTER + INTRA:          -4.965
REMARK INTER:                  -4.882
REMARK INTRA:                  -0.083
REMARK UNBOUND:                -0.054
REMARK SMILES CCCCCC(=O)[O-]
REMARK SMILES IDX 4 1 5 2 6 3 7 4 8 5 3 6 2 7 1 8
REMARK H PARENT
REMARK Flexibility Score: inf
ROOT
ATOM      1  C   UNL     1     -21.882  25.590  -5.976  1.00  0.00     0.006 C 
ENDROOT
BRANCH   1   2
ATOM      2  C   UNL     1     -22.963  24.994  -5.071  1.00  0.00     0.053 C 
BRANCH   2   3
ATOM      3  C   UNL     1     -23.148  25.837  -3.848  1.00  0.00     0.041 C 
ATOM      4  O   UNL     1     -23.868  26.868  -3.891  1.00  0.00    -0.550 OA
ATOM      5  O   UNL     1     -22.563  25.455  -2.647  1.00  0.00    -0.550 OA
ENDBRANCH   2   3
ENDBRANCH   1   2
BRANCH   1   6
ATOM      6  C   UNL     1     -20.700  24.621  -6.132  1.00  0.00     0.000 C 
BRANCH   6   7
ATOM      7  C   UNL     1     -20.434  23.804  -4.860  1.00  0.00    -0.003 C 
ATOM      8  C   UNL     1     -19.576  22.566  -5.121  1.00  0.00     0.004 C 
ENDBRANCH   6   7
ENDBRANCH   1   6
TORSDOF 4
ENDMDL
MODEL 6
REMARK VINA RESULT:    -3.976     12.819     13.535
REMARK INTER + INTRA:          -4.960
REMARK INTER:                  -5.046
REMARK INTRA:                   0.086
REMARK UNBOUND:                -0.054
REMARK SMILES CCCCCC(=O)[O-]
REMARK SMILES IDX 4 1 5 2 6 3 7 4 8 5 3 6 2 7 1 8
REMARK H PARENT
REMARK Flexibility Score: inf
ROOT
ATOM      1  C   UNL     1     -22.284  25.016  -5.863  1.00  0.00     0.006 C 
ENDROOT
BRANCH   1   2
ATOM      2  C   UNL     1     -20.777  24.749  -5.903  1.00  0.00     0.053 C 
BRANCH   2   3
ATOM      3  C   UNL     1     -20.430  23.564  -5.058  1.00  0.00     0.041 C 
ATOM      4  O   UNL     1     -20.863  23.476  -3.880  1.00  0.00    -0.550 OA
ATOM      5  O   UNL     1     -19.669  22.531  -5.591  1.00  0.00    -0.550 OA
ENDBRANCH   2   3
ENDBRANCH   1   2
BRANCH   1   6
ATOM      6  C   UNL     1     -22.604  26.239  -4.990  1.00  0.00     0.000 C 
BRANCH   6   7
ATOM      7  C   UNL     1     -23.640  25.931  -3.899  1.00  0.00    -0.003 C 
ATOM      8  C   UNL     1     -23.034  25.217  -2.691  1.00  0.00     0.004 C 
ENDBRANCH   6   7
ENDBRANCH   1   6
TORSDOF 4
ENDMDL
MODEL 7
REMARK VINA RESULT:    -3.887     13.091     13.712
REMARK INTER + INTRA:          -4.849
REMARK INTER:                  -4.663
REMARK INTRA:                  -0.187
REMARK UNBOUND:                -0.054
REMARK SMILES CCCCCC(=O)[O-]
REMARK SMILES IDX 4 1 5 2 6 3 7 4 8 5 3 6 2 7 1 8
REMARK H PARENT
REMARK Flexibility Score: inf
ROOT
ATOM      1  C   UNL     1     -23.120  25.053  -3.951  1.00  0.00     0.006 C 
ENDROOT
BRANCH   1   2
ATOM      2  C   UNL     1     -21.935  24.785  -3.019  1.00  0.00     0.053 C 
BRANCH   2   3
ATOM      3  C   UNL     1     -21.324  23.452  -3.317  1.00  0.00     0.041 C 
ATOM      4  O   UNL     1     -20.564  23.310  -4.310  1.00  0.00    -0.550 OA
ATOM      5  O   UNL     1     -21.555  22.377  -2.467  1.00  0.00    -0.550 OA
ENDBRANCH   2   3
ENDBRANCH   1   2
BRANCH   1   6
ATOM      6  C   UNL     1     -22.965  26.405  -4.663  1.00  0.00     0.000 C 
BRANCH   6   7
ATOM      7  C   UNL     1     -21.786  26.424  -5.646  1.00  0.00    -0.003 C 
ATOM      8  C   UNL     1     -21.866  25.309  -6.688  1.00  0.00     0.004 C 
ENDBRANCH   6   7
ENDBRANCH   1   6
TORSDOF 4
ENDMDL
MODEL 8
REMARK VINA RESULT:    -3.795     13.032     13.633
REMARK INTER + INTRA:          -4.736
REMARK INTER:                  -4.611
REMARK INTRA:                  -0.125
REMARK UNBOUND:                -0.054
REMARK SMILES CCCCCC(=O)[O-]
REMARK SMILES IDX 4 1 5 2 6 3 7 4 8 5 3 6 2 7 1 8
REMARK H PARENT
REMARK Flexibility Score: inf
ROOT
ATOM      1  C   UNL     1     -21.494  24.929  -3.310  1.00  0.00     0.006 C 
ENDROOT
BRANCH   1   2
ATOM      2  C   UNL     1     -21.091  23.520  -3.752  1.00  0.00     0.053 C 
BRANCH   2   3
ATOM      3  C   UNL     1     -20.468  23.555  -5.112  1.00  0.00     0.041 C 
ATOM      4  O   UNL     1     -19.658  22.657  -5.462  1.00  0.00    -0.550 OA
ATOM      5  O   UNL     1     -20.820  24.553  -6.012  1.00  0.00    -0.550 OA
ENDBRANCH   2   3
ENDBRANCH   1   2
BRANCH   1   6
ATOM      6  C   UNL     1     -22.953  24.959  -2.830  1.00  0.00     0.000 C 
BRANCH   6   7
ATOM      7  C   UNL     1     -23.846  25.846  -3.709  1.00  0.00    -0.003 C 
ATOM      8  C   UNL     1     -23.053  26.641  -4.746  1.00  0.00     0.004 C 
ENDBRANCH   6   7
ENDBRANCH   1   6
TORSDOF 4
ENDMDL
MODEL 9
REMARK VINA RESULT:    -3.631     12.861     14.201
REMARK INTER + INTRA:          -4.534
REMARK INTER:                  -4.384
REMARK INTRA:                  -0.150
REMARK UNBOUND:                -0.054
REMARK SMILES CCCCCC(=O)[O-]
REMARK SMILES IDX 4 1 5 2 6 3 7 4 8 5 3 6 2 7 1 8
REMARK H PARENT
REMARK Flexibility Score: inf
ROOT
ATOM      1  C   UNL     1      -6.507  35.807   1.489  1.00  0.00     0.006 C 
ENDROOT
BRANCH   1   2
ATOM      2  C   UNL     1      -6.221  34.324   1.241  1.00  0.00     0.053 C 
BRANCH   2   3
ATOM      3  C   UNL     1      -7.492  33.581   0.976  1.00  0.00     0.041 C 
ATOM      4  O   UNL     1      -8.414  34.119   0.310  1.00  0.00    -0.550 OA
ATOM      5  O   UNL     1      -7.638  32.274   1.423  1.00  0.00    -0.550 OA
ENDBRANCH   2   3
ENDBRANCH   1   2
BRANCH   1   6
ATOM      6  C   UNL     1      -5.911  36.677   0.371  1.00  0.00     0.000 C 
BRANCH   6   7
ATOM      7  C   UNL     1      -6.720  37.959   0.125  1.00  0.00    -0.003 C 
ATOM      8  C   UNL     1      -7.958  37.720  -0.738  1.00  0.00     0.004 C 
ENDBRANCH   6   7
ENDBRANCH   1   6
TORSDOF 4
ENDMDL
