MODEL 1
REMARK VINA RESULT:    -3.546      0.000      0.000
REMARK INTER + INTRA:          -8.637
REMARK INTER:                  -6.241
REMARK INTRA:                  -2.396
REMARK UNBOUND:                -2.396
REMARK SMILES CCCCCCC=CCCCCCCCC(=O)[O-]
REMARK SMILES IDX 10 1 11 2 12 3 13 4 14 5 15 6 16 7 17 8 18 9 9 10 8 11 7 12
REMARK SMILES IDX 6 13 5 14 4 15 3 16 2 17 1 18
REMARK H PARENT
REMARK Flexibility Score: inf
ROOT
ATOM      1  C   UNL     1     206.616 196.135 225.910  1.00  0.00     0.004 C 
ENDROOT
BRANCH   1   2
ATOM      2  C   UNL     1     205.185 196.621 225.628  1.00  0.00     0.000 C 
BRANCH   2   3
ATOM      3  C   UNL     1     204.885 196.738 224.126  1.00  0.00     0.000 C 
BRANCH   3   4
ATOM      4  C   UNL     1     203.893 195.654 223.680  1.00  0.00     0.000 C 
BRANCH   4   5
ATOM      5  C   UNL     1     203.283 194.878 224.861  1.00  0.00     0.006 C 
BRANCH   5   6
ATOM      6  C   UNL     1     202.404 193.685 224.450  1.00  0.00     0.053 C 
BRANCH   6   7
ATOM      7  C   UNL     1     201.022 194.112 224.063  1.00  0.00     0.041 C 
ATOM      8  O   UNL     1     200.181 194.413 224.950  1.00  0.00    -0.550 OA
ATOM      9  O   UNL     1     200.675 194.211 222.722  1.00  0.00    -0.550 OA
ENDBRANCH   6   7
ENDBRANCH   5   6
ENDBRANCH   4   5
ENDBRANCH   3   4
ENDBRANCH   2   3
ENDBRANCH   1   2
BRANCH   1  10
ATOM     10  C   UNL     1     206.649 194.837 226.728  1.00  0.00     0.027 C 
BRANCH  10  11
ATOM     11  C   UNL     1     206.588 193.630 225.832  1.00  0.00    -0.031 C 
ATOM     12  C   UNL     1     206.940 193.697 224.539  1.00  0.00    -0.031 C 
BRANCH  12  13
ATOM     13  C   UNL     1     206.881 192.491 223.644  1.00  0.00     0.027 C 
BRANCH  13  14
ATOM     14  C   UNL     1     205.448 191.958 223.524  1.00  0.00     0.004 C 
BRANCH  14  15
ATOM     15  C   UNL     1     205.014 191.873 222.055  1.00  0.00     0.000 C 
BRANCH  15  16
ATOM     16  C   UNL     1     205.801 192.831 221.143  1.00  0.00    -0.000 C 
BRANCH  16  17
ATOM     17  C   UNL     1     204.945 193.978 220.565  1.00  0.00    -0.003 C 
ATOM     18  C   UNL     1     203.455 193.636 220.538  1.00  0.00     0.004 C 
ENDBRANCH  16  17
ENDBRANCH  15  16
ENDBRANCH  14  15
ENDBRANCH  13  14
ENDBRANCH  12  13
ENDBRANCH  10  11
ENDBRANCH   1  10
TORSDOF 13
ENDMDL
MODEL 2
REMARK VINA RESULT:    -3.499      5.689      7.415
REMARK INTER + INTRA:          -8.554
REMARK INTER:                  -6.974
REMARK INTRA:                  -1.580
REMARK UNBOUND:                -2.396
REMARK SMILES CCCCCCC=CCCCCCCCC(=O)[O-]
REMARK SMILES IDX 10 1 11 2 12 3 13 4 14 5 15 6 16 7 17 8 18 9 9 10 8 11 7 12
REMARK SMILES IDX 6 13 5 14 4 15 3 16 2 17 1 18
REMARK H PARENT
REMARK Flexibility Score: inf
ROOT
ATOM      1  C   UNL     1     208.970 196.108 225.536  1.00  0.00     0.004 C 
ENDROOT
BRANCH   1   2
ATOM      2  C   UNL     1     209.932 197.244 225.922  1.00  0.00     0.000 C 
BRANCH   2   3
ATOM      3  C   UNL     1     210.398 198.060 224.707  1.00  0.00     0.000 C 
BRANCH   3   4
ATOM      4  C   UNL     1     210.186 197.276 223.405  1.00  0.00     0.000 C 
BRANCH   4   5
ATOM      5  C   UNL     1     211.435 197.262 222.504  1.00  0.00     0.006 C 
BRANCH   5   6
ATOM      6  C   UNL     1     212.767 197.198 223.268  1.00  0.00     0.053 C 
BRANCH   6   7
ATOM      7  C   UNL     1     213.762 196.307 222.591  1.00  0.00     0.041 C 
ATOM      8  O   UNL     1     214.859 196.775 222.187  1.00  0.00    -0.550 OA
ATOM      9  O   UNL     1     213.493 194.953 222.437  1.00  0.00    -0.550 OA
ENDBRANCH   6   7
ENDBRANCH   5   6
ENDBRANCH   4   5
ENDBRANCH   3   4
ENDBRANCH   2   3
ENDBRANCH   1   2
BRANCH   1  10
ATOM     10  C   UNL     1     208.374 195.397 226.760  1.00  0.00     0.027 C 
BRANCH  10  11
ATOM     11  C   UNL     1     206.882 195.583 226.821  1.00  0.00    -0.031 C 
ATOM     12  C   UNL     1     206.251 196.463 226.028  1.00  0.00    -0.031 C 
BRANCH  12  13
ATOM     13  C   UNL     1     204.760 196.647 226.087  1.00  0.00     0.027 C 
BRANCH  13  14
ATOM     14  C   UNL     1     204.059 195.867 224.968  1.00  0.00     0.004 C 
BRANCH  14  15
ATOM     15  C   UNL     1     204.778 196.063 223.628  1.00  0.00     0.000 C 
BRANCH  15  16
ATOM     16  C   UNL     1     205.043 194.738 222.892  1.00  0.00    -0.000 C 
BRANCH  16  17
ATOM     17  C   UNL     1     206.384 194.076 223.274  1.00  0.00    -0.003 C 
ATOM     18  C   UNL     1     206.209 192.952 224.295  1.00  0.00     0.004 C 
ENDBRANCH  16  17
ENDBRANCH  15  16
ENDBRANCH  14  15
ENDBRANCH  13  14
ENDBRANCH  12  13
ENDBRANCH  10  11
ENDBRANCH   1  10
TORSDOF 13
ENDMDL
MODEL 3
REMARK VINA RESULT:    -3.457      4.144      6.124
REMARK INTER + INTRA:          -8.481
REMARK INTER:                  -6.744
REMARK INTRA:                  -1.737
REMARK UNBOUND:                -2.396
REMARK SMILES CCCCCCC=CCCCCCCCC(=O)[O-]
REMARK SMILES IDX 10 1 11 2 12 3 13 4 14 5 15 6 16 7 17 8 18 9 9 10 8 11 7 12
REMARK SMILES IDX 6 13 5 14 4 15 3 16 2 17 1 18
REMARK H PARENT
REMARK Flexibility Score: inf
ROOT
ATOM      1  C   UNL     1     208.267 196.244 225.718  1.00  0.00     0.004 C 
ENDROOT
BRANCH   1   2
ATOM      2  C   UNL     1     207.151 195.755 226.655  1.00  0.00     0.000 C 
BRANCH   2   3
ATOM      3  C   UNL     1     205.867 195.380 225.899  1.00  0.00     0.000 C 
BRANCH   3   4
ATOM      4  C   UNL     1     205.153 196.634 225.375  1.00  0.00     0.000 C 
BRANCH   4   5
ATOM      5  C   UNL     1     204.852 196.565 223.867  1.00  0.00     0.006 C 
BRANCH   5   6
ATOM      6  C   UNL     1     204.048 195.327 223.436  1.00  0.00     0.053 C 
BRANCH   6   7
ATOM      7  C   UNL     1     204.803 194.477 222.461  1.00  0.00     0.041 C 
ATOM      8  O   UNL     1     204.587 194.590 221.226  1.00  0.00    -0.550 OA
ATOM      9  O   UNL     1     205.769 193.588 222.914  1.00  0.00    -0.550 OA
ENDBRANCH   6   7
ENDBRANCH   5   6
ENDBRANCH   4   5
ENDBRANCH   3   4
ENDBRANCH   2   3
ENDBRANCH   1   2
BRANCH   1  10
ATOM     10  C   UNL     1     208.468 195.322 224.506  1.00  0.00     0.027 C 
BRANCH  10  11
ATOM     11  C   UNL     1     209.723 195.678 223.758  1.00  0.00    -0.031 C 
ATOM     12  C   UNL     1     209.961 196.931 223.339  1.00  0.00    -0.031 C 
BRANCH  12  13
ATOM     13  C   UNL     1     211.216 197.287 222.593  1.00  0.00     0.027 C 
BRANCH  13  14
ATOM     14  C   UNL     1     212.438 196.580 223.193  1.00  0.00     0.004 C 
BRANCH  14  15
ATOM     15  C   UNL     1     213.104 197.450 224.267  1.00  0.00     0.000 C 
BRANCH  15  16
ATOM     16  C   UNL     1     213.073 196.804 225.663  1.00  0.00    -0.000 C 
BRANCH  16  17
ATOM     17  C   UNL     1     211.817 197.166 226.484  1.00  0.00    -0.003 C 
ATOM     18  C   UNL     1     211.415 198.631 226.318  1.00  0.00     0.004 C 
ENDBRANCH  16  17
ENDBRANCH  15  16
ENDBRANCH  14  15
ENDBRANCH  13  14
ENDBRANCH  12  13
ENDBRANCH  10  11
ENDBRANCH   1  10
TORSDOF 13
ENDMDL
MODEL 4
REMARK VINA RESULT:    -3.449      3.981      5.633
REMARK INTER + INTRA:          -8.467
REMARK INTER:                  -7.303
REMARK INTRA:                  -1.164
REMARK UNBOUND:                -2.396
REMARK SMILES CCCCCCC=CCCCCCCCC(=O)[O-]
REMARK SMILES IDX 10 1 11 2 12 3 13 4 14 5 15 6 16 7 17 8 18 9 9 10 8 11 7 12
REMARK SMILES IDX 6 13 5 14 4 15 3 16 2 17 1 18
REMARK H PARENT
REMARK Flexibility Score: inf
ROOT
ATOM      1  C   UNL     1     206.966 195.592 226.983  1.00  0.00     0.004 C 
ENDROOT
BRANCH   1   2
ATOM      2  C   UNL     1     206.317 196.360 225.820  1.00  0.00     0.000 C 
BRANCH   2   3
ATOM      3  C   UNL     1     204.796 196.501 225.981  1.00  0.00     0.000 C 
BRANCH   3   4
ATOM      4  C   UNL     1     204.054 195.693 224.907  1.00  0.00     0.000 C 
BRANCH   4   5
ATOM      5  C   UNL     1     204.664 195.860 223.503  1.00  0.00     0.006 C 
BRANCH   5   6
ATOM      6  C   UNL     1     205.131 194.548 222.853  1.00  0.00     0.053 C 
BRANCH   6   7
ATOM      7  C   UNL     1     204.300 194.183 221.662  1.00  0.00     0.041 C 
ATOM      8  O   UNL     1     203.064 193.983 221.791  1.00  0.00    -0.550 OA
ATOM      9  O   UNL     1     204.884 194.099 220.405  1.00  0.00    -0.550 OA
ENDBRANCH   6   7
ENDBRANCH   5   6
ENDBRANCH   4   5
ENDBRANCH   3   4
ENDBRANCH   2   3
ENDBRANCH   1   2
BRANCH   1  10
ATOM     10  C   UNL     1     208.500 195.611 226.922  1.00  0.00     0.027 C 
BRANCH  10  11
ATOM     11  C   UNL     1     208.984 196.409 225.742  1.00  0.00    -0.031 C 
ATOM     12  C   UNL     1     209.939 197.343 225.870  1.00  0.00    -0.031 C 
BRANCH  12  13
ATOM     13  C   UNL     1     210.425 198.139 224.691  1.00  0.00     0.027 C 
BRANCH  13  14
ATOM     14  C   UNL     1     210.030 197.470 223.369  1.00  0.00     0.004 C 
BRANCH  14  15
ATOM     15  C   UNL     1     211.194 197.496 222.370  1.00  0.00     0.000 C 
BRANCH  15  16
ATOM     16  C   UNL     1     212.250 196.413 222.653  1.00  0.00    -0.000 C 
BRANCH  16  17
ATOM     17  C   UNL     1     213.600 196.978 223.140  1.00  0.00    -0.003 C 
ATOM     18  C   UNL     1     213.800 196.795 224.644  1.00  0.00     0.004 C 
ENDBRANCH  16  17
ENDBRANCH  15  16
ENDBRANCH  14  15
ENDBRANCH  13  14
ENDBRANCH  12  13
ENDBRANCH  10  11
ENDBRANCH   1  10
TORSDOF 13
ENDMDL
MODEL 5
REMARK VINA RESULT:    -3.443      5.231      7.065
REMARK INTER + INTRA:          -8.456
REMARK INTER:                  -7.169
REMARK INTRA:                  -1.287
REMARK UNBOUND:                -2.396
REMARK SMILES CCCCCCC=CCCCCCCCC(=O)[O-]
REMARK SMILES IDX 10 1 11 2 12 3 13 4 14 5 15 6 16 7 17 8 18 9 9 10 8 11 7 12
REMARK SMILES IDX 6 13 5 14 4 15 3 16 2 17 1 18
REMARK H PARENT
REMARK Flexibility Score: inf
ROOT
ATOM      1  C   UNL     1     208.986 195.455 226.251  1.00  0.00     0.004 C 
ENDROOT
BRANCH   1   2
ATOM      2  C   UNL     1     209.583 194.539 225.169  1.00  0.00     0.000 C 
BRANCH   2   3
ATOM      3  C   UNL     1     209.690 195.231 223.802  1.00  0.00     0.000 C 
BRANCH   3   4
ATOM      4  C   UNL     1     209.256 196.701 223.897  1.00  0.00     0.000 C 
BRANCH   4   5
ATOM      5  C   UNL     1     210.398 197.684 223.579  1.00  0.00     0.006 C 
BRANCH   5   6
ATOM      6  C   UNL     1     211.414 197.164 222.548  1.00  0.00     0.053 C 
BRANCH   6   7
ATOM      7  C   UNL     1     212.812 197.165 223.085  1.00  0.00     0.041 C 
ATOM      8  O   UNL     1     213.036 196.784 224.264  1.00  0.00    -0.550 OA
ATOM      9  O   UNL     1     213.870 197.552 222.274  1.00  0.00    -0.550 OA
ENDBRANCH   6   7
ENDBRANCH   5   6
ENDBRANCH   4   5
ENDBRANCH   3   4
ENDBRANCH   2   3
ENDBRANCH   1   2
BRANCH   1  10
ATOM     10  C   UNL     1     207.934 194.744 227.113  1.00  0.00     0.027 C 
BRANCH  10  11
ATOM     11  C   UNL     1     206.541 195.092 226.665  1.00  0.00    -0.031 C 
ATOM     12  C   UNL     1     206.278 196.235 226.013  1.00  0.00    -0.031 C 
BRANCH  12  13
ATOM     13  C   UNL     1     204.887 196.583 225.563  1.00  0.00     0.027 C 
BRANCH  13  14
ATOM     14  C   UNL     1     204.790 196.618 224.033  1.00  0.00     0.004 C 
BRANCH  14  15
ATOM     15  C   UNL     1     204.054 195.382 223.500  1.00  0.00     0.000 C 
BRANCH  15  16
ATOM     16  C   UNL     1     203.181 194.699 224.567  1.00  0.00    -0.000 C 
BRANCH  16  17
ATOM     17  C   UNL     1     201.756 194.363 224.078  1.00  0.00    -0.003 C 
ATOM     18  C   UNL     1     200.790 194.105 225.234  1.00  0.00     0.004 C 
ENDBRANCH  16  17
ENDBRANCH  15  16
ENDBRANCH  14  15
ENDBRANCH  13  14
ENDBRANCH  12  13
ENDBRANCH  10  11
ENDBRANCH   1  10
TORSDOF 13
ENDMDL
MODEL 6
REMARK VINA RESULT:    -3.424      3.971      5.734
REMARK INTER + INTRA:          -8.422
REMARK INTER:                  -6.771
REMARK INTRA:                  -1.652
REMARK UNBOUND:                -2.396
REMARK SMILES CCCCCCC=CCCCCCCCC(=O)[O-]
REMARK SMILES IDX 10 1 11 2 12 3 13 4 14 5 15 6 16 7 17 8 18 9 9 10 8 11 7 12
REMARK SMILES IDX 6 13 5 14 4 15 3 16 2 17 1 18
REMARK H PARENT
REMARK Flexibility Score: inf
ROOT
ATOM      1  C   UNL     1     204.553 196.203 225.335  1.00  0.00     0.004 C 
ENDROOT
BRANCH   1   2
ATOM      2  C   UNL     1     205.747 196.565 226.233  1.00  0.00     0.000 C 
BRANCH   2   3
ATOM      3  C   UNL     1     206.737 195.401 226.396  1.00  0.00     0.000 C 
BRANCH   3   4
ATOM      4  C   UNL     1     208.149 195.817 225.961  1.00  0.00     0.000 C 
BRANCH   4   5
ATOM      5  C   UNL     1     208.285 195.965 224.434  1.00  0.00     0.006 C 
BRANCH   5   6
ATOM      6  C   UNL     1     209.732 195.901 223.917  1.00  0.00     0.053 C 
BRANCH   6   7
ATOM      7  C   UNL     1     210.279 197.259 223.606  1.00  0.00     0.041 C 
ATOM      8  O   UNL     1     210.359 198.131 224.511  1.00  0.00    -0.550 OA
ATOM      9  O   UNL     1     210.733 197.551 222.326  1.00  0.00    -0.550 OA
ENDBRANCH   6   7
ENDBRANCH   5   6
ENDBRANCH   4   5
ENDBRANCH   3   4
ENDBRANCH   2   3
ENDBRANCH   1   2
BRANCH   1  10
ATOM     10  C   UNL     1     204.738 196.676 223.886  1.00  0.00     0.027 C 
BRANCH  10  11
ATOM     11  C   UNL     1     204.653 195.522 222.924  1.00  0.00    -0.031 C 
ATOM     12  C   UNL     1     205.068 194.293 223.265  1.00  0.00    -0.031 C 
BRANCH  12  13
ATOM     13  C   UNL     1     204.982 193.139 222.305  1.00  0.00     0.027 C 
BRANCH  13  14
ATOM     14  C   UNL     1     203.558 192.979 221.756  1.00  0.00     0.004 C 
BRANCH  14  15
ATOM     15  C   UNL     1     202.605 192.469 222.843  1.00  0.00     0.000 C 
BRANCH  15  16
ATOM     16  C   UNL     1     201.495 193.478 223.188  1.00  0.00    -0.000 C 
BRANCH  16  17
ATOM     17  C   UNL     1     201.573 194.013 224.633  1.00  0.00    -0.003 C 
ATOM     18  C   UNL     1     200.257 193.839 225.390  1.00  0.00     0.004 C 
ENDBRANCH  16  17
ENDBRANCH  15  16
ENDBRANCH  14  15
ENDBRANCH  13  14
ENDBRANCH  12  13
ENDBRANCH  10  11
ENDBRANCH   1  10
TORSDOF 13
ENDMDL
MODEL 7
REMARK VINA RESULT:    -3.414      3.956      5.686
REMARK INTER + INTRA:          -8.404
REMARK INTER:                  -6.855
REMARK INTRA:                  -1.550
REMARK UNBOUND:                -2.396
REMARK SMILES CCCCCCC=CCCCCCCCC(=O)[O-]
REMARK SMILES IDX 10 1 11 2 12 3 13 4 14 5 15 6 16 7 17 8 18 9 9 10 8 11 7 12
REMARK SMILES IDX 6 13 5 14 4 15 3 16 2 17 1 18
REMARK H PARENT
REMARK Flexibility Score: inf
ROOT
ATOM      1  C   UNL     1     204.914 196.545 225.738  1.00  0.00     0.004 C 
ENDROOT
BRANCH   1   2
ATOM      2  C   UNL     1     206.254 196.133 226.369  1.00  0.00     0.000 C 
BRANCH   2   3
ATOM      3  C   UNL     1     206.711 194.735 225.925  1.00  0.00     0.000 C 
BRANCH   3   4
ATOM      4  C   UNL     1     208.196 194.743 225.533  1.00  0.00     0.000 C 
BRANCH   4   5
ATOM      5  C   UNL     1     208.685 196.128 225.071  1.00  0.00     0.006 C 
BRANCH   5   6
ATOM      6  C   UNL     1     209.452 196.118 223.738  1.00  0.00     0.053 C 
BRANCH   6   7
ATOM      7  C   UNL     1     210.264 197.362 223.546  1.00  0.00     0.041 C 
ATOM      8  O   UNL     1     210.712 197.655 222.407  1.00  0.00    -0.550 OA
ATOM      9  O   UNL     1     210.495 198.214 224.618  1.00  0.00    -0.550 OA
ENDBRANCH   6   7
ENDBRANCH   5   6
ENDBRANCH   4   5
ENDBRANCH   3   4
ENDBRANCH   2   3
ENDBRANCH   1   2
BRANCH   1  10
ATOM     10  C   UNL     1     204.932 196.460 224.205  1.00  0.00     0.027 C 
BRANCH  10  11
ATOM     11  C   UNL     1     203.910 195.475 223.706  1.00  0.00    -0.031 C 
ATOM     12  C   UNL     1     203.178 194.733 224.551  1.00  0.00    -0.031 C 
BRANCH  12  13
ATOM     13  C   UNL     1     202.155 193.751 224.053  1.00  0.00     0.027 C 
BRANCH  13  14
ATOM     14  C   UNL     1     201.481 194.253 222.770  1.00  0.00     0.004 C 
BRANCH  14  15
ATOM     15  C   UNL     1     201.401 193.139 221.719  1.00  0.00     0.000 C 
BRANCH  15  16
ATOM     16  C   UNL     1     202.783 192.702 221.202  1.00  0.00    -0.000 C 
BRANCH  16  17
ATOM     17  C   UNL     1     203.506 193.787 220.377  1.00  0.00    -0.003 C 
ATOM     18  C   UNL     1     205.020 193.762 220.581  1.00  0.00     0.004 C 
ENDBRANCH  16  17
ENDBRANCH  15  16
ENDBRANCH  14  15
ENDBRANCH  13  14
ENDBRANCH  12  13
ENDBRANCH  10  11
ENDBRANCH   1  10
TORSDOF 13
ENDMDL
MODEL 8
REMARK VINA RESULT:    -3.391      3.315      4.510
REMARK INTER + INTRA:          -8.365
REMARK INTER:                  -7.010
REMARK INTRA:                  -1.355
REMARK UNBOUND:                -2.396
REMARK SMILES CCCCCCC=CCCCCCCCC(=O)[O-]
REMARK SMILES IDX 10 1 11 2 12 3 13 4 14 5 15 6 16 7 17 8 18 9 9 10 8 11 7 12
REMARK SMILES IDX 6 13 5 14 4 15 3 16 2 17 1 18
REMARK H PARENT
REMARK Flexibility Score: inf
ROOT
ATOM      1  C   UNL     1     206.607 195.346 226.898  1.00  0.00     0.004 C 
ENDROOT
BRANCH   1   2
ATOM      2  C   UNL     1     206.206 196.554 226.036  1.00  0.00     0.000 C 
BRANCH   2   3
ATOM      3  C   UNL     1     204.748 196.481 225.557  1.00  0.00     0.000 C 
BRANCH   3   4
ATOM      4  C   UNL     1     204.675 196.442 224.024  1.00  0.00     0.000 C 
BRANCH   4   5
ATOM      5  C   UNL     1     203.780 195.307 223.496  1.00  0.00     0.006 C 
BRANCH   5   6
ATOM      6  C   UNL     1     203.485 194.201 224.523  1.00  0.00     0.053 C 
BRANCH   6   7
ATOM      7  C   UNL     1     202.041 193.804 224.523  1.00  0.00     0.041 C 
ATOM      8  O   UNL     1     201.195 194.495 225.149  1.00  0.00    -0.550 OA
ATOM      9  O   UNL     1     201.626 192.690 223.805  1.00  0.00    -0.550 OA
ENDBRANCH   6   7
ENDBRANCH   5   6
ENDBRANCH   4   5
ENDBRANCH   3   4
ENDBRANCH   2   3
ENDBRANCH   1   2
BRANCH   1  10
ATOM     10  C   UNL     1     206.797 194.066 226.070  1.00  0.00     0.027 C 
BRANCH  10  11
ATOM     11  C   UNL     1     208.066 194.127 225.264  1.00  0.00    -0.031 C 
ATOM     12  C   UNL     1     208.044 194.263 223.929  1.00  0.00    -0.031 C 
BRANCH  12  13
ATOM     13  C   UNL     1     209.312 194.325 223.124  1.00  0.00     0.027 C 
BRANCH  13  14
ATOM     14  C   UNL     1     210.311 195.314 223.737  1.00  0.00     0.004 C 
BRANCH  14  15
ATOM     15  C   UNL     1     210.031 196.745 223.260  1.00  0.00     0.000 C 
BRANCH  15  16
ATOM     16  C   UNL     1     211.212 197.362 222.491  1.00  0.00    -0.000 C 
BRANCH  16  17
ATOM     17  C   UNL     1     212.589 196.832 222.943  1.00  0.00    -0.003 C 
ATOM     18  C   UNL     1     213.746 197.615 222.324  1.00  0.00     0.004 C 
ENDBRANCH  16  17
ENDBRANCH  15  16
ENDBRANCH  14  15
ENDBRANCH  13  14
ENDBRANCH  12  13
ENDBRANCH  10  11
ENDBRANCH   1  10
TORSDOF 13
ENDMDL
MODEL 9
REMARK VINA RESULT:    -3.284      2.976      5.888
REMARK INTER + INTRA:          -8.176
REMARK INTER:                  -6.185
REMARK INTRA:                  -1.990
REMARK UNBOUND:                -2.396
REMARK SMILES CCCCCCC=CCCCCCCCC(=O)[O-]
REMARK SMILES IDX 10 1 11 2 12 3 13 4 14 5 15 6 16 7 17 8 18 9 9 10 8 11 7 12
REMARK SMILES IDX 6 13 5 14 4 15 3 16 2 17 1 18
REMARK H PARENT
REMARK Flexibility Score: inf
ROOT
ATOM      1  C   UNL     1     203.456 192.563 223.714  1.00  0.00     0.004 C 
ENDROOT
BRANCH   1   2
ATOM      2  C   UNL     1     203.466 192.150 222.233  1.00  0.00     0.000 C 
BRANCH   2   3
ATOM      3  C   UNL     1     202.929 193.253 221.309  1.00  0.00     0.000 C 
BRANCH   3   4
ATOM      4  C   UNL     1     204.071 193.919 220.529  1.00  0.00     0.000 C 
BRANCH   4   5
ATOM      5  C   UNL     1     205.344 193.054 220.477  1.00  0.00     0.006 C 
BRANCH   5   6
ATOM      6  C   UNL     1     205.564 192.328 219.140  1.00  0.00     0.053 C 
BRANCH   6   7
ATOM      7  C   UNL     1     206.842 191.547 219.127  1.00  0.00     0.041 C 
ATOM      8  O   UNL     1     207.109 190.757 220.070  1.00  0.00    -0.550 OA
ATOM      9  O   UNL     1     207.719 191.664 218.057  1.00  0.00    -0.550 OA
ENDBRANCH   6   7
ENDBRANCH   5   6
ENDBRANCH   4   5
ENDBRANCH   3   4
ENDBRANCH   2   3
ENDBRANCH   1   2
BRANCH   1  10
ATOM     10  C   UNL     1     202.533 193.759 223.988  1.00  0.00     0.027 C 
BRANCH  10  11
ATOM     11  C   UNL     1     203.306 194.923 224.545  1.00  0.00    -0.031 C 
ATOM     12  C   UNL     1     204.052 195.713 223.758  1.00  0.00    -0.031 C 
BRANCH  12  13
ATOM     13  C   UNL     1     204.822 196.877 224.314  1.00  0.00     0.027 C 
BRANCH  13  14
ATOM     14  C   UNL     1     205.199 196.643 225.783  1.00  0.00     0.004 C 
BRANCH  14  15
ATOM     15  C   UNL     1     206.627 196.099 225.904  1.00  0.00     0.000 C 
BRANCH  15  16
ATOM     16  C   UNL     1     206.693 194.751 226.644  1.00  0.00    -0.000 C 
BRANCH  16  17
ATOM     17  C   UNL     1     206.460 193.531 225.728  1.00  0.00    -0.003 C 
ATOM     18  C   UNL     1     207.065 193.723 224.337  1.00  0.00     0.004 C 
ENDBRANCH  16  17
ENDBRANCH  15  16
ENDBRANCH  14  15
ENDBRANCH  13  14
ENDBRANCH  12  13
ENDBRANCH  10  11
ENDBRANCH   1  10
TORSDOF 13
ENDMDL
