MODEL 1
REMARK VINA RESULT:    -5.056      0.000      0.000
REMARK INTER + INTRA:          -6.710
REMARK INTER:                  -6.091
REMARK INTRA:                  -0.619
REMARK UNBOUND:                -0.619
REMARK SMILES O=c1ccn([C@@H]2O[C@@H](CO)[C@@H](O)[C@H]2O)c(=O)[nH]1
REMARK SMILES IDX 6 1 13 2 11 3 8 4 7 5 5 6 3 7 4 8 2 9 17 10 1 11 15 12 16 14
REMARK SMILES IDX 14 15 12 17 9 19 10 20
REMARK H PARENT 17 13 14 16 12 18 10 21
REMARK Flexibility Score: inf
ROOT
ATOM      1  C   UNL     1       8.113 -36.143 -30.295  1.00  0.00     0.255 C 
ATOM      2  C   UNL     1       8.332 -36.336 -31.791  1.00  0.00     0.196 C 
ATOM      3  C   UNL     1       7.181 -35.560 -32.382  1.00  0.00     0.179 C 
ATOM      4  C   UNL     1       6.107 -35.745 -31.306  1.00  0.00     0.178 C 
ATOM      5  O   UNL     1       6.735 -35.938 -30.055  1.00  0.00    -0.347 OA
ENDROOT
BRANCH   1   6
ATOM      6  N   UNL     1       8.619 -37.298 -29.524  1.00  0.00    -0.271 N 
ATOM      7  C   UNL     1       8.282 -39.541 -28.740  1.00  0.00     0.090 A 
ATOM      8  C   UNL     1       7.856 -38.433 -29.469  1.00  0.00     0.099 A 
ATOM      9  C   UNL     1       9.492 -39.466 -28.059  1.00  0.00     0.253 A 
ATOM     10  N   UNL     1      10.228 -38.325 -28.113  1.00  0.00    -0.274 N 
ATOM     11  O   UNL     1       9.902 -40.453 -27.393  1.00  0.00    -0.269 OA
ATOM     12  C   UNL     1       9.803 -37.246 -28.827  1.00  0.00     0.330 A 
ATOM     13  H   UNL     1      11.133 -38.274 -27.592  1.00  0.00     0.175 HD
ATOM     14  O   UNL     1      10.509 -36.201 -28.834  1.00  0.00    -0.248 OA
ENDBRANCH   1   6
BRANCH   2  15
ATOM     15  O   UNL     1       9.581 -35.831 -32.187  1.00  0.00    -0.386 OA
ATOM     16  H   UNL     1       9.833 -36.322 -33.012  1.00  0.00     0.211 HD
ENDBRANCH   2  15
BRANCH   3  17
ATOM     17  O   UNL     1       7.520 -34.201 -32.527  1.00  0.00    -0.387 OA
ATOM     18  H   UNL     1       7.743 -34.064 -33.484  1.00  0.00     0.211 HD
ENDBRANCH   3  17
BRANCH   4  19
ATOM     19  C   UNL     1       5.107 -34.583 -31.228  1.00  0.00     0.191 C 
BRANCH  19  20
ATOM     20  O   UNL     1       5.681 -33.490 -30.563  1.00  0.00    -0.394 OA
ATOM     21  H   UNL     1       5.409 -32.676 -31.062  1.00  0.00     0.210 HD
ENDBRANCH  19  20
ENDBRANCH   4  19
TORSDOF 5
ENDMDL
MODEL 2
REMARK VINA RESULT:    -4.882      6.549      7.809
REMARK INTER + INTRA:          -6.500
REMARK INTER:                  -6.007
REMARK INTRA:                  -0.493
REMARK UNBOUND:                -0.619
REMARK SMILES O=c1ccn([C@@H]2O[C@@H](CO)[C@@H](O)[C@H]2O)c(=O)[nH]1
REMARK SMILES IDX 6 1 13 2 11 3 8 4 7 5 5 6 3 7 4 8 2 9 17 10 1 11 15 12 16 14
REMARK SMILES IDX 14 15 12 17 9 19 10 20
REMARK H PARENT 17 13 14 16 12 18 10 21
REMARK Flexibility Score: inf
ROOT
ATOM      1  C   UNL     1       3.208 -41.503 -32.288  1.00  0.00     0.255 C 
ATOM      2  C   UNL     1       3.077 -40.596 -33.505  1.00  0.00     0.196 C 
ATOM      3  C   UNL     1       3.583 -41.483 -34.616  1.00  0.00     0.179 C 
ATOM      4  C   UNL     1       4.620 -42.333 -33.876  1.00  0.00     0.178 C 
ATOM      5  O   UNL     1       4.250 -42.431 -32.516  1.00  0.00    -0.347 OA
ENDROOT
BRANCH   1   6
ATOM      6  N   UNL     1       3.455 -40.721 -31.058  1.00  0.00    -0.271 N 
ATOM      7  C   UNL     1       5.030 -39.810 -29.495  1.00  0.00     0.090 A 
ATOM      8  C   UNL     1       4.748 -40.524 -30.655  1.00  0.00     0.099 A 
ATOM      9  C   UNL     1       3.971 -39.310 -28.745  1.00  0.00     0.253 A 
ATOM     10  N   UNL     1       2.694 -39.529 -29.152  1.00  0.00    -0.274 N 
ATOM     11  O   UNL     1       4.197 -38.659 -27.691  1.00  0.00    -0.269 OA
ATOM     12  C   UNL     1       2.427 -40.231 -30.288  1.00  0.00     0.330 A 
ATOM     13  H   UNL     1       1.902 -39.157 -28.579  1.00  0.00     0.175 HD
ATOM     14  O   UNL     1       1.225 -40.427 -30.618  1.00  0.00    -0.248 OA
ENDBRANCH   1   6
BRANCH   2  15
ATOM     15  O   UNL     1       1.743 -40.201 -33.697  1.00  0.00    -0.386 OA
ATOM     16  H   UNL     1       1.190 -40.792 -33.121  1.00  0.00     0.211 HD
ENDBRANCH   2  15
BRANCH   3  17
ATOM     17  O   UNL     1       2.544 -42.285 -35.125  1.00  0.00    -0.387 OA
ATOM     18  H   UNL     1       2.973 -43.073 -35.548  1.00  0.00     0.211 HD
ENDBRANCH   3  17
BRANCH   4  19
ATOM     19  C   UNL     1       4.812 -43.732 -34.479  1.00  0.00     0.191 C 
BRANCH  19  20
ATOM     20  O   UNL     1       5.570 -44.536 -33.616  1.00  0.00    -0.394 OA
ATOM     21  H   UNL     1       5.088 -44.556 -32.748  1.00  0.00     0.210 HD
ENDBRANCH  19  20
ENDBRANCH   4  19
TORSDOF 5
ENDMDL
MODEL 3
REMARK VINA RESULT:    -4.840      7.516      8.403
REMARK INTER + INTRA:          -6.449
REMARK INTER:                  -5.712
REMARK INTRA:                  -0.737
REMARK UNBOUND:                -0.619
REMARK SMILES O=c1ccn([C@@H]2O[C@@H](CO)[C@@H](O)[C@H]2O)c(=O)[nH]1
REMARK SMILES IDX 6 1 13 2 11 3 8 4 7 5 5 6 3 7 4 8 2 9 17 10 1 11 15 12 16 14
REMARK SMILES IDX 14 15 12 17 9 19 10 20
REMARK H PARENT 17 13 14 16 12 18 10 21
REMARK Flexibility Score: inf
ROOT
ATOM      1  C   UNL     1       5.496 -43.422 -33.440  1.00  0.00     0.255 C 
ATOM      2  C   UNL     1       5.599 -42.344 -32.367  1.00  0.00     0.196 C 
ATOM      3  C   UNL     1       4.609 -41.316 -32.857  1.00  0.00     0.179 C 
ATOM      4  C   UNL     1       4.713 -41.494 -34.375  1.00  0.00     0.178 C 
ATOM      5  O   UNL     1       5.101 -42.823 -34.658  1.00  0.00    -0.347 OA
ENDROOT
BRANCH   1   6
ATOM      6  N   UNL     1       6.774 -44.148 -33.597  1.00  0.00    -0.271 N 
ATOM      7  C   UNL     1       8.864 -44.386 -34.752  1.00  0.00     0.090 A 
ATOM      8  C   UNL     1       7.656 -43.723 -34.554  1.00  0.00     0.099 A 
ATOM      9  C   UNL     1       9.153 -45.496 -33.966  1.00  0.00     0.253 A 
ATOM     10  N   UNL     1       8.258 -45.912 -33.032  1.00  0.00    -0.274 N 
ATOM     11  O   UNL     1      10.239 -46.114 -34.123  1.00  0.00    -0.269 OA
ATOM     12  C   UNL     1       7.078 -45.259 -32.846  1.00  0.00     0.330 A 
ATOM     13  H   UNL     1       8.478 -46.753 -32.450  1.00  0.00     0.175 HD
ATOM     14  O   UNL     1       6.268 -45.692 -31.981  1.00  0.00    -0.248 OA
ENDBRANCH   1   6
BRANCH   2  15
ATOM     15  O   UNL     1       5.262 -42.858 -31.104  1.00  0.00    -0.386 OA
ATOM     16  H   UNL     1       4.391 -43.322 -31.214  1.00  0.00     0.211 HD
ENDBRANCH   2  15
BRANCH   3  17
ATOM     17  O   UNL     1       3.312 -41.619 -32.402  1.00  0.00    -0.387 OA
ATOM     18  H   UNL     1       3.362 -41.672 -31.412  1.00  0.00     0.211 HD
ENDBRANCH   3  17
BRANCH   4  19
ATOM     19  C   UNL     1       3.421 -41.143 -35.125  1.00  0.00     0.191 C 
BRANCH  19  20
ATOM     20  O   UNL     1       2.545 -42.238 -35.125  1.00  0.00    -0.394 OA
ATOM     21  H   UNL     1       3.061 -43.018 -34.793  1.00  0.00     0.210 HD
ENDBRANCH  19  20
ENDBRANCH   4  19
TORSDOF 5
ENDMDL
MODEL 4
REMARK VINA RESULT:    -4.825      9.861     12.257
REMARK INTER + INTRA:          -6.431
REMARK INTER:                  -5.815
REMARK INTRA:                  -0.616
REMARK UNBOUND:                -0.619
REMARK SMILES O=c1ccn([C@@H]2O[C@@H](CO)[C@@H](O)[C@H]2O)c(=O)[nH]1
REMARK SMILES IDX 6 1 13 2 11 3 8 4 7 5 5 6 3 7 4 8 2 9 17 10 1 11 15 12 16 14
REMARK SMILES IDX 14 15 12 17 9 19 10 20
REMARK H PARENT 17 13 14 16 12 18 10 21
REMARK Flexibility Score: inf
ROOT
ATOM      1  C   UNL     1      -3.501 -33.751 -27.727  1.00  0.00     0.255 C 
ATOM      2  C   UNL     1      -2.785 -32.415 -27.884  1.00  0.00     0.196 C 
ATOM      3  C   UNL     1      -3.935 -31.439 -27.888  1.00  0.00     0.179 C 
ATOM      4  C   UNL     1      -5.041 -32.276 -28.537  1.00  0.00     0.178 C 
ATOM      5  O   UNL     1      -4.801 -33.643 -28.271  1.00  0.00    -0.347 OA
ENDROOT
BRANCH   1   6
ATOM      6  N   UNL     1      -2.746 -34.845 -28.373  1.00  0.00    -0.271 N 
ATOM      7  C   UNL     1      -1.295 -35.562 -30.145  1.00  0.00     0.090 A 
ATOM      8  C   UNL     1      -2.009 -34.562 -29.491  1.00  0.00     0.099 A 
ATOM      9  C   UNL     1      -1.355 -36.859 -29.647  1.00  0.00     0.253 A 
ATOM     10  N   UNL     1      -2.105 -37.125 -28.546  1.00  0.00    -0.274 N 
ATOM     11  O   UNL     1      -0.719 -37.784 -30.218  1.00  0.00    -0.269 OA
ATOM     12  C   UNL     1      -2.802 -36.140 -27.913  1.00  0.00     0.330 A 
ATOM     13  H   UNL     1      -2.153 -38.104 -28.182  1.00  0.00     0.175 HD
ATOM     14  O   UNL     1      -3.500 -36.435 -26.905  1.00  0.00    -0.248 OA
ENDBRANCH   1   6
BRANCH   2  15
ATOM     15  O   UNL     1      -1.894 -32.193 -26.821  1.00  0.00    -0.386 OA
ATOM     16  H   UNL     1      -1.284 -32.976 -26.799  1.00  0.00     0.211 HD
ENDBRANCH   2  15
BRANCH   3  17
ATOM     17  O   UNL     1      -4.284 -31.076 -26.573  1.00  0.00    -0.387 OA
ATOM     18  H   UNL     1      -3.926 -31.784 -25.977  1.00  0.00     0.211 HD
ENDBRANCH   3  17
BRANCH   4  19
ATOM     19  C   UNL     1      -6.455 -31.884 -28.085  1.00  0.00     0.191 C 
BRANCH  19  20
ATOM     20  O   UNL     1      -6.749 -32.467 -26.844  1.00  0.00    -0.394 OA
ATOM     21  H   UNL     1      -7.278 -33.286 -27.031  1.00  0.00     0.210 HD
ENDBRANCH  19  20
ENDBRANCH   4  19
TORSDOF 5
ENDMDL
MODEL 5
REMARK VINA RESULT:    -4.755      7.088      7.824
REMARK INTER + INTRA:          -6.347
REMARK INTER:                  -5.968
REMARK INTRA:                  -0.379
REMARK UNBOUND:                -0.619
REMARK SMILES O=c1ccn([C@@H]2O[C@@H](CO)[C@@H](O)[C@H]2O)c(=O)[nH]1
REMARK SMILES IDX 6 1 13 2 11 3 8 4 7 5 5 6 3 7 4 8 2 9 17 10 1 11 15 12 16 14
REMARK SMILES IDX 14 15 12 17 9 19 10 20
REMARK H PARENT 17 13 14 16 12 18 10 21
REMARK Flexibility Score: inf
ROOT
ATOM      1  C   UNL     1       4.304 -41.540 -33.473  1.00  0.00     0.255 C 
ATOM      2  C   UNL     1       2.966 -42.195 -33.794  1.00  0.00     0.196 C 
ATOM      3  C   UNL     1       2.048 -41.551 -32.785  1.00  0.00     0.179 C 
ATOM      4  C   UNL     1       3.004 -41.318 -31.611  1.00  0.00     0.178 C 
ATOM      5  O   UNL     1       4.318 -41.167 -32.110  1.00  0.00    -0.347 OA
ENDROOT
BRANCH   1   6
ATOM      6  N   UNL     1       5.433 -42.440 -33.788  1.00  0.00    -0.271 N 
ATOM      7  C   UNL     1       6.516 -44.555 -33.459  1.00  0.00     0.090 A 
ATOM      8  C   UNL     1       5.464 -43.679 -33.208  1.00  0.00     0.099 A 
ATOM      9  C   UNL     1       7.542 -44.142 -34.303  1.00  0.00     0.253 A 
ATOM     10  N   UNL     1       7.501 -42.902 -34.857  1.00  0.00    -0.274 N 
ATOM     11  O   UNL     1       8.506 -44.914 -34.549  1.00  0.00    -0.269 OA
ATOM     12  C   UNL     1       6.469 -42.051 -34.604  1.00  0.00     0.330 A 
ATOM     13  H   UNL     1       8.280 -42.595 -35.483  1.00  0.00     0.175 HD
ATOM     14  O   UNL     1       6.482 -40.902 -35.125  1.00  0.00    -0.248 OA
ENDBRANCH   1   6
BRANCH   2  15
ATOM     15  O   UNL     1       2.580 -41.931 -35.118  1.00  0.00    -0.386 OA
ATOM     16  H   UNL     1       1.662 -41.556 -35.073  1.00  0.00     0.211 HD
ENDBRANCH   2  15
BRANCH   3  17
ATOM     17  O   UNL     1       1.546 -40.331 -33.277  1.00  0.00    -0.387 OA
ATOM     18  H   UNL     1       0.570 -40.333 -33.102  1.00  0.00     0.211 HD
ENDBRANCH   3  17
BRANCH   4  19
ATOM     19  C   UNL     1       2.623 -40.114 -30.737  1.00  0.00     0.191 C 
BRANCH  19  20
ATOM     20  O   UNL     1       2.053 -40.548 -29.532  1.00  0.00    -0.394 OA
ATOM     21  H   UNL     1       1.075 -40.401 -29.609  1.00  0.00     0.210 HD
ENDBRANCH  19  20
ENDBRANCH   4  19
TORSDOF 5
ENDMDL
MODEL 6
REMARK VINA RESULT:    -4.747      7.332      9.604
REMARK INTER + INTRA:          -6.337
REMARK INTER:                  -5.918
REMARK INTRA:                  -0.419
REMARK UNBOUND:                -0.619
REMARK SMILES O=c1ccn([C@@H]2O[C@@H](CO)[C@@H](O)[C@H]2O)c(=O)[nH]1
REMARK SMILES IDX 6 1 13 2 11 3 8 4 7 5 5 6 3 7 4 8 2 9 17 10 1 11 15 12 16 14
REMARK SMILES IDX 14 15 12 17 9 19 10 20
REMARK H PARENT 17 13 14 16 12 18 10 21
REMARK Flexibility Score: inf
ROOT
ATOM      1  C   UNL     1       6.807 -44.418 -33.557  1.00  0.00     0.255 C 
ATOM      2  C   UNL     1       8.319 -44.529 -33.718  1.00  0.00     0.196 C 
ATOM      3  C   UNL     1       8.676 -45.544 -32.662  1.00  0.00     0.179 C 
ATOM      4  C   UNL     1       7.614 -45.258 -31.595  1.00  0.00     0.178 C 
ATOM      5  O   UNL     1       6.464 -44.727 -32.221  1.00  0.00    -0.347 OA
ENDROOT
BRANCH   1   6
ATOM      6  N   UNL     1       6.324 -43.072 -33.930  1.00  0.00    -0.271 N 
ATOM      7  C   UNL     1       6.566 -40.691 -33.761  1.00  0.00     0.090 A 
ATOM      8  C   UNL     1       6.994 -41.979 -33.452  1.00  0.00     0.099 A 
ATOM      9  C   UNL     1       5.435 -40.537 -34.556  1.00  0.00     0.253 A 
ATOM     10  N   UNL     1       4.774 -41.634 -35.008  1.00  0.00    -0.274 N 
ATOM     11  O   UNL     1       5.026 -39.383 -34.853  1.00  0.00    -0.269 OA
ATOM     12  C   UNL     1       5.198 -42.890 -34.699  1.00  0.00     0.330 A 
ATOM     13  H   UNL     1       3.919 -41.510 -35.599  1.00  0.00     0.175 HD
ATOM     14  O   UNL     1       4.542 -43.880 -35.125  1.00  0.00    -0.248 OA
ENDBRANCH   1   6
BRANCH   2  15
ATOM     15  O   UNL     1       8.656 -44.957 -35.013  1.00  0.00    -0.386 OA
ATOM     16  H   UNL     1       8.138 -44.388 -35.640  1.00  0.00     0.211 HD
ENDBRANCH   2  15
BRANCH   3  17
ATOM     17  O   UNL     1       8.545 -46.853 -33.165  1.00  0.00    -0.387 OA
ATOM     18  H   UNL     1       8.315 -46.767 -34.126  1.00  0.00     0.211 HD
ENDBRANCH   3  17
BRANCH   4  19
ATOM     19  C   UNL     1       7.244 -46.486 -30.751  1.00  0.00     0.191 C 
BRANCH  19  20
ATOM     20  O   UNL     1       5.851 -46.616 -30.664  1.00  0.00    -0.394 OA
ATOM     21  H   UNL     1       5.671 -47.495 -30.238  1.00  0.00     0.210 HD
ENDBRANCH  19  20
ENDBRANCH   4  19
TORSDOF 5
ENDMDL
MODEL 7
REMARK VINA RESULT:    -4.746      7.730      9.283
REMARK INTER + INTRA:          -6.336
REMARK INTER:                  -5.776
REMARK INTRA:                  -0.559
REMARK UNBOUND:                -0.619
REMARK SMILES O=c1ccn([C@@H]2O[C@@H](CO)[C@@H](O)[C@H]2O)c(=O)[nH]1
REMARK SMILES IDX 6 1 13 2 11 3 8 4 7 5 5 6 3 7 4 8 2 9 17 10 1 11 15 12 16 14
REMARK SMILES IDX 14 15 12 17 9 19 10 20
REMARK H PARENT 17 13 14 16 12 18 10 21
REMARK Flexibility Score: inf
ROOT
ATOM      1  C   UNL     1      -0.936 -38.514 -31.763  1.00  0.00     0.255 C 
ATOM      2  C   UNL     1      -1.942 -37.705 -30.953  1.00  0.00     0.196 C 
ATOM      3  C   UNL     1      -2.728 -37.006 -32.034  1.00  0.00     0.179 C 
ATOM      4  C   UNL     1      -1.662 -36.829 -33.118  1.00  0.00     0.178 C 
ATOM      5  O   UNL     1      -0.701 -37.857 -32.992  1.00  0.00    -0.347 OA
ENDROOT
BRANCH   1   6
ATOM      6  N   UNL     1       0.324 -38.708 -31.016  1.00  0.00    -0.271 N 
ATOM      7  C   UNL     1       2.262 -37.738 -29.985  1.00  0.00     0.090 A 
ATOM      8  C   UNL     1       1.059 -37.605 -30.672  1.00  0.00     0.099 A 
ATOM      9  C   UNL     1       2.709 -39.015 -29.663  1.00  0.00     0.253 A 
ATOM     10  N   UNL     1       1.975 -40.098 -30.026  1.00  0.00    -0.274 N 
ATOM     11  O   UNL     1       3.794 -39.165 -29.041  1.00  0.00    -0.269 OA
ATOM     12  C   UNL     1       0.800 -39.959 -30.701  1.00  0.00     0.330 A 
ATOM     13  H   UNL     1       2.322 -41.056 -29.789  1.00  0.00     0.175 HD
ATOM     14  O   UNL     1       0.160 -40.994 -31.035  1.00  0.00    -0.248 OA
ENDBRANCH   1   6
BRANCH   2  15
ATOM     15  O   UNL     1      -2.743 -38.545 -30.162  1.00  0.00    -0.386 OA
ATOM     16  H   UNL     1      -3.439 -38.917 -30.764  1.00  0.00     0.211 HD
ENDBRANCH   2  15
BRANCH   3  17
ATOM     17  O   UNL     1      -3.781 -37.822 -32.490  1.00  0.00    -0.387 OA
ATOM     18  H   UNL     1      -3.370 -38.531 -33.049  1.00  0.00     0.211 HD
ENDBRANCH   3  17
BRANCH   4  19
ATOM     19  C   UNL     1      -2.232 -36.803 -34.543  1.00  0.00     0.191 C 
BRANCH  19  20
ATOM     20  O   UNL     1      -3.424 -36.065 -34.578  1.00  0.00    -0.394 OA
ATOM     21  H   UNL     1      -4.062 -36.523 -33.971  1.00  0.00     0.210 HD
ENDBRANCH  19  20
ENDBRANCH   4  19
TORSDOF 5
ENDMDL
MODEL 8
REMARK VINA RESULT:    -4.694      4.539      6.880
REMARK INTER + INTRA:          -6.274
REMARK INTER:                  -5.548
REMARK INTRA:                  -0.726
REMARK UNBOUND:                -0.619
REMARK SMILES O=c1ccn([C@@H]2O[C@@H](CO)[C@@H](O)[C@H]2O)c(=O)[nH]1
REMARK SMILES IDX 6 1 13 2 11 3 8 4 7 5 5 6 3 7 4 8 2 9 17 10 1 11 15 12 16 14
REMARK SMILES IDX 14 15 12 17 9 19 10 20
REMARK H PARENT 17 13 14 16 12 18 10 21
REMARK Flexibility Score: inf
ROOT
ATOM      1  C   UNL     1       5.055 -33.942 -32.340  1.00  0.00     0.255 C 
ATOM      2  C   UNL     1       6.160 -34.065 -31.298  1.00  0.00     0.196 C 
ATOM      3  C   UNL     1       7.034 -35.141 -31.890  1.00  0.00     0.179 C 
ATOM      4  C   UNL     1       6.003 -35.996 -32.632  1.00  0.00     0.178 C 
ATOM      5  O   UNL     1       4.912 -35.179 -33.007  1.00  0.00    -0.347 OA
ENDROOT
BRANCH   1   6
ATOM      6  N   UNL     1       3.779 -33.521 -31.724  1.00  0.00    -0.271 N 
ATOM      7  C   UNL     1       1.630 -34.132 -30.849  1.00  0.00     0.090 A 
ATOM      8  C   UNL     1       2.854 -34.480 -31.413  1.00  0.00     0.099 A 
ATOM      9  C   UNL     1       1.361 -32.787 -30.618  1.00  0.00     0.253 A 
ATOM     10  N   UNL     1       2.285 -31.847 -30.947  1.00  0.00    -0.274 N 
ATOM     11  O   UNL     1       0.262 -32.443 -30.107  1.00  0.00    -0.269 OA
ATOM     12  C   UNL     1       3.479 -32.197 -31.501  1.00  0.00     0.330 A 
ATOM     13  H   UNL     1       2.072 -30.838 -30.778  1.00  0.00     0.175 HD
ATOM     14  O   UNL     1       4.300 -31.290 -31.809  1.00  0.00    -0.248 OA
ENDBRANCH   1   6
BRANCH   2  15
ATOM     15  O   UNL     1       6.839 -32.846 -31.138  1.00  0.00    -0.386 OA
ATOM     16  H   UNL     1       6.984 -32.732 -30.162  1.00  0.00     0.211 HD
ENDBRANCH   2  15
BRANCH   3  17
ATOM     17  O   UNL     1       7.968 -34.587 -32.786  1.00  0.00    -0.387 OA
ATOM     18  H   UNL     1       7.471 -33.943 -33.354  1.00  0.00     0.211 HD
ENDBRANCH   3  17
BRANCH   4  19
ATOM     19  C   UNL     1       6.573 -36.721 -33.859  1.00  0.00     0.191 C 
BRANCH  19  20
ATOM     20  O   UNL     1       6.595 -35.861 -34.967  1.00  0.00    -0.394 OA
ATOM     21  H   UNL     1       5.861 -35.206 -34.835  1.00  0.00     0.210 HD
ENDBRANCH  19  20
ENDBRANCH   4  19
TORSDOF 5
ENDMDL
MODEL 9
REMARK VINA RESULT:    -4.607      2.101      3.446
REMARK INTER + INTRA:          -6.169
REMARK INTER:                  -5.474
REMARK INTRA:                  -0.695
REMARK UNBOUND:                -0.619
REMARK SMILES O=c1ccn([C@@H]2O[C@@H](CO)[C@@H](O)[C@H]2O)c(=O)[nH]1
REMARK SMILES IDX 6 1 13 2 11 3 8 4 7 5 5 6 3 7 4 8 2 9 17 10 1 11 15 12 16 14
REMARK SMILES IDX 14 15 12 17 9 19 10 20
REMARK H PARENT 17 13 14 16 12 18 10 21
REMARK Flexibility Score: inf
ROOT
ATOM      1  C   UNL     1       8.890 -37.866 -29.090  1.00  0.00     0.255 C 
ATOM      2  C   UNL     1       7.414 -38.236 -29.002  1.00  0.00     0.196 C 
ATOM      3  C   UNL     1       6.810 -37.389 -30.093  1.00  0.00     0.179 C 
ATOM      4  C   UNL     1       7.730 -36.165 -30.071  1.00  0.00     0.178 C 
ATOM      5  O   UNL     1       9.005 -36.555 -29.604  1.00  0.00    -0.347 OA
ENDROOT
BRANCH   1   6
ATOM      6  N   UNL     1       9.553 -37.980 -27.774  1.00  0.00    -0.271 N 
ATOM      7  C   UNL     1      10.340 -36.903 -25.780  1.00  0.00     0.090 A 
ATOM      8  C   UNL     1       9.706 -36.850 -27.018  1.00  0.00     0.099 A 
ATOM      9  C   UNL     1      10.827 -38.126 -25.332  1.00  0.00     0.253 A 
ATOM     10  N   UNL     1      10.680 -39.234 -26.104  1.00  0.00    -0.274 N 
ATOM     11  O   UNL     1      11.404 -38.204 -24.215  1.00  0.00    -0.269 OA
ATOM     12  C   UNL     1      10.060 -39.173 -27.314  1.00  0.00     0.330 A 
ATOM     13  H   UNL     1      11.056 -40.149 -25.764  1.00  0.00     0.175 HD
ATOM     14  O   UNL     1       9.963 -40.223 -28.006  1.00  0.00    -0.248 OA
ENDBRANCH   1   6
BRANCH   2  15
ATOM     15  O   UNL     1       7.226 -39.611 -29.220  1.00  0.00    -0.386 OA
ATOM     16  H   UNL     1       8.041 -39.935 -29.684  1.00  0.00     0.211 HD
ENDBRANCH   2  15
BRANCH   3  17
ATOM     17  O   UNL     1       6.881 -38.051 -31.334  1.00  0.00    -0.387 OA
ATOM     18  H   UNL     1       7.491 -37.518 -31.907  1.00  0.00     0.211 HD
ENDBRANCH   3  17
BRANCH   4  19
ATOM     19  C   UNL     1       7.851 -35.462 -31.431  1.00  0.00     0.191 C 
BRANCH  19  20
ATOM     20  O   UNL     1       9.004 -35.892 -32.101  1.00  0.00    -0.394 OA
ATOM     21  H   UNL     1       8.979 -36.885 -32.105  1.00  0.00     0.210 HD
ENDBRANCH  19  20
ENDBRANCH   4  19
TORSDOF 5
ENDMDL
