MODEL 1
REMARK VINA RESULT:    22.194      0.000      0.000
REMARK INTER + INTRA:          38.563
REMARK INTER:                  33.871
REMARK INTRA:                   4.691
REMARK UNBOUND:                 4.691
REMARK SMILES CC1=CCC[C@@H](C)C(=O)C[C@H](C(C)C)C(=O)C1
REMARK SMILES IDX 8 1 9 2 6 3 7 4 5 5 4 6 3 7 2 8 1 9 10 11 11 12 15 13 16 14
REMARK SMILES IDX 17 15 12 17 13 18 14 19
REMARK H PARENT
REMARK Flexibility Score: 70.00
ROOT
ATOM      1  C   UNL     1      -4.338 -10.011  -6.073  1.00  0.00     0.136 C 
ATOM      2  O   UNL     1      -3.288 -10.062  -5.448  1.00  0.00    -0.299 OA
ENDROOT
BRANCH   1   3
ATOM      3  C   UNL     1      -5.467 -10.953  -5.721  1.00  0.00     0.053 C 
ATOM      4  C   UNL     1      -6.578 -10.196  -4.985  1.00  0.00     0.016 C 
BRANCH   3   5
ATOM      5  C   UNL     1      -4.961 -12.139  -4.875  1.00  0.00     0.015 C 
BRANCH   5   6
ATOM      6  C   UNL     1      -3.838 -12.936  -5.573  1.00  0.00     0.028 C 
BRANCH   6   7
ATOM      7  C   UNL     1      -4.355 -13.681  -6.783  1.00  0.00    -0.028 C 
ATOM      8  C   UNL     1      -5.083 -13.175  -7.807  1.00  0.00    -0.070 CG0
ATOM      9  C   UNL     1      -5.525 -14.137  -8.884  1.00  0.00     0.039 C 
ATOM     10  G   UNL     1      -5.467 -11.713  -7.959  1.00  0.00     0.000 G0
ENDBRANCH   6   7
ENDBRANCH   5   6
ENDBRANCH   3   5
ENDBRANCH   1   3
BRANCH   1  11
ATOM     11  C   UNL     1      -4.537  -8.966  -7.147  1.00  0.00     0.087 C 
BRANCH  11  12
ATOM     12  C   UNL     1      -4.167  -9.459  -8.566  1.00  0.00     0.066 C 
BRANCH  12  13
ATOM     13  C   UNL     1      -4.460 -10.936  -8.797  1.00  0.00     0.140 C 
ATOM     14  O   UNL     1      -3.895 -11.499  -9.723  1.00  0.00    -0.299 OA
BRANCH  13  15
ATOM     15  C   UNL     1      -5.466 -11.719  -7.982  1.00  0.00     0.106 CG0
ATOM     16  G   UNL     1      -5.026 -13.163  -7.809  1.00  0.00     0.000 G0
ENDBRANCH  13  15
ENDBRANCH  12  13
BRANCH  12  17
ATOM     17  C   UNL     1      -4.754  -8.539  -9.682  1.00  0.00    -0.006 C 
ATOM     18  C   UNL     1      -5.796  -7.527  -9.178  1.00  0.00     0.008 C 
ATOM     19  C   UNL     1      -5.347  -9.366 -10.834  1.00  0.00     0.008 C 
ENDBRANCH  12  17
ENDBRANCH  11  12
ENDBRANCH   1  11
TORSDOF 1
ENDMDL
MODEL 2
REMARK VINA RESULT:    23.487      9.262     10.660
REMARK INTER + INTRA:          40.537
REMARK INTER:                  36.930
REMARK INTRA:                   3.606
REMARK UNBOUND:                 4.691
REMARK SMILES CC1=CCC[C@@H](C)C(=O)C[C@H](C(C)C)C(=O)C1
REMARK SMILES IDX 8 1 9 2 6 3 7 4 5 5 4 6 3 7 2 8 1 9 10 11 11 12 15 13 16 14
REMARK SMILES IDX 17 15 12 17 13 18 14 19
REMARK H PARENT
REMARK Flexibility Score: 70.00
ROOT
ATOM      1  C   UNL     1      -2.245  -5.857 -15.383  1.00  0.00     0.136 C 
ATOM      2  O   UNL     1      -1.635  -5.262 -16.261  1.00  0.00    -0.299 OA
ENDROOT
BRANCH   1   3
ATOM      3  C   UNL     1      -3.003  -5.074 -14.335  1.00  0.00     0.053 C 
ATOM      4  C   UNL     1      -2.209  -5.039 -13.024  1.00  0.00     0.016 C 
BRANCH   3   5
ATOM      5  C   UNL     1      -4.409  -5.662 -14.107  1.00  0.00     0.015 C 
BRANCH   5   6
ATOM      6  C   UNL     1      -5.479  -5.028 -15.022  1.00  0.00     0.028 C 
BRANCH   6   7
ATOM      7  C   UNL     1      -5.913  -5.982 -16.112  1.00  0.00    -0.028 C 
ATOM      8  C   UNL     1      -5.199  -6.367 -17.197  1.00  0.00    -0.070 CG0
ATOM      9  C   UNL     1      -5.874  -7.299 -18.175  1.00  0.00     0.039 C 
ATOM     10  G   UNL     1      -3.768  -5.948 -17.485  1.00  0.00     0.000 G0
ENDBRANCH   6   7
ENDBRANCH   5   6
ENDBRANCH   3   5
ENDBRANCH   1   3
BRANCH   1  11
ATOM     11  C   UNL     1      -2.304  -7.368 -15.383  1.00  0.00     0.087 C 
BRANCH  11  12
ATOM     12  C   UNL     1      -2.229  -7.990 -16.798  1.00  0.00     0.066 C 
BRANCH  12  13
ATOM     13  C   UNL     1      -2.872  -7.131 -17.879  1.00  0.00     0.140 C 
ATOM     14  O   UNL     1      -2.585  -7.359 -19.045  1.00  0.00    -0.299 OA
BRANCH  13  15
ATOM     15  C   UNL     1      -3.792  -5.968 -17.576  1.00  0.00     0.106 CG0
ATOM     16  G   UNL     1      -5.168  -6.454 -17.153  1.00  0.00     0.000 G0
ENDBRANCH  13  15
ENDBRANCH  12  13
BRANCH  12  17
ATOM     17  C   UNL     1      -0.783  -8.449 -17.165  1.00  0.00    -0.006 C 
ATOM     18  C   UNL     1       0.265  -8.151 -16.079  1.00  0.00     0.008 C 
ATOM     19  C   UNL     1      -0.329  -7.850 -18.505  1.00  0.00     0.008 C 
ENDBRANCH  12  17
ENDBRANCH  11  12
ENDBRANCH   1  11
TORSDOF 1
ENDMDL
MODEL 3
REMARK VINA RESULT:    25.117      1.882      5.120
REMARK INTER + INTRA:          43.024
REMARK INTER:                  39.653
REMARK INTRA:                   3.371
REMARK UNBOUND:                 4.691
REMARK SMILES CC1=CCC[C@@H](C)C(=O)C[C@H](C(C)C)C(=O)C1
REMARK SMILES IDX 8 1 9 2 6 3 7 4 5 5 4 6 3 7 2 8 1 9 10 11 11 12 15 13 16 14
REMARK SMILES IDX 17 15 12 17 13 18 14 19
REMARK H PARENT
REMARK Flexibility Score: 70.00
ROOT
ATOM      1  C   UNL     1      -4.955 -11.466  -8.617  1.00  0.00     0.136 C 
ATOM      2  O   UNL     1      -6.027 -11.072  -8.178  1.00  0.00    -0.299 OA
ENDROOT
BRANCH   1   3
ATOM      3  C   UNL     1      -4.393 -10.856  -9.881  1.00  0.00     0.053 C 
ATOM      4  C   UNL     1      -3.092 -11.563 -10.277  1.00  0.00     0.016 C 
BRANCH   3   5
ATOM      5  C   UNL     1      -4.163  -9.341  -9.716  1.00  0.00     0.015 C 
BRANCH   5   6
ATOM      6  C   UNL     1      -4.800  -8.775  -8.428  1.00  0.00     0.028 C 
BRANCH   6   7
ATOM      7  C   UNL     1      -3.812  -8.749  -7.284  1.00  0.00    -0.028 C 
ATOM      8  C   UNL     1      -4.003  -9.217  -6.026  1.00  0.00    -0.070 CG0
ATOM      9  C   UNL     1      -2.873  -9.030  -5.041  1.00  0.00     0.039 C 
ATOM     10  G   UNL     1      -5.255  -9.929  -5.547  1.00  0.00     0.000 G0
ENDBRANCH   6   7
ENDBRANCH   5   6
ENDBRANCH   3   5
ENDBRANCH   1   3
BRANCH   1  11
ATOM     11  C   UNL     1      -4.159 -12.508  -7.865  1.00  0.00     0.087 C 
BRANCH  11  12
ATOM     12  C   UNL     1      -3.859 -12.118  -6.398  1.00  0.00     0.066 C 
BRANCH  12  13
ATOM     13  C   UNL     1      -5.044 -11.484  -5.680  1.00  0.00     0.140 C 
ATOM     14  O   UNL     1      -5.904 -12.223  -5.223  1.00  0.00    -0.299 OA
BRANCH  13  15
ATOM     15  C   UNL     1      -5.243  -9.988  -5.566  1.00  0.00     0.106 CG0
ATOM     16  G   UNL     1      -3.987  -9.237  -5.970  1.00  0.00     0.000 G0
ENDBRANCH  13  15
ENDBRANCH  12  13
BRANCH  12  17
ATOM     17  C   UNL     1      -3.216 -13.291  -5.595  1.00  0.00    -0.006 C 
ATOM     18  C   UNL     1      -2.079 -14.011  -6.338  1.00  0.00     0.008 C 
ATOM     19  C   UNL     1      -4.276 -14.311  -5.150  1.00  0.00     0.008 C 
ENDBRANCH  12  17
ENDBRANCH  11  12
ENDBRANCH   1  11
TORSDOF 1
ENDMDL
