MODEL 1
REMARK VINA RESULT:    -3.433      0.000      0.000
REMARK INTER + INTRA:          -6.236
REMARK INTER:                  -4.938
REMARK INTRA:                  -1.298
REMARK UNBOUND:                -1.298
REMARK SMILES O=C(CO)[C@@H](O)[C@H](O)[C@@H](O)CO
REMARK SMILES IDX 7 1 9 2 11 3 12 4 10 6 5 8 2 9 1 10 3 11 4 12 6 14 8 16
REMARK H PARENT 12 5 10 7 4 13 6 15 8 17
REMARK Flexibility Score: inf
ROOT
ATOM      1  C   UNL     1       5.747  -0.019  -7.900  1.00  0.00     0.181 C 
ENDROOT
BRANCH   1   2
ATOM      2  C   UNL     1       4.690   0.788  -8.706  1.00  0.00     0.171 C 
BRANCH   2   3
ATOM      3  C   UNL     1       4.181   2.045  -7.978  1.00  0.00     0.190 C 
BRANCH   3   4
ATOM      4  O   UNL     1       3.433   1.690  -6.848  1.00  0.00    -0.394 OA
ATOM      5  H   UNL     1       3.367   0.700  -6.861  1.00  0.00     0.210 HD
ENDBRANCH   3   4
ENDBRANCH   2   3
BRANCH   2   6
ATOM      6  O   UNL     1       3.595  -0.051  -8.980  1.00  0.00    -0.388 OA
ATOM      7  H   UNL     1       2.808   0.333  -8.512  1.00  0.00     0.211 HD
ENDBRANCH   2   6
ENDBRANCH   1   2
BRANCH   1   8
ATOM      8  C   UNL     1       5.223  -1.306  -7.213  1.00  0.00     0.214 C 
BRANCH   8   9
ATOM      9  C   UNL     1       6.341  -2.154  -6.632  1.00  0.00     0.189 C 
ATOM     10  O   UNL     1       7.071  -2.778  -7.387  1.00  0.00    -0.294 OA
BRANCH   9  11
ATOM     11  C   UNL     1       6.591  -2.267  -5.148  1.00  0.00     0.234 C 
BRANCH  11  12
ATOM     12  O   UNL     1       6.532  -1.018  -4.518  1.00  0.00    -0.388 OA
ATOM     13  H   UNL     1       7.352  -0.532  -4.793  1.00  0.00     0.211 HD
ENDBRANCH  11  12
ENDBRANCH   9  11
ENDBRANCH   8   9
BRANCH   8  14
ATOM     14  O   UNL     1       4.284  -0.980  -6.221  1.00  0.00    -0.382 OA
ATOM     15  H   UNL     1       4.785  -0.889  -5.368  1.00  0.00     0.211 HD
ENDBRANCH   8  14
ENDBRANCH   1   8
BRANCH   1  16
ATOM     16  O   UNL     1       6.300   0.814  -6.909  1.00  0.00    -0.387 OA
ATOM     17  H   UNL     1       5.719   1.617  -6.840  1.00  0.00     0.211 HD
ENDBRANCH   1  16
TORSDOF 10
ENDMDL
MODEL 2
REMARK VINA RESULT:    -3.400      0.984      4.208
REMARK INTER + INTRA:          -6.189
REMARK INTER:                  -5.224
REMARK INTRA:                  -0.965
REMARK UNBOUND:                -1.298
REMARK SMILES O=C(CO)[C@@H](O)[C@H](O)[C@@H](O)CO
REMARK SMILES IDX 7 1 9 2 11 3 12 4 10 6 5 8 2 9 1 10 3 11 4 12 6 14 8 16
REMARK H PARENT 12 5 10 7 4 13 6 15 8 17
REMARK Flexibility Score: inf
ROOT
ATOM      1  C   UNL     1       4.681  -0.927  -7.443  1.00  0.00     0.181 C 
ENDROOT
BRANCH   1   2
ATOM      2  C   UNL     1       5.653  -2.106  -7.151  1.00  0.00     0.171 C 
BRANCH   2   3
ATOM      3  C   UNL     1       5.900  -2.349  -5.651  1.00  0.00     0.190 C 
BRANCH   3   4
ATOM      4  O   UNL     1       6.510  -1.233  -5.065  1.00  0.00    -0.394 OA
ATOM      5  H   UNL     1       5.802  -0.542  -4.987  1.00  0.00     0.210 HD
ENDBRANCH   3   4
ENDBRANCH   2   3
BRANCH   2   6
ATOM      6  O   UNL     1       6.885  -1.839  -7.775  1.00  0.00    -0.388 OA
ATOM      7  H   UNL     1       6.886  -0.877  -8.021  1.00  0.00     0.211 HD
ENDBRANCH   2   6
ENDBRANCH   1   2
BRANCH   1   8
ATOM      8  C   UNL     1       5.343   0.366  -7.984  1.00  0.00     0.214 C 
BRANCH   8   9
ATOM      9  C   UNL     1       4.325   1.386  -8.466  1.00  0.00     0.189 C 
ATOM     10  O   UNL     1       3.996   1.390  -9.642  1.00  0.00    -0.294 OA
BRANCH   9  11
ATOM     11  C   UNL     1       3.699   2.407  -7.549  1.00  0.00     0.234 C 
BRANCH  11  12
ATOM     12  O   UNL     1       4.665   3.226  -6.952  1.00  0.00    -0.388 OA
ATOM     13  H   UNL     1       4.325   4.155  -7.028  1.00  0.00     0.211 HD
ENDBRANCH  11  12
ENDBRANCH   9  11
ENDBRANCH   8   9
BRANCH   8  14
ATOM     14  O   UNL     1       6.182   0.928  -7.008  1.00  0.00    -0.382 OA
ATOM     15  H   UNL     1       5.691   0.883  -6.145  1.00  0.00     0.211 HD
ENDBRANCH   8  14
ENDBRANCH   1   8
BRANCH   1  16
ATOM     16  O   UNL     1       3.987  -0.604  -6.262  1.00  0.00    -0.387 OA
ATOM     17  H   UNL     1       3.986  -1.415  -5.688  1.00  0.00     0.211 HD
ENDBRANCH   1  16
TORSDOF 10
ENDMDL
MODEL 3
REMARK VINA RESULT:    -3.368      6.485      7.825
REMARK INTER + INTRA:          -6.143
REMARK INTER:                  -4.987
REMARK INTRA:                  -1.156
REMARK UNBOUND:                -1.298
REMARK SMILES O=C(CO)[C@@H](O)[C@H](O)[C@@H](O)CO
REMARK SMILES IDX 7 1 9 2 11 3 12 4 10 6 5 8 2 9 1 10 3 11 4 12 6 14 8 16
REMARK H PARENT 12 5 10 7 4 13 6 15 8 17
REMARK Flexibility Score: inf
ROOT
ATOM      1  C   UNL     1       3.255   3.626 -13.132  1.00  0.00     0.181 C 
ENDROOT
BRANCH   1   2
ATOM      2  C   UNL     1       3.734   5.106 -13.145  1.00  0.00     0.171 C 
BRANCH   2   3
ATOM      3  C   UNL     1       3.910   5.688 -14.559  1.00  0.00     0.190 C 
BRANCH   3   4
ATOM      4  O   UNL     1       4.776   4.889 -15.316  1.00  0.00    -0.394 OA
ATOM      5  H   UNL     1       4.467   3.954 -15.193  1.00  0.00     0.210 HD
ENDBRANCH   3   4
ENDBRANCH   2   3
BRANCH   2   6
ATOM      6  O   UNL     1       4.962   5.188 -12.465  1.00  0.00    -0.388 OA
ATOM      7  H   UNL     1       4.788   4.946 -11.518  1.00  0.00     0.211 HD
ENDBRANCH   2   6
ENDBRANCH   1   2
BRANCH   1   8
ATOM      8  C   UNL     1       4.318   2.584 -12.699  1.00  0.00     0.214 C 
BRANCH   8   9
ATOM      9  C   UNL     1       3.805   1.157 -12.782  1.00  0.00     0.189 C 
ATOM     10  O   UNL     1       2.599   0.957 -12.798  1.00  0.00    -0.294 OA
BRANCH   9  11
ATOM     11  C   UNL     1       4.724  -0.038 -12.842  1.00  0.00     0.234 C 
BRANCH  11  12
ATOM     12  O   UNL     1       5.490  -0.042 -14.014  1.00  0.00    -0.388 OA
ATOM     13  H   UNL     1       5.739   0.903 -14.184  1.00  0.00     0.211 HD
ENDBRANCH  11  12
ENDBRANCH   9  11
ENDBRANCH   8   9
BRANCH   8  14
ATOM     14  O   UNL     1       5.485   2.734 -13.466  1.00  0.00    -0.382 OA
ATOM     15  H   UNL     1       5.233   2.566 -14.412  1.00  0.00     0.211 HD
ENDBRANCH   8  14
ENDBRANCH   1   8
BRANCH   1  16
ATOM     16  O   UNL     1       2.800   3.281 -14.418  1.00  0.00    -0.387 OA
ATOM     17  H   UNL     1       3.076   2.343 -14.589  1.00  0.00     0.211 HD
ENDBRANCH   1  16
TORSDOF 10
ENDMDL
MODEL 4
REMARK VINA RESULT:    -3.332      6.480      9.162
REMARK INTER + INTRA:          -6.091
REMARK INTER:                  -4.796
REMARK INTRA:                  -1.294
REMARK UNBOUND:                -1.298
REMARK SMILES O=C(CO)[C@@H](O)[C@H](O)[C@@H](O)CO
REMARK SMILES IDX 7 1 9 2 11 3 12 4 10 6 5 8 2 9 1 10 3 11 4 12 6 14 8 16
REMARK H PARENT 12 5 10 7 4 13 6 15 8 17
REMARK Flexibility Score: inf
ROOT
ATOM      1  C   UNL     1       4.462   3.887 -12.825  1.00  0.00     0.181 C 
ENDROOT
BRANCH   1   2
ATOM      2  C   UNL     1       3.973   2.666 -11.994  1.00  0.00     0.171 C 
BRANCH   2   3
ATOM      3  C   UNL     1       4.417   1.308 -12.565  1.00  0.00     0.190 C 
BRANCH   3   4
ATOM      4  O   UNL     1       3.755   1.040 -13.770  1.00  0.00    -0.394 OA
ATOM      5  H   UNL     1       3.629   1.917 -14.216  1.00  0.00     0.210 HD
ENDBRANCH   3   4
ENDBRANCH   2   3
BRANCH   2   6
ATOM      6  O   UNL     1       2.568   2.695 -11.936  1.00  0.00    -0.388 OA
ATOM      7  H   UNL     1       2.320   3.249 -11.150  1.00  0.00     0.211 HD
ENDBRANCH   2   6
ENDBRANCH   1   2
BRANCH   1   8
ATOM      8  C   UNL     1       3.378   4.589 -13.681  1.00  0.00     0.214 C 
BRANCH   8   9
ATOM      9  C   UNL     1       3.873   5.885 -14.301  1.00  0.00     0.189 C 
ATOM     10  O   UNL     1       4.073   6.852 -13.582  1.00  0.00    -0.294 OA
BRANCH   9  11
ATOM     11  C   UNL     1       4.127   6.034 -15.781  1.00  0.00     0.234 C 
BRANCH  11  12
ATOM     12  O   UNL     1       4.766   4.907 -16.312  1.00  0.00    -0.388 OA
ATOM     13  H   UNL     1       5.706   4.951 -15.999  1.00  0.00     0.211 HD
ENDBRANCH  11  12
ENDBRANCH   9  11
ENDBRANCH   8   9
BRANCH   8  14
ATOM     14  O   UNL     1       2.901   3.717 -14.673  1.00  0.00    -0.382 OA
ATOM     15  H   UNL     1       2.476   4.281 -15.372  1.00  0.00     0.211 HD
ENDBRANCH   8  14
ENDBRANCH   1   8
BRANCH   1  16
ATOM     16  O   UNL     1       5.498   3.470 -13.682  1.00  0.00    -0.387 OA
ATOM     17  H   UNL     1       5.233   3.715 -14.607  1.00  0.00     0.211 HD
ENDBRANCH   1  16
TORSDOF 10
ENDMDL
MODEL 5
REMARK VINA RESULT:    -3.275      6.522      8.151
REMARK INTER + INTRA:          -6.010
REMARK INTER:                  -4.566
REMARK INTRA:                  -1.444
REMARK UNBOUND:                -1.298
REMARK SMILES O=C(CO)[C@@H](O)[C@H](O)[C@@H](O)CO
REMARK SMILES IDX 7 1 9 2 11 3 12 4 10 6 5 8 2 9 1 10 3 11 4 12 6 14 8 16
REMARK H PARENT 12 5 10 7 4 13 6 15 8 17
REMARK Flexibility Score: inf
ROOT
ATOM      1  C   UNL     1       4.438   2.252 -12.358  1.00  0.00     0.181 C 
ENDROOT
BRANCH   1   2
ATOM      2  C   UNL     1       3.797   0.931 -12.873  1.00  0.00     0.171 C 
BRANCH   2   3
ATOM      3  C   UNL     1       4.788  -0.242 -12.972  1.00  0.00     0.190 C 
BRANCH   3   4
ATOM      4  O   UNL     1       5.687  -0.039 -14.027  1.00  0.00    -0.394 OA
ATOM      5  H   UNL     1       6.434   0.497 -13.653  1.00  0.00     0.210 HD
ENDBRANCH   3   4
ENDBRANCH   2   3
BRANCH   2   6
ATOM      6  O   UNL     1       3.244   1.165 -14.145  1.00  0.00    -0.388 OA
ATOM      7  H   UNL     1       3.914   0.867 -14.814  1.00  0.00     0.211 HD
ENDBRANCH   2   6
ENDBRANCH   1   2
BRANCH   1   8
ATOM      8  C   UNL     1       3.441   3.389 -12.016  1.00  0.00     0.214 C 
BRANCH   8   9
ATOM      9  C   UNL     1       3.688   4.647 -12.832  1.00  0.00     0.189 C 
ATOM     10  O   UNL     1       4.548   5.434 -12.467  1.00  0.00    -0.294 OA
BRANCH   9  11
ATOM     11  C   UNL     1       2.908   4.974 -14.081  1.00  0.00     0.234 C 
BRANCH  11  12
ATOM     12  O   UNL     1       2.926   3.913 -14.994  1.00  0.00    -0.388 OA
ATOM     13  H   UNL     1       2.759   3.091 -14.465  1.00  0.00     0.211 HD
ENDBRANCH  11  12
ENDBRANCH   9  11
ENDBRANCH   8   9
BRANCH   8  14
ATOM     14  O   UNL     1       2.119   2.943 -12.184  1.00  0.00    -0.382 OA
ATOM     15  H   UNL     1       1.596   3.715 -12.527  1.00  0.00     0.211 HD
ENDBRANCH   8  14
ENDBRANCH   1   8
BRANCH   1  16
ATOM     16  O   UNL     1       5.336   2.732 -13.329  1.00  0.00    -0.387 OA
ATOM     17  H   UNL     1       5.248   2.150 -14.129  1.00  0.00     0.211 HD
ENDBRANCH   1  16
TORSDOF 10
ENDMDL
MODEL 6
REMARK VINA RESULT:    -3.230      6.529      8.531
REMARK INTER + INTRA:          -5.945
REMARK INTER:                  -4.505
REMARK INTRA:                  -1.440
REMARK UNBOUND:                -1.298
REMARK SMILES O=C(CO)[C@@H](O)[C@H](O)[C@@H](O)CO
REMARK SMILES IDX 7 1 9 2 11 3 12 4 10 6 5 8 2 9 1 10 3 11 4 12 6 14 8 16
REMARK H PARENT 12 5 10 7 4 13 6 15 8 17
REMARK Flexibility Score: inf
ROOT
ATOM      1  C   UNL     1       4.065   5.244 -13.207  1.00  0.00     0.181 C 
ENDROOT
BRANCH   1   2
ATOM      2  C   UNL     1       4.220   5.545 -14.725  1.00  0.00     0.171 C 
BRANCH   2   3
ATOM      3  C   UNL     1       3.773   6.963 -15.126  1.00  0.00     0.190 C 
BRANCH   3   4
ATOM      4  O   UNL     1       3.660   7.782 -13.995  1.00  0.00    -0.394 OA
ATOM      5  H   UNL     1       3.818   8.709 -14.310  1.00  0.00     0.210 HD
ENDBRANCH   3   4
ENDBRANCH   2   3
BRANCH   2   6
ATOM      6  O   UNL     1       3.461   4.609 -15.450  1.00  0.00    -0.388 OA
ATOM      7  H   UNL     1       3.243   3.867 -14.828  1.00  0.00     0.211 HD
ENDBRANCH   2   6
ENDBRANCH   1   2
BRANCH   1   8
ATOM      8  C   UNL     1       4.807   3.982 -12.698  1.00  0.00     0.214 C 
BRANCH   8   9
ATOM      9  C   UNL     1       3.861   2.943 -12.120  1.00  0.00     0.189 C 
ATOM     10  O   UNL     1       3.479   3.060 -10.966  1.00  0.00    -0.294 OA
BRANCH   9  11
ATOM     11  C   UNL     1       3.371   1.757 -12.914  1.00  0.00     0.234 C 
BRANCH  11  12
ATOM     12  O   UNL     1       2.825   2.148 -14.143  1.00  0.00    -0.388 OA
ATOM     13  H   UNL     1       1.853   1.960 -14.085  1.00  0.00     0.211 HD
ENDBRANCH  11  12
ENDBRANCH   9  11
ENDBRANCH   8   9
BRANCH   8  14
ATOM     14  O   UNL     1       5.583   3.426 -13.727  1.00  0.00    -0.382 OA
ATOM     15  H   UNL     1       4.973   2.872 -14.282  1.00  0.00     0.211 HD
ENDBRANCH   8  14
ENDBRANCH   1   8
BRANCH   1  16
ATOM     16  O   UNL     1       2.698   5.102 -12.907  1.00  0.00    -0.387 OA
ATOM     17  H   UNL     1       2.423   5.902 -12.387  1.00  0.00     0.211 HD
ENDBRANCH   1  16
TORSDOF 10
ENDMDL
MODEL 7
REMARK VINA RESULT:    -3.085      6.903      9.034
REMARK INTER + INTRA:          -5.737
REMARK INTER:                  -4.828
REMARK INTRA:                  -0.909
REMARK UNBOUND:                -1.298
REMARK SMILES O=C(CO)[C@@H](O)[C@H](O)[C@@H](O)CO
REMARK SMILES IDX 7 1 9 2 11 3 12 4 10 6 5 8 2 9 1 10 3 11 4 12 6 14 8 16
REMARK H PARENT 12 5 10 7 4 13 6 15 8 17
REMARK Flexibility Score: inf
ROOT
ATOM      1  C   UNL     1       3.227   4.555 -14.244  1.00  0.00     0.181 C 
ENDROOT
BRANCH   1   2
ATOM      2  C   UNL     1       3.243   5.187 -15.666  1.00  0.00     0.171 C 
BRANCH   2   3
ATOM      3  C   UNL     1       2.144   4.645 -16.598  1.00  0.00     0.190 C 
BRANCH   3   4
ATOM      4  O   UNL     1       2.636   3.590 -17.377  1.00  0.00    -0.394 OA
ATOM      5  H   UNL     1       2.330   2.756 -16.935  1.00  0.00     0.210 HD
ENDBRANCH   3   4
ENDBRANCH   2   3
BRANCH   2   6
ATOM      6  O   UNL     1       4.497   4.942 -16.253  1.00  0.00    -0.388 OA
ATOM      7  H   UNL     1       5.105   4.642 -15.529  1.00  0.00     0.211 HD
ENDBRANCH   2   6
ENDBRANCH   1   2
BRANCH   1   8
ATOM      8  C   UNL     1       4.524   4.741 -13.417  1.00  0.00     0.214 C 
BRANCH   8   9
ATOM      9  C   UNL     1       4.245   5.028 -11.951  1.00  0.00     0.189 C 
ATOM     10  O   UNL     1       4.706   6.039 -11.443  1.00  0.00    -0.294 OA
BRANCH   9  11
ATOM     11  C   UNL     1       3.421   4.109 -11.084  1.00  0.00     0.234 C 
BRANCH  11  12
ATOM     12  O   UNL     1       3.685   2.762 -11.362  1.00  0.00    -0.388 OA
ATOM     13  H   UNL     1       4.530   2.748 -11.882  1.00  0.00     0.211 HD
ENDBRANCH  11  12
ENDBRANCH   9  11
ENDBRANCH   8   9
BRANCH   8  14
ATOM     14  O   UNL     1       5.352   3.614 -13.551  1.00  0.00    -0.382 OA
ATOM     15  H   UNL     1       5.876   3.539 -12.710  1.00  0.00     0.211 HD
ENDBRANCH   8  14
ENDBRANCH   1   8
BRANCH   1  16
ATOM     16  O   UNL     1       2.973   3.176 -14.361  1.00  0.00    -0.387 OA
ATOM     17  H   UNL     1       2.797   2.828 -13.447  1.00  0.00     0.211 HD
ENDBRANCH   1  16
TORSDOF 10
ENDMDL
MODEL 8
REMARK VINA RESULT:    -3.031      1.629      3.990
REMARK INTER + INTRA:          -5.658
REMARK INTER:                  -4.293
REMARK INTRA:                  -1.365
REMARK UNBOUND:                -1.298
REMARK SMILES O=C(CO)[C@@H](O)[C@H](O)[C@@H](O)CO
REMARK SMILES IDX 7 1 9 2 11 3 12 4 10 6 5 8 2 9 1 10 3 11 4 12 6 14 8 16
REMARK H PARENT 12 5 10 7 4 13 6 15 8 17
REMARK Flexibility Score: inf
ROOT
ATOM      1  C   UNL     1       3.981  -1.946  -6.070  1.00  0.00     0.181 C 
ENDROOT
BRANCH   1   2
ATOM      2  C   UNL     1       4.745  -2.331  -4.770  1.00  0.00     0.171 C 
BRANCH   2   3
ATOM      3  C   UNL     1       3.863  -2.328  -3.508  1.00  0.00     0.190 C 
BRANCH   3   4
ATOM      4  O   UNL     1       3.898  -1.074  -2.886  1.00  0.00    -0.394 OA
ATOM      5  H   UNL     1       4.620  -1.123  -2.208  1.00  0.00     0.210 HD
ENDBRANCH   3   4
ENDBRANCH   2   3
BRANCH   2   6
ATOM      6  O   UNL     1       5.804  -1.425  -4.584  1.00  0.00    -0.388 OA
ATOM      7  H   UNL     1       6.396  -1.502  -5.378  1.00  0.00     0.211 HD
ENDBRANCH   2   6
ENDBRANCH   1   2
BRANCH   1   8
ATOM      8  C   UNL     1       4.798  -2.061  -7.382  1.00  0.00     0.214 C 
BRANCH   8   9
ATOM      9  C   UNL     1       4.777  -0.778  -8.196  1.00  0.00     0.189 C 
ATOM     10  O   UNL     1       3.798  -0.522  -8.881  1.00  0.00    -0.294 OA
BRANCH   9  11
ATOM     11  C   UNL     1       5.924   0.202  -8.202  1.00  0.00     0.234 C 
BRANCH  11  12
ATOM     12  O   UNL     1       6.275   0.594  -6.905  1.00  0.00    -0.388 OA
ATOM     13  H   UNL     1       6.066  -0.177  -6.317  1.00  0.00     0.211 HD
ENDBRANCH  11  12
ENDBRANCH   9  11
ENDBRANCH   8   9
BRANCH   8  14
ATOM     14  O   UNL     1       6.119  -2.446  -7.101  1.00  0.00    -0.382 OA
ATOM     15  H   UNL     1       6.129  -2.779  -6.165  1.00  0.00     0.211 HD
ENDBRANCH   8  14
ENDBRANCH   1   8
BRANCH   1  16
ATOM     16  O   UNL     1       3.521  -0.621  -5.952  1.00  0.00    -0.387 OA
ATOM     17  H   UNL     1       2.849  -0.604  -5.221  1.00  0.00     0.211 HD
ENDBRANCH   1  16
TORSDOF 10
ENDMDL
MODEL 9
REMARK VINA RESULT:    -2.951      2.087      3.181
REMARK INTER + INTRA:          -5.543
REMARK INTER:                  -4.260
REMARK INTRA:                  -1.284
REMARK UNBOUND:                -1.298
REMARK SMILES O=C(CO)[C@@H](O)[C@H](O)[C@@H](O)CO
REMARK SMILES IDX 7 1 9 2 11 3 12 4 10 6 5 8 2 9 1 10 3 11 4 12 6 14 8 16
REMARK H PARENT 12 5 10 7 4 13 6 15 8 17
REMARK Flexibility Score: inf
ROOT
ATOM      1  C   UNL     1       4.695  -1.506  -8.706  1.00  0.00     0.181 C 
ENDROOT
BRANCH   1   2
ATOM      2  C   UNL     1       4.101  -0.474  -7.705  1.00  0.00     0.171 C 
BRANCH   2   3
ATOM      3  C   UNL     1       4.686   0.942  -7.853  1.00  0.00     0.190 C 
BRANCH   3   4
ATOM      4  O   UNL     1       5.991   0.992  -7.348  1.00  0.00    -0.394 OA
ATOM      5  H   UNL     1       6.591   0.798  -8.114  1.00  0.00     0.210 HD
ENDBRANCH   3   4
ENDBRANCH   2   3
BRANCH   2   6
ATOM      6  O   UNL     1       4.341  -0.928  -6.395  1.00  0.00    -0.388 OA
ATOM      7  H   UNL     1       4.584  -1.888  -6.459  1.00  0.00     0.211 HD
ENDBRANCH   2   6
ENDBRANCH   1   2
BRANCH   1   8
ATOM      8  C   UNL     1       5.708  -2.513  -8.104  1.00  0.00     0.214 C 
BRANCH   8   9
ATOM      9  C   UNL     1       6.195  -3.530  -9.123  1.00  0.00     0.189 C 
ATOM     10  O   UNL     1       5.435  -4.413  -9.494  1.00  0.00    -0.294 OA
BRANCH   9  11
ATOM     11  C   UNL     1       7.588  -3.503  -9.699  1.00  0.00     0.234 C 
BRANCH  11  12
ATOM     12  O   UNL     1       7.993  -2.200 -10.012  1.00  0.00    -0.388 OA
ATOM     13  H   UNL     1       8.475  -2.261 -10.876  1.00  0.00     0.211 HD
ENDBRANCH  11  12
ENDBRANCH   9  11
ENDBRANCH   8   9
BRANCH   8  14
ATOM     14  O   UNL     1       6.793  -1.829  -7.533  1.00  0.00    -0.382 OA
ATOM     15  H   UNL     1       7.350  -2.507  -7.067  1.00  0.00     0.211 HD
ENDBRANCH   8  14
ENDBRANCH   1   8
BRANCH   1  16
ATOM     16  O   UNL     1       5.332  -0.813  -9.752  1.00  0.00    -0.387 OA
ATOM     17  H   UNL     1       6.125  -0.357  -9.365  1.00  0.00     0.211 HD
ENDBRANCH   1  16
TORSDOF 10
ENDMDL
