MODEL 1
REMARK VINA RESULT:    -8.670      0.000      0.000
REMARK INTER + INTRA:         -16.772
REMARK INTER:                 -14.245
REMARK INTRA:                  -2.527
REMARK UNBOUND:                -2.527
REMARK SMILES C[C@@H]1O[C@H](OC[C@H]2O[C@H](Oc3c(-c4ccc(O)c(O)c4)oc4cc(O)cc(O)c4c3=O)[C@@H](O)[C@H](O)[C@H]2O)[C@@H](O)[C@@H](O)[C@@H]1O
REMARK SMILES IDX 7 1 36 2 34 3 32 4 9 5 8 6 6 7 5 8 4 9 1 10 2 11 42 12 3 13
REMARK SMILES IDX 40 14 38 15 43 16 41 18 39 20 37 22 35 24 10 26 11 27 12 28
REMARK SMILES IDX 30 29 21 30 29 31 31 32 22 33 27 34 23 35 26 36 24 37 13 38
REMARK SMILES IDX 20 39 14 40 18 41 15 42 16 43 19 44 17 46 28 48 25 50 33 52
REMARK H PARENT 43 17 41 19 39 21 37 23 35 25 19 45 17 47 28 49 25 51 33 53
REMARK Flexibility Score: inf
ROOT
ATOM      1  C   UNL     1      24.399 -22.048  30.380  1.00  0.00     0.180 C 
ATOM      2  C   UNL     1      24.210 -21.862  31.906  1.00  0.00     0.177 C 
ATOM      3  C   UNL     1      23.986 -23.235  32.571  1.00  0.00     0.180 C 
ATOM      4  C   UNL     1      25.007 -24.295  32.081  1.00  0.00     0.214 C 
ATOM      5  C   UNL     1      25.267 -24.219  30.554  1.00  0.00     0.339 C 
ATOM      6  O   UNL     1      25.505 -22.893  30.110  1.00  0.00    -0.332 OA
ENDROOT
BRANCH   1   7
ATOM      7  C   UNL     1      24.606 -20.726  29.638  1.00  0.00     0.198 C 
BRANCH   7   8
ATOM      8  O   UNL     1      23.698 -19.750  30.121  1.00  0.00    -0.347 OA
BRANCH   8   9
ATOM      9  C   UNL     1      22.585 -19.585  29.255  1.00  0.00     0.281 C 
ATOM     10  C   UNL     1      20.176 -16.863  28.800  1.00  0.00     0.041 C 
ATOM     11  C   UNL     1      21.105 -18.003  28.376  1.00  0.00     0.150 C 
ATOM     12  C   UNL     1      21.912 -17.661  27.102  1.00  0.00     0.174 C 
ATOM     13  O   UNL     1      21.998 -18.300  29.429  1.00  0.00    -0.344 OA
ATOM     14  C   UNL     1      23.048 -18.699  26.874  1.00  0.00     0.179 C 
ATOM     15  C   UNL     1      22.928 -19.958  27.772  1.00  0.00     0.202 C 
BRANCH  12  16
ATOM     16  O   UNL     1      22.501 -16.385  27.229  1.00  0.00    -0.388 OA
ATOM     17  H   UNL     1      23.279 -16.469  27.843  1.00  0.00     0.211 HD
ENDBRANCH  12  16
BRANCH  14  18
ATOM     18  O   UNL     1      23.147 -19.059  25.517  1.00  0.00    -0.387 OA
ATOM     19  H   UNL     1      23.140 -20.052  25.460  1.00  0.00     0.211 HD
ENDBRANCH  14  18
BRANCH  15  20
ATOM     20  O   UNL     1      21.919 -20.798  27.263  1.00  0.00    -0.385 OA
ATOM     21  H   UNL     1      21.189 -20.226  26.908  1.00  0.00     0.211 HD
ENDBRANCH  15  20
ENDBRANCH   8   9
ENDBRANCH   7   8
ENDBRANCH   1   7
BRANCH   2  22
ATOM     22  O   UNL     1      25.275 -21.176  32.523  1.00  0.00    -0.387 OA
ATOM     23  H   UNL     1      25.503 -20.373  31.988  1.00  0.00     0.211 HD
ENDBRANCH   2  22
BRANCH   3  24
ATOM     24  O   UNL     1      22.678 -23.663  32.298  1.00  0.00    -0.387 OA
ATOM     25  H   UNL     1      22.433 -23.322  31.400  1.00  0.00     0.211 HD
ENDBRANCH   3  24
BRANCH   5  26
ATOM     26  O   UNL     1      24.193 -24.822  29.819  1.00  0.00    -0.454 OA
BRANCH  26  27
ATOM     27  C   UNL     1      24.299 -25.121  28.452  1.00  0.00     0.214 A 
ATOM     28  C   UNL     1      25.176 -26.121  27.969  1.00  0.00     0.180 A 
ATOM     29  C   UNL     1      23.548 -24.384  27.526  1.00  0.00     0.239 A 
ATOM     30  O   UNL     1      25.356 -26.258  26.658  1.00  0.00    -0.452 OA
ATOM     31  C   UNL     1      23.769 -24.561  26.146  1.00  0.00     0.111 A 
ATOM     32  O   UNL     1      22.693 -23.559  27.946  1.00  0.00    -0.285 OA
ATOM     33  C   UNL     1      24.720 -25.527  25.752  1.00  0.00     0.146 A 
ATOM     34  C   UNL     1      23.097 -23.806  25.154  1.00  0.00     0.134 A 
ATOM     35  C   UNL     1      24.998 -25.728  24.397  1.00  0.00     0.094 A 
ATOM     36  C   UNL     1      23.386 -24.026  23.798  1.00  0.00     0.093 A 
ATOM     37  C   UNL     1      24.339 -24.978  23.421  1.00  0.00     0.123 A 
BRANCH  28  38
ATOM     38  C   UNL     1      25.903 -27.047  28.864  1.00  0.00     0.025 A 
ATOM     39  C   UNL     1      25.217 -27.895  29.751  1.00  0.00     0.062 A 
ATOM     40  C   UNL     1      27.302 -27.111  28.799  1.00  0.00     0.016 A 
ATOM     41  C   UNL     1      25.916 -28.759  30.604  1.00  0.00     0.158 A 
ATOM     42  C   UNL     1      28.007 -27.978  29.637  1.00  0.00     0.051 A 
ATOM     43  C   UNL     1      27.331 -28.798  30.546  1.00  0.00     0.157 A 
BRANCH  41  44
ATOM     44  O   UNL     1      25.172 -29.549  31.484  1.00  0.00    -0.504 OA
ATOM     45  H   UNL     1      24.501 -30.244  31.189  1.00  0.00     0.293 HD
ENDBRANCH  41  44
BRANCH  43  46
ATOM     46  O   UNL     1      28.095 -29.630  31.366  1.00  0.00    -0.504 OA
ATOM     47  H   UNL     1      27.704 -30.300  32.015  1.00  0.00     0.293 HD
ENDBRANCH  43  46
ENDBRANCH  28  38
BRANCH  34  48
ATOM     48  O   UNL     1      22.156 -22.836  25.502  1.00  0.00    -0.507 OA
ATOM     49  H   UNL     1      21.664 -22.290  24.805  1.00  0.00     0.293 HD
ENDBRANCH  34  48
BRANCH  37  50
ATOM     50  O   UNL     1      24.635 -25.188  22.077  1.00  0.00    -0.508 OA
ATOM     51  H   UNL     1      24.612 -24.430  21.401  1.00  0.00     0.293 HD
ENDBRANCH  37  50
ENDBRANCH  26  27
ENDBRANCH   5  26
BRANCH   4  52
ATOM     52  O   UNL     1      26.205 -24.197  32.816  1.00  0.00    -0.384 OA
ATOM     53  H   UNL     1      26.661 -25.078  32.801  1.00  0.00     0.211 HD
ENDBRANCH   4  52
TORSDOF 16
ENDMDL
MODEL 2
REMARK VINA RESULT:    -8.628      1.795      5.839
REMARK INTER + INTRA:         -16.703
REMARK INTER:                 -14.773
REMARK INTRA:                  -1.931
REMARK UNBOUND:                -2.527
REMARK SMILES C[C@@H]1O[C@H](OC[C@H]2O[C@H](Oc3c(-c4ccc(O)c(O)c4)oc4cc(O)cc(O)c4c3=O)[C@@H](O)[C@H](O)[C@H]2O)[C@@H](O)[C@@H](O)[C@@H]1O
REMARK SMILES IDX 7 1 36 2 34 3 32 4 9 5 8 6 6 7 5 8 4 9 1 10 2 11 42 12 3 13
REMARK SMILES IDX 40 14 38 15 43 16 41 18 39 20 37 22 35 24 10 26 11 27 12 28
REMARK SMILES IDX 30 29 21 30 29 31 31 32 22 33 27 34 23 35 26 36 24 37 13 38
REMARK SMILES IDX 20 39 14 40 18 41 15 42 16 43 19 44 17 46 28 48 25 50 33 52
REMARK H PARENT 43 17 41 19 39 21 37 23 35 25 19 45 17 47 28 49 25 51 33 53
REMARK Flexibility Score: inf
ROOT
ATOM      1  C   UNL     1      23.441 -20.722  28.146  1.00  0.00     0.180 C 
ATOM      2  C   UNL     1      22.980 -20.191  26.766  1.00  0.00     0.177 C 
ATOM      3  C   UNL     1      23.359 -21.205  25.668  1.00  0.00     0.180 C 
ATOM      4  C   UNL     1      22.983 -22.657  26.059  1.00  0.00     0.214 C 
ATOM      5  C   UNL     1      23.301 -22.983  27.542  1.00  0.00     0.339 C 
ATOM      6  O   UNL     1      22.842 -21.975  28.428  1.00  0.00    -0.332 OA
ENDROOT
BRANCH   1   7
ATOM      7  C   UNL     1      23.121 -19.762  29.293  1.00  0.00     0.198 C 
BRANCH   7   8
ATOM      8  O   UNL     1      23.948 -18.613  29.211  1.00  0.00    -0.347 OA
BRANCH   8   9
ATOM      9  C   UNL     1      23.190 -17.413  29.180  1.00  0.00     0.281 C 
ATOM     10  C   UNL     1      19.690 -16.710  28.359  1.00  0.00     0.041 C 
ATOM     11  C   UNL     1      21.011 -16.567  29.118  1.00  0.00     0.150 C 
ATOM     12  C   UNL     1      20.801 -16.442  30.645  1.00  0.00     0.174 C 
ATOM     13  O   UNL     1      21.832 -17.684  28.849  1.00  0.00    -0.344 OA
ATOM     14  C   UNL     1      22.152 -16.601  31.401  1.00  0.00     0.179 C 
ATOM     15  C   UNL     1      23.393 -16.550  30.472  1.00  0.00     0.202 C 
BRANCH  12  16
ATOM     16  O   UNL     1      19.922 -17.449  31.098  1.00  0.00    -0.388 OA
ATOM     17  H   UNL     1      19.081 -17.375  30.573  1.00  0.00     0.211 HD
ENDBRANCH  12  16
BRANCH  14  18
ATOM     18  O   UNL     1      22.267 -15.663  32.444  1.00  0.00    -0.387 OA
ATOM     19  H   UNL     1      21.351 -15.430  32.752  1.00  0.00     0.211 HD
ENDBRANCH  14  18
BRANCH  15  20
ATOM     20  O   UNL     1      23.641 -15.215  30.100  1.00  0.00    -0.385 OA
ATOM     21  H   UNL     1      24.616 -15.044  30.188  1.00  0.00     0.211 HD
ENDBRANCH  15  20
ENDBRANCH   8   9
ENDBRANCH   7   8
ENDBRANCH   1   7
BRANCH   2  22
ATOM     22  O   UNL     1      21.604 -19.889  26.714  1.00  0.00    -0.387 OA
ATOM     23  H   UNL     1      21.392 -19.468  25.842  1.00  0.00     0.211 HD
ENDBRANCH   2  22
BRANCH   3  24
ATOM     24  O   UNL     1      24.738 -21.111  25.423  1.00  0.00    -0.387 OA
ATOM     25  H   UNL     1      25.204 -21.595  26.151  1.00  0.00     0.211 HD
ENDBRANCH   3  24
BRANCH   5  26
ATOM     26  O   UNL     1      24.703 -23.229  27.725  1.00  0.00    -0.454 OA
BRANCH  26  27
ATOM     27  C   UNL     1      25.184 -24.418  28.295  1.00  0.00     0.214 A 
ATOM     28  C   UNL     1      25.316 -25.609  27.543  1.00  0.00     0.180 A 
ATOM     29  C   UNL     1      25.506 -24.446  29.658  1.00  0.00     0.239 A 
ATOM     30  O   UNL     1      25.625 -26.745  28.163  1.00  0.00    -0.452 OA
ATOM     31  C   UNL     1      25.830 -25.670  30.276  1.00  0.00     0.111 A 
ATOM     32  O   UNL     1      25.485 -23.372  30.317  1.00  0.00    -0.285 OA
ATOM     33  C   UNL     1      25.863 -26.826  29.466  1.00  0.00     0.146 A 
ATOM     34  C   UNL     1      26.101 -25.787  31.661  1.00  0.00     0.134 A 
ATOM     35  C   UNL     1      26.155 -28.071  30.030  1.00  0.00     0.094 A 
ATOM     36  C   UNL     1      26.396 -27.046  32.208  1.00  0.00     0.093 A 
ATOM     37  C   UNL     1      26.415 -28.186  31.397  1.00  0.00     0.123 A 
BRANCH  28  38
ATOM     38  C   UNL     1      25.140 -25.653  26.076  1.00  0.00     0.025 A 
ATOM     39  C   UNL     1      24.205 -26.515  25.477  1.00  0.00     0.062 A 
ATOM     40  C   UNL     1      25.891 -24.789  25.266  1.00  0.00     0.016 A 
ATOM     41  C   UNL     1      24.055 -26.558  24.085  1.00  0.00     0.158 A 
ATOM     42  C   UNL     1      25.741 -24.816  23.878  1.00  0.00     0.051 A 
ATOM     43  C   UNL     1      24.838 -25.697  23.275  1.00  0.00     0.157 A 
BRANCH  41  44
ATOM     44  O   UNL     1      23.132 -27.463  23.555  1.00  0.00    -0.504 OA
ATOM     45  H   UNL     1      22.453 -27.965  24.109  1.00  0.00     0.293 HD
ENDBRANCH  41  44
BRANCH  43  46
ATOM     46  O   UNL     1      24.747 -25.686  21.882  1.00  0.00    -0.504 OA
ATOM     47  H   UNL     1      24.465 -26.482  21.326  1.00  0.00     0.293 HD
ENDBRANCH  43  46
ENDBRANCH  28  38
BRANCH  34  48
ATOM     48  O   UNL     1      26.070 -24.671  32.498  1.00  0.00    -0.507 OA
ATOM     49  H   UNL     1      26.891 -24.101  32.664  1.00  0.00     0.293 HD
ENDBRANCH  34  48
BRANCH  37  50
ATOM     50  O   UNL     1      26.696 -29.436  31.940  1.00  0.00    -0.508 OA
ATOM     51  H   UNL     1      26.066 -29.884  32.600  1.00  0.00     0.293 HD
ENDBRANCH  37  50
ENDBRANCH  26  27
ENDBRANCH   5  26
BRANCH   4  52
ATOM     52  O   UNL     1      21.633 -22.913  25.750  1.00  0.00    -0.384 OA
ATOM     53  H   UNL     1      21.264 -22.132  25.261  1.00  0.00     0.211 HD
ENDBRANCH   4  52
TORSDOF 16
ENDMDL
MODEL 3
REMARK VINA RESULT:    -8.546      2.071      8.165
REMARK INTER + INTRA:         -16.569
REMARK INTER:                 -14.742
REMARK INTRA:                  -1.827
REMARK UNBOUND:                -2.527
REMARK SMILES C[C@@H]1O[C@H](OC[C@H]2O[C@H](Oc3c(-c4ccc(O)c(O)c4)oc4cc(O)cc(O)c4c3=O)[C@@H](O)[C@H](O)[C@H]2O)[C@@H](O)[C@@H](O)[C@@H]1O
REMARK SMILES IDX 7 1 36 2 34 3 32 4 9 5 8 6 6 7 5 8 4 9 1 10 2 11 42 12 3 13
REMARK SMILES IDX 40 14 38 15 43 16 41 18 39 20 37 22 35 24 10 26 11 27 12 28
REMARK SMILES IDX 30 29 21 30 29 31 31 32 22 33 27 34 23 35 26 36 24 37 13 38
REMARK SMILES IDX 20 39 14 40 18 41 15 42 16 43 19 44 17 46 28 48 25 50 33 52
REMARK H PARENT 43 17 41 19 39 21 37 23 35 25 19 45 17 47 28 49 25 51 33 53
REMARK Flexibility Score: inf
ROOT
ATOM      1  C   UNL     1      25.053 -25.892  29.973  1.00  0.00     0.180 C 
ATOM      2  C   UNL     1      25.749 -27.023  29.176  1.00  0.00     0.177 C 
ATOM      3  C   UNL     1      25.617 -26.748  27.664  1.00  0.00     0.180 C 
ATOM      4  C   UNL     1      25.960 -25.279  27.305  1.00  0.00     0.214 C 
ATOM      5  C   UNL     1      25.379 -24.260  28.321  1.00  0.00     0.339 C 
ATOM      6  O   UNL     1      25.630 -24.634  29.667  1.00  0.00    -0.332 OA
ENDROOT
BRANCH   1   7
ATOM      7  C   UNL     1      25.120 -26.100  31.487  1.00  0.00     0.198 C 
BRANCH   7   8
ATOM      8  O   UNL     1      26.262 -25.448  32.018  1.00  0.00    -0.347 OA
BRANCH   8   9
ATOM      9  C   UNL     1      26.815 -26.156  33.117  1.00  0.00     0.281 C 
ATOM     10  C   UNL     1      25.362 -28.442  35.582  1.00  0.00     0.041 C 
ATOM     11  C   UNL     1      26.422 -27.905  34.617  1.00  0.00     0.150 C 
ATOM     12  C   UNL     1      27.091 -29.029  33.794  1.00  0.00     0.174 C 
ATOM     13  O   UNL     1      25.829 -26.972  33.738  1.00  0.00    -0.344 OA
ATOM     14  C   UNL     1      27.932 -28.432  32.630  1.00  0.00     0.179 C 
ATOM     15  C   UNL     1      28.141 -26.899  32.736  1.00  0.00     0.202 C 
BRANCH  12  16
ATOM     16  O   UNL     1      26.109 -29.876  33.239  1.00  0.00    -0.388 OA
ATOM     17  H   UNL     1      26.575 -30.564  32.692  1.00  0.00     0.211 HD
ENDBRANCH  12  16
BRANCH  14  18
ATOM     18  O   UNL     1      29.165 -29.098  32.495  1.00  0.00    -0.387 OA
ATOM     19  H   UNL     1      29.044 -30.036  32.802  1.00  0.00     0.211 HD
ENDBRANCH  14  18
BRANCH  15  20
ATOM     20  O   UNL     1      29.117 -26.630  33.714  1.00  0.00    -0.385 OA
ATOM     21  H   UNL     1      29.780 -26.000  33.326  1.00  0.00     0.211 HD
ENDBRANCH  15  20
ENDBRANCH   8   9
ENDBRANCH   7   8
ENDBRANCH   1   7
BRANCH   2  22
ATOM     22  O   UNL     1      27.099 -27.212  29.533  1.00  0.00    -0.387 OA
ATOM     23  H   UNL     1      27.168 -27.317  30.516  1.00  0.00     0.211 HD
ENDBRANCH   2  22
BRANCH   3  24
ATOM     24  O   UNL     1      24.306 -27.050  27.262  1.00  0.00    -0.387 OA
ATOM     25  H   UNL     1      23.818 -26.194  27.167  1.00  0.00     0.211 HD
ENDBRANCH   3  24
BRANCH   5  26
ATOM     26  O   UNL     1      23.977 -24.054  28.098  1.00  0.00    -0.454 OA
BRANCH  26  27
ATOM     27  C   UNL     1      23.458 -22.810  27.707  1.00  0.00     0.214 A 
ATOM     28  C   UNL     1      23.412 -22.409  26.351  1.00  0.00     0.180 A 
ATOM     29  C   UNL     1      23.009 -21.914  28.686  1.00  0.00     0.239 A 
ATOM     30  O   UNL     1      23.058 -21.163  26.047  1.00  0.00    -0.452 OA
ATOM     31  C   UNL     1      22.642 -20.604  28.322  1.00  0.00     0.111 A 
ATOM     32  O   UNL     1      22.954 -22.292  29.887  1.00  0.00    -0.285 OA
ATOM     33  C   UNL     1      22.700 -20.263  26.953  1.00  0.00     0.146 A 
ATOM     34  C   UNL     1      22.242 -19.623  29.263  1.00  0.00     0.134 A 
ATOM     35  C   UNL     1      22.370 -18.970  26.536  1.00  0.00     0.094 A 
ATOM     36  C   UNL     1      21.911 -18.332  28.824  1.00  0.00     0.093 A 
ATOM     37  C   UNL     1      21.983 -18.003  27.466  1.00  0.00     0.123 A 
BRANCH  28  38
ATOM     38  C   UNL     1      23.726 -23.327  25.235  1.00  0.00     0.025 A 
ATOM     39  C   UNL     1      23.272 -24.657  25.232  1.00  0.00     0.062 A 
ATOM     40  C   UNL     1      24.459 -22.851  24.138  1.00  0.00     0.016 A 
ATOM     41  C   UNL     1      23.586 -25.522  24.176  1.00  0.00     0.158 A 
ATOM     42  C   UNL     1      24.767 -23.702  23.075  1.00  0.00     0.051 A 
ATOM     43  C   UNL     1      24.348 -25.037  23.084  1.00  0.00     0.157 A 
BRANCH  41  44
ATOM     44  O   UNL     1      23.131 -26.841  24.254  1.00  0.00    -0.504 OA
ATOM     45  H   UNL     1      23.483 -27.520  24.913  1.00  0.00     0.293 HD
ENDBRANCH  41  44
BRANCH  43  46
ATOM     46  O   UNL     1      24.703 -25.839  21.998  1.00  0.00    -0.504 OA
ATOM     47  H   UNL     1      24.188 -25.877  21.129  1.00  0.00     0.293 HD
ENDBRANCH  43  46
ENDBRANCH  28  38
BRANCH  34  48
ATOM     48  O   UNL     1      22.181 -19.918  30.626  1.00  0.00    -0.507 OA
ATOM     49  H   UNL     1      21.928 -19.219  31.315  1.00  0.00     0.293 HD
ENDBRANCH  34  48
BRANCH  37  50
ATOM     50  O   UNL     1      21.667 -16.720  27.032  1.00  0.00    -0.508 OA
ATOM     51  H   UNL     1      20.704 -16.424  26.900  1.00  0.00     0.293 HD
ENDBRANCH  37  50
ENDBRANCH  26  27
ENDBRANCH   5  26
BRANCH   4  52
ATOM     52  O   UNL     1      27.351 -25.124  27.155  1.00  0.00    -0.384 OA
ATOM     53  H   UNL     1      27.804 -25.927  27.524  1.00  0.00     0.211 HD
ENDBRANCH   4  52
TORSDOF 16
ENDMDL
MODEL 4
REMARK VINA RESULT:    -8.497      1.889      5.790
REMARK INTER + INTRA:         -16.489
REMARK INTER:                 -14.742
REMARK INTRA:                  -1.747
REMARK UNBOUND:                -2.527
REMARK SMILES C[C@@H]1O[C@H](OC[C@H]2O[C@H](Oc3c(-c4ccc(O)c(O)c4)oc4cc(O)cc(O)c4c3=O)[C@@H](O)[C@H](O)[C@H]2O)[C@@H](O)[C@@H](O)[C@@H]1O
REMARK SMILES IDX 7 1 36 2 34 3 32 4 9 5 8 6 6 7 5 8 4 9 1 10 2 11 42 12 3 13
REMARK SMILES IDX 40 14 38 15 43 16 41 18 39 20 37 22 35 24 10 26 11 27 12 28
REMARK SMILES IDX 30 29 21 30 29 31 31 32 22 33 27 34 23 35 26 36 24 37 13 38
REMARK SMILES IDX 20 39 14 40 18 41 15 42 16 43 19 44 17 46 28 48 25 50 33 52
REMARK H PARENT 43 17 41 19 39 21 37 23 35 25 19 45 17 47 28 49 25 51 33 53
REMARK Flexibility Score: inf
ROOT
ATOM      1  C   UNL     1      23.366 -20.742  28.232  1.00  0.00     0.180 C 
ATOM      2  C   UNL     1      22.932 -20.190  26.852  1.00  0.00     0.177 C 
ATOM      3  C   UNL     1      23.343 -21.181  25.745  1.00  0.00     0.180 C 
ATOM      4  C   UNL     1      22.968 -22.643  26.102  1.00  0.00     0.214 C 
ATOM      5  C   UNL     1      23.253 -22.992  27.585  1.00  0.00     0.339 C 
ATOM      6  O   UNL     1      22.768 -22.003  28.479  1.00  0.00    -0.332 OA
ENDROOT
BRANCH   1   7
ATOM      7  C   UNL     1      23.013 -19.804  29.388  1.00  0.00     0.198 C 
BRANCH   7   8
ATOM      8  O   UNL     1      21.607 -19.763  29.569  1.00  0.00    -0.347 OA
BRANCH   8   9
ATOM      9  C   UNL     1      21.152 -18.459  29.901  1.00  0.00     0.281 C 
ATOM     10  C   UNL     1      20.138 -16.913  33.063  1.00  0.00     0.041 C 
ATOM     11  C   UNL     1      20.795 -16.988  31.682  1.00  0.00     0.150 C 
ATOM     12  C   UNL     1      22.177 -16.297  31.651  1.00  0.00     0.174 C 
ATOM     13  O   UNL     1      20.940 -18.341  31.303  1.00  0.00    -0.344 OA
ATOM     14  C   UNL     1      22.938 -16.648  30.340  1.00  0.00     0.179 C 
ATOM     15  C   UNL     1      22.052 -17.340  29.273  1.00  0.00     0.202 C 
BRANCH  12  16
ATOM     16  O   UNL     1      22.960 -16.726  32.744  1.00  0.00    -0.388 OA
ATOM     17  H   UNL     1      23.896 -16.830  32.424  1.00  0.00     0.211 HD
ENDBRANCH  12  16
BRANCH  14  18
ATOM     18  O   UNL     1      23.579 -15.515  29.802  1.00  0.00    -0.387 OA
ATOM     19  H   UNL     1      23.643 -14.829  30.518  1.00  0.00     0.211 HD
ENDBRANCH  14  18
BRANCH  15  20
ATOM     20  O   UNL     1      21.228 -16.378  28.658  1.00  0.00    -0.385 OA
ATOM     21  H   UNL     1      21.135 -16.617  27.698  1.00  0.00     0.211 HD
ENDBRANCH  15  20
ENDBRANCH   8   9
ENDBRANCH   7   8
ENDBRANCH   1   7
BRANCH   2  22
ATOM     22  O   UNL     1      21.556 -19.895  26.773  1.00  0.00    -0.387 OA
ATOM     23  H   UNL     1      21.035 -20.653  27.140  1.00  0.00     0.211 HD
ENDBRANCH   2  22
BRANCH   3  24
ATOM     24  O   UNL     1      24.727 -21.075  25.533  1.00  0.00    -0.387 OA
ATOM     25  H   UNL     1      24.951 -21.628  24.742  1.00  0.00     0.211 HD
ENDBRANCH   3  24
BRANCH   5  26
ATOM     26  O   UNL     1      24.653 -23.233  27.797  1.00  0.00    -0.454 OA
BRANCH  26  27
ATOM     27  C   UNL     1      25.127 -24.425  28.365  1.00  0.00     0.214 A 
ATOM     28  C   UNL     1      25.265 -25.613  27.609  1.00  0.00     0.180 A 
ATOM     29  C   UNL     1      25.437 -24.461  29.731  1.00  0.00     0.239 A 
ATOM     30  O   UNL     1      25.568 -26.752  28.226  1.00  0.00    -0.452 OA
ATOM     31  C   UNL     1      25.754 -25.687  30.346  1.00  0.00     0.111 A 
ATOM     32  O   UNL     1      25.411 -23.390  30.396  1.00  0.00    -0.285 OA
ATOM     33  C   UNL     1      25.794 -26.839  29.530  1.00  0.00     0.146 A 
ATOM     34  C   UNL     1      26.013 -25.812  31.733  1.00  0.00     0.134 A 
ATOM     35  C   UNL     1      26.080 -28.088  30.091  1.00  0.00     0.094 A 
ATOM     36  C   UNL     1      26.302 -27.073  32.276  1.00  0.00     0.093 A 
ATOM     37  C   UNL     1      26.328 -28.209  31.460  1.00  0.00     0.123 A 
BRANCH  28  38
ATOM     38  C   UNL     1      25.103 -25.649  26.140  1.00  0.00     0.025 A 
ATOM     39  C   UNL     1      24.170 -26.505  25.528  1.00  0.00     0.062 A 
ATOM     40  C   UNL     1      25.865 -24.785  25.341  1.00  0.00     0.016 A 
ATOM     41  C   UNL     1      24.033 -26.541  24.135  1.00  0.00     0.158 A 
ATOM     42  C   UNL     1      25.727 -24.805  23.952  1.00  0.00     0.051 A 
ATOM     43  C   UNL     1      24.826 -25.680  23.336  1.00  0.00     0.157 A 
BRANCH  41  44
ATOM     44  O   UNL     1      23.111 -27.439  23.592  1.00  0.00    -0.504 OA
ATOM     45  H   UNL     1      23.331 -28.099  22.859  1.00  0.00     0.293 HD
ENDBRANCH  41  44
BRANCH  43  46
ATOM     46  O   UNL     1      24.748 -25.662  21.943  1.00  0.00    -0.504 OA
ATOM     47  H   UNL     1      24.105 -26.225  21.404  1.00  0.00     0.293 HD
ENDBRANCH  43  46
ENDBRANCH  28  38
BRANCH  34  48
ATOM     48  O   UNL     1      25.975 -24.699  32.575  1.00  0.00    -0.507 OA
ATOM     49  H   UNL     1      25.270 -23.978  32.478  1.00  0.00     0.293 HD
ENDBRANCH  34  48
BRANCH  37  50
ATOM     50  O   UNL     1      26.603 -29.462  31.999  1.00  0.00    -0.508 OA
ATOM     51  H   UNL     1      25.963 -30.243  31.887  1.00  0.00     0.293 HD
ENDBRANCH  37  50
ENDBRANCH  26  27
ENDBRANCH   5  26
BRANCH   4  52
ATOM     52  O   UNL     1      21.627 -22.901  25.758  1.00  0.00    -0.384 OA
ATOM     53  H   UNL     1      21.260 -22.110  25.284  1.00  0.00     0.211 HD
ENDBRANCH   4  52
TORSDOF 16
ENDMDL
MODEL 5
REMARK VINA RESULT:    -8.374      2.472      8.051
REMARK INTER + INTRA:         -16.286
REMARK INTER:                 -14.300
REMARK INTRA:                  -1.987
REMARK UNBOUND:                -2.527
REMARK SMILES C[C@@H]1O[C@H](OC[C@H]2O[C@H](Oc3c(-c4ccc(O)c(O)c4)oc4cc(O)cc(O)c4c3=O)[C@@H](O)[C@H](O)[C@H]2O)[C@@H](O)[C@@H](O)[C@@H]1O
REMARK SMILES IDX 7 1 36 2 34 3 32 4 9 5 8 6 6 7 5 8 4 9 1 10 2 11 42 12 3 13
REMARK SMILES IDX 40 14 38 15 43 16 41 18 39 20 37 22 35 24 10 26 11 27 12 28
REMARK SMILES IDX 30 29 21 30 29 31 31 32 22 33 27 34 23 35 26 36 24 37 13 38
REMARK SMILES IDX 20 39 14 40 18 41 15 42 16 43 19 44 17 46 28 48 25 50 33 52
REMARK H PARENT 43 17 41 19 39 21 37 23 35 25 19 45 17 47 28 49 25 51 33 53
REMARK Flexibility Score: inf
ROOT
ATOM      1  C   UNL     1      24.990 -25.509  30.822  1.00  0.00     0.180 C 
ATOM      2  C   UNL     1      24.110 -25.569  32.095  1.00  0.00     0.177 C 
ATOM      3  C   UNL     1      23.039 -24.461  32.037  1.00  0.00     0.180 C 
ATOM      4  C   UNL     1      22.331 -24.405  30.659  1.00  0.00     0.214 C 
ATOM      5  C   UNL     1      23.313 -24.581  29.471  1.00  0.00     0.339 C 
ATOM      6  O   UNL     1      24.199 -25.674  29.657  1.00  0.00    -0.332 OA
ENDROOT
BRANCH   1   7
ATOM      7  C   UNL     1      26.096 -26.566  30.810  1.00  0.00     0.198 C 
BRANCH   7   8
ATOM      8  O   UNL     1      26.267 -27.105  32.111  1.00  0.00    -0.347 OA
BRANCH   8   9
ATOM      9  C   UNL     1      27.622 -27.049  32.534  1.00  0.00     0.281 C 
ATOM     10  C   UNL     1      29.577 -24.482  34.267  1.00  0.00     0.041 C 
ATOM     11  C   UNL     1      29.113 -25.898  33.918  1.00  0.00     0.150 C 
ATOM     12  C   UNL     1      28.951 -26.789  35.172  1.00  0.00     0.174 C 
ATOM     13  O   UNL     1      27.883 -25.834  33.228  1.00  0.00    -0.344 OA
ATOM     14  C   UNL     1      28.201 -28.105  34.818  1.00  0.00     0.179 C 
ATOM     15  C   UNL     1      28.059 -28.349  33.293  1.00  0.00     0.202 C 
BRANCH  12  16
ATOM     16  O   UNL     1      28.205 -26.109  36.158  1.00  0.00    -0.388 OA
ATOM     17  H   UNL     1      28.644 -26.271  37.035  1.00  0.00     0.211 HD
ENDBRANCH  12  16
BRANCH  14  18
ATOM     18  O   UNL     1      28.792 -29.216  35.450  1.00  0.00    -0.387 OA
ATOM     19  H   UNL     1      29.701 -28.951  35.752  1.00  0.00     0.211 HD
ENDBRANCH  14  18
BRANCH  15  20
ATOM     20  O   UNL     1      29.291 -28.791  32.776  1.00  0.00    -0.385 OA
ATOM     21  H   UNL     1      29.784 -29.257  33.502  1.00  0.00     0.211 HD
ENDBRANCH  15  20
ENDBRANCH   8   9
ENDBRANCH   7   8
ENDBRANCH   1   7
BRANCH   2  22
ATOM     22  O   UNL     1      23.515 -26.829  32.307  1.00  0.00    -0.387 OA
ATOM     23  H   UNL     1      24.174 -27.542  32.108  1.00  0.00     0.211 HD
ENDBRANCH   2  22
BRANCH   3  24
ATOM     24  O   UNL     1      23.647 -23.228  32.320  1.00  0.00    -0.387 OA
ATOM     25  H   UNL     1      23.260 -22.892  33.168  1.00  0.00     0.211 HD
ENDBRANCH   3  24
BRANCH   5  26
ATOM     26  O   UNL     1      24.039 -23.369  29.220  1.00  0.00    -0.454 OA
BRANCH  26  27
ATOM     27  C   UNL     1      23.453 -22.267  28.577  1.00  0.00     0.214 A 
ATOM     28  C   UNL     1      23.121 -22.292  27.201  1.00  0.00     0.180 A 
ATOM     29  C   UNL     1      23.224 -21.090  29.301  1.00  0.00     0.239 A 
ATOM     30  O   UNL     1      22.714 -21.174  26.605  1.00  0.00    -0.452 OA
ATOM     31  C   UNL     1      22.792 -19.928  28.631  1.00  0.00     0.111 A 
ATOM     32  O   UNL     1      23.425 -21.084  30.545  1.00  0.00    -0.285 OA
ATOM     33  C   UNL     1      22.558 -20.021  27.242  1.00  0.00     0.146 A 
ATOM     34  C   UNL     1      22.604 -18.685  29.284  1.00  0.00     0.134 A 
ATOM     35  C   UNL     1      22.151 -18.894  26.521  1.00  0.00     0.094 A 
ATOM     36  C   UNL     1      22.191 -17.567  28.544  1.00  0.00     0.093 A 
ATOM     37  C   UNL     1      21.973 -17.668  27.165  1.00  0.00     0.123 A 
BRANCH  28  38
ATOM     38  C   UNL     1      23.188 -23.522  26.384  1.00  0.00     0.025 A 
ATOM     39  C   UNL     1      22.027 -24.235  26.039  1.00  0.00     0.062 A 
ATOM     40  C   UNL     1      24.431 -23.966  25.910  1.00  0.00     0.016 A 
ATOM     41  C   UNL     1      22.103 -25.406  25.275  1.00  0.00     0.158 A 
ATOM     42  C   UNL     1      24.516 -25.127  25.138  1.00  0.00     0.051 A 
ATOM     43  C   UNL     1      23.367 -25.859  24.821  1.00  0.00     0.157 A 
BRANCH  41  44
ATOM     44  O   UNL     1      20.913 -26.083  24.997  1.00  0.00    -0.504 OA
ATOM     45  H   UNL     1      20.576 -26.873  25.529  1.00  0.00     0.293 HD
ENDBRANCH  41  44
BRANCH  43  46
ATOM     46  O   UNL     1      23.522 -27.018  24.059  1.00  0.00    -0.504 OA
ATOM     47  H   UNL     1      22.993 -27.868  24.205  1.00  0.00     0.293 HD
ENDBRANCH  43  46
ENDBRANCH  28  38
BRANCH  34  48
ATOM     48  O   UNL     1      22.833 -18.550  30.654  1.00  0.00    -0.507 OA
ATOM     49  H   UNL     1      23.129 -17.673  31.064  1.00  0.00     0.293 HD
ENDBRANCH  34  48
BRANCH  37  50
ATOM     50  O   UNL     1      21.575 -16.556  26.429  1.00  0.00    -0.508 OA
ATOM     51  H   UNL     1      21.460 -16.599  25.420  1.00  0.00     0.293 HD
ENDBRANCH  37  50
ENDBRANCH  26  27
ENDBRANCH   5  26
BRANCH   4  52
ATOM     52  O   UNL     1      21.283 -25.344  30.608  1.00  0.00    -0.384 OA
ATOM     53  H   UNL     1      20.503 -24.926  30.158  1.00  0.00     0.211 HD
ENDBRANCH   4  52
TORSDOF 16
ENDMDL
MODEL 6
REMARK VINA RESULT:    -8.367      1.835      7.996
REMARK INTER + INTRA:         -16.275
REMARK INTER:                 -13.102
REMARK INTRA:                  -3.173
REMARK UNBOUND:                -2.527
REMARK SMILES C[C@@H]1O[C@H](OC[C@H]2O[C@H](Oc3c(-c4ccc(O)c(O)c4)oc4cc(O)cc(O)c4c3=O)[C@@H](O)[C@H](O)[C@H]2O)[C@@H](O)[C@@H](O)[C@@H]1O
REMARK SMILES IDX 7 1 36 2 34 3 32 4 9 5 8 6 6 7 5 8 4 9 1 10 2 11 42 12 3 13
REMARK SMILES IDX 40 14 38 15 43 16 41 18 39 20 37 22 35 24 10 26 11 27 12 28
REMARK SMILES IDX 30 29 21 30 29 31 31 32 22 33 27 34 23 35 26 36 24 37 13 38
REMARK SMILES IDX 20 39 14 40 18 41 15 42 16 43 19 44 17 46 28 48 25 50 33 52
REMARK H PARENT 43 17 41 19 39 21 37 23 35 25 19 45 17 47 28 49 25 51 33 53
REMARK Flexibility Score: inf
ROOT
ATOM      1  C   UNL     1      23.895 -25.706  27.891  1.00  0.00     0.180 C 
ATOM      2  C   UNL     1      23.754 -26.524  26.584  1.00  0.00     0.177 C 
ATOM      3  C   UNL     1      23.059 -25.666  25.507  1.00  0.00     0.180 C 
ATOM      4  C   UNL     1      23.662 -24.240  25.418  1.00  0.00     0.214 C 
ATOM      5  C   UNL     1      23.960 -23.625  26.811  1.00  0.00     0.339 C 
ATOM      6  O   UNL     1      24.647 -24.525  27.665  1.00  0.00    -0.332 OA
ENDROOT
BRANCH   1   7
ATOM      7  C   UNL     1      24.557 -26.495  29.021  1.00  0.00     0.198 C 
BRANCH   7   8
ATOM      8  O   UNL     1      25.919 -26.119  29.144  1.00  0.00    -0.347 OA
BRANCH   8   9
ATOM      9  C   UNL     1      26.673 -27.081  29.867  1.00  0.00     0.281 C 
ATOM     10  C   UNL     1      28.647 -26.883  32.946  1.00  0.00     0.041 C 
ATOM     11  C   UNL     1      27.692 -27.509  31.926  1.00  0.00     0.150 C 
ATOM     12  C   UNL     1      26.493 -28.215  32.600  1.00  0.00     0.174 C 
ATOM     13  O   UNL     1      27.215 -26.508  31.052  1.00  0.00    -0.344 OA
ATOM     14  C   UNL     1      25.403 -28.572  31.549  1.00  0.00     0.179 C 
ATOM     15  C   UNL     1      25.880 -28.415  30.082  1.00  0.00     0.202 C 
BRANCH  12  16
ATOM     16  O   UNL     1      25.911 -27.367  33.567  1.00  0.00    -0.388 OA
ATOM     17  H   UNL     1      26.639 -27.039  34.160  1.00  0.00     0.211 HD
ENDBRANCH  12  16
BRANCH  14  18
ATOM     18  O   UNL     1      24.881 -29.860  31.772  1.00  0.00    -0.387 OA
ATOM     19  H   UNL     1      24.458 -29.870  32.671  1.00  0.00     0.211 HD
ENDBRANCH  14  18
BRANCH  15  20
ATOM     20  O   UNL     1      26.708 -29.502  29.743  1.00  0.00    -0.385 OA
ATOM     21  H   UNL     1      26.184 -30.127  29.176  1.00  0.00     0.211 HD
ENDBRANCH  15  20
ENDBRANCH   8   9
ENDBRANCH   7   8
ENDBRANCH   1   7
BRANCH   2  22
ATOM     22  O   UNL     1      24.979 -27.031  26.105  1.00  0.00    -0.387 OA
ATOM     23  H   UNL     1      25.727 -26.581  26.573  1.00  0.00     0.211 HD
ENDBRANCH   2  22
BRANCH   3  24
ATOM     24  O   UNL     1      21.689 -25.594  25.800  1.00  0.00    -0.387 OA
ATOM     25  H   UNL     1      21.387 -24.673  25.597  1.00  0.00     0.211 HD
ENDBRANCH   3  24
BRANCH   5  26
ATOM     26  O   UNL     1      22.757 -23.147  27.430  1.00  0.00    -0.454 OA
BRANCH  26  27
ATOM     27  C   UNL     1      22.693 -21.903  28.077  1.00  0.00     0.214 A 
ATOM     28  C   UNL     1      22.643 -21.793  29.487  1.00  0.00     0.180 A 
ATOM     29  C   UNL     1      22.636 -20.732  27.311  1.00  0.00     0.239 A 
ATOM     30  O   UNL     1      22.426 -20.605  30.044  1.00  0.00    -0.452 OA
ATOM     31  C   UNL     1      22.407 -19.493  27.940  1.00  0.00     0.111 A 
ATOM     32  O   UNL     1      22.777 -20.807  26.060  1.00  0.00    -0.285 OA
ATOM     33  C   UNL     1      22.291 -19.484  29.348  1.00  0.00     0.146 A 
ATOM     34  C   UNL     1      22.271 -18.277  27.227  1.00  0.00     0.134 A 
ATOM     35  C   UNL     1      22.038 -18.287  30.025  1.00  0.00     0.094 A 
ATOM     36  C   UNL     1      22.021 -17.085  27.925  1.00  0.00     0.093 A 
ATOM     37  C   UNL     1      21.898 -17.091  29.318  1.00  0.00     0.123 A 
BRANCH  28  38
ATOM     38  C   UNL     1      22.839 -22.950  30.386  1.00  0.00     0.025 A 
ATOM     39  C   UNL     1      24.096 -23.237  30.945  1.00  0.00     0.062 A 
ATOM     40  C   UNL     1      21.741 -23.754  30.723  1.00  0.00     0.016 A 
ATOM     41  C   UNL     1      24.274 -24.343  31.786  1.00  0.00     0.158 A 
ATOM     42  C   UNL     1      21.905 -24.852  31.570  1.00  0.00     0.051 A 
ATOM     43  C   UNL     1      23.162 -25.163  32.099  1.00  0.00     0.157 A 
BRANCH  41  44
ATOM     44  O   UNL     1      25.558 -24.589  32.279  1.00  0.00    -0.504 OA
ATOM     45  H   UNL     1      25.775 -25.311  32.950  1.00  0.00     0.293 HD
ENDBRANCH  41  44
BRANCH  43  46
ATOM     46  O   UNL     1      23.262 -26.283  32.927  1.00  0.00    -0.504 OA
ATOM     47  H   UNL     1      22.758 -27.146  32.776  1.00  0.00     0.293 HD
ENDBRANCH  43  46
ENDBRANCH  28  38
BRANCH  34  48
ATOM     48  O   UNL     1      22.369 -18.245  25.835  1.00  0.00    -0.507 OA
ATOM     49  H   UNL     1      22.051 -17.450  25.293  1.00  0.00     0.293 HD
ENDBRANCH  34  48
BRANCH  37  50
ATOM     50  O   UNL     1      21.639 -15.911  30.010  1.00  0.00    -0.508 OA
ATOM     51  H   UNL     1      20.690 -15.591  30.182  1.00  0.00     0.293 HD
ENDBRANCH  37  50
ENDBRANCH  26  27
ENDBRANCH   5  26
BRANCH   4  52
ATOM     52  O   UNL     1      24.807 -24.243  24.598  1.00  0.00    -0.384 OA
ATOM     53  H   UNL     1      25.551 -24.680  25.090  1.00  0.00     0.211 HD
ENDBRANCH   4  52
TORSDOF 16
ENDMDL
MODEL 7
REMARK VINA RESULT:    -8.346      2.193      6.319
REMARK INTER + INTRA:         -16.241
REMARK INTER:                 -14.168
REMARK INTRA:                  -2.072
REMARK UNBOUND:                -2.527
REMARK SMILES C[C@@H]1O[C@H](OC[C@H]2O[C@H](Oc3c(-c4ccc(O)c(O)c4)oc4cc(O)cc(O)c4c3=O)[C@@H](O)[C@H](O)[C@H]2O)[C@@H](O)[C@@H](O)[C@@H]1O
REMARK SMILES IDX 7 1 36 2 34 3 32 4 9 5 8 6 6 7 5 8 4 9 1 10 2 11 42 12 3 13
REMARK SMILES IDX 40 14 38 15 43 16 41 18 39 20 37 22 35 24 10 26 11 27 12 28
REMARK SMILES IDX 30 29 21 30 29 31 31 32 22 33 27 34 23 35 26 36 24 37 13 38
REMARK SMILES IDX 20 39 14 40 18 41 15 42 16 43 19 44 17 46 28 48 25 50 33 52
REMARK H PARENT 43 17 41 19 39 21 37 23 35 25 19 45 17 47 28 49 25 51 33 53
REMARK Flexibility Score: inf
ROOT
ATOM      1  C   UNL     1      24.115 -20.277  27.775  1.00  0.00     0.180 C 
ATOM      2  C   UNL     1      23.639 -19.799  26.381  1.00  0.00     0.177 C 
ATOM      3  C   UNL     1      23.742 -20.960  25.372  1.00  0.00     0.180 C 
ATOM      4  C   UNL     1      23.152 -22.278  25.936  1.00  0.00     0.214 C 
ATOM      5  C   UNL     1      23.532 -22.520  27.420  1.00  0.00     0.339 C 
ATOM      6  O   UNL     1      23.332 -21.370  28.225  1.00  0.00    -0.332 OA
ENDROOT
BRANCH   1   7
ATOM      7  C   UNL     1      24.065 -19.175  28.834  1.00  0.00     0.198 C 
BRANCH   7   8
ATOM      8  O   UNL     1      25.380 -18.792  29.200  1.00  0.00    -0.347 OA
BRANCH   8   9
ATOM      9  C   UNL     1      25.763 -19.336  30.454  1.00  0.00     0.281 C 
ATOM     10  C   UNL     1      28.430 -18.488  32.818  1.00  0.00     0.041 C 
ATOM     11  C   UNL     1      27.031 -18.924  32.374  1.00  0.00     0.150 C 
ATOM     12  C   UNL     1      25.915 -18.260  33.213  1.00  0.00     0.174 C 
ATOM     13  O   UNL     1      26.847 -18.602  31.012  1.00  0.00    -0.344 OA
ATOM     14  C   UNL     1      24.524 -18.484  32.553  1.00  0.00     0.179 C 
ATOM     15  C   UNL     1      24.539 -19.535  31.412  1.00  0.00     0.202 C 
BRANCH  12  16
ATOM     16  O   UNL     1      26.139 -16.870  33.306  1.00  0.00    -0.388 OA
ATOM     17  H   UNL     1      25.254 -16.417  33.272  1.00  0.00     0.211 HD
ENDBRANCH  12  16
BRANCH  14  18
ATOM     18  O   UNL     1      23.547 -18.803  33.515  1.00  0.00    -0.387 OA
ATOM     19  H   UNL     1      22.754 -19.168  33.040  1.00  0.00     0.211 HD
ENDBRANCH  14  18
BRANCH  15  20
ATOM     20  O   UNL     1      24.596 -20.826  31.970  1.00  0.00    -0.385 OA
ATOM     21  H   UNL     1      24.446 -20.748  32.949  1.00  0.00     0.211 HD
ENDBRANCH  15  20
ENDBRANCH   8   9
ENDBRANCH   7   8
ENDBRANCH   1   7
BRANCH   2  22
ATOM     22  O   UNL     1      22.337 -19.257  26.389  1.00  0.00    -0.387 OA
ATOM     23  H   UNL     1      21.708 -19.917  26.777  1.00  0.00     0.211 HD
ENDBRANCH   2  22
BRANCH   3  24
ATOM     24  O   UNL     1      25.090 -21.141  25.027  1.00  0.00    -0.387 OA
ATOM     25  H   UNL     1      25.206 -22.090  24.766  1.00  0.00     0.211 HD
ENDBRANCH   3  24
BRANCH   5  26
ATOM     26  O   UNL     1      24.880 -23.000  27.534  1.00  0.00    -0.454 OA
BRANCH  26  27
ATOM     27  C   UNL     1      25.188 -24.217  28.162  1.00  0.00     0.214 A 
ATOM     28  C   UNL     1      25.181 -25.445  27.460  1.00  0.00     0.180 A 
ATOM     29  C   UNL     1      25.472 -24.230  29.534  1.00  0.00     0.239 A 
ATOM     30  O   UNL     1      25.326 -26.585  28.131  1.00  0.00    -0.452 OA
ATOM     31  C   UNL     1      25.620 -25.458  30.207  1.00  0.00     0.111 A 
ATOM     32  O   UNL     1      25.577 -23.136  30.151  1.00  0.00    -0.285 OA
ATOM     33  C   UNL     1      25.521 -26.641  29.442  1.00  0.00     0.146 A 
ATOM     34  C   UNL     1      25.842 -25.553  31.603  1.00  0.00     0.134 A 
ATOM     35  C   UNL     1      25.635 -27.890  30.061  1.00  0.00     0.094 A 
ATOM     36  C   UNL     1      25.958 -26.816  32.205  1.00  0.00     0.093 A 
ATOM     37  C   UNL     1      25.847 -27.981  31.438  1.00  0.00     0.123 A 
BRANCH  28  38
ATOM     38  C   UNL     1      25.035 -25.526  25.991  1.00  0.00     0.025 A 
ATOM     39  C   UNL     1      24.161 -26.450  25.393  1.00  0.00     0.062 A 
ATOM     40  C   UNL     1      25.752 -24.637  25.178  1.00  0.00     0.016 A 
ATOM     41  C   UNL     1      24.039 -26.527  24.000  1.00  0.00     0.158 A 
ATOM     42  C   UNL     1      25.628 -24.698  23.788  1.00  0.00     0.051 A 
ATOM     43  C   UNL     1      24.787 -25.640  23.187  1.00  0.00     0.157 A 
BRANCH  41  44
ATOM     44  O   UNL     1      23.178 -27.493  23.472  1.00  0.00    -0.504 OA
ATOM     45  H   UNL     1      22.468 -27.296  22.781  1.00  0.00     0.293 HD
ENDBRANCH  41  44
BRANCH  43  46
ATOM     46  O   UNL     1      24.721 -25.659  21.793  1.00  0.00    -0.504 OA
ATOM     47  H   UNL     1      25.504 -25.461  21.185  1.00  0.00     0.293 HD
ENDBRANCH  43  46
ENDBRANCH  28  38
BRANCH  34  48
ATOM     48  O   UNL     1      25.937 -24.408  32.395  1.00  0.00    -0.507 OA
ATOM     49  H   UNL     1      25.150 -24.058  32.928  1.00  0.00     0.293 HD
ENDBRANCH  34  48
BRANCH  37  50
ATOM     50  O   UNL     1      25.950 -29.233  32.036  1.00  0.00    -0.508 OA
ATOM     51  H   UNL     1      26.090 -30.076  31.486  1.00  0.00     0.293 HD
ENDBRANCH  37  50
ENDBRANCH  26  27
ENDBRANCH   5  26
BRANCH   4  52
ATOM     52  O   UNL     1      21.757 -22.311  25.746  1.00  0.00    -0.384 OA
ATOM     53  H   UNL     1      21.559 -22.824  24.920  1.00  0.00     0.211 HD
ENDBRANCH   4  52
TORSDOF 16
ENDMDL
MODEL 8
REMARK VINA RESULT:    -8.335      2.711      6.509
REMARK INTER + INTRA:         -16.223
REMARK INTER:                 -13.461
REMARK INTRA:                  -2.762
REMARK UNBOUND:                -2.527
REMARK SMILES C[C@@H]1O[C@H](OC[C@H]2O[C@H](Oc3c(-c4ccc(O)c(O)c4)oc4cc(O)cc(O)c4c3=O)[C@@H](O)[C@H](O)[C@H]2O)[C@@H](O)[C@@H](O)[C@@H]1O
REMARK SMILES IDX 7 1 36 2 34 3 32 4 9 5 8 6 6 7 5 8 4 9 1 10 2 11 42 12 3 13
REMARK SMILES IDX 40 14 38 15 43 16 41 18 39 20 37 22 35 24 10 26 11 27 12 28
REMARK SMILES IDX 30 29 21 30 29 31 31 32 22 33 27 34 23 35 26 36 24 37 13 38
REMARK SMILES IDX 20 39 14 40 18 41 15 42 16 43 19 44 17 46 28 48 25 50 33 52
REMARK H PARENT 43 17 41 19 39 21 37 23 35 25 19 45 17 47 28 49 25 51 33 53
REMARK Flexibility Score: inf
ROOT
ATOM      1  C   UNL     1      24.930 -23.826  32.577  1.00  0.00     0.180 C 
ATOM      2  C   UNL     1      23.607 -23.127  32.979  1.00  0.00     0.177 C 
ATOM      3  C   UNL     1      22.691 -23.004  31.745  1.00  0.00     0.180 C 
ATOM      4  C   UNL     1      22.606 -24.330  30.946  1.00  0.00     0.214 C 
ATOM      5  C   UNL     1      23.979 -25.039  30.811  1.00  0.00     0.339 C 
ATOM      6  O   UNL     1      24.675 -25.114  32.045  1.00  0.00    -0.332 OA
ENDROOT
BRANCH   1   7
ATOM      7  C   UNL     1      25.908 -23.968  33.745  1.00  0.00     0.198 C 
BRANCH   7   8
ATOM      8  O   UNL     1      25.610 -25.137  34.490  1.00  0.00    -0.347 OA
BRANCH   8   9
ATOM      9  C   UNL     1      26.770 -25.698  35.085  1.00  0.00     0.281 C 
ATOM     10  C   UNL     1      27.325 -28.728  37.068  1.00  0.00     0.041 C 
ATOM     11  C   UNL     1      27.643 -27.651  36.027  1.00  0.00     0.150 C 
ATOM     12  C   UNL     1      28.246 -28.246  34.733  1.00  0.00     0.174 C 
ATOM     13  O   UNL     1      26.465 -26.940  35.710  1.00  0.00    -0.344 OA
ATOM     14  C   UNL     1      28.276 -27.180  33.600  1.00  0.00     0.179 C 
ATOM     15  C   UNL     1      27.984 -25.739  34.095  1.00  0.00     0.202 C 
BRANCH  12  16
ATOM     16  O   UNL     1      27.468 -29.336  34.291  1.00  0.00    -0.388 OA
ATOM     17  H   UNL     1      28.087 -30.086  34.082  1.00  0.00     0.211 HD
ENDBRANCH  12  16
BRANCH  14  18
ATOM     18  O   UNL     1      29.487 -27.229  32.884  1.00  0.00    -0.387 OA
ATOM     19  H   UNL     1      29.600 -26.362  32.411  1.00  0.00     0.211 HD
ENDBRANCH  14  18
BRANCH  15  20
ATOM     20  O   UNL     1      29.125 -25.230  34.743  1.00  0.00    -0.385 OA
ATOM     21  H   UNL     1      29.906 -25.784  34.478  1.00  0.00     0.211 HD
ENDBRANCH  15  20
ENDBRANCH   8   9
ENDBRANCH   7   8
ENDBRANCH   1   7
BRANCH   2  22
ATOM     22  O   UNL     1      22.935 -23.766  34.040  1.00  0.00    -0.387 OA
ATOM     23  H   UNL     1      23.592 -24.038  34.730  1.00  0.00     0.211 HD
ENDBRANCH   2  22
BRANCH   3  24
ATOM     24  O   UNL     1      23.174 -21.974  30.923  1.00  0.00    -0.387 OA
ATOM     25  H   UNL     1      22.425 -21.346  30.760  1.00  0.00     0.211 HD
ENDBRANCH   3  24
BRANCH   5  26
ATOM     26  O   UNL     1      24.786 -24.410  29.804  1.00  0.00    -0.454 OA
BRANCH  26  27
ATOM     27  C   UNL     1      24.720 -24.784  28.453  1.00  0.00     0.214 A 
ATOM     28  C   UNL     1      25.393 -25.926  27.958  1.00  0.00     0.180 A 
ATOM     29  C   UNL     1      24.002 -23.986  27.553  1.00  0.00     0.239 A 
ATOM     30  O   UNL     1      25.428 -26.148  26.646  1.00  0.00    -0.452 OA
ATOM     31  C   UNL     1      24.064 -24.257  26.172  1.00  0.00     0.111 A 
ATOM     32  O   UNL     1      23.319 -23.022  27.994  1.00  0.00    -0.285 OA
ATOM     33  C   UNL     1      24.824 -25.372  25.756  1.00  0.00     0.146 A 
ATOM     34  C   UNL     1      23.420 -23.456  25.197  1.00  0.00     0.134 A 
ATOM     35  C   UNL     1      24.941 -25.675  24.396  1.00  0.00     0.094 A 
ATOM     36  C   UNL     1      23.547 -23.778  23.837  1.00  0.00     0.093 A 
ATOM     37  C   UNL     1      24.311 -24.880  23.437  1.00  0.00     0.123 A 
BRANCH  28  38
ATOM     38  C   UNL     1      26.057 -26.908  28.840  1.00  0.00     0.025 A 
ATOM     39  C   UNL     1      25.312 -27.784  29.649  1.00  0.00     0.062 A 
ATOM     40  C   UNL     1      27.456 -26.998  28.842  1.00  0.00     0.016 A 
ATOM     41  C   UNL     1      25.951 -28.703  30.492  1.00  0.00     0.158 A 
ATOM     42  C   UNL     1      28.102 -27.919  29.670  1.00  0.00     0.051 A 
ATOM     43  C   UNL     1      27.366 -28.768  30.503  1.00  0.00     0.157 A 
BRANCH  41  44
ATOM     44  O   UNL     1      25.150 -29.520  31.294  1.00  0.00    -0.504 OA
ATOM     45  H   UNL     1      24.237 -29.855  31.022  1.00  0.00     0.293 HD
ENDBRANCH  41  44
BRANCH  43  46
ATOM     46  O   UNL     1      28.073 -29.654  31.318  1.00  0.00    -0.504 OA
ATOM     47  H   UNL     1      29.036 -29.523  31.597  1.00  0.00     0.293 HD
ENDBRANCH  43  46
ENDBRANCH  28  38
BRANCH  34  48
ATOM     48  O   UNL     1      22.668 -22.340  25.567  1.00  0.00    -0.507 OA
ATOM     49  H   UNL     1      21.871 -22.027  25.025  1.00  0.00     0.293 HD
ENDBRANCH  34  48
BRANCH  37  50
ATOM     50  O   UNL     1      24.447 -25.194  22.088  1.00  0.00    -0.508 OA
ATOM     51  H   UNL     1      23.706 -25.659  21.572  1.00  0.00     0.293 HD
ENDBRANCH  37  50
ENDBRANCH  26  27
ENDBRANCH   5  26
BRANCH   4  52
ATOM     52  O   UNL     1      21.638 -25.181  31.512  1.00  0.00    -0.384 OA
ATOM     53  H   UNL     1      22.043 -26.077  31.653  1.00  0.00     0.211 HD
ENDBRANCH   4  52
TORSDOF 16
ENDMDL
MODEL 9
REMARK VINA RESULT:    -8.232      1.747      7.758
REMARK INTER + INTRA:         -16.053
REMARK INTER:                 -14.211
REMARK INTRA:                  -1.841
REMARK UNBOUND:                -2.527
REMARK SMILES C[C@@H]1O[C@H](OC[C@H]2O[C@H](Oc3c(-c4ccc(O)c(O)c4)oc4cc(O)cc(O)c4c3=O)[C@@H](O)[C@H](O)[C@H]2O)[C@@H](O)[C@@H](O)[C@@H]1O
REMARK SMILES IDX 7 1 36 2 34 3 32 4 9 5 8 6 6 7 5 8 4 9 1 10 2 11 42 12 3 13
REMARK SMILES IDX 40 14 38 15 43 16 41 18 39 20 37 22 35 24 10 26 11 27 12 28
REMARK SMILES IDX 30 29 21 30 29 31 31 32 22 33 27 34 23 35 26 36 24 37 13 38
REMARK SMILES IDX 20 39 14 40 18 41 15 42 16 43 19 44 17 46 28 48 25 50 33 52
REMARK H PARENT 43 17 41 19 39 21 37 23 35 25 19 45 17 47 28 49 25 51 33 53
REMARK Flexibility Score: inf
ROOT
ATOM      1  C   UNL     1      23.129 -24.331  31.315  1.00  0.00     0.180 C 
ATOM      2  C   UNL     1      22.880 -23.431  32.550  1.00  0.00     0.177 C 
ATOM      3  C   UNL     1      23.120 -21.955  32.172  1.00  0.00     0.180 C 
ATOM      4  C   UNL     1      22.431 -21.575  30.836  1.00  0.00     0.214 C 
ATOM      5  C   UNL     1      22.573 -22.675  29.752  1.00  0.00     0.339 C 
ATOM      6  O   UNL     1      22.269 -23.968  30.248  1.00  0.00    -0.332 OA
ENDROOT
BRANCH   1   7
ATOM      7  C   UNL     1      22.933 -25.819  31.611  1.00  0.00     0.198 C 
BRANCH   7   8
ATOM      8  O   UNL     1      24.070 -26.335  32.282  1.00  0.00    -0.347 OA
BRANCH   8   9
ATOM      9  C   UNL     1      24.730 -27.333  31.518  1.00  0.00     0.281 C 
ATOM     10  C   UNL     1      27.455 -27.190  29.074  1.00  0.00     0.041 C 
ATOM     11  C   UNL     1      26.635 -27.764  30.232  1.00  0.00     0.150 C 
ATOM     12  C   UNL     1      27.526 -28.309  31.371  1.00  0.00     0.174 C 
ATOM     13  O   UNL     1      25.781 -26.763  30.745  1.00  0.00    -0.344 OA
ATOM     14  C   UNL     1      26.678 -28.603  32.641  1.00  0.00     0.179 C 
ATOM     15  C   UNL     1      25.148 -28.567  32.389  1.00  0.00     0.202 C 
BRANCH  12  16
ATOM     16  O   UNL     1      28.514 -27.361  31.711  1.00  0.00    -0.388 OA
ATOM     17  H   UNL     1      28.341 -27.064  32.644  1.00  0.00     0.211 HD
ENDBRANCH  12  16
BRANCH  14  18
ATOM     18  O   UNL     1      27.059 -29.819  33.241  1.00  0.00    -0.387 OA
ATOM     19  H   UNL     1      26.862 -30.553  32.601  1.00  0.00     0.211 HD
ENDBRANCH  14  18
BRANCH  15  20
ATOM     20  O   UNL     1      24.758 -29.749  31.730  1.00  0.00    -0.385 OA
ATOM     21  H   UNL     1      24.616 -29.537  30.770  1.00  0.00     0.211 HD
ENDBRANCH  15  20
ENDBRANCH   8   9
ENDBRANCH   7   8
ENDBRANCH   1   7
BRANCH   2  22
ATOM     22  O   UNL     1      21.602 -23.600  33.118  1.00  0.00    -0.387 OA
ATOM     23  H   UNL     1      21.309 -22.747  33.532  1.00  0.00     0.211 HD
ENDBRANCH   2  22
BRANCH   3  24
ATOM     24  O   UNL     1      24.502 -21.729  32.084  1.00  0.00    -0.387 OA
ATOM     25  H   UNL     1      24.818 -21.457  32.983  1.00  0.00     0.211 HD
ENDBRANCH   3  24
BRANCH   5  26
ATOM     26  O   UNL     1      23.880 -22.646  29.159  1.00  0.00    -0.454 OA
BRANCH  26  27
ATOM     27  C   UNL     1      24.092 -22.944  27.804  1.00  0.00     0.214 A 
ATOM     28  C   UNL     1      24.020 -21.952  26.798  1.00  0.00     0.180 A 
ATOM     29  C   UNL     1      24.343 -24.269  27.423  1.00  0.00     0.239 A 
ATOM     30  O   UNL     1      24.073 -22.311  25.518  1.00  0.00    -0.452 OA
ATOM     31  C   UNL     1      24.392 -24.608  26.056  1.00  0.00     0.111 A 
ATOM     32  O   UNL     1      24.505 -25.146  28.314  1.00  0.00    -0.285 OA
ATOM     33  C   UNL     1      24.232 -23.565  25.116  1.00  0.00     0.146 A 
ATOM     34  C   UNL     1      24.575 -25.934  25.595  1.00  0.00     0.134 A 
ATOM     35  C   UNL     1      24.249 -23.846  23.747  1.00  0.00     0.094 A 
ATOM     36  C   UNL     1      24.592 -26.195  24.216  1.00  0.00     0.093 A 
ATOM     37  C   UNL     1      24.421 -25.156  23.295  1.00  0.00     0.123 A 
BRANCH  28  38
ATOM     38  C   UNL     1      23.904 -20.510  27.103  1.00  0.00     0.025 A 
ATOM     39  C   UNL     1      22.946 -19.703  26.465  1.00  0.00     0.062 A 
ATOM     40  C   UNL     1      24.737 -19.943  28.077  1.00  0.00     0.016 A 
ATOM     41  C   UNL     1      22.852 -18.335  26.752  1.00  0.00     0.158 A 
ATOM     42  C   UNL     1      24.644 -18.583  28.379  1.00  0.00     0.051 A 
ATOM     43  C   UNL     1      23.717 -17.768  27.721  1.00  0.00     0.157 A 
BRANCH  41  44
ATOM     44  O   UNL     1      21.900 -17.585  26.056  1.00  0.00    -0.504 OA
ATOM     45  H   UNL     1      21.219 -17.985  25.427  1.00  0.00     0.293 HD
ENDBRANCH  41  44
BRANCH  43  46
ATOM     46  O   UNL     1      23.684 -16.414  28.058  1.00  0.00    -0.504 OA
ATOM     47  H   UNL     1      23.258 -15.698  27.485  1.00  0.00     0.293 HD
ENDBRANCH  43  46
ENDBRANCH  28  38
BRANCH  34  48
ATOM     48  O   UNL     1      24.727 -26.992  26.491  1.00  0.00    -0.507 OA
ATOM     49  H   UNL     1      24.014 -27.703  26.609  1.00  0.00     0.293 HD
ENDBRANCH  34  48
BRANCH  37  50
ATOM     50  O   UNL     1      24.427 -25.415  21.927  1.00  0.00    -0.508 OA
ATOM     51  H   UNL     1      23.719 -26.001  21.493  1.00  0.00     0.293 HD
ENDBRANCH  37  50
ENDBRANCH  26  27
ENDBRANCH   5  26
BRANCH   4  52
ATOM     52  O   UNL     1      21.081 -21.240  31.059  1.00  0.00    -0.384 OA
ATOM     53  H   UNL     1      21.015 -20.260  31.205  1.00  0.00     0.211 HD
ENDBRANCH   4  52
TORSDOF 16
ENDMDL
