MODEL 1
REMARK VINA RESULT:    -4.230      0.000      0.000
REMARK INTER + INTRA:          -6.356
REMARK INTER:                  -5.714
REMARK INTRA:                  -0.642
REMARK UNBOUND:                -0.642
REMARK SMILES CCCCCCC=CC(=O)[O-]
REMARK SMILES IDX 5 1 6 2 7 3 8 4 9 5 10 6 11 7 4 8 3 9 2 10 1 11
REMARK H PARENT
REMARK Flexibility Score: inf
ROOT
ATOM      1  C   UNL     1       8.103   2.705  19.266  1.00  0.00     0.004 C 
ENDROOT
BRANCH   1   2
ATOM      2  C   UNL     1       6.891   2.926  18.354  1.00  0.00     0.027 C 
BRANCH   2   3
ATOM      3  C   UNL     1       6.570   4.387  18.219  1.00  0.00    -0.025 C 
ATOM      4  C   UNL     1       7.423   5.238  17.638  1.00  0.00     0.020 C 
BRANCH   4   5
ATOM      5  C   UNL     1       7.136   6.676  17.507  1.00  0.00     0.064 C 
ATOM      6  O   UNL     1       6.055   7.166  17.930  1.00  0.00    -0.545 OA
ATOM      7  O   UNL     1       8.072   7.507  16.906  1.00  0.00    -0.545 OA
ENDBRANCH   4   5
ENDBRANCH   2   3
ENDBRANCH   1   2
BRANCH   1   8
ATOM      8  C   UNL     1       7.822   3.209  20.687  1.00  0.00     0.000 C 
BRANCH   8   9
ATOM      9  C   UNL     1       8.909   4.186  21.150  1.00  0.00    -0.000 C 
BRANCH   9  10
ATOM     10  C   UNL     1       8.329   5.250  22.088  1.00  0.00    -0.003 C 
ATOM     11  C   UNL     1       7.196   6.019  21.415  1.00  0.00     0.004 C 
ENDBRANCH   9  10
ENDBRANCH   8   9
ENDBRANCH   1   8
TORSDOF 6
ENDMDL
MODEL 2
REMARK VINA RESULT:    -4.189      0.974      1.549
REMARK INTER + INTRA:          -6.300
REMARK INTER:                  -5.612
REMARK INTRA:                  -0.688
REMARK UNBOUND:                -0.642
REMARK SMILES CCCCCCC=CC(=O)[O-]
REMARK SMILES IDX 5 1 6 2 7 3 8 4 9 5 10 6 11 7 4 8 3 9 2 10 1 11
REMARK H PARENT
REMARK Flexibility Score: inf
ROOT
ATOM      1  C   UNL     1       8.461   3.644  20.496  1.00  0.00     0.004 C 
ENDROOT
BRANCH   1   2
ATOM      2  C   UNL     1       7.270   3.242  19.619  1.00  0.00     0.027 C 
BRANCH   2   3
ATOM      3  C   UNL     1       6.759   4.410  18.825  1.00  0.00    -0.025 C 
ATOM      4  C   UNL     1       7.505   5.504  18.635  1.00  0.00     0.020 C 
BRANCH   4   5
ATOM      5  C   UNL     1       7.021   6.666  17.872  1.00  0.00     0.064 C 
ATOM      6  O   UNL     1       7.768   7.267  17.055  1.00  0.00    -0.545 OA
ATOM      7  O   UNL     1       5.717   7.108  18.056  1.00  0.00    -0.545 OA
ENDBRANCH   4   5
ENDBRANCH   2   3
ENDBRANCH   1   2
BRANCH   1   8
ATOM      8  C   UNL     1       8.142   3.446  21.983  1.00  0.00     0.000 C 
BRANCH   8   9
ATOM      9  C   UNL     1       8.166   4.782  22.735  1.00  0.00    -0.000 C 
BRANCH   9  10
ATOM     10  C   UNL     1       6.745   5.303  22.975  1.00  0.00    -0.003 C 
ATOM     11  C   UNL     1       6.378   6.389  21.968  1.00  0.00     0.004 C 
ENDBRANCH   9  10
ENDBRANCH   8   9
ENDBRANCH   1   8
TORSDOF 6
ENDMDL
MODEL 3
REMARK VINA RESULT:    -4.144     13.378     14.803
REMARK INTER + INTRA:          -6.239
REMARK INTER:                  -5.897
REMARK INTRA:                  -0.341
REMARK UNBOUND:                -0.642
REMARK SMILES CCCCCCC=CC(=O)[O-]
REMARK SMILES IDX 5 1 6 2 7 3 8 4 9 5 10 6 11 7 4 8 3 9 2 10 1 11
REMARK H PARENT
REMARK Flexibility Score: inf
ROOT
ATOM      1  C   UNL     1      12.394  -2.208   7.220  1.00  0.00     0.004 C 
ENDROOT
BRANCH   1   2
ATOM      2  C   UNL     1      11.468  -3.407   6.981  1.00  0.00     0.027 C 
BRANCH   2   3
ATOM      3  C   UNL     1      10.427  -3.514   8.058  1.00  0.00    -0.025 C 
ATOM      4  C   UNL     1       9.947  -2.429   8.676  1.00  0.00     0.020 C 
BRANCH   4   5
ATOM      5  C   UNL     1       8.937  -2.511   9.743  1.00  0.00     0.064 C 
ATOM      6  O   UNL     1       9.152  -3.172  10.794  1.00  0.00    -0.545 OA
ATOM      7  O   UNL     1       7.726  -1.849   9.589  1.00  0.00    -0.545 OA
ENDBRANCH   4   5
ENDBRANCH   2   3
ENDBRANCH   1   2
BRANCH   1   8
ATOM      8  C   UNL     1      13.788  -2.669   7.662  1.00  0.00     0.000 C 
BRANCH   8   9
ATOM      9  C   UNL     1      14.323  -3.769   6.737  1.00  0.00    -0.000 C 
BRANCH   9  10
ATOM     10  C   UNL     1      15.786  -4.093   7.059  1.00  0.00    -0.003 C 
ATOM     11  C   UNL     1      16.189  -3.528   8.418  1.00  0.00     0.004 C 
ENDBRANCH   9  10
ENDBRANCH   8   9
ENDBRANCH   1   8
TORSDOF 6
ENDMDL
MODEL 4
REMARK VINA RESULT:    -4.133      3.425      5.243
REMARK INTER + INTRA:          -6.224
REMARK INTER:                  -5.878
REMARK INTRA:                  -0.346
REMARK UNBOUND:                -0.642
REMARK SMILES CCCCCCC=CC(=O)[O-]
REMARK SMILES IDX 5 1 6 2 7 3 8 4 9 5 10 6 11 7 4 8 3 9 2 10 1 11
REMARK H PARENT
REMARK Flexibility Score: inf
ROOT
ATOM      1  C   UNL     1       7.131   1.215  18.655  1.00  0.00     0.004 C 
ENDROOT
BRANCH   1   2
ATOM      2  C   UNL     1       8.444   1.883  18.228  1.00  0.00     0.027 C 
BRANCH   2   3
ATOM      3  C   UNL     1       8.576   3.256  18.823  1.00  0.00    -0.025 C 
ATOM      4  C   UNL     1       8.356   3.476  20.124  1.00  0.00     0.020 C 
BRANCH   4   5
ATOM      5  C   UNL     1       8.465   4.815  20.726  1.00  0.00     0.064 C 
ATOM      6  O   UNL     1       9.185   5.016  21.740  1.00  0.00    -0.545 OA
ATOM      7  O   UNL     1       7.762   5.874  20.168  1.00  0.00    -0.545 OA
ENDBRANCH   4   5
ENDBRANCH   2   3
ENDBRANCH   1   2
BRANCH   1   8
ATOM      8  C   UNL     1       7.170  -0.294  18.388  1.00  0.00     0.000 C 
BRANCH   8   9
ATOM      9  C   UNL     1       8.614  -0.799  18.290  1.00  0.00    -0.000 C 
BRANCH   9  10
ATOM     10  C   UNL     1       8.661  -2.218  17.711  1.00  0.00    -0.003 C 
ATOM     11  C   UNL     1       8.086  -2.257  16.298  1.00  0.00     0.004 C 
ENDBRANCH   9  10
ENDBRANCH   8   9
ENDBRANCH   1   8
TORSDOF 6
ENDMDL
MODEL 5
REMARK VINA RESULT:    -4.116      2.694      4.376
REMARK INTER + INTRA:          -6.201
REMARK INTER:                  -5.733
REMARK INTRA:                  -0.468
REMARK UNBOUND:                -0.642
REMARK SMILES CCCCCCC=CC(=O)[O-]
REMARK SMILES IDX 5 1 6 2 7 3 8 4 9 5 10 6 11 7 4 8 3 9 2 10 1 11
REMARK H PARENT
REMARK Flexibility Score: inf
ROOT
ATOM      1  C   UNL     1       6.774   2.907  18.471  1.00  0.00     0.004 C 
ENDROOT
BRANCH   1   2
ATOM      2  C   UNL     1       8.230   3.067  18.926  1.00  0.00     0.027 C 
BRANCH   2   3
ATOM      3  C   UNL     1       8.310   3.400  20.388  1.00  0.00    -0.025 C 
ATOM      4  C   UNL     1       8.501   4.656  20.808  1.00  0.00     0.020 C 
BRANCH   4   5
ATOM      5  C   UNL     1       8.597   5.005  22.235  1.00  0.00     0.064 C 
ATOM      6  O   UNL     1       9.689   5.369  22.744  1.00  0.00    -0.545 OA
ATOM      7  O   UNL     1       7.463   4.930  23.033  1.00  0.00    -0.545 OA
ENDBRANCH   4   5
ENDBRANCH   2   3
ENDBRANCH   1   2
BRANCH   1   8
ATOM      8  C   UNL     1       6.254   4.198  17.827  1.00  0.00     0.000 C 
BRANCH   8   9
ATOM      9  C   UNL     1       7.412   5.059  17.308  1.00  0.00    -0.000 C 
BRANCH   9  10
ATOM     10  C   UNL     1       7.279   6.508  17.793  1.00  0.00    -0.003 C 
ATOM     11  C   UNL     1       7.937   7.478  16.817  1.00  0.00     0.004 C 
ENDBRANCH   9  10
ENDBRANCH   8   9
ENDBRANCH   1   8
TORSDOF 6
ENDMDL
MODEL 6
REMARK VINA RESULT:    -4.074      3.446      4.651
REMARK INTER + INTRA:          -6.144
REMARK INTER:                  -5.802
REMARK INTRA:                  -0.342
REMARK UNBOUND:                -0.642
REMARK SMILES CCCCCCC=CC(=O)[O-]
REMARK SMILES IDX 5 1 6 2 7 3 8 4 9 5 10 6 11 7 4 8 3 9 2 10 1 11
REMARK H PARENT
REMARK Flexibility Score: inf
ROOT
ATOM      1  C   UNL     1       7.937   6.960  16.491  1.00  0.00     0.004 C 
ENDROOT
BRANCH   1   2
ATOM      2  C   UNL     1       8.203   5.671  15.705  1.00  0.00     0.027 C 
BRANCH   2   3
ATOM      3  C   UNL     1       9.013   5.942  14.470  1.00  0.00    -0.025 C 
ATOM      4  C   UNL     1       9.999   6.846  14.467  1.00  0.00     0.020 C 
BRANCH   4   5
ATOM      5  C   UNL     1      10.797   7.139  13.266  1.00  0.00     0.064 C 
ATOM      6  O   UNL     1      11.169   8.314  13.001  1.00  0.00    -0.545 OA
ATOM      7  O   UNL     1      11.145   6.104  12.409  1.00  0.00    -0.545 OA
ENDBRANCH   4   5
ENDBRANCH   2   3
ENDBRANCH   1   2
BRANCH   1   8
ATOM      8  C   UNL     1       7.393   6.650  17.891  1.00  0.00     0.000 C 
BRANCH   8   9
ATOM      9  C   UNL     1       7.427   5.143  18.173  1.00  0.00    -0.000 C 
BRANCH   9  10
ATOM     10  C   UNL     1       7.826   4.865  19.626  1.00  0.00    -0.003 C 
ATOM     11  C   UNL     1       7.441   6.028  20.535  1.00  0.00     0.004 C 
ENDBRANCH   9  10
ENDBRANCH   8   9
ENDBRANCH   1   8
TORSDOF 6
ENDMDL
MODEL 7
REMARK VINA RESULT:    -4.055     13.527     15.014
REMARK INTER + INTRA:          -6.119
REMARK INTER:                  -5.863
REMARK INTRA:                  -0.256
REMARK UNBOUND:                -0.642
REMARK SMILES CCCCCCC=CC(=O)[O-]
REMARK SMILES IDX 5 1 6 2 7 3 8 4 9 5 10 6 11 7 4 8 3 9 2 10 1 11
REMARK H PARENT
REMARK Flexibility Score: inf
ROOT
ATOM      1  C   UNL     1      10.541  -3.365   7.806  1.00  0.00     0.004 C 
ENDROOT
BRANCH   1   2
ATOM      2  C   UNL     1      11.632  -3.285   6.732  1.00  0.00     0.027 C 
BRANCH   2   3
ATOM      3  C   UNL     1      12.992  -3.126   7.347  1.00  0.00    -0.025 C 
ATOM      4  C   UNL     1      14.060  -3.764   6.856  1.00  0.00     0.020 C 
BRANCH   4   5
ATOM      5  C   UNL     1      15.400  -3.633   7.451  1.00  0.00     0.064 C 
ATOM      6  O   UNL     1      16.426  -4.038   6.842  1.00  0.00    -0.545 OA
ATOM      7  O   UNL     1      15.535  -3.056   8.707  1.00  0.00    -0.545 OA
ENDBRANCH   4   5
ENDBRANCH   2   3
ENDBRANCH   1   2
BRANCH   1   8
ATOM      8  C   UNL     1      10.323  -2.002   8.473  1.00  0.00     0.000 C 
BRANCH   8   9
ATOM      9  C   UNL     1       8.995  -1.969   9.238  1.00  0.00    -0.000 C 
BRANCH   9  10
ATOM     10  C   UNL     1       8.952  -3.062  10.312  1.00  0.00    -0.003 C 
ATOM     11  C   UNL     1       7.562  -3.684  10.409  1.00  0.00     0.004 C 
ENDBRANCH   9  10
ENDBRANCH   8   9
ENDBRANCH   1   8
TORSDOF 6
ENDMDL
MODEL 8
REMARK VINA RESULT:    -4.027     14.137     15.462
REMARK INTER + INTRA:          -6.082
REMARK INTER:                  -5.853
REMARK INTRA:                  -0.228
REMARK UNBOUND:                -0.642
REMARK SMILES CCCCCCC=CC(=O)[O-]
REMARK SMILES IDX 5 1 6 2 7 3 8 4 9 5 10 6 11 7 4 8 3 9 2 10 1 11
REMARK H PARENT
REMARK Flexibility Score: inf
ROOT
ATOM      1  C   UNL     1      14.312  -2.453   6.934  1.00  0.00     0.004 C 
ENDROOT
BRANCH   1   2
ATOM      2  C   UNL     1      12.906  -2.965   6.596  1.00  0.00     0.027 C 
BRANCH   2   3
ATOM      3  C   UNL     1      11.891  -2.459   7.581  1.00  0.00    -0.025 C 
ATOM      4  C   UNL     1      10.752  -3.122   7.811  1.00  0.00     0.020 C 
BRANCH   4   5
ATOM      5  C   UNL     1       9.737  -2.637   8.761  1.00  0.00     0.064 C 
ATOM      6  O   UNL     1       9.301  -1.457   8.703  1.00  0.00    -0.545 OA
ATOM      7  O   UNL     1       9.251  -3.496   9.738  1.00  0.00    -0.545 OA
ENDBRANCH   4   5
ENDBRANCH   2   3
ENDBRANCH   1   2
BRANCH   1   8
ATOM      8  C   UNL     1      15.054  -3.440   7.842  1.00  0.00     0.000 C 
BRANCH   8   9
ATOM      9  C   UNL     1      16.403  -2.866   8.292  1.00  0.00    -0.000 C 
BRANCH   9  10
ATOM     10  C   UNL     1      17.483  -3.954   8.313  1.00  0.00    -0.003 C 
ATOM     11  C   UNL     1      17.959  -4.285   6.901  1.00  0.00     0.004 C 
ENDBRANCH   9  10
ENDBRANCH   8   9
ENDBRANCH   1   8
TORSDOF 6
ENDMDL
MODEL 9
REMARK VINA RESULT:    -3.994     13.534     14.573
REMARK INTER + INTRA:          -6.036
REMARK INTER:                  -5.793
REMARK INTRA:                  -0.243
REMARK UNBOUND:                -0.642
REMARK SMILES CCCCCCC=CC(=O)[O-]
REMARK SMILES IDX 5 1 6 2 7 3 8 4 9 5 10 6 11 7 4 8 3 9 2 10 1 11
REMARK H PARENT
REMARK Flexibility Score: inf
ROOT
ATOM      1  C   UNL     1      15.148   0.507   9.146  1.00  0.00     0.004 C 
ENDROOT
BRANCH   1   2
ATOM      2  C   UNL     1      15.410  -0.813   9.882  1.00  0.00     0.027 C 
BRANCH   2   3
ATOM      3  C   UNL     1      15.091  -1.995   9.012  1.00  0.00    -0.025 C 
ATOM      4  C   UNL     1      16.037  -2.601   8.285  1.00  0.00     0.020 C 
BRANCH   4   5
ATOM      5  C   UNL     1      15.746  -3.752   7.415  1.00  0.00     0.064 C 
ATOM      6  O   UNL     1      16.666  -4.510   7.008  1.00  0.00    -0.545 OA
ATOM      7  O   UNL     1      14.435  -4.005   7.034  1.00  0.00    -0.545 OA
ENDBRANCH   4   5
ENDBRANCH   2   3
ENDBRANCH   1   2
BRANCH   1   8
ATOM      8  C   UNL     1      16.030   1.631   9.701  1.00  0.00     0.000 C 
BRANCH   8   9
ATOM      9  C   UNL     1      16.109   1.565  11.231  1.00  0.00    -0.000 C 
BRANCH   9  10
ATOM     10  C   UNL     1      15.429   2.782  11.869  1.00  0.00    -0.003 C 
ATOM     11  C   UNL     1      16.430   3.622  12.657  1.00  0.00     0.004 C 
ENDBRANCH   9  10
ENDBRANCH   8   9
ENDBRANCH   1   8
TORSDOF 6
ENDMDL
