MODEL 1
REMARK VINA RESULT:    -5.267      0.000      0.000
REMARK INTER + INTRA:          -5.949
REMARK INTER:                  -5.729
REMARK INTRA:                  -0.220
REMARK UNBOUND:                -0.220
REMARK SMILES C=C1C[C@]2(O)O[C@]3(C[C@@H]2C(C)C)[C@@H](C)CC[C@@H]13
REMARK SMILES IDX 14 1 13 2 15 3 16 4 17 5 7 6 8 7 9 8 4 9 6 10 3 11 2 12 1 13
REMARK SMILES IDX 10 14 11 15 12 16 5 17
REMARK H PARENT 5 18
REMARK Flexibility Score: inf
ROOT
ATOM      1  C   UNL     1      24.114   3.648  13.744  1.00  0.00     0.011 C 
ATOM      2  C   UNL     1      24.043   2.357  12.918  1.00  0.00     0.019 C 
ATOM      3  C   UNL     1      23.705   2.598  11.427  1.00  0.00     0.007 C 
ATOM      4  C   UNL     1      24.406   1.478  10.629  1.00  0.00     0.011 C 
ATOM      5  C   UNL     1      24.971   0.559  11.706  1.00  0.00     0.047 C 
ATOM      6  C   UNL     1      25.317   1.497  12.868  1.00  0.00     0.081 C 
ATOM      7  C   UNL     1      26.629   2.298  12.644  1.00  0.00     0.046 C 
ATOM      8  C   UNL     1      27.662   1.476  13.407  1.00  0.00     0.054 C 
ATOM      9  C   UNL     1      26.867   0.205  13.792  1.00  0.00     0.173 C 
ATOM     10  O   UNL     1      25.542   0.680  13.994  1.00  0.00    -0.342 OA
ATOM     11  C   UNL     1      26.833  -0.893  12.674  1.00  0.00     0.096 C 
ATOM     12  C   UNL     1      26.134  -0.362  11.432  1.00  0.00    -0.066 C 
ATOM     13  C   UNL     1      26.374  -0.880  10.220  1.00  0.00     0.008 C 
ENDROOT
BRANCH   8  14
ATOM     14  C   UNL     1      29.087   1.417  12.749  1.00  0.00    -0.009 C 
ATOM     15  C   UNL     1      29.557   2.793  12.258  1.00  0.00     0.008 C 
ATOM     16  C   UNL     1      30.222   0.721  13.530  1.00  0.00     0.008 C 
ENDBRANCH   8  14
BRANCH   9  17
ATOM     17  O   UNL     1      27.328  -0.327  15.010  1.00  0.00    -0.365 OA
ATOM     18  H   UNL     1      27.027  -1.268  15.075  1.00  0.00     0.214 HD
ENDBRANCH   9  17
TORSDOF 2
ENDMDL
MODEL 2
REMARK VINA RESULT:    -4.489      7.763      9.045
REMARK INTER + INTRA:          -5.103
REMARK INTER:                  -4.913
REMARK INTRA:                  -0.190
REMARK UNBOUND:                -0.220
REMARK SMILES C=C1C[C@]2(O)O[C@]3(C[C@@H]2C(C)C)[C@@H](C)CC[C@@H]13
REMARK SMILES IDX 14 1 13 2 15 3 16 4 17 5 7 6 8 7 9 8 4 9 6 10 3 11 2 12 1 13
REMARK SMILES IDX 10 14 11 15 12 16 5 17
REMARK H PARENT 5 18
REMARK Flexibility Score: inf
ROOT
ATOM      1  C   UNL     1      20.452  -1.995  17.552  1.00  0.00     0.011 C 
ATOM      2  C   UNL     1      20.440  -1.670  19.052  1.00  0.00     0.019 C 
ATOM      3  C   UNL     1      20.213  -2.910  19.948  1.00  0.00     0.007 C 
ATOM      4  C   UNL     1      20.969  -2.645  21.267  1.00  0.00     0.011 C 
ATOM      5  C   UNL     1      21.451  -1.206  21.131  1.00  0.00     0.047 C 
ATOM      6  C   UNL     1      21.712  -1.030  19.631  1.00  0.00     0.081 C 
ATOM      7  C   UNL     1      23.039  -1.683  19.154  1.00  0.00     0.046 C 
ATOM      8  C   UNL     1      24.012  -0.509  19.146  1.00  0.00     0.054 C 
ATOM      9  C   UNL     1      23.188   0.618  19.815  1.00  0.00     0.173 C 
ATOM     10  O   UNL     1      21.853   0.354  19.403  1.00  0.00    -0.342 OA
ATOM     11  C   UNL     1      23.234   0.603  21.381  1.00  0.00     0.096 C 
ATOM     12  C   UNL     1      22.631  -0.686  21.916  1.00  0.00    -0.066 C 
ATOM     13  C   UNL     1      22.959  -1.163  23.124  1.00  0.00     0.008 C 
ENDROOT
BRANCH   8  14
ATOM     14  C   UNL     1      25.481  -0.856  19.579  1.00  0.00    -0.009 C 
ATOM     15  C   UNL     1      26.063  -2.025  18.774  1.00  0.00     0.008 C 
ATOM     16  C   UNL     1      26.508   0.294  19.654  1.00  0.00     0.008 C 
ENDBRANCH   8  14
BRANCH   9  17
ATOM     17  O   UNL     1      23.557   1.878  19.310  1.00  0.00    -0.365 OA
ATOM     18  H   UNL     1      24.046   1.743  18.459  1.00  0.00     0.214 HD
ENDBRANCH   9  17
TORSDOF 2
ENDMDL
MODEL 3
REMARK VINA RESULT:    -4.427      8.675     10.022
REMARK INTER + INTRA:          -5.035
REMARK INTER:                  -4.774
REMARK INTRA:                  -0.261
REMARK UNBOUND:                -0.220
REMARK SMILES C=C1C[C@]2(O)O[C@]3(C[C@@H]2C(C)C)[C@@H](C)CC[C@@H]13
REMARK SMILES IDX 14 1 13 2 15 3 16 4 17 5 7 6 8 7 9 8 4 9 6 10 3 11 2 12 1 13
REMARK SMILES IDX 10 14 11 15 12 16 5 17
REMARK H PARENT 5 18
REMARK Flexibility Score: inf
ROOT
ATOM      1  C   UNL     1      19.582  -5.661  12.906  1.00  0.00     0.011 C 
ATOM      2  C   UNL     1      20.125  -6.843  13.723  1.00  0.00     0.019 C 
ATOM      3  C   UNL     1      21.354  -7.525  13.076  1.00  0.00     0.007 C 
ATOM      4  C   UNL     1      22.218  -8.068  14.234  1.00  0.00     0.011 C 
ATOM      5  C   UNL     1      21.367  -7.819  15.473  1.00  0.00     0.047 C 
ATOM      6  C   UNL     1      20.591  -6.536  15.155  1.00  0.00     0.081 C 
ATOM      7  C   UNL     1      21.447  -5.247  15.295  1.00  0.00     0.046 C 
ATOM      8  C   UNL     1      21.088  -4.750  16.691  1.00  0.00     0.054 C 
ATOM      9  C   UNL     1      20.242  -5.916  17.257  1.00  0.00     0.173 C 
ATOM     10  O   UNL     1      19.566  -6.433  16.118  1.00  0.00    -0.342 OA
ATOM     11  C   UNL     1      21.087  -7.071  17.897  1.00  0.00     0.096 C 
ATOM     12  C   UNL     1      21.980  -7.716  16.848  1.00  0.00    -0.066 C 
ATOM     13  C   UNL     1      23.101  -8.365  17.189  1.00  0.00     0.008 C 
ENDROOT
BRANCH   8  14
ATOM     14  C   UNL     1      22.268  -4.094  17.491  1.00  0.00    -0.009 C 
ATOM     15  C   UNL     1      23.247  -3.348  16.574  1.00  0.00     0.008 C 
ATOM     16  C   UNL     1      21.921  -3.217  18.713  1.00  0.00     0.008 C 
ENDBRANCH   8  14
BRANCH   9  17
ATOM     17  O   UNL     1      19.271  -5.441  18.159  1.00  0.00    -0.365 OA
ATOM     18  H   UNL     1      18.376  -5.585  17.759  1.00  0.00     0.214 HD
ENDBRANCH   9  17
TORSDOF 2
ENDMDL
MODEL 4
REMARK VINA RESULT:    -4.345      9.413     11.086
REMARK INTER + INTRA:          -4.946
REMARK INTER:                  -4.630
REMARK INTRA:                  -0.316
REMARK UNBOUND:                -0.220
REMARK SMILES C=C1C[C@]2(O)O[C@]3(C[C@@H]2C(C)C)[C@@H](C)CC[C@@H]13
REMARK SMILES IDX 14 1 13 2 15 3 16 4 17 5 7 6 8 7 9 8 4 9 6 10 3 11 2 12 1 13
REMARK SMILES IDX 10 14 11 15 12 16 5 17
REMARK H PARENT 5 18
REMARK Flexibility Score: inf
ROOT
ATOM      1  C   UNL     1      23.617  -9.425  18.017  1.00  0.00     0.011 C 
ATOM      2  C   UNL     1      22.640  -9.207  16.853  1.00  0.00     0.019 C 
ATOM      3  C   UNL     1      21.394 -10.122  16.916  1.00  0.00     0.007 C 
ATOM      4  C   UNL     1      20.235  -9.333  16.270  1.00  0.00     0.011 C 
ATOM      5  C   UNL     1      20.905  -8.079  15.722  1.00  0.00     0.047 C 
ATOM      6  C   UNL     1      22.048  -7.796  16.703  1.00  0.00     0.081 C 
ATOM      7  C   UNL     1      21.574  -7.148  18.033  1.00  0.00     0.046 C 
ATOM      8  C   UNL     1      21.823  -5.663  17.796  1.00  0.00     0.054 C 
ATOM      9  C   UNL     1      22.206  -5.620  16.296  1.00  0.00     0.173 C 
ATOM     10  O   UNL     1      22.889  -6.849  16.083  1.00  0.00    -0.342 OA
ATOM     11  C   UNL     1      20.980  -5.560  15.322  1.00  0.00     0.096 C 
ATOM     12  C   UNL     1      20.128  -6.811  15.467  1.00  0.00    -0.066 C 
ATOM     13  C   UNL     1      18.830  -6.815  15.134  1.00  0.00     0.008 C 
ENDROOT
BRANCH   8  14
ATOM     14  C   UNL     1      20.756  -4.698  18.425  1.00  0.00    -0.009 C 
ATOM     15  C   UNL     1      19.907  -5.392  19.498  1.00  0.00     0.008 C 
ATOM     16  C   UNL     1      21.232  -3.323  18.941  1.00  0.00     0.008 C 
ENDBRANCH   8  14
BRANCH   9  17
ATOM     17  O   UNL     1      23.109  -4.571  16.039  1.00  0.00    -0.365 OA
ATOM     18  H   UNL     1      22.964  -4.255  15.111  1.00  0.00     0.214 HD
ENDBRANCH   9  17
TORSDOF 2
ENDMDL
MODEL 5
REMARK VINA RESULT:    -4.283      8.619     10.002
REMARK INTER + INTRA:          -4.879
REMARK INTER:                  -4.804
REMARK INTRA:                  -0.075
REMARK UNBOUND:                -0.220
REMARK SMILES C=C1C[C@]2(O)O[C@]3(C[C@@H]2C(C)C)[C@@H](C)CC[C@@H]13
REMARK SMILES IDX 14 1 13 2 15 3 16 4 17 5 7 6 8 7 9 8 4 9 6 10 3 11 2 12 1 13
REMARK SMILES IDX 10 14 11 15 12 16 5 17
REMARK H PARENT 5 18
REMARK Flexibility Score: inf
ROOT
ATOM      1  C   UNL     1      23.319  -3.172  17.309  1.00  0.00     0.011 C 
ATOM      2  C   UNL     1      22.004  -3.872  17.681  1.00  0.00     0.019 C 
ATOM      3  C   UNL     1      20.748  -3.013  17.398  1.00  0.00     0.007 C 
ATOM      4  C   UNL     1      19.610  -3.997  17.053  1.00  0.00     0.011 C 
ATOM      5  C   UNL     1      20.220  -5.369  17.315  1.00  0.00     0.047 C 
ATOM      6  C   UNL     1      21.704  -5.202  16.971  1.00  0.00     0.081 C 
ATOM      7  C   UNL     1      21.986  -5.197  15.443  1.00  0.00     0.046 C 
ATOM      8  C   UNL     1      22.404  -6.637  15.171  1.00  0.00     0.054 C 
ATOM      9  C   UNL     1      22.109  -7.336  16.520  1.00  0.00     0.173 C 
ATOM     10  O   UNL     1      22.370  -6.330  17.490  1.00  0.00    -0.342 OA
ATOM     11  C   UNL     1      20.624  -7.809  16.686  1.00  0.00     0.096 C 
ATOM     12  C   UNL     1      19.682  -6.615  16.656  1.00  0.00    -0.066 C 
ATOM     13  C   UNL     1      18.396  -6.748  16.306  1.00  0.00     0.008 C 
ENDROOT
BRANCH   8  14
ATOM     14  C   UNL     1      21.930  -7.221  13.793  1.00  0.00    -0.009 C 
ATOM     15  C   UNL     1      21.913  -8.756  13.788  1.00  0.00     0.008 C 
ATOM     16  C   UNL     1      20.618  -6.680  13.185  1.00  0.00     0.008 C 
ENDBRANCH   8  14
BRANCH   9  17
ATOM     17  O   UNL     1      23.005  -8.398  16.743  1.00  0.00    -0.365 OA
ATOM     18  H   UNL     1      22.804  -8.797  17.627  1.00  0.00     0.214 HD
ENDBRANCH   9  17
TORSDOF 2
ENDMDL
MODEL 6
REMARK VINA RESULT:    -4.268      9.088     10.536
REMARK INTER + INTRA:          -4.862
REMARK INTER:                  -4.471
REMARK INTRA:                  -0.391
REMARK UNBOUND:                -0.220
REMARK SMILES C=C1C[C@]2(O)O[C@]3(C[C@@H]2C(C)C)[C@@H](C)CC[C@@H]13
REMARK SMILES IDX 14 1 13 2 15 3 16 4 17 5 7 6 8 7 9 8 4 9 6 10 3 11 2 12 1 13
REMARK SMILES IDX 10 14 11 15 12 16 5 17
REMARK H PARENT 5 18
REMARK Flexibility Score: inf
ROOT
ATOM      1  C   UNL     1      21.336  -2.467  17.534  1.00  0.00     0.011 C 
ATOM      2  C   UNL     1      21.395  -3.768  18.348  1.00  0.00     0.019 C 
ATOM      3  C   UNL     1      20.202  -3.942  19.317  1.00  0.00     0.007 C 
ATOM      4  C   UNL     1      19.948  -5.459  19.436  1.00  0.00     0.011 C 
ATOM      5  C   UNL     1      21.104  -6.086  18.667  1.00  0.00     0.047 C 
ATOM      6  C   UNL     1      21.410  -5.082  17.550  1.00  0.00     0.081 C 
ATOM      7  C   UNL     1      20.395  -5.137  16.375  1.00  0.00     0.046 C 
ATOM      8  C   UNL     1      21.105  -6.018  15.354  1.00  0.00     0.054 C 
ATOM      9  C   UNL     1      22.334  -6.530  16.144  1.00  0.00     0.173 C 
ATOM     10  O   UNL     1      22.659  -5.447  17.007  1.00  0.00    -0.342 OA
ATOM     11  C   UNL     1      22.050  -7.795  17.024  1.00  0.00     0.096 C 
ATOM     12  C   UNL     1      21.011  -7.477  18.089  1.00  0.00    -0.066 C 
ATOM     13  C   UNL     1      20.258  -8.438  18.640  1.00  0.00     0.008 C 
ENDROOT
BRANCH   8  14
ATOM     14  C   UNL     1      20.170  -6.975  14.531  1.00  0.00    -0.009 C 
ATOM     15  C   UNL     1      18.737  -6.999  15.081  1.00  0.00     0.008 C 
ATOM     16  C   UNL     1      20.141  -6.822  12.996  1.00  0.00     0.008 C 
ENDBRANCH   8  14
BRANCH   9  17
ATOM     17  O   UNL     1      23.429  -6.745  15.287  1.00  0.00    -0.365 OA
ATOM     18  H   UNL     1      24.203  -7.034  15.834  1.00  0.00     0.214 HD
ENDBRANCH   9  17
TORSDOF 2
ENDMDL
MODEL 7
REMARK VINA RESULT:    -4.262      9.251     10.472
REMARK INTER + INTRA:          -4.855
REMARK INTER:                  -4.476
REMARK INTRA:                  -0.379
REMARK UNBOUND:                -0.220
REMARK SMILES C=C1C[C@]2(O)O[C@]3(C[C@@H]2C(C)C)[C@@H](C)CC[C@@H]13
REMARK SMILES IDX 14 1 13 2 15 3 16 4 17 5 7 6 8 7 9 8 4 9 6 10 3 11 2 12 1 13
REMARK SMILES IDX 10 14 11 15 12 16 5 17
REMARK H PARENT 5 18
REMARK Flexibility Score: inf
ROOT
ATOM      1  C   UNL     1      21.095  -8.263  19.718  1.00  0.00     0.011 C 
ATOM      2  C   UNL     1      20.226  -8.093  18.464  1.00  0.00     0.019 C 
ATOM      3  C   UNL     1      18.781  -7.637  18.774  1.00  0.00     0.007 C 
ATOM      4  C   UNL     1      18.318  -6.789  17.570  1.00  0.00     0.011 C 
ATOM      5  C   UNL     1      19.450  -6.937  16.561  1.00  0.00     0.047 C 
ATOM      6  C   UNL     1      20.712  -7.076  17.418  1.00  0.00     0.081 C 
ATOM      7  C   UNL     1      21.208  -5.727  18.010  1.00  0.00     0.046 C 
ATOM      8  C   UNL     1      22.295  -5.305  17.029  1.00  0.00     0.054 C 
ATOM      9  C   UNL     1      22.146  -6.344  15.891  1.00  0.00     0.173 C 
ATOM     10  O   UNL     1      21.736  -7.528  16.562  1.00  0.00    -0.342 OA
ATOM     11  C   UNL     1      21.056  -5.977  14.826  1.00  0.00     0.096 C 
ATOM     12  C   UNL     1      19.682  -5.915  15.475  1.00  0.00    -0.066 C 
ATOM     13  C   UNL     1      18.690  -5.190  14.942  1.00  0.00     0.008 C 
ENDROOT
BRANCH   8  14
ATOM     14  C   UNL     1      22.389  -3.761  16.759  1.00  0.00    -0.009 C 
ATOM     15  C   UNL     1      21.283  -2.978  17.479  1.00  0.00     0.008 C 
ATOM     16  C   UNL     1      23.750  -3.065  16.972  1.00  0.00     0.008 C 
ENDBRANCH   8  14
BRANCH   9  17
ATOM     17  O   UNL     1      23.387  -6.599  15.277  1.00  0.00    -0.365 OA
ATOM     18  H   UNL     1      24.096  -6.535  15.966  1.00  0.00     0.214 HD
ENDBRANCH   9  17
TORSDOF 2
ENDMDL
MODEL 8
REMARK VINA RESULT:    -4.209     10.167     11.705
REMARK INTER + INTRA:          -4.798
REMARK INTER:                  -4.534
REMARK INTRA:                  -0.263
REMARK UNBOUND:                -0.220
REMARK SMILES C=C1C[C@]2(O)O[C@]3(C[C@@H]2C(C)C)[C@@H](C)CC[C@@H]13
REMARK SMILES IDX 14 1 13 2 15 3 16 4 17 5 7 6 8 7 9 8 4 9 6 10 3 11 2 12 1 13
REMARK SMILES IDX 10 14 11 15 12 16 5 17
REMARK H PARENT 5 18
REMARK Flexibility Score: inf
ROOT
ATOM      1  C   UNL     1      19.386  -4.726  18.096  1.00  0.00     0.011 C 
ATOM      2  C   UNL     1      20.304  -5.728  18.811  1.00  0.00     0.019 C 
ATOM      3  C   UNL     1      19.564  -6.618  19.837  1.00  0.00     0.007 C 
ATOM      4  C   UNL     1      20.305  -7.971  19.863  1.00  0.00     0.011 C 
ATOM      5  C   UNL     1      21.526  -7.737  18.982  1.00  0.00     0.047 C 
ATOM      6  C   UNL     1      21.048  -6.738  17.922  1.00  0.00     0.081 C 
ATOM      7  C   UNL     1      20.177  -7.387  16.811  1.00  0.00     0.046 C 
ATOM      8  C   UNL     1      21.181  -7.624  15.688  1.00  0.00     0.054 C 
ATOM      9  C   UNL     1      22.531  -7.282  16.364  1.00  0.00     0.173 C 
ATOM     10  O   UNL     1      22.202  -6.246  17.279  1.00  0.00    -0.342 OA
ATOM     11  C   UNL     1      23.165  -8.470  17.167  1.00  0.00     0.096 C 
ATOM     12  C   UNL     1      22.253  -8.879  18.313  1.00  0.00    -0.066 C 
ATOM     13  C   UNL     1      22.301 -10.109  18.840  1.00  0.00     0.008 C 
ENDROOT
BRANCH   8  14
ATOM     14  C   UNL     1      20.957  -8.938  14.859  1.00  0.00    -0.009 C 
ATOM     15  C   UNL     1      19.472  -9.308  14.746  1.00  0.00     0.008 C 
ATOM     16  C   UNL     1      21.633  -9.051  13.476  1.00  0.00     0.008 C 
ENDBRANCH   8  14
BRANCH   9  17
ATOM     17  O   UNL     1      23.444  -6.761  15.427  1.00  0.00    -0.365 OA
ATOM     18  H   UNL     1      24.249  -6.451  15.915  1.00  0.00     0.214 HD
ENDBRANCH   9  17
TORSDOF 2
ENDMDL
MODEL 9
REMARK VINA RESULT:    -4.195      9.040     10.141
REMARK INTER + INTRA:          -4.783
REMARK INTER:                  -4.432
REMARK INTRA:                  -0.350
REMARK UNBOUND:                -0.220
REMARK SMILES C=C1C[C@]2(O)O[C@]3(C[C@@H]2C(C)C)[C@@H](C)CC[C@@H]13
REMARK SMILES IDX 14 1 13 2 15 3 16 4 17 5 7 6 8 7 9 8 4 9 6 10 3 11 2 12 1 13
REMARK SMILES IDX 10 14 11 15 12 16 5 17
REMARK H PARENT 5 18
REMARK Flexibility Score: inf
ROOT
ATOM      1  C   UNL     1      22.207  -2.113  20.231  1.00  0.00     0.011 C 
ATOM      2  C   UNL     1      20.795  -2.328  19.668  1.00  0.00     0.019 C 
ATOM      3  C   UNL     1      20.381  -1.265  18.623  1.00  0.00     0.007 C 
ATOM      4  C   UNL     1      19.426  -1.967  17.634  1.00  0.00     0.011 C 
ATOM      5  C   UNL     1      19.208  -3.343  18.250  1.00  0.00     0.047 C 
ATOM      6  C   UNL     1      20.532  -3.663  18.953  1.00  0.00     0.081 C 
ATOM      7  C   UNL     1      21.657  -4.107  17.977  1.00  0.00     0.046 C 
ATOM      8  C   UNL     1      21.601  -5.628  18.064  1.00  0.00     0.054 C 
ATOM      9  C   UNL     1      20.324  -5.872  18.905  1.00  0.00     0.173 C 
ATOM     10  O   UNL     1      20.287  -4.766  19.797  1.00  0.00    -0.342 OA
ATOM     11  C   UNL     1      18.998  -5.881  18.071  1.00  0.00     0.096 C 
ATOM     12  C   UNL     1      18.775  -4.525  17.417  1.00  0.00    -0.066 C 
ATOM     13  C   UNL     1      18.024  -4.396  16.316  1.00  0.00     0.008 C 
ENDROOT
BRANCH   8  14
ATOM     14  C   UNL     1      21.885  -6.385  16.717  1.00  0.00    -0.009 C 
ATOM     15  C   UNL     1      22.298  -5.428  15.590  1.00  0.00     0.008 C 
ATOM     16  C   UNL     1      22.837  -7.599  16.751  1.00  0.00     0.008 C 
ENDBRANCH   8  14
BRANCH   9  17
ATOM     17  O   UNL     1      20.446  -7.045  19.674  1.00  0.00    -0.365 OA
ATOM     18  H   UNL     1      21.320  -7.464  19.469  1.00  0.00     0.214 HD
ENDBRANCH   9  17
TORSDOF 2
ENDMDL
