MODEL 1
REMARK VINA RESULT:    -3.720      0.000      0.000
REMARK INTER + INTRA:          -8.644
REMARK INTER:                  -6.329
REMARK INTRA:                  -2.315
REMARK UNBOUND:                -2.315
REMARK SMILES CC(=O)CCC[C@H](C)CCC[C@H](C)CCCC(C)C
REMARK SMILES IDX 10 1 11 2 12 3 13 4 14 5 15 6 16 7 17 8 18 9 19 10 9 11 7 12
REMARK SMILES IDX 8 13 6 14 5 15 4 16 2 17 3 18 1 19
REMARK H PARENT
REMARK Flexibility Score: inf
ROOT
ATOM      1  C   UNL     1     116.065 114.761 117.415  1.00  0.00     0.001 C 
ENDROOT
BRANCH   1   2
ATOM      2  C   UNL     1     116.877 113.452 117.405  1.00  0.00     0.003 C 
BRANCH   2   3
ATOM      3  C   UNL     1     118.116 113.498 118.334  1.00  0.00    -0.014 C 
ATOM      4  C   UNL     1     118.826 112.132 118.395  1.00  0.00     0.007 C 
BRANCH   3   5
ATOM      5  C   UNL     1     117.709 113.960 119.766  1.00  0.00     0.003 C 
BRANCH   5   6
ATOM      6  C   UNL     1     118.442 115.230 120.230  1.00  0.00     0.001 C 
BRANCH   6   7
ATOM      7  C   UNL     1     118.885 116.123 119.054  1.00  0.00     0.003 C 
BRANCH   7   8
ATOM      8  C   UNL     1     118.927 117.635 119.377  1.00  0.00    -0.017 C 
ATOM      9  C   UNL     1     118.331 118.493 118.252  1.00  0.00     0.007 C 
ATOM     10  C   UNL     1     120.337 118.116 119.744  1.00  0.00     0.007 C 
ENDBRANCH   7   8
ENDBRANCH   6   7
ENDBRANCH   5   6
ENDBRANCH   3   5
ENDBRANCH   2   3
ENDBRANCH   1   2
BRANCH   1  11
ATOM     11  C   UNL     1     114.588 114.550 117.804  1.00  0.00     0.003 C 
BRANCH  11  12
ATOM     12  C   UNL     1     113.934 115.705 118.611  1.00  0.00    -0.014 C 
ATOM     13  C   UNL     1     113.078 115.164 119.771  1.00  0.00     0.007 C 
BRANCH  12  14
ATOM     14  C   UNL     1     115.046 116.651 119.132  1.00  0.00     0.004 C 
BRANCH  14  15
ATOM     15  C   UNL     1     114.651 117.408 120.411  1.00  0.00     0.008 C 
BRANCH  15  16
ATOM     16  C   UNL     1     115.882 118.008 121.099  1.00  0.00     0.075 C 
BRANCH  16  17
ATOM     17  C   UNL     1     116.218 117.245 122.352  1.00  0.00     0.129 C 
ATOM     18  O   UNL     1     117.088 117.662 123.102  1.00  0.00    -0.300 OA
ATOM     19  C   UNL     1     115.505 115.966 122.676  1.00  0.00     0.087 C 
ENDBRANCH  16  17
ENDBRANCH  15  16
ENDBRANCH  14  15
ENDBRANCH  12  14
ENDBRANCH  11  12
ENDBRANCH   1  11
TORSDOF 12
ENDMDL
MODEL 2
REMARK VINA RESULT:    -3.714      3.549      5.424
REMARK INTER + INTRA:          -8.634
REMARK INTER:                  -6.620
REMARK INTRA:                  -2.014
REMARK UNBOUND:                -2.315
REMARK SMILES CC(=O)CCC[C@H](C)CCC[C@H](C)CCCC(C)C
REMARK SMILES IDX 10 1 11 2 12 3 13 4 14 5 15 6 16 7 17 8 18 9 19 10 9 11 7 12
REMARK SMILES IDX 8 13 6 14 5 15 4 16 2 17 3 18 1 19
REMARK H PARENT
REMARK Flexibility Score: inf
ROOT
ATOM      1  C   UNL     1     117.695 118.502 120.165  1.00  0.00     0.001 C 
ENDROOT
BRANCH   1   2
ATOM      2  C   UNL     1     118.503 117.209 120.381  1.00  0.00     0.003 C 
BRANCH   2   3
ATOM      3  C   UNL     1     117.627 116.009 120.819  1.00  0.00    -0.014 C 
ATOM      4  C   UNL     1     117.674 115.804 122.345  1.00  0.00     0.007 C 
BRANCH   3   5
ATOM      5  C   UNL     1     118.074 114.709 120.084  1.00  0.00     0.003 C 
BRANCH   5   6
ATOM      6  C   UNL     1     116.903 113.914 119.481  1.00  0.00     0.001 C 
BRANCH   6   7
ATOM      7  C   UNL     1     115.944 114.799 118.663  1.00  0.00     0.003 C 
BRANCH   7   8
ATOM      8  C   UNL     1     114.463 114.719 119.104  1.00  0.00    -0.017 C 
ATOM      9  C   UNL     1     113.566 115.696 118.330  1.00  0.00     0.007 C 
ATOM     10  C   UNL     1     114.292 114.901 120.617  1.00  0.00     0.007 C 
ENDBRANCH   7   8
ENDBRANCH   6   7
ENDBRANCH   5   6
ENDBRANCH   3   5
ENDBRANCH   2   3
ENDBRANCH   1   2
BRANCH   1  11
ATOM     11  C   UNL     1     116.591 118.352 119.099  1.00  0.00     0.003 C 
BRANCH  11  12
ATOM     12  C   UNL     1     115.172 118.812 119.531  1.00  0.00    -0.014 C 
ATOM     13  C   UNL     1     114.914 118.512 121.020  1.00  0.00     0.007 C 
BRANCH  12  14
ATOM     14  C   UNL     1     115.017 120.324 119.231  1.00  0.00     0.004 C 
BRANCH  14  15
ATOM     15  C   UNL     1     114.195 120.612 117.963  1.00  0.00     0.008 C 
BRANCH  15  16
ATOM     16  C   UNL     1     114.945 121.563 117.024  1.00  0.00     0.075 C 
BRANCH  16  17
ATOM     17  C   UNL     1     114.288 122.916 116.998  1.00  0.00     0.129 C 
ATOM     18  O   UNL     1     114.962 123.914 116.788  1.00  0.00    -0.300 OA
ATOM     19  C   UNL     1     112.817 123.051 117.249  1.00  0.00     0.087 C 
ENDBRANCH  16  17
ENDBRANCH  15  16
ENDBRANCH  14  15
ENDBRANCH  12  14
ENDBRANCH  11  12
ENDBRANCH   1  11
TORSDOF 12
ENDMDL
MODEL 3
REMARK VINA RESULT:    -3.690      1.482      3.916
REMARK INTER + INTRA:          -8.594
REMARK INTER:                  -5.662
REMARK INTRA:                  -2.931
REMARK UNBOUND:                -2.315
REMARK SMILES CC(=O)CCC[C@H](C)CCC[C@H](C)CCCC(C)C
REMARK SMILES IDX 10 1 11 2 12 3 13 4 14 5 15 6 16 7 17 8 18 9 19 10 9 11 7 12
REMARK SMILES IDX 8 13 6 14 5 15 4 16 2 17 3 18 1 19
REMARK H PARENT
REMARK Flexibility Score: inf
ROOT
ATOM      1  C   UNL     1     118.734 115.646 117.755  1.00  0.00     0.001 C 
ENDROOT
BRANCH   1   2
ATOM      2  C   UNL     1     118.447 114.895 119.069  1.00  0.00     0.003 C 
BRANCH   2   3
ATOM      3  C   UNL     1     117.167 114.026 119.007  1.00  0.00    -0.014 C 
ATOM      4  C   UNL     1     117.000 113.365 117.626  1.00  0.00     0.007 C 
BRANCH   3   5
ATOM      5  C   UNL     1     115.909 114.881 119.353  1.00  0.00     0.003 C 
BRANCH   5   6
ATOM      6  C   UNL     1     114.739 114.671 118.376  1.00  0.00     0.001 C 
BRANCH   6   7
ATOM      7  C   UNL     1     114.172 115.997 117.835  1.00  0.00     0.003 C 
BRANCH   7   8
ATOM      8  C   UNL     1     115.212 117.136 117.708  1.00  0.00    -0.017 C 
ATOM      9  C   UNL     1     114.665 118.488 118.187  1.00  0.00     0.007 C 
ATOM     10  C   UNL     1     115.786 117.248 116.290  1.00  0.00     0.007 C 
ENDBRANCH   7   8
ENDBRANCH   6   7
ENDBRANCH   5   6
ENDBRANCH   3   5
ENDBRANCH   2   3
ENDBRANCH   1   2
BRANCH   1  11
ATOM     11  C   UNL     1     119.112 117.125 117.976  1.00  0.00     0.003 C 
BRANCH  11  12
ATOM     12  C   UNL     1     119.232 117.574 119.458  1.00  0.00    -0.014 C 
ATOM     13  C   UNL     1     120.598 118.229 119.736  1.00  0.00     0.007 C 
BRANCH  12  14
ATOM     14  C   UNL     1     118.070 118.545 119.788  1.00  0.00     0.004 C 
BRANCH  14  15
ATOM     15  C   UNL     1     117.099 117.993 120.846  1.00  0.00     0.008 C 
BRANCH  15  16
ATOM     16  C   UNL     1     117.859 117.445 122.059  1.00  0.00     0.075 C 
BRANCH  16  17
ATOM     17  C   UNL     1     117.260 116.145 122.522  1.00  0.00     0.129 C 
ATOM     18  O   UNL     1     117.969 115.156 122.637  1.00  0.00    -0.300 OA
ATOM     19  C   UNL     1     115.795 116.048 122.825  1.00  0.00     0.087 C 
ENDBRANCH  16  17
ENDBRANCH  15  16
ENDBRANCH  14  15
ENDBRANCH  12  14
ENDBRANCH  11  12
ENDBRANCH   1  11
TORSDOF 12
ENDMDL
MODEL 4
REMARK VINA RESULT:    -3.681      2.233      5.079
REMARK INTER + INTRA:          -8.578
REMARK INTER:                  -5.896
REMARK INTRA:                  -2.683
REMARK UNBOUND:                -2.315
REMARK SMILES CC(=O)CCC[C@H](C)CCC[C@H](C)CCCC(C)C
REMARK SMILES IDX 10 1 11 2 12 3 13 4 14 5 15 6 16 7 17 8 18 9 19 10 9 11 7 12
REMARK SMILES IDX 8 13 6 14 5 15 4 16 2 17 3 18 1 19
REMARK H PARENT
REMARK Flexibility Score: inf
ROOT
ATOM      1  C   UNL     1     117.994 114.826 120.928  1.00  0.00     0.001 C 
ENDROOT
BRANCH   1   2
ATOM      2  C   UNL     1     118.295 114.698 119.423  1.00  0.00     0.003 C 
BRANCH   2   3
ATOM      3  C   UNL     1     117.606 113.477 118.766  1.00  0.00    -0.014 C 
ATOM      4  C   UNL     1     118.637 112.446 118.270  1.00  0.00     0.007 C 
BRANCH   3   5
ATOM      5  C   UNL     1     116.690 113.935 117.589  1.00  0.00     0.003 C 
BRANCH   5   6
ATOM      6  C   UNL     1     116.341 115.433 117.633  1.00  0.00     0.001 C 
BRANCH   6   7
ATOM      7  C   UNL     1     114.830 115.685 117.796  1.00  0.00     0.003 C 
BRANCH   7   8
ATOM      8  C   UNL     1     114.126 114.741 118.799  1.00  0.00    -0.017 C 
ATOM      9  C   UNL     1     112.624 114.595 118.514  1.00  0.00     0.007 C 
ATOM     10  C   UNL     1     114.369 115.150 120.258  1.00  0.00     0.007 C 
ENDBRANCH   7   8
ENDBRANCH   6   7
ENDBRANCH   5   6
ENDBRANCH   3   5
ENDBRANCH   2   3
ENDBRANCH   1   2
BRANCH   1  11
ATOM     11  C   UNL     1     117.808 116.288 121.383  1.00  0.00     0.003 C 
BRANCH  11  12
ATOM     12  C   UNL     1     117.785 117.348 120.248  1.00  0.00    -0.014 C 
ATOM     13  C   UNL     1     116.495 118.189 120.292  1.00  0.00     0.007 C 
BRANCH  12  14
ATOM     14  C   UNL     1     119.042 118.247 120.371  1.00  0.00     0.004 C 
BRANCH  14  15
ATOM     15  C   UNL     1     120.054 118.035 119.232  1.00  0.00     0.008 C 
BRANCH  15  16
ATOM     16  C   UNL     1     119.345 117.933 117.877  1.00  0.00     0.075 C 
BRANCH  16  17
ATOM     17  C   UNL     1     120.203 117.203 116.879  1.00  0.00     0.129 C 
ATOM     18  O   UNL     1     121.326 117.614 116.628  1.00  0.00    -0.300 OA
ATOM     19  C   UNL     1     119.682 115.986 116.176  1.00  0.00     0.087 C 
ENDBRANCH  16  17
ENDBRANCH  15  16
ENDBRANCH  14  15
ENDBRANCH  12  14
ENDBRANCH  11  12
ENDBRANCH   1  11
TORSDOF 12
ENDMDL
MODEL 5
REMARK VINA RESULT:    -3.674      3.716      5.296
REMARK INTER + INTRA:          -8.567
REMARK INTER:                  -6.317
REMARK INTRA:                  -2.249
REMARK UNBOUND:                -2.315
REMARK SMILES CC(=O)CCC[C@H](C)CCC[C@H](C)CCCC(C)C
REMARK SMILES IDX 10 1 11 2 12 3 13 4 14 5 15 6 16 7 17 8 18 9 19 10 9 11 7 12
REMARK SMILES IDX 8 13 6 14 5 15 4 16 2 17 3 18 1 19
REMARK H PARENT
REMARK Flexibility Score: inf
ROOT
ATOM      1  C   UNL     1     115.082 117.094 117.372  1.00  0.00     0.001 C 
ENDROOT
BRANCH   1   2
ATOM      2  C   UNL     1     113.683 116.628 117.815  1.00  0.00     0.003 C 
BRANCH   2   3
ATOM      3  C   UNL     1     113.681 115.206 118.429  1.00  0.00    -0.014 C 
ATOM      4  C   UNL     1     112.516 114.359 117.885  1.00  0.00     0.007 C 
BRANCH   3   5
ATOM      5  C   UNL     1     113.613 115.283 119.985  1.00  0.00     0.003 C 
BRANCH   5   6
ATOM      6  C   UNL     1     114.907 114.819 120.677  1.00  0.00     0.001 C 
BRANCH   6   7
ATOM      7  C   UNL     1     115.999 114.400 119.673  1.00  0.00     0.003 C 
BRANCH   7   8
ATOM      8  C   UNL     1     117.439 114.771 120.100  1.00  0.00    -0.017 C 
ATOM      9  C   UNL     1     117.469 115.717 121.309  1.00  0.00     0.007 C 
ATOM     10  C   UNL     1     118.265 115.339 118.939  1.00  0.00     0.007 C 
ENDBRANCH   7   8
ENDBRANCH   6   7
ENDBRANCH   5   6
ENDBRANCH   3   5
ENDBRANCH   2   3
ENDBRANCH   1   2
BRANCH   1  11
ATOM     11  C   UNL     1     115.739 118.066 118.374  1.00  0.00     0.003 C 
BRANCH  11  12
ATOM     12  C   UNL     1     114.763 118.817 119.321  1.00  0.00    -0.014 C 
ATOM     13  C   UNL     1     115.073 118.515 120.799  1.00  0.00     0.007 C 
BRANCH  12  14
ATOM     14  C   UNL     1     114.848 120.337 119.032  1.00  0.00     0.004 C 
BRANCH  14  15
ATOM     15  C   UNL     1     114.048 120.765 117.790  1.00  0.00     0.008 C 
BRANCH  15  16
ATOM     16  C   UNL     1     114.802 121.834 116.990  1.00  0.00     0.075 C 
BRANCH  16  17
ATOM     17  C   UNL     1     114.019 123.119 116.945  1.00  0.00     0.129 C 
ATOM     18  O   UNL     1     114.552 124.140 116.539  1.00  0.00    -0.300 OA
ATOM     19  C   UNL     1     112.596 123.157 117.415  1.00  0.00     0.087 C 
ENDBRANCH  16  17
ENDBRANCH  15  16
ENDBRANCH  14  15
ENDBRANCH  12  14
ENDBRANCH  11  12
ENDBRANCH   1  11
TORSDOF 12
ENDMDL
MODEL 6
REMARK VINA RESULT:    -3.654      2.337      5.115
REMARK INTER + INTRA:          -8.533
REMARK INTER:                  -5.596
REMARK INTRA:                  -2.936
REMARK UNBOUND:                -2.315
REMARK SMILES CC(=O)CCC[C@H](C)CCC[C@H](C)CCCC(C)C
REMARK SMILES IDX 10 1 11 2 12 3 13 4 14 5 15 6 16 7 17 8 18 9 19 10 9 11 7 12
REMARK SMILES IDX 8 13 6 14 5 15 4 16 2 17 3 18 1 19
REMARK H PARENT
REMARK Flexibility Score: inf
ROOT
ATOM      1  C   UNL     1     115.491 117.745 122.060  1.00  0.00     0.001 C 
ENDROOT
BRANCH   1   2
ATOM      2  C   UNL     1     115.406 116.237 122.358  1.00  0.00     0.003 C 
BRANCH   2   3
ATOM      3  C   UNL     1     116.748 115.496 122.138  1.00  0.00    -0.014 C 
ATOM      4  C   UNL     1     117.948 116.364 122.564  1.00  0.00     0.007 C 
BRANCH   3   5
ATOM      5  C   UNL     1     116.896 115.064 120.648  1.00  0.00     0.003 C 
BRANCH   5   6
ATOM      6  C   UNL     1     115.623 114.421 120.069  1.00  0.00     0.001 C 
BRANCH   6   7
ATOM      7  C   UNL     1     115.343 114.861 118.619  1.00  0.00     0.003 C 
BRANCH   7   8
ATOM      8  C   UNL     1     113.854 115.143 118.310  1.00  0.00    -0.017 C 
ATOM      9  C   UNL     1     113.651 116.458 117.544  1.00  0.00     0.007 C 
ATOM     10  C   UNL     1     112.977 115.102 119.569  1.00  0.00     0.007 C 
ENDBRANCH   7   8
ENDBRANCH   6   7
ENDBRANCH   5   6
ENDBRANCH   3   5
ENDBRANCH   2   3
ENDBRANCH   1   2
BRANCH   1  11
ATOM     11  C   UNL     1     114.711 118.155 120.794  1.00  0.00     0.003 C 
BRANCH  11  12
ATOM     12  C   UNL     1     115.553 118.817 119.670  1.00  0.00    -0.014 C 
ATOM     13  C   UNL     1     115.092 120.261 119.400  1.00  0.00     0.007 C 
BRANCH  12  14
ATOM     14  C   UNL     1     117.051 118.774 120.068  1.00  0.00     0.004 C 
BRANCH  14  15
ATOM     15  C   UNL     1     117.996 118.623 118.864  1.00  0.00     0.008 C 
BRANCH  15  16
ATOM     16  C   UNL     1     117.373 117.731 117.783  1.00  0.00     0.075 C 
BRANCH  16  17
ATOM     17  C   UNL     1     118.436 116.951 117.058  1.00  0.00     0.129 C 
ATOM     18  O   UNL     1     119.000 117.445 116.094  1.00  0.00    -0.300 OA
ATOM     19  C   UNL     1     118.792 115.563 117.498  1.00  0.00     0.087 C 
ENDBRANCH  16  17
ENDBRANCH  15  16
ENDBRANCH  14  15
ENDBRANCH  12  14
ENDBRANCH  11  12
ENDBRANCH   1  11
TORSDOF 12
ENDMDL
MODEL 7
REMARK VINA RESULT:    -3.610      2.844      5.365
REMARK INTER + INTRA:          -8.458
REMARK INTER:                  -6.452
REMARK INTRA:                  -2.007
REMARK UNBOUND:                -2.315
REMARK SMILES CC(=O)CCC[C@H](C)CCC[C@H](C)CCCC(C)C
REMARK SMILES IDX 10 1 11 2 12 3 13 4 14 5 15 6 16 7 17 8 18 9 19 10 9 11 7 12
REMARK SMILES IDX 8 13 6 14 5 15 4 16 2 17 3 18 1 19
REMARK H PARENT
REMARK Flexibility Score: inf
ROOT
ATOM      1  C   UNL     1     115.397 114.941 119.137  1.00  0.00     0.001 C 
ENDROOT
BRANCH   1   2
ATOM      2  C   UNL     1     114.459 115.901 119.892  1.00  0.00     0.003 C 
BRANCH   2   3
ATOM      3  C   UNL     1     114.380 117.307 119.247  1.00  0.00    -0.014 C 
ATOM      4  C   UNL     1     115.227 117.387 117.963  1.00  0.00     0.007 C 
BRANCH   3   5
ATOM      5  C   UNL     1     114.833 118.400 120.262  1.00  0.00     0.003 C 
BRANCH   5   6
ATOM      6  C   UNL     1     115.596 119.564 119.608  1.00  0.00     0.001 C 
BRANCH   6   7
ATOM      7  C   UNL     1     114.713 120.810 119.398  1.00  0.00     0.003 C 
BRANCH   7   8
ATOM      8  C   UNL     1     114.172 120.977 117.959  1.00  0.00    -0.017 C 
ATOM      9  C   UNL     1     115.291 120.991 116.907  1.00  0.00     0.007 C 
ATOM     10  C   UNL     1     113.268 122.208 117.813  1.00  0.00     0.007 C 
ENDBRANCH   7   8
ENDBRANCH   6   7
ENDBRANCH   5   6
ENDBRANCH   3   5
ENDBRANCH   2   3
ENDBRANCH   1   2
BRANCH   1  11
ATOM     11  C   UNL     1     116.693 114.629 119.914  1.00  0.00     0.003 C 
BRANCH  11  12
ATOM     12  C   UNL     1     117.336 115.831 120.657  1.00  0.00    -0.014 C 
ATOM     13  C   UNL     1     117.624 115.489 122.131  1.00  0.00     0.007 C 
BRANCH  12  14
ATOM     14  C   UNL     1     118.633 116.248 119.917  1.00  0.00     0.004 C 
BRANCH  14  15
ATOM     15  C   UNL     1     118.979 117.737 120.090  1.00  0.00     0.008 C 
BRANCH  15  16
ATOM     16  C   UNL     1     119.020 118.454 118.736  1.00  0.00     0.075 C 
BRANCH  16  17
ATOM     17  C   UNL     1     120.357 118.264 118.072  1.00  0.00     0.129 C 
ATOM     18  O   UNL     1     121.339 118.848 118.505  1.00  0.00    -0.300 OA
ATOM     19  C   UNL     1     120.488 117.378 116.870  1.00  0.00     0.087 C 
ENDBRANCH  16  17
ENDBRANCH  15  16
ENDBRANCH  14  15
ENDBRANCH  12  14
ENDBRANCH  11  12
ENDBRANCH   1  11
TORSDOF 12
ENDMDL
MODEL 8
REMARK VINA RESULT:    -3.547      2.699      5.327
REMARK INTER + INTRA:          -8.350
REMARK INTER:                  -6.013
REMARK INTRA:                  -2.337
REMARK UNBOUND:                -2.315
REMARK SMILES CC(=O)CCC[C@H](C)CCC[C@H](C)CCCC(C)C
REMARK SMILES IDX 10 1 11 2 12 3 13 4 14 5 15 6 16 7 17 8 18 9 19 10 9 11 7 12
REMARK SMILES IDX 8 13 6 14 5 15 4 16 2 17 3 18 1 19
REMARK H PARENT
REMARK Flexibility Score: inf
ROOT
ATOM      1  C   UNL     1     117.394 117.428 121.765  1.00  0.00     0.001 C 
ENDROOT
BRANCH   1   2
ATOM      2  C   UNL     1     118.220 118.431 120.939  1.00  0.00     0.003 C 
BRANCH   2   3
ATOM      3  C   UNL     1     118.797 117.820 119.638  1.00  0.00    -0.014 C 
ATOM      4  C   UNL     1     120.313 118.067 119.523  1.00  0.00     0.007 C 
BRANCH   3   5
ATOM      5  C   UNL     1     118.059 118.395 118.391  1.00  0.00     0.003 C 
BRANCH   5   6
ATOM      6  C   UNL     1     116.598 117.925 118.274  1.00  0.00     0.001 C 
BRANCH   6   7
ATOM      7  C   UNL     1     115.715 118.923 117.500  1.00  0.00     0.003 C 
BRANCH   7   8
ATOM      8  C   UNL     1     114.665 119.657 118.366  1.00  0.00    -0.017 C 
ATOM      9  C   UNL     1     114.506 121.133 117.972  1.00  0.00     0.007 C 
ATOM     10  C   UNL     1     114.944 119.519 119.868  1.00  0.00     0.007 C 
ENDBRANCH   7   8
ENDBRANCH   6   7
ENDBRANCH   5   6
ENDBRANCH   3   5
ENDBRANCH   2   3
ENDBRANCH   1   2
BRANCH   1  11
ATOM     11  C   UNL     1     117.665 115.960 121.375  1.00  0.00     0.003 C 
BRANCH  11  12
ATOM     12  C   UNL     1     116.407 115.105 121.059  1.00  0.00    -0.014 C 
ATOM     13  C   UNL     1     115.134 115.972 121.026  1.00  0.00     0.007 C 
BRANCH  12  14
ATOM     14  C   UNL     1     116.620 114.373 119.710  1.00  0.00     0.004 C 
BRANCH  14  15
ATOM     15  C   UNL     1     118.094 114.039 119.425  1.00  0.00     0.008 C 
BRANCH  15  16
ATOM     16  C   UNL     1     118.470 114.391 117.981  1.00  0.00     0.075 C 
BRANCH  16  17
ATOM     17  C   UNL     1     118.822 113.152 117.204  1.00  0.00     0.129 C 
ATOM     18  O   UNL     1     119.034 113.228 116.003  1.00  0.00    -0.300 OA
ATOM     19  C   UNL     1     118.895 111.820 117.890  1.00  0.00     0.087 C 
ENDBRANCH  16  17
ENDBRANCH  15  16
ENDBRANCH  14  15
ENDBRANCH  12  14
ENDBRANCH  11  12
ENDBRANCH   1  11
TORSDOF 12
ENDMDL
MODEL 9
REMARK VINA RESULT:    -3.543      2.210      4.914
REMARK INTER + INTRA:          -8.343
REMARK INTER:                  -5.477
REMARK INTRA:                  -2.866
REMARK UNBOUND:                -2.315
REMARK SMILES CC(=O)CCC[C@H](C)CCC[C@H](C)CCCC(C)C
REMARK SMILES IDX 10 1 11 2 12 3 13 4 14 5 15 6 16 7 17 8 18 9 19 10 9 11 7 12
REMARK SMILES IDX 8 13 6 14 5 15 4 16 2 17 3 18 1 19
REMARK H PARENT
REMARK Flexibility Score: inf
ROOT
ATOM      1  C   UNL     1     118.077 116.946 120.850  1.00  0.00     0.001 C 
ENDROOT
BRANCH   1   2
ATOM      2  C   UNL     1     118.538 118.223 120.122  1.00  0.00     0.003 C 
BRANCH   2   3
ATOM      3  C   UNL     1     117.737 118.508 118.827  1.00  0.00    -0.014 C 
ATOM      4  C   UNL     1     116.452 119.303 119.122  1.00  0.00     0.007 C 
BRANCH   3   5
ATOM      5  C   UNL     1     117.392 117.176 118.094  1.00  0.00     0.003 C 
BRANCH   5   6
ATOM      6  C   UNL     1     118.596 116.547 117.371  1.00  0.00     0.001 C 
BRANCH   6   7
ATOM      7  C   UNL     1     118.661 115.017 117.546  1.00  0.00     0.003 C 
BRANCH   7   8
ATOM      8  C   UNL     1     117.421 114.396 118.232  1.00  0.00    -0.017 C 
ATOM      9  C   UNL     1     117.798 113.416 119.353  1.00  0.00     0.007 C 
ATOM     10  C   UNL     1     116.464 113.739 117.229  1.00  0.00     0.007 C 
ENDBRANCH   7   8
ENDBRANCH   6   7
ENDBRANCH   5   6
ENDBRANCH   3   5
ENDBRANCH   2   3
ENDBRANCH   1   2
BRANCH   1  11
ATOM     11  C   UNL     1     117.350 117.239 122.178  1.00  0.00     0.003 C 
BRANCH  11  12
ATOM     12  C   UNL     1     115.847 116.849 122.222  1.00  0.00    -0.014 C 
ATOM     13  C   UNL     1     114.943 118.093 122.133  1.00  0.00     0.007 C 
BRANCH  12  14
ATOM     14  C   UNL     1     115.548 115.858 121.069  1.00  0.00     0.004 C 
BRANCH  14  15
ATOM     15  C   UNL     1     114.404 116.321 120.151  1.00  0.00     0.008 C 
BRANCH  15  16
ATOM     16  C   UNL     1     113.590 115.127 119.639  1.00  0.00     0.075 C 
BRANCH  16  17
ATOM     17  C   UNL     1     113.134 115.359 118.224  1.00  0.00     0.129 C 
ATOM     18  O   UNL     1     112.230 114.681 117.759  1.00  0.00    -0.300 OA
ATOM     19  C   UNL     1     113.794 116.403 117.375  1.00  0.00     0.087 C 
ENDBRANCH  16  17
ENDBRANCH  15  16
ENDBRANCH  14  15
ENDBRANCH  12  14
ENDBRANCH  11  12
ENDBRANCH   1  11
TORSDOF 12
ENDMDL
