MODEL 1
REMARK VINA RESULT:     1.857      0.000      0.000
REMARK INTER + INTRA:           2.475
REMARK INTER:                   2.834
REMARK INTRA:                  -0.359
REMARK UNBOUND:                -0.359
REMARK SMILES OC[C@@H]1O[C@H](O[C@]2(CO)O[C@@H](CO)[C@@H](O)[C@H]2O)[C@H](O)[C@@H](O)[C@H]1O
REMARK SMILES IDX 6 1 5 2 3 3 22 4 4 5 20 6 18 7 2 8 1 9 23 11 21 13 19 15
REMARK SMILES IDX 7 17 16 18 10 19 14 20 11 21 8 22 9 23 17 25 15 27 12 29
REMARK SMILES IDX 13 30
REMARK H PARENT 1 10 23 12 21 14 19 16 9 24 17 26 15 28 13 31
REMARK Flexibility Score: inf
ROOT
ATOM      1  O   UNL     1     108.647 106.391 111.698  1.00  0.00    -0.313 OA
ENDROOT
BRANCH   1   2
ATOM      2  C   UNL     1     107.408 106.699 112.321  1.00  0.00     0.285 C 
ATOM      3  C   UNL     1     105.188 105.996 112.486  1.00  0.00     0.178 C 
ATOM      4  C   UNL     1     105.190 105.999 114.035  1.00  0.00     0.177 C 
ATOM      5  O   UNL     1     106.479 105.682 111.987  1.00  0.00    -0.341 OA
ATOM      6  C   UNL     1     106.292 106.930 114.592  1.00  0.00     0.179 C 
ATOM      7  C   UNL     1     107.629 106.738 113.847  1.00  0.00     0.202 C 
BRANCH   3   8
ATOM      8  C   UNL     1     104.188 104.966 111.943  1.00  0.00     0.191 C 
BRANCH   8   9
ATOM      9  O   UNL     1     102.956 105.579 111.673  1.00  0.00    -0.394 OA
ATOM     10  H   UNL     1     103.121 106.247 110.954  1.00  0.00     0.210 HD
ENDBRANCH   8   9
ENDBRANCH   3   8
BRANCH   4  11
ATOM     11  O   UNL     1     103.930 106.397 114.516  1.00  0.00    -0.387 OA
ATOM     12  H   UNL     1     103.251 106.013 113.900  1.00  0.00     0.211 HD
ENDBRANCH   4  11
BRANCH   6  13
ATOM     13  O   UNL     1     105.892 108.279 114.587  1.00  0.00    -0.387 OA
ATOM     14  H   UNL     1     106.551 108.804 115.108  1.00  0.00     0.211 HD
ENDBRANCH   6  13
BRANCH   7  15
ATOM     15  O   UNL     1     108.222 105.534 114.271  1.00  0.00    -0.385 OA
ATOM     16  H   UNL     1     108.771 105.750 115.070  1.00  0.00     0.211 HD
ENDBRANCH   7  15
ENDBRANCH   1   2
BRANCH   1  17
ATOM     17  C   UNL     1     108.769 106.885 110.365  1.00  0.00     0.224 C 
ATOM     18  C   UNL     1     108.918 105.660 109.426  1.00  0.00     0.208 C 
ATOM     19  O   UNL     1     107.596 107.590 109.973  1.00  0.00    -0.337 OA
ATOM     20  C   UNL     1     107.946 105.945 108.302  1.00  0.00     0.180 C 
ATOM     21  C   UNL     1     106.920 106.812 109.016  1.00  0.00     0.179 C 
BRANCH  17  22
ATOM     22  C   UNL     1     109.988 107.846 110.285  1.00  0.00     0.225 C 
BRANCH  22  23
ATOM     23  O   UNL     1     110.265 108.220 108.961  1.00  0.00    -0.391 OA
ATOM     24  H   UNL     1     111.253 108.219 108.863  1.00  0.00     0.210 HD
ENDBRANCH  22  23
ENDBRANCH  17  22
BRANCH  18  25
ATOM     25  O   UNL     1     110.234 105.472 108.968  1.00  0.00    -0.385 OA
ATOM     26  H   UNL     1     110.720 106.323 109.130  1.00  0.00     0.211 HD
ENDBRANCH  18  25
BRANCH  20  27
ATOM     27  O   UNL     1     108.573 106.659 107.264  1.00  0.00    -0.387 OA
ATOM     28  H   UNL     1     107.854 107.132 106.767  1.00  0.00     0.211 HD
ENDBRANCH  20  27
BRANCH  21  29
ATOM     29  C   UNL     1     106.114 107.715 108.074  1.00  0.00     0.191 C 
BRANCH  29  30
ATOM     30  O   UNL     1     106.574 107.570 106.759  1.00  0.00    -0.394 OA
ATOM     31  H   UNL     1     107.162 106.770 106.746  1.00  0.00     0.210 HD
ENDBRANCH  29  30
ENDBRANCH  21  29
ENDBRANCH   1  17
TORSDOF 13
ENDMDL
MODEL 2
REMARK VINA RESULT:     2.310      2.116      6.181
REMARK INTER + INTRA:           3.166
REMARK INTER:                   3.785
REMARK INTRA:                  -0.618
REMARK UNBOUND:                -0.359
REMARK SMILES OC[C@@H]1O[C@H](O[C@]2(CO)O[C@@H](CO)[C@@H](O)[C@H]2O)[C@H](O)[C@@H](O)[C@H]1O
REMARK SMILES IDX 6 1 5 2 3 3 22 4 4 5 20 6 18 7 2 8 1 9 23 11 21 13 19 15
REMARK SMILES IDX 7 17 16 18 10 19 14 20 11 21 8 22 9 23 17 25 15 27 12 29
REMARK SMILES IDX 13 30
REMARK H PARENT 1 10 23 12 21 14 19 16 9 24 17 26 15 28 13 31
REMARK Flexibility Score: inf
ROOT
ATOM      1  O   UNL     1     108.508 106.135 109.617  1.00  0.00    -0.313 OA
ENDROOT
BRANCH   1   2
ATOM      2  C   UNL     1     109.842 106.274 110.087  1.00  0.00     0.285 C 
ATOM      3  C   UNL     1     111.986 105.374 109.880  1.00  0.00     0.178 C 
ATOM      4  C   UNL     1     112.655 106.749 109.627  1.00  0.00     0.177 C 
ATOM      5  O   UNL     1     110.661 105.364 109.372  1.00  0.00    -0.341 OA
ATOM      6  C   UNL     1     111.789 107.904 110.185  1.00  0.00     0.179 C 
ATOM      7  C   UNL     1     110.301 107.723 109.824  1.00  0.00     0.202 C 
BRANCH   3   8
ATOM      8  C   UNL     1     112.780 104.250 109.203  1.00  0.00     0.191 C 
BRANCH   8   9
ATOM      9  O   UNL     1     112.043 103.057 109.216  1.00  0.00    -0.394 OA
ATOM     10  H   UNL     1     112.006 102.733 108.276  1.00  0.00     0.210 HD
ENDBRANCH   8   9
ENDBRANCH   3   8
BRANCH   4  11
ATOM     11  O   UNL     1     113.933 106.777 110.212  1.00  0.00    -0.387 OA
ATOM     12  H   UNL     1     114.009 107.641 110.699  1.00  0.00     0.211 HD
ENDBRANCH   4  11
BRANCH   6  13
ATOM     13  O   UNL     1     111.964 108.070 111.571  1.00  0.00    -0.387 OA
ATOM     14  H   UNL     1     112.725 108.686 111.720  1.00  0.00     0.211 HD
ENDBRANCH   6  13
BRANCH   7  15
ATOM     15  O   UNL     1     110.115 108.041 108.465  1.00  0.00    -0.385 OA
ATOM     16  H   UNL     1     110.933 108.518 108.167  1.00  0.00     0.211 HD
ENDBRANCH   7  15
ENDBRANCH   1   2
BRANCH   1  17
ATOM     17  C   UNL     1     107.521 106.651 110.508  1.00  0.00     0.224 C 
ATOM     18  C   UNL     1     106.587 105.476 110.900  1.00  0.00     0.208 C 
ATOM     19  O   UNL     1     108.117 107.145 111.702  1.00  0.00    -0.337 OA
ATOM     20  C   UNL     1     106.465 105.596 112.403  1.00  0.00     0.180 C 
ATOM     21  C   UNL     1     107.785 106.269 112.750  1.00  0.00     0.179 C 
BRANCH  17  22
ATOM     22  C   UNL     1     106.755 107.808 109.808  1.00  0.00     0.225 C 
BRANCH  22  23
ATOM     23  O   UNL     1     106.389 107.468 108.496  1.00  0.00    -0.391 OA
ATOM     24  H   UNL     1     106.988 107.976 107.890  1.00  0.00     0.210 HD
ENDBRANCH  22  23
ENDBRANCH  17  22
BRANCH  18  25
ATOM     25  O   UNL     1     105.340 105.521 110.251  1.00  0.00    -0.385 OA
ATOM     26  H   UNL     1     105.522 105.521 109.275  1.00  0.00     0.211 HD
ENDBRANCH  18  25
BRANCH  20  27
ATOM     27  O   UNL     1     105.376 106.414 112.755  1.00  0.00    -0.387 OA
ATOM     28  H   UNL     1     105.596 106.822 113.635  1.00  0.00     0.211 HD
ENDBRANCH  20  27
BRANCH  21  29
ATOM     29  C   UNL     1     107.759 107.026 114.084  1.00  0.00     0.191 C 
BRANCH  29  30
ATOM     30  O   UNL     1     107.133 106.248 115.066  1.00  0.00    -0.394 OA
ATOM     31  H   UNL     1     106.262 105.955 114.689  1.00  0.00     0.210 HD
ENDBRANCH  29  30
ENDBRANCH  21  29
ENDBRANCH   1  17
TORSDOF 13
ENDMDL
MODEL 3
REMARK VINA RESULT:     3.335      2.681      6.366
REMARK INTER + INTRA:           4.731
REMARK INTER:                   5.411
REMARK INTRA:                  -0.680
REMARK UNBOUND:                -0.359
REMARK SMILES OC[C@@H]1O[C@H](O[C@]2(CO)O[C@@H](CO)[C@@H](O)[C@H]2O)[C@H](O)[C@@H](O)[C@H]1O
REMARK SMILES IDX 6 1 5 2 3 3 22 4 4 5 20 6 18 7 2 8 1 9 23 11 21 13 19 15
REMARK SMILES IDX 7 17 16 18 10 19 14 20 11 21 8 22 9 23 17 25 15 27 12 29
REMARK SMILES IDX 13 30
REMARK H PARENT 1 10 23 12 21 14 19 16 9 24 17 26 15 28 13 31
REMARK Flexibility Score: inf
ROOT
ATOM      1  O   UNL     1     110.334 106.123 109.798  1.00  0.00    -0.313 OA
ENDROOT
BRANCH   1   2
ATOM      2  C   UNL     1     111.422 107.033 109.719  1.00  0.00     0.285 C 
ATOM      3  C   UNL     1     112.492 108.753 110.878  1.00  0.00     0.178 C 
ATOM      4  C   UNL     1     113.898 108.118 110.739  1.00  0.00     0.177 C 
ATOM      5  O   UNL     1     111.495 107.746 110.941  1.00  0.00    -0.341 OA
ATOM      6  C   UNL     1     113.955 107.140 109.541  1.00  0.00     0.179 C 
ATOM      7  C   UNL     1     112.716 106.223 109.498  1.00  0.00     0.202 C 
BRANCH   3   8
ATOM      8  C   UNL     1     112.405 109.611 112.147  1.00  0.00     0.191 C 
BRANCH   8   9
ATOM      9  O   UNL     1     113.125 109.012 113.190  1.00  0.00    -0.394 OA
ATOM     10  H   UNL     1     113.732 108.343 112.772  1.00  0.00     0.210 HD
ENDBRANCH   8   9
ENDBRANCH   3   8
BRANCH   4  11
ATOM     11  O   UNL     1     114.868 109.125 110.588  1.00  0.00    -0.387 OA
ATOM     12  H   UNL     1     114.831 109.686 111.408  1.00  0.00     0.211 HD
ENDBRANCH   4  11
BRANCH   6  13
ATOM     13  O   UNL     1     114.136 107.815 108.320  1.00  0.00    -0.387 OA
ATOM     14  H   UNL     1     113.611 108.655 108.345  1.00  0.00     0.211 HD
ENDBRANCH   6  13
BRANCH   7  15
ATOM     15  O   UNL     1     112.837 105.240 110.498  1.00  0.00    -0.385 OA
ATOM     16  H   UNL     1     113.160 105.700 111.316  1.00  0.00     0.211 HD
ENDBRANCH   7  15
ENDBRANCH   1   2
BRANCH   1  17
ATOM     17  C   UNL     1     109.050 106.743 109.739  1.00  0.00     0.224 C 
ATOM     18  C   UNL     1     108.235 106.022 108.633  1.00  0.00     0.208 C 
ATOM     19  O   UNL     1     108.348 106.583 110.966  1.00  0.00    -0.337 OA
ATOM     20  C   UNL     1     106.894 105.762 109.284  1.00  0.00     0.180 C 
ATOM     21  C   UNL     1     107.291 105.681 110.750  1.00  0.00     0.179 C 
BRANCH  17  22
ATOM     22  C   UNL     1     109.228 108.260 109.450  1.00  0.00     0.225 C 
BRANCH  22  23
ATOM     23  O   UNL     1     108.007 108.947 109.524  1.00  0.00    -0.391 OA
ATOM     24  H   UNL     1     107.289 108.271 109.409  1.00  0.00     0.210 HD
ENDBRANCH  22  23
ENDBRANCH  17  22
BRANCH  18  25
ATOM     25  O   UNL     1     108.125 106.773 107.449  1.00  0.00    -0.385 OA
ATOM     26  H   UNL     1     108.698 106.328 106.771  1.00  0.00     0.211 HD
ENDBRANCH  18  25
BRANCH  20  27
ATOM     27  O   UNL     1     106.011 106.834 109.060  1.00  0.00    -0.387 OA
ATOM     28  H   UNL     1     106.232 107.206 108.165  1.00  0.00     0.211 HD
ENDBRANCH  20  27
BRANCH  21  29
ATOM     29  C   UNL     1     106.139 105.975 111.718  1.00  0.00     0.191 C 
BRANCH  29  30
ATOM     30  O   UNL     1     106.504 105.620 113.023  1.00  0.00    -0.394 OA
ATOM     31  H   UNL     1     106.448 106.446 113.572  1.00  0.00     0.210 HD
ENDBRANCH  29  30
ENDBRANCH  21  29
ENDBRANCH   1  17
TORSDOF 13
ENDMDL
MODEL 4
REMARK VINA RESULT:     4.142      2.664      5.502
REMARK INTER + INTRA:           5.962
REMARK INTER:                   5.713
REMARK INTRA:                   0.249
REMARK UNBOUND:                -0.359
REMARK SMILES OC[C@@H]1O[C@H](O[C@]2(CO)O[C@@H](CO)[C@@H](O)[C@H]2O)[C@H](O)[C@@H](O)[C@H]1O
REMARK SMILES IDX 6 1 5 2 3 3 22 4 4 5 20 6 18 7 2 8 1 9 23 11 21 13 19 15
REMARK SMILES IDX 7 17 16 18 10 19 14 20 11 21 8 22 9 23 17 25 15 27 12 29
REMARK SMILES IDX 13 30
REMARK H PARENT 1 10 23 12 21 14 19 16 9 24 17 26 15 28 13 31
REMARK Flexibility Score: inf
ROOT
ATOM      1  O   UNL     1     110.730 107.440 108.896  1.00  0.00    -0.313 OA
ENDROOT
BRANCH   1   2
ATOM      2  C   UNL     1     109.470 106.786 108.952  1.00  0.00     0.285 C 
ATOM      3  C   UNL     1     107.695 106.296 110.387  1.00  0.00     0.178 C 
ATOM      4  C   UNL     1     106.616 106.819 109.406  1.00  0.00     0.177 C 
ATOM      5  O   UNL     1     108.904 107.021 110.231  1.00  0.00    -0.341 OA
ATOM      6  C   UNL     1     107.135 106.814 107.949  1.00  0.00     0.179 C 
ATOM      7  C   UNL     1     108.566 107.382 107.853  1.00  0.00     0.202 C 
BRANCH   3   8
ATOM      8  C   UNL     1     107.224 106.435 111.841  1.00  0.00     0.191 C 
BRANCH   8   9
ATOM      9  O   UNL     1     106.419 105.344 112.199  1.00  0.00    -0.394 OA
ATOM     10  H   UNL     1     105.510 105.707 112.382  1.00  0.00     0.210 HD
ENDBRANCH   8   9
ENDBRANCH   3   8
BRANCH   4  11
ATOM     11  O   UNL     1     105.453 106.035 109.508  1.00  0.00    -0.387 OA
ATOM     12  H   UNL     1     105.732 105.088 109.387  1.00  0.00     0.211 HD
ENDBRANCH   4  11
BRANCH   6  13
ATOM     13  O   UNL     1     107.051 105.536 107.365  1.00  0.00    -0.387 OA
ATOM     14  H   UNL     1     107.961 105.147 107.331  1.00  0.00     0.211 HD
ENDBRANCH   6  13
BRANCH   7  15
ATOM     15  O   UNL     1     108.514 108.782 107.988  1.00  0.00    -0.385 OA
ATOM     16  H   UNL     1     109.272 109.043 108.574  1.00  0.00     0.211 HD
ENDBRANCH   7  15
ENDBRANCH   1   2
BRANCH   1  17
ATOM     17  C   UNL     1     111.646 107.028 109.910  1.00  0.00     0.224 C 
ATOM     18  C   UNL     1     113.067 107.448 109.452  1.00  0.00     0.208 C 
ATOM     19  O   UNL     1     111.376 107.689 111.140  1.00  0.00    -0.337 OA
ATOM     20  C   UNL     1     113.664 108.102 110.679  1.00  0.00     0.180 C 
ATOM     21  C   UNL     1     112.412 108.610 111.378  1.00  0.00     0.179 C 
BRANCH  17  22
ATOM     22  C   UNL     1     111.520 105.494 110.120  1.00  0.00     0.225 C 
BRANCH  22  23
ATOM     23  O   UNL     1     112.382 104.782 109.272  1.00  0.00    -0.391 OA
ATOM     24  H   UNL     1     112.389 105.261 108.402  1.00  0.00     0.210 HD
ENDBRANCH  22  23
ENDBRANCH  17  22
BRANCH  18  25
ATOM     25  O   UNL     1     113.838 106.368 108.986  1.00  0.00    -0.385 OA
ATOM     26  H   UNL     1     113.337 105.960 108.231  1.00  0.00     0.211 HD
ENDBRANCH  18  25
BRANCH  20  27
ATOM     27  O   UNL     1     114.336 107.157 111.476  1.00  0.00    -0.387 OA
ATOM     28  H   UNL     1     114.898 107.669 112.116  1.00  0.00     0.211 HD
ENDBRANCH  20  27
BRANCH  21  29
ATOM     29  C   UNL     1     112.592 108.827 112.885  1.00  0.00     0.191 C 
BRANCH  29  30
ATOM     30  O   UNL     1     113.635 109.733 113.119  1.00  0.00    -0.394 OA
ATOM     31  H   UNL     1     113.418 110.558 112.611  1.00  0.00     0.210 HD
ENDBRANCH  29  30
ENDBRANCH  21  29
ENDBRANCH   1  17
TORSDOF 13
ENDMDL
MODEL 5
REMARK VINA RESULT:     4.341      1.235      2.835
REMARK INTER + INTRA:           6.266
REMARK INTER:                   6.922
REMARK INTRA:                  -0.656
REMARK UNBOUND:                -0.359
REMARK SMILES OC[C@@H]1O[C@H](O[C@]2(CO)O[C@@H](CO)[C@@H](O)[C@H]2O)[C@H](O)[C@@H](O)[C@H]1O
REMARK SMILES IDX 6 1 5 2 3 3 22 4 4 5 20 6 18 7 2 8 1 9 23 11 21 13 19 15
REMARK SMILES IDX 7 17 16 18 10 19 14 20 11 21 8 22 9 23 17 25 15 27 12 29
REMARK SMILES IDX 13 30
REMARK H PARENT 1 10 23 12 21 14 19 16 9 24 17 26 15 28 13 31
REMARK Flexibility Score: inf
ROOT
ATOM      1  O   UNL     1     107.406 105.441 110.493  1.00  0.00    -0.313 OA
ENDROOT
BRANCH   1   2
ATOM      2  C   UNL     1     106.717 106.182 111.491  1.00  0.00     0.285 C 
ATOM      3  C   UNL     1     104.687 106.314 112.635  1.00  0.00     0.178 C 
ATOM      4  C   UNL     1     105.353 106.350 114.033  1.00  0.00     0.177 C 
ATOM      5  O   UNL     1     105.469 105.553 111.729  1.00  0.00    -0.341 OA
ATOM      6  C   UNL     1     106.817 106.842 113.943  1.00  0.00     0.179 C 
ATOM      7  C   UNL     1     107.571 106.172 112.776  1.00  0.00     0.202 C 
BRANCH   3   8
ATOM      8  C   UNL     1     103.285 105.694 112.714  1.00  0.00     0.191 C 
BRANCH   8   9
ATOM      9  O   UNL     1     102.829 105.356 111.432  1.00  0.00    -0.394 OA
ATOM     10  H   UNL     1     103.571 105.562 110.801  1.00  0.00     0.210 HD
ENDBRANCH   8   9
ENDBRANCH   3   8
BRANCH   4  11
ATOM     11  O   UNL     1     104.616 107.179 114.896  1.00  0.00    -0.387 OA
ATOM     12  H   UNL     1     105.260 107.820 115.299  1.00  0.00     0.211 HD
ENDBRANCH   4  11
BRANCH   6  13
ATOM     13  O   UNL     1     106.896 108.245 113.867  1.00  0.00    -0.387 OA
ATOM     14  H   UNL     1     106.572 108.529 112.976  1.00  0.00     0.211 HD
ENDBRANCH   6  13
BRANCH   7  15
ATOM     15  O   UNL     1     107.881 104.846 113.130  1.00  0.00    -0.385 OA
ATOM     16  H   UNL     1     108.010 104.834 114.115  1.00  0.00     0.211 HD
ENDBRANCH   7  15
ENDBRANCH   1   2
BRANCH   1  17
ATOM     17  C   UNL     1     108.235 106.236 109.646  1.00  0.00     0.224 C 
ATOM     18  C   UNL     1     108.478 107.587 110.369  1.00  0.00     0.208 C 
ATOM     19  O   UNL     1     109.501 105.619 109.447  1.00  0.00    -0.337 OA
ATOM     20  C   UNL     1     109.970 107.805 110.236  1.00  0.00     0.180 C 
ATOM     21  C   UNL     1     110.467 106.370 110.141  1.00  0.00     0.179 C 
BRANCH  17  22
ATOM     22  C   UNL     1     107.536 106.417 108.270  1.00  0.00     0.225 C 
BRANCH  22  23
ATOM     23  O   UNL     1     108.272 107.260 107.423  1.00  0.00    -0.391 OA
ATOM     24  H   UNL     1     107.703 108.053 107.243  1.00  0.00     0.210 HD
ENDBRANCH  22  23
ENDBRANCH  17  22
BRANCH  18  25
ATOM     25  O   UNL     1     107.728 108.646 109.827  1.00  0.00    -0.385 OA
ATOM     26  H   UNL     1     106.936 108.769 110.415  1.00  0.00     0.211 HD
ENDBRANCH  18  25
BRANCH  20  27
ATOM     27  O   UNL     1     110.271 108.521 109.063  1.00  0.00    -0.387 OA
ATOM     28  H   UNL     1     110.509 107.849 108.370  1.00  0.00     0.211 HD
ENDBRANCH  20  27
BRANCH  21  29
ATOM     29  C   UNL     1     111.833 106.235 109.458  1.00  0.00     0.191 C 
BRANCH  29  30
ATOM     30  O   UNL     1     112.677 107.278 109.860  1.00  0.00    -0.394 OA
ATOM     31  H   UNL     1     113.475 107.247 109.270  1.00  0.00     0.210 HD
ENDBRANCH  29  30
ENDBRANCH  21  29
ENDBRANCH   1  17
TORSDOF 13
ENDMDL
MODEL 6
REMARK VINA RESULT:     4.826      2.249      4.620
REMARK INTER + INTRA:           7.006
REMARK INTER:                   5.994
REMARK INTRA:                   1.013
REMARK UNBOUND:                -0.359
REMARK SMILES OC[C@@H]1O[C@H](O[C@]2(CO)O[C@@H](CO)[C@@H](O)[C@H]2O)[C@H](O)[C@@H](O)[C@H]1O
REMARK SMILES IDX 6 1 5 2 3 3 22 4 4 5 20 6 18 7 2 8 1 9 23 11 21 13 19 15
REMARK SMILES IDX 7 17 16 18 10 19 14 20 11 21 8 22 9 23 17 25 15 27 12 29
REMARK SMILES IDX 13 30
REMARK H PARENT 1 10 23 12 21 14 19 16 9 24 17 26 15 28 13 31
REMARK Flexibility Score: inf
ROOT
ATOM      1  O   UNL     1     109.877 107.445 110.797  1.00  0.00    -0.313 OA
ENDROOT
BRANCH   1   2
ATOM      2  C   UNL     1     108.734 106.727 110.351  1.00  0.00     0.285 C 
ATOM      3  C   UNL     1     106.754 105.741 111.095  1.00  0.00     0.178 C 
ATOM      4  C   UNL     1     105.875 106.455 110.037  1.00  0.00     0.177 C 
ATOM      5  O   UNL     1     107.861 106.554 111.453  1.00  0.00    -0.341 OA
ATOM      6  C   UNL     1     106.716 106.896 108.816  1.00  0.00     0.179 C 
ATOM      7  C   UNL     1     108.042 107.554 109.248  1.00  0.00     0.202 C 
BRANCH   3   8
ATOM      8  C   UNL     1     105.942 105.432 112.360  1.00  0.00     0.191 C 
BRANCH   8   9
ATOM      9  O   UNL     1     106.575 105.972 113.489  1.00  0.00    -0.394 OA
ATOM     10  H   UNL     1     105.881 106.479 113.991  1.00  0.00     0.210 HD
ENDBRANCH   8   9
ENDBRANCH   3   8
BRANCH   4  11
ATOM     11  O   UNL     1     104.833 105.605 109.625  1.00  0.00    -0.387 OA
ATOM     12  H   UNL     1     104.818 105.629 108.631  1.00  0.00     0.211 HD
ENDBRANCH   4  11
BRANCH   6  13
ATOM     13  O   UNL     1     106.939 105.834 107.920  1.00  0.00    -0.387 OA
ATOM     14  H   UNL     1     106.189 105.807 107.274  1.00  0.00     0.211 HD
ENDBRANCH   6  13
BRANCH   7  15
ATOM     15  O   UNL     1     107.778 108.853 109.724  1.00  0.00    -0.385 OA
ATOM     16  H   UNL     1     106.791 108.941 109.784  1.00  0.00     0.211 HD
ENDBRANCH   7  15
ENDBRANCH   1   2
BRANCH   1  17
ATOM     17  C   UNL     1     111.013 107.321 109.943  1.00  0.00     0.224 C 
ATOM     18  C   UNL     1     112.276 107.561 110.811  1.00  0.00     0.208 C 
ATOM     19  O   UNL     1     111.104 106.008 109.402  1.00  0.00    -0.337 OA
ATOM     20  C   UNL     1     113.201 106.428 110.426  1.00  0.00     0.180 C 
ATOM     21  C   UNL     1     112.199 105.363 110.005  1.00  0.00     0.179 C 
BRANCH  17  22
ATOM     22  C   UNL     1     110.892 108.342 108.778  1.00  0.00     0.225 C 
BRANCH  22  23
ATOM     23  O   UNL     1     109.999 107.897 107.791  1.00  0.00    -0.391 OA
ATOM     24  H   UNL     1     109.797 106.946 107.994  1.00  0.00     0.210 HD
ENDBRANCH  22  23
ENDBRANCH  17  22
BRANCH  18  25
ATOM     25  O   UNL     1     112.856 108.826 110.605  1.00  0.00    -0.385 OA
ATOM     26  H   UNL     1     112.136 109.421 110.265  1.00  0.00     0.211 HD
ENDBRANCH  18  25
BRANCH  20  27
ATOM     27  O   UNL     1     114.026 106.797 109.347  1.00  0.00    -0.387 OA
ATOM     28  H   UNL     1     114.853 107.184 109.738  1.00  0.00     0.211 HD
ENDBRANCH  20  27
BRANCH  21  29
ATOM     29  C   UNL     1     112.781 104.310 109.055  1.00  0.00     0.191 C 
BRANCH  29  30
ATOM     30  O   UNL     1     112.078 103.105 109.182  1.00  0.00    -0.394 OA
ATOM     31  H   UNL     1     112.026 102.904 110.154  1.00  0.00     0.210 HD
ENDBRANCH  29  30
ENDBRANCH  21  29
ENDBRANCH   1  17
TORSDOF 13
ENDMDL
