MODEL 1
REMARK VINA RESULT:    -0.513      0.000      0.000
REMARK INTER + INTRA:          -0.822
REMARK INTER:                  -0.783
REMARK INTRA:                  -0.039
REMARK UNBOUND:                -0.039
REMARK SMILES CC(=O)CCC=C(C)CCC=C(C)CCC=C(C)C
REMARK SMILES IDX 10 1 11 2 12 3 13 4 14 5 15 6 16 7 18 8 17 9 19 10 9 11 7 12
REMARK SMILES IDX 6 13 8 14 5 15 4 16 2 17 3 18 1 19
REMARK H PARENT
REMARK Flexibility Score: inf
ROOT
ATOM      1  C   UNL     1      -8.019 -22.180  20.977  1.00  0.00     0.032 C 
ENDROOT
BRANCH   1   2
ATOM      2  C   UNL     1      -9.323 -22.560  20.317  1.00  0.00    -0.028 C 
ATOM      3  C   UNL     1      -9.786 -23.824  20.189  1.00  0.00    -0.077 C 
ATOM      4  C   UNL     1     -11.125 -24.030  19.529  1.00  0.00     0.039 C 
BRANCH   3   5
ATOM      5  C   UNL     1      -8.991 -25.044  20.609  1.00  0.00     0.034 C 
BRANCH   5   6
ATOM      6  C   UNL     1      -7.640 -25.082  19.887  1.00  0.00     0.032 C 
BRANCH   6   7
ATOM      7  C   UNL     1      -6.504 -25.060  20.878  1.00  0.00    -0.028 C 
ATOM      8  C   UNL     1      -4.171 -24.944  21.643  1.00  0.00     0.039 C 
ATOM      9  C   UNL     1      -5.203 -24.903  20.546  1.00  0.00    -0.080 C 
ATOM     10  C   UNL     1      -4.764 -24.672  19.119  1.00  0.00     0.039 C 
ENDBRANCH   6   7
ENDBRANCH   5   6
ENDBRANCH   3   5
ENDBRANCH   1   2
BRANCH   1  11
ATOM     11  C   UNL     1      -8.186 -21.949  22.486  1.00  0.00     0.034 C 
BRANCH  11  12
ATOM     12  C   UNL     1      -9.556 -22.378  22.969  1.00  0.00    -0.077 C 
ATOM     13  C   UNL     1      -9.739 -23.649  23.396  1.00  0.00    -0.028 C 
ATOM     14  C   UNL     1     -10.695 -21.389  22.892  1.00  0.00     0.039 C 
BRANCH  13  15
ATOM     15  C   UNL     1     -11.047 -24.198  23.908  1.00  0.00     0.035 C 
BRANCH  15  16
ATOM     16  C   UNL     1     -10.854 -24.892  25.259  1.00  0.00     0.079 C 
BRANCH  16  17
ATOM     17  C   UNL     1     -10.299 -23.934  26.277  1.00  0.00     0.130 C 
ATOM     18  O   UNL     1      -9.228 -24.173  26.814  1.00  0.00    -0.300 OA
ATOM     19  C   UNL     1     -11.061 -22.699  26.652  1.00  0.00     0.087 C 
ENDBRANCH  16  17
ENDBRANCH  15  16
ENDBRANCH  13  15
ENDBRANCH  11  12
ENDBRANCH   1  11
TORSDOF 9
ENDMDL
MODEL 2
REMARK VINA RESULT:    -0.147      1.739      3.102
REMARK INTER + INTRA:          -0.263
REMARK INTER:                  -0.942
REMARK INTRA:                   0.678
REMARK UNBOUND:                -0.039
REMARK SMILES CC(=O)CCC=C(C)CCC=C(C)CCC=C(C)C
REMARK SMILES IDX 10 1 11 2 12 3 13 4 14 5 15 6 16 7 18 8 17 9 19 10 9 11 7 12
REMARK SMILES IDX 6 13 8 14 5 15 4 16 2 17 3 18 1 19
REMARK H PARENT
REMARK Flexibility Score: inf
ROOT
ATOM      1  C   UNL     1      -7.846 -24.718  23.393  1.00  0.00     0.032 C 
ENDROOT
BRANCH   1   2
ATOM      2  C   UNL     1      -8.961 -24.978  22.407  1.00  0.00    -0.028 C 
ATOM      3  C   UNL     1      -8.873 -24.787  21.071  1.00  0.00    -0.077 C 
ATOM      4  C   UNL     1     -10.070 -25.124  20.222  1.00  0.00     0.039 C 
BRANCH   3   5
ATOM      5  C   UNL     1      -7.655 -24.185  20.399  1.00  0.00     0.034 C 
BRANCH   5   6
ATOM      6  C   UNL     1      -6.437 -25.098  20.573  1.00  0.00     0.032 C 
BRANCH   6   7
ATOM      7  C   UNL     1      -5.182 -24.284  20.763  1.00  0.00    -0.028 C 
ATOM      8  C   UNL     1      -3.033 -23.262  20.148  1.00  0.00     0.039 C 
ATOM      9  C   UNL     1      -4.261 -24.063  19.799  1.00  0.00    -0.080 C 
ATOM     10  C   UNL     1      -4.438 -24.578  18.390  1.00  0.00     0.039 C 
ENDBRANCH   6   7
ENDBRANCH   5   6
ENDBRANCH   3   5
ENDBRANCH   1   2
BRANCH   1  11
ATOM     11  C   UNL     1      -8.241 -25.119  24.822  1.00  0.00     0.034 C 
BRANCH  11  12
ATOM     12  C   UNL     1      -9.227 -24.141  25.427  1.00  0.00    -0.077 C 
ATOM     13  C   UNL     1      -9.952 -23.342  24.610  1.00  0.00    -0.028 C 
ATOM     14  C   UNL     1      -9.317 -24.040  26.931  1.00  0.00     0.039 C 
BRANCH  13  15
ATOM     15  C   UNL     1     -10.968 -22.334  25.085  1.00  0.00     0.035 C 
BRANCH  15  16
ATOM     16  C   UNL     1     -11.125 -21.200  24.067  1.00  0.00     0.079 C 
BRANCH  16  17
ATOM     17  C   UNL     1     -10.295 -21.465  22.842  1.00  0.00     0.130 C 
ATOM     18  O   UNL     1      -9.115 -21.760  22.960  1.00  0.00    -0.300 OA
ATOM     19  C   UNL     1     -10.899 -21.348  21.475  1.00  0.00     0.087 C 
ENDBRANCH  16  17
ENDBRANCH  15  16
ENDBRANCH  13  15
ENDBRANCH  11  12
ENDBRANCH   1  11
TORSDOF 9
ENDMDL
MODEL 3
REMARK VINA RESULT:     1.604      1.582      2.408
REMARK INTER + INTRA:           2.410
REMARK INTER:                  -1.009
REMARK INTRA:                   3.419
REMARK UNBOUND:                -0.039
REMARK SMILES CC(=O)CCC=C(C)CCC=C(C)CCC=C(C)C
REMARK SMILES IDX 10 1 11 2 12 3 13 4 14 5 15 6 16 7 18 8 17 9 19 10 9 11 7 12
REMARK SMILES IDX 6 13 8 14 5 15 4 16 2 17 3 18 1 19
REMARK H PARENT
REMARK Flexibility Score: inf
ROOT
ATOM      1  C   UNL     1      -9.376 -23.522  20.178  1.00  0.00     0.032 C 
ENDROOT
BRANCH   1   2
ATOM      2  C   UNL     1      -9.639 -23.905  21.615  1.00  0.00    -0.028 C 
ATOM      3  C   UNL     1      -8.773 -24.577  22.408  1.00  0.00    -0.077 C 
ATOM      4  C   UNL     1      -9.179 -24.855  23.832  1.00  0.00     0.039 C 
BRANCH   3   5
ATOM      5  C   UNL     1      -7.450 -25.125  21.912  1.00  0.00     0.034 C 
BRANCH   5   6
ATOM      6  C   UNL     1      -7.056 -24.462  20.588  1.00  0.00     0.032 C 
BRANCH   6   7
ATOM      7  C   UNL     1      -5.770 -23.689  20.740  1.00  0.00    -0.028 C 
ATOM      8  C   UNL     1      -3.412 -23.120  20.345  1.00  0.00     0.039 C 
ATOM      9  C   UNL     1      -4.634 -23.953  20.057  1.00  0.00    -0.080 C 
ATOM     10  C   UNL     1      -4.564 -25.041  19.011  1.00  0.00     0.039 C 
ENDBRANCH   6   7
ENDBRANCH   5   6
ENDBRANCH   3   5
ENDBRANCH   1   2
BRANCH   1  11
ATOM     11  C   UNL     1     -10.175 -22.279  19.761  1.00  0.00     0.034 C 
BRANCH  11  12
ATOM     12  C   UNL     1     -10.623 -21.473  20.963  1.00  0.00    -0.077 C 
ATOM     13  C   UNL     1     -10.628 -22.054  22.185  1.00  0.00    -0.028 C 
ATOM     14  C   UNL     1     -11.120 -20.063  20.746  1.00  0.00     0.039 C 
BRANCH  13  15
ATOM     15  C   UNL     1     -11.044 -21.360  23.458  1.00  0.00     0.035 C 
BRANCH  15  16
ATOM     16  C   UNL     1     -10.058 -21.665  24.590  1.00  0.00     0.079 C 
BRANCH  16  17
ATOM     17  C   UNL     1     -10.674 -22.596  25.597  1.00  0.00     0.130 C 
ATOM     18  O   UNL     1     -11.123 -23.673  25.233  1.00  0.00    -0.300 OA
ATOM     19  C   UNL     1     -10.762 -22.203  27.041  1.00  0.00     0.087 C 
ENDBRANCH  16  17
ENDBRANCH  15  16
ENDBRANCH  13  15
ENDBRANCH  11  12
ENDBRANCH   1  11
TORSDOF 9
ENDMDL
