MODEL 1
REMARK VINA RESULT:    -4.054      0.000      0.000
REMARK INTER + INTRA:          -4.894
REMARK INTER:                  -4.884
REMARK INTRA:                  -0.010
REMARK UNBOUND:                -0.010
REMARK SMILES OCC(O)CO
REMARK SMILES IDX 3 1 5 2 6 3 2 5 1 6 4 8
REMARK H PARENT 6 4 1 7 4 9
REMARK Flexibility Score: inf
ROOT
ATOM      1  C   UNL     1     103.782 114.780 124.125  1.00  0.00     0.165 C 
ENDROOT
BRANCH   1   2
ATOM      2  C   UNL     1     102.870 113.622 123.678  1.00  0.00     0.190 C 
BRANCH   2   3
ATOM      3  O   UNL     1     103.601 112.437 123.500  1.00  0.00    -0.394 OA
ATOM      4  H   UNL     1     104.559 112.667 123.624  1.00  0.00     0.210 HD
ENDBRANCH   2   3
ENDBRANCH   1   2
BRANCH   1   5
ATOM      5  C   UNL     1     103.391 116.124 123.477  1.00  0.00     0.190 C 
BRANCH   5   6
ATOM      6  O   UNL     1     102.066 116.094 123.021  1.00  0.00    -0.394 OA
ATOM      7  H   UNL     1     102.058 116.549 122.138  1.00  0.00     0.210 HD
ENDBRANCH   5   6
ENDBRANCH   1   5
BRANCH   1   8
ATOM      8  O   UNL     1     105.131 114.477 123.874  1.00  0.00    -0.388 OA
ATOM      9  H   UNL     1     105.659 114.766 124.664  1.00  0.00     0.211 HD
ENDBRANCH   1   8
TORSDOF 5
ENDMDL
MODEL 2
REMARK VINA RESULT:    -3.968      1.022      2.968
REMARK INTER + INTRA:          -4.790
REMARK INTER:                  -4.614
REMARK INTRA:                  -0.176
REMARK UNBOUND:                -0.010
REMARK SMILES OCC(O)CO
REMARK SMILES IDX 3 1 5 2 6 3 2 5 1 6 4 8
REMARK H PARENT 6 4 1 7 4 9
REMARK Flexibility Score: inf
ROOT
ATOM      1  C   UNL     1     103.118 114.923 124.124  1.00  0.00     0.165 C 
ENDROOT
BRANCH   1   2
ATOM      2  C   UNL     1     104.592 115.354 124.013  1.00  0.00     0.190 C 
BRANCH   2   3
ATOM      3  O   UNL     1     104.900 115.790 122.714  1.00  0.00    -0.394 OA
ATOM      4  H   UNL     1     104.599 115.078 122.092  1.00  0.00     0.210 HD
ENDBRANCH   2   3
ENDBRANCH   1   2
BRANCH   1   5
ATOM      5  C   UNL     1     102.910 113.432 123.792  1.00  0.00     0.190 C 
BRANCH   5   6
ATOM      6  O   UNL     1     104.131 112.810 123.494  1.00  0.00    -0.394 OA
ATOM      7  H   UNL     1     103.949 112.164 122.762  1.00  0.00     0.210 HD
ENDBRANCH   5   6
ENDBRANCH   1   5
BRANCH   1   8
ATOM      8  O   UNL     1     102.300 115.735 123.319  1.00  0.00    -0.388 OA
ATOM      9  H   UNL     1     101.363 115.423 123.426  1.00  0.00     0.211 HD
ENDBRANCH   1   8
TORSDOF 5
ENDMDL
MODEL 3
REMARK VINA RESULT:    -3.850      1.614      2.563
REMARK INTER + INTRA:          -4.647
REMARK INTER:                  -4.645
REMARK INTRA:                  -0.003
REMARK UNBOUND:                -0.010
REMARK SMILES OCC(O)CO
REMARK SMILES IDX 3 1 5 2 6 3 2 5 1 6 4 8
REMARK H PARENT 6 4 1 7 4 9
REMARK Flexibility Score: inf
ROOT
ATOM      1  C   UNL     1     102.724 112.694 123.982  1.00  0.00     0.165 C 
ENDROOT
BRANCH   1   2
ATOM      2  C   UNL     1     101.396 112.324 123.295  1.00  0.00     0.190 C 
BRANCH   2   3
ATOM      3  O   UNL     1     101.352 110.960 122.969  1.00  0.00    -0.394 OA
ATOM      4  H   UNL     1     102.293 110.646 122.914  1.00  0.00     0.210 HD
ENDBRANCH   2   3
ENDBRANCH   1   2
BRANCH   1   5
ATOM      5  C   UNL     1     103.104 114.174 123.778  1.00  0.00     0.190 C 
BRANCH   5   6
ATOM      6  O   UNL     1     104.496 114.335 123.748  1.00  0.00    -0.394 OA
ATOM      7  H   UNL     1     104.889 113.428 123.846  1.00  0.00     0.210 HD
ENDBRANCH   5   6
ENDBRANCH   1   5
BRANCH   1   8
ATOM      8  O   UNL     1     103.760 111.847 123.550  1.00  0.00    -0.388 OA
ATOM      9  H   UNL     1     103.768 111.051 124.143  1.00  0.00     0.211 HD
ENDBRANCH   1   8
TORSDOF 5
ENDMDL
MODEL 4
REMARK VINA RESULT:    -3.736      1.705      3.489
REMARK INTER + INTRA:          -4.510
REMARK INTER:                  -4.507
REMARK INTRA:                  -0.003
REMARK UNBOUND:                -0.010
REMARK SMILES OCC(O)CO
REMARK SMILES IDX 3 1 5 2 6 3 2 5 1 6 4 8
REMARK H PARENT 6 4 1 7 4 9
REMARK Flexibility Score: inf
ROOT
ATOM      1  C   UNL     1     102.824 112.535 123.395  1.00  0.00     0.165 C 
ENDROOT
BRANCH   1   2
ATOM      2  C   UNL     1     103.096 113.946 123.948  1.00  0.00     0.190 C 
BRANCH   2   3
ATOM      3  O   UNL     1     104.457 114.278 123.853  1.00  0.00    -0.394 OA
ATOM      4  H   UNL     1     104.924 113.480 123.491  1.00  0.00     0.210 HD
ENDBRANCH   2   3
ENDBRANCH   1   2
BRANCH   1   5
ATOM      5  C   UNL     1     101.440 111.995 123.807  1.00  0.00     0.190 C 
BRANCH   5   6
ATOM      6  O   UNL     1     101.493 110.615 124.052  1.00  0.00    -0.394 OA
ATOM      7  H   UNL     1     101.153 110.168 123.233  1.00  0.00     0.210 HD
ENDBRANCH   5   6
ENDBRANCH   1   5
BRANCH   1   8
ATOM      8  O   UNL     1     103.843 111.645 123.778  1.00  0.00    -0.388 OA
ATOM      9  H   UNL     1     104.674 111.914 123.306  1.00  0.00     0.211 HD
ENDBRANCH   1   8
TORSDOF 5
ENDMDL
MODEL 5
REMARK VINA RESULT:    -3.597     11.118     12.064
REMARK INTER + INTRA:          -4.342
REMARK INTER:                  -4.124
REMARK INTRA:                  -0.218
REMARK UNBOUND:                -0.010
REMARK SMILES OCC(O)CO
REMARK SMILES IDX 3 1 5 2 6 3 2 5 1 6 4 8
REMARK H PARENT 6 4 1 7 4 9
REMARK Flexibility Score: inf
ROOT
ATOM      1  C   UNL     1     105.176 105.756 115.778  1.00  0.00     0.165 C 
ENDROOT
BRANCH   1   2
ATOM      2  C   UNL     1     106.398 105.974 116.690  1.00  0.00     0.190 C 
BRANCH   2   3
ATOM      3  O   UNL     1     106.023 106.042 118.041  1.00  0.00    -0.394 OA
ATOM      4  H   UNL     1     105.829 106.995 118.238  1.00  0.00     0.210 HD
ENDBRANCH   2   3
ENDBRANCH   1   2
BRANCH   1   5
ATOM      5  C   UNL     1     104.411 104.460 116.114  1.00  0.00     0.190 C 
BRANCH   5   6
ATOM      6  O   UNL     1     103.680 104.603 117.302  1.00  0.00    -0.394 OA
ATOM      7  H   UNL     1     103.172 105.453 117.222  1.00  0.00     0.210 HD
ENDBRANCH   5   6
ENDBRANCH   1   5
BRANCH   1   8
ATOM      8  O   UNL     1     105.555 105.778 114.425  1.00  0.00    -0.388 OA
ATOM      9  H   UNL     1     104.853 105.304 113.905  1.00  0.00     0.211 HD
ENDBRANCH   1   8
TORSDOF 5
ENDMDL
MODEL 6
REMARK VINA RESULT:    -3.585     10.453     11.156
REMARK INTER + INTRA:          -4.328
REMARK INTER:                  -4.130
REMARK INTRA:                  -0.198
REMARK UNBOUND:                -0.010
REMARK SMILES OCC(O)CO
REMARK SMILES IDX 3 1 5 2 6 3 2 5 1 6 4 8
REMARK H PARENT 6 4 1 7 4 9
REMARK Flexibility Score: inf
ROOT
ATOM      1  C   UNL     1     107.296 106.508 116.023  1.00  0.00     0.165 C 
ENDROOT
BRANCH   1   2
ATOM      2  C   UNL     1     105.974 106.445 116.810  1.00  0.00     0.190 C 
BRANCH   2   3
ATOM      3  O   UNL     1     106.182 105.987 118.122  1.00  0.00    -0.394 OA
ATOM      4  H   UNL     1     105.974 106.746 118.728  1.00  0.00     0.210 HD
ENDBRANCH   2   3
ENDBRANCH   1   2
BRANCH   1   5
ATOM      5  C   UNL     1     108.292 107.522 116.621  1.00  0.00     0.190 C 
BRANCH   5   6
ATOM      6  O   UNL     1     107.710 108.232 117.681  1.00  0.00    -0.394 OA
ATOM      7  H   UNL     1     108.458 108.589 118.229  1.00  0.00     0.210 HD
ENDBRANCH   5   6
ENDBRANCH   1   5
BRANCH   1   8
ATOM      8  O   UNL     1     107.054 106.784 114.666  1.00  0.00    -0.388 OA
ATOM      9  H   UNL     1     106.097 106.590 114.483  1.00  0.00     0.211 HD
ENDBRANCH   1   8
TORSDOF 5
ENDMDL
MODEL 7
REMARK VINA RESULT:    -3.574     11.104     12.301
REMARK INTER + INTRA:          -4.316
REMARK INTER:                  -4.313
REMARK INTRA:                  -0.002
REMARK UNBOUND:                -0.010
REMARK SMILES OCC(O)CO
REMARK SMILES IDX 3 1 5 2 6 3 2 5 1 6 4 8
REMARK H PARENT 6 4 1 7 4 9
REMARK Flexibility Score: inf
ROOT
ATOM      1  C   UNL     1     104.493 105.303 116.392  1.00  0.00     0.165 C 
ENDROOT
BRANCH   1   2
ATOM      2  C   UNL     1     104.402 104.681 114.987  1.00  0.00     0.190 C 
BRANCH   2   3
ATOM      3  O   UNL     1     104.051 103.323 115.051  1.00  0.00    -0.394 OA
ATOM      4  H   UNL     1     103.074 103.269 114.877  1.00  0.00     0.210 HD
ENDBRANCH   2   3
ENDBRANCH   1   2
BRANCH   1   5
ATOM      5  C   UNL     1     105.860 105.966 116.657  1.00  0.00     0.190 C 
BRANCH   5   6
ATOM      6  O   UNL     1     106.152 105.981 118.029  1.00  0.00    -0.394 OA
ATOM      7  H   UNL     1     105.673 106.761 118.413  1.00  0.00     0.210 HD
ENDBRANCH   5   6
ENDBRANCH   1   5
BRANCH   1   8
ATOM      8  O   UNL     1     104.200 104.348 117.380  1.00  0.00    -0.388 OA
ATOM      9  H   UNL     1     103.560 103.695 116.991  1.00  0.00     0.211 HD
ENDBRANCH   1   8
TORSDOF 5
ENDMDL
MODEL 8
REMARK VINA RESULT:    -3.523     11.013     11.608
REMARK INTER + INTRA:          -4.253
REMARK INTER:                  -4.039
REMARK INTRA:                  -0.215
REMARK UNBOUND:                -0.010
REMARK SMILES OCC(O)CO
REMARK SMILES IDX 3 1 5 2 6 3 2 5 1 6 4 8
REMARK H PARENT 6 4 1 7 4 9
REMARK Flexibility Score: inf
ROOT
ATOM      1  C   UNL     1     106.506 106.623 115.851  1.00  0.00     0.165 C 
ENDROOT
BRANCH   1   2
ATOM      2  C   UNL     1     107.983 106.913 116.177  1.00  0.00     0.190 C 
BRANCH   2   3
ATOM      3  O   UNL     1     108.103 107.833 117.230  1.00  0.00    -0.394 OA
ATOM      4  H   UNL     1     108.381 108.697 116.828  1.00  0.00     0.210 HD
ENDBRANCH   2   3
ENDBRANCH   1   2
BRANCH   1   5
ATOM      5  C   UNL     1     105.855 105.659 116.863  1.00  0.00     0.190 C 
BRANCH   5   6
ATOM      6  O   UNL     1     106.111 106.066 118.180  1.00  0.00    -0.394 OA
ATOM      7  H   UNL     1     107.089 105.970 118.323  1.00  0.00     0.210 HD
ENDBRANCH   5   6
ENDBRANCH   1   5
BRANCH   1   8
ATOM      8  O   UNL     1     106.372 106.138 114.539  1.00  0.00    -0.388 OA
ATOM      9  H   UNL     1     106.599 106.878 113.917  1.00  0.00     0.211 HD
ENDBRANCH   1   8
TORSDOF 5
ENDMDL
MODEL 9
REMARK VINA RESULT:    -3.501     11.115     11.906
REMARK INTER + INTRA:          -4.227
REMARK INTER:                  -4.220
REMARK INTRA:                  -0.007
REMARK UNBOUND:                -0.010
REMARK SMILES OCC(O)CO
REMARK SMILES IDX 3 1 5 2 6 3 2 5 1 6 4 8
REMARK H PARENT 6 4 1 7 4 9
REMARK Flexibility Score: inf
ROOT
ATOM      1  C   UNL     1     105.430 106.072 116.587  1.00  0.00     0.165 C 
ENDROOT
BRANCH   1   2
ATOM      2  C   UNL     1     104.497 104.906 116.212  1.00  0.00     0.190 C 
BRANCH   2   3
ATOM      3  O   UNL     1     103.734 104.488 117.313  1.00  0.00    -0.394 OA
ATOM      4  H   UNL     1     103.136 103.763 116.991  1.00  0.00     0.210 HD
ENDBRANCH   2   3
ENDBRANCH   1   2
BRANCH   1   5
ATOM      5  C   UNL     1     106.515 106.328 115.521  1.00  0.00     0.190 C 
BRANCH   5   6
ATOM      6  O   UNL     1     106.133 105.799 114.280  1.00  0.00    -0.394 OA
ATOM      7  H   UNL     1     106.936 105.354 113.901  1.00  0.00     0.210 HD
ENDBRANCH   5   6
ENDBRANCH   1   5
BRANCH   1   8
ATOM      8  O   UNL     1     106.010 105.859 117.849  1.00  0.00    -0.388 OA
ATOM      9  H   UNL     1     106.578 105.046 117.790  1.00  0.00     0.211 HD
ENDBRANCH   1   8
TORSDOF 5
ENDMDL
