MODEL 1
REMARK VINA RESULT:    16.528      0.000      0.000
REMARK INTER + INTRA:          21.417
REMARK INTER:                  20.392
REMARK INTRA:                   1.024
REMARK UNBOUND:                 1.024
REMARK SMILES CC(C)=CCC[C@H](C)c1ccc(C)cc1
REMARK SMILES IDX 6 1 7 2 8 3 9 4 13 5 12 6 11 7 14 8 10 9 15 10 5 11 4 12
REMARK SMILES IDX 2 13 1 14 3 15
REMARK H PARENT
REMARK Flexibility Score: inf
ROOT
ATOM      1  C   UNL     1      83.486 108.863 103.081  1.00  0.00     0.012 C 
ENDROOT
BRANCH   1   2
ATOM      2  C   UNL     1      83.519 107.859 104.260  1.00  0.00     0.016 C 
ATOM      3  C   UNL     1      82.211 107.844 105.066  1.00  0.00     0.013 C 
BRANCH   2   4
ATOM      4  C   UNL     1      84.696 108.158 105.170  1.00  0.00    -0.045 A 
ATOM      5  C   UNL     1      88.081 108.982 107.725  1.00  0.00     0.044 C 
ATOM      6  C   UNL     1      86.889 108.691 106.863  1.00  0.00    -0.051 A 
ATOM      7  C   UNL     1      86.037 109.729 106.461  1.00  0.00     0.004 A 
ATOM      8  C   UNL     1      86.656 107.391 106.394  1.00  0.00     0.004 A 
ATOM      9  C   UNL     1      84.947 109.466 105.628  1.00  0.00     0.004 A 
ATOM     10  C   UNL     1      85.566 107.124 105.560  1.00  0.00     0.004 A 
ENDBRANCH   2   4
ENDBRANCH   1   2
BRANCH   1  11
ATOM     11  C   UNL     1      82.463 108.503 101.986  1.00  0.00     0.028 C 
BRANCH  11  12
ATOM     12  C   UNL     1      82.138 107.027 101.956  1.00  0.00    -0.028 C 
ATOM     13  C   UNL     1      83.087 106.067 101.908  1.00  0.00    -0.080 C 
ATOM     14  C   UNL     1      84.556 106.407 101.879  1.00  0.00     0.039 C 
ATOM     15  C   UNL     1      82.690 104.613 101.875  1.00  0.00     0.039 C 
ENDBRANCH  11  12
ENDBRANCH   1  11
TORSDOF 4
ENDMDL
MODEL 2
REMARK VINA RESULT:    16.549      0.840      1.767
REMARK INTER + INTRA:          21.443
REMARK INTER:                  20.951
REMARK INTRA:                   0.492
REMARK UNBOUND:                 1.024
REMARK SMILES CC(C)=CCC[C@H](C)c1ccc(C)cc1
REMARK SMILES IDX 6 1 7 2 8 3 9 4 13 5 12 6 11 7 14 8 10 9 15 10 5 11 4 12
REMARK SMILES IDX 2 13 1 14 3 15
REMARK H PARENT
REMARK Flexibility Score: inf
ROOT
ATOM      1  C   UNL     1      84.104 109.305 103.556  1.00  0.00     0.012 C 
ENDROOT
BRANCH   1   2
ATOM      2  C   UNL     1      84.225 108.122 104.548  1.00  0.00     0.016 C 
ATOM      3  C   UNL     1      82.910 107.827 105.285  1.00  0.00     0.013 C 
BRANCH   2   4
ATOM      4  C   UNL     1      85.340 108.384 105.544  1.00  0.00    -0.045 A 
ATOM      5  C   UNL     1      88.476 109.151 108.415  1.00  0.00     0.044 C 
ATOM      6  C   UNL     1      87.406 108.893 107.396  1.00  0.00    -0.051 A 
ATOM      7  C   UNL     1      87.269 107.622 106.820  1.00  0.00     0.004 A 
ATOM      8  C   UNL     1      86.491 109.901 107.061  1.00  0.00     0.004 A 
ATOM      9  C   UNL     1      86.250 107.370 105.898  1.00  0.00     0.004 A 
ATOM     10  C   UNL     1      85.470 109.652 106.140  1.00  0.00     0.004 A 
ENDBRANCH   2   4
ENDBRANCH   1   2
BRANCH   1  11
ATOM     11  C   UNL     1      84.247 108.893 102.077  1.00  0.00     0.028 C 
BRANCH  11  12
ATOM     12  C   UNL     1      84.292 107.393 101.893  1.00  0.00    -0.028 C 
ATOM     13  C   UNL     1      83.215 106.598 102.073  1.00  0.00    -0.080 C 
ATOM     14  C   UNL     1      81.875 107.160 102.476  1.00  0.00     0.039 C 
ATOM     15  C   UNL     1      83.334 105.108 101.876  1.00  0.00     0.039 C 
ENDBRANCH  11  12
ENDBRANCH   1  11
TORSDOF 4
ENDMDL
MODEL 3
REMARK VINA RESULT:    17.094      0.824      1.265
REMARK INTER + INTRA:          22.116
REMARK INTER:                  21.372
REMARK INTRA:                   0.743
REMARK UNBOUND:                 1.024
REMARK SMILES CC(C)=CCC[C@H](C)c1ccc(C)cc1
REMARK SMILES IDX 6 1 7 2 8 3 9 4 13 5 12 6 11 7 14 8 10 9 15 10 5 11 4 12
REMARK SMILES IDX 2 13 1 14 3 15
REMARK H PARENT
REMARK Flexibility Score: inf
ROOT
ATOM      1  C   UNL     1      84.052 109.335 103.506  1.00  0.00     0.012 C 
ENDROOT
BRANCH   1   2
ATOM      2  C   UNL     1      84.138 108.192 104.548  1.00  0.00     0.016 C 
ATOM      3  C   UNL     1      82.816 107.966 105.295  1.00  0.00     0.013 C 
BRANCH   2   4
ATOM      4  C   UNL     1      85.261 108.463 105.533  1.00  0.00    -0.045 A 
ATOM      5  C   UNL     1      88.494 109.224 108.295  1.00  0.00     0.044 C 
ATOM      6  C   UNL     1      87.356 108.947 107.358  1.00  0.00    -0.051 A 
ATOM      7  C   UNL     1      86.350 109.905 107.166  1.00  0.00     0.004 A 
ATOM      8  C   UNL     1      87.324 107.759 106.616  1.00  0.00     0.004 A 
ATOM      9  C   UNL     1      85.309 109.664 106.266  1.00  0.00     0.004 A 
ATOM     10  C   UNL     1      86.284 107.515 105.715  1.00  0.00     0.004 A 
ENDBRANCH   2   4
ENDBRANCH   1   2
BRANCH   1  11
ATOM     11  C   UNL     1      84.402 108.896 102.071  1.00  0.00     0.028 C 
BRANCH  11  12
ATOM     12  C   UNL     1      84.360 107.395 101.895  1.00  0.00    -0.028 C 
ATOM     13  C   UNL     1      83.236 106.666 102.065  1.00  0.00    -0.080 C 
ATOM     14  C   UNL     1      81.927 107.309 102.448  1.00  0.00     0.039 C 
ATOM     15  C   UNL     1      83.269 105.171 101.877  1.00  0.00     0.039 C 
ENDBRANCH  11  12
ENDBRANCH   1  11
TORSDOF 4
ENDMDL
MODEL 4
REMARK VINA RESULT:    17.151      0.430      1.321
REMARK INTER + INTRA:          22.186
REMARK INTER:                  21.912
REMARK INTRA:                   0.275
REMARK UNBOUND:                 1.024
REMARK SMILES CC(C)=CCC[C@H](C)c1ccc(C)cc1
REMARK SMILES IDX 6 1 7 2 8 3 9 4 13 5 12 6 11 7 14 8 10 9 15 10 5 11 4 12
REMARK SMILES IDX 2 13 1 14 3 15
REMARK H PARENT
REMARK Flexibility Score: inf
ROOT
ATOM      1  C   UNL     1      83.686 109.286 103.300  1.00  0.00     0.012 C 
ENDROOT
BRANCH   1   2
ATOM      2  C   UNL     1      83.819 108.103 104.290  1.00  0.00     0.016 C 
ATOM      3  C   UNL     1      82.533 107.846 105.089  1.00  0.00     0.013 C 
BRANCH   2   4
ATOM      4  C   UNL     1      84.987 108.336 105.232  1.00  0.00    -0.045 A 
ATOM      5  C   UNL     1      88.273 109.021 107.952  1.00  0.00     0.044 C 
ATOM      6  C   UNL     1      87.150 108.791 106.984  1.00  0.00    -0.051 A 
ATOM      7  C   UNL     1      86.936 107.516 106.441  1.00  0.00     0.004 A 
ATOM      8  C   UNL     1      86.264 109.830 106.669  1.00  0.00     0.004 A 
ATOM      9  C   UNL     1      85.868 107.290 105.569  1.00  0.00     0.004 A 
ATOM     10  C   UNL     1      85.195 109.607 105.796  1.00  0.00     0.004 A 
ENDBRANCH   2   4
ENDBRANCH   1   2
BRANCH   1  11
ATOM     11  C   UNL     1      83.230 108.868 101.889  1.00  0.00     0.028 C 
BRANCH  11  12
ATOM     12  C   UNL     1      82.541 107.522 101.876  1.00  0.00    -0.028 C 
ATOM     13  C   UNL     1      83.216 106.352 101.896  1.00  0.00    -0.080 C 
ATOM     14  C   UNL     1      84.723 106.308 101.933  1.00  0.00     0.039 C 
ATOM     15  C   UNL     1      82.464 105.046 101.876  1.00  0.00     0.039 C 
ENDBRANCH  11  12
ENDBRANCH   1  11
TORSDOF 4
ENDMDL
