MODEL 1
REMARK VINA RESULT:    38.018      0.000      0.000
REMARK INTER + INTRA:          61.108
REMARK INTER:                  55.798
REMARK INTRA:                   5.310
REMARK UNBOUND:                 5.310
REMARK SMILES Cc1cc2c(C(C)C)c(O)c(O)c(C=O)c2c(O)c1-c1c(C)cc2c(C(C)C)c(O)c(O)c(C=O)c2c1O
REMARK SMILES IDX 1 1 2 2 3 3 4 4 16 5 13 6 11 7 9 8 5 9 17 10 19 11 20 12
REMARK SMILES IDX 37 13 21 14 36 15 23 16 22 17 24 18 33 19 25 20 31 21 29 22
REMARK SMILES IDX 38 23 34 25 35 26 26 27 27 28 28 29 32 30 30 32 18 34 6 36
REMARK SMILES IDX 7 37 8 38 14 39 15 40 10 41 12 43
REMARK H PARENT 38 24 32 31 30 33 18 35 10 42 12 44
REMARK Flexibility Score: inf
ROOT
ATOM      1  C   UNL     1       6.121 -34.159  21.328  1.00  0.00     0.045 C 
ATOM      2  C   UNL     1       5.227 -34.826  20.312  1.00  0.00    -0.039 A 
ATOM      3  C   UNL     1       5.086 -34.256  19.045  1.00  0.00     0.013 A 
ATOM      4  C   UNL     1       4.238 -34.808  18.065  1.00  0.00    -0.006 A 
ATOM      5  C   UNL     1       3.549 -36.025  18.363  1.00  0.00     0.039 A 
ATOM      6  C   UNL     1       2.712 -36.604  17.365  1.00  0.00     0.072 A 
ATOM      7  C   UNL     1       2.722 -36.085  16.060  1.00  0.00     0.169 A 
ATOM      8  C   UNL     1       3.442 -34.927  15.757  1.00  0.00     0.162 A 
ATOM      9  C   UNL     1       4.083 -34.189  16.783  1.00  0.00     0.008 A 
ATOM     10  C   UNL     1       3.758 -36.648  19.631  1.00  0.00     0.132 A 
ATOM     11  C   UNL     1       4.571 -36.031  20.605  1.00  0.00     0.031 A 
ENDROOT
BRANCH  11  12
ATOM     12  C   UNL     1       4.772 -36.674  21.930  1.00  0.00     0.031 A 
ATOM     13  C   UNL     1       4.957 -38.070  22.021  1.00  0.00     0.132 A 
ATOM     14  C   UNL     1       4.783 -35.887  23.093  1.00  0.00    -0.039 A 
ATOM     15  C   UNL     1       5.180 -38.686  23.288  1.00  0.00     0.039 A 
ATOM     16  C   UNL     1       4.886 -36.506  24.341  1.00  0.00     0.013 A 
ATOM     17  C   UNL     1       4.673 -34.383  23.018  1.00  0.00     0.045 C 
ATOM     18  C   UNL     1       5.006 -37.907  24.468  1.00  0.00    -0.006 A 
ATOM     19  C   UNL     1       5.542 -40.060  23.416  1.00  0.00     0.072 A 
ATOM     20  C   UNL     1       4.992 -38.537  25.748  1.00  0.00     0.008 A 
ATOM     21  C   UNL     1       5.663 -40.642  24.692  1.00  0.00     0.169 A 
ATOM     22  C   UNL     1       5.420 -39.879  25.852  1.00  0.00     0.162 A 
BRANCH  13  23
ATOM     23  O   UNL     1       4.877 -38.849  20.861  1.00  0.00    -0.507 OA
ATOM     24  H   UNL     1       4.011 -39.213  20.484  1.00  0.00     0.293 HD
ENDBRANCH  13  23
BRANCH  19  25
ATOM     25  C   UNL     1       5.938 -40.880  22.246  1.00  0.00     0.264 C 
ATOM     26  O   UNL     1       6.118 -42.121  22.354  1.00  0.00    -0.298 OA
ENDBRANCH  19  25
BRANCH  20  27
ATOM     27  C   UNL     1       4.537 -37.780  27.010  1.00  0.00     0.017 C 
ATOM     28  C   UNL     1       3.016 -37.591  27.019  1.00  0.00     0.012 C 
ATOM     29  C   UNL     1       5.270 -36.443  27.229  1.00  0.00     0.012 C 
ENDBRANCH  20  27
BRANCH  21  30
ATOM     30  O   UNL     1       6.035 -41.989  24.773  1.00  0.00    -0.504 OA
ATOM     31  H   UNL     1       6.432 -42.429  25.591  1.00  0.00     0.293 HD
ENDBRANCH  21  30
BRANCH  22  32
ATOM     32  O   UNL     1       5.638 -40.419  27.122  1.00  0.00    -0.504 OA
ATOM     33  H   UNL     1       4.916 -40.771  27.732  1.00  0.00     0.293 HD
ENDBRANCH  22  32
ENDBRANCH  11  12
BRANCH  10  34
ATOM     34  O   UNL     1       3.196 -37.901  19.906  1.00  0.00    -0.507 OA
ATOM     35  H   UNL     1       2.251 -38.036  20.242  1.00  0.00     0.293 HD
ENDBRANCH  10  34
BRANCH   9  36
ATOM     36  C   UNL     1       4.511 -32.740  16.477  1.00  0.00     0.017 C 
ATOM     37  C   UNL     1       5.756 -32.317  17.268  1.00  0.00     0.012 C 
ATOM     38  C   UNL     1       3.369 -31.705  16.558  1.00  0.00     0.012 C 
ENDBRANCH   9  36
BRANCH   6  39
ATOM     39  C   UNL     1       1.770 -37.711  17.661  1.00  0.00     0.264 C 
ATOM     40  O   UNL     1       0.710 -37.508  18.310  1.00  0.00    -0.298 OA
ENDBRANCH   6  39
BRANCH   8  41
ATOM     41  O   UNL     1       3.494 -34.530  14.416  1.00  0.00    -0.504 OA
ATOM     42  H   UNL     1       2.717 -34.118  13.917  1.00  0.00     0.293 HD
ENDBRANCH   8  41
BRANCH   7  43
ATOM     43  O   UNL     1       1.984 -36.725  15.058  1.00  0.00    -0.504 OA
ATOM     44  H   UNL     1       1.375 -36.227  14.420  1.00  0.00     0.293 HD
ENDBRANCH   7  43
TORSDOF 11
ENDMDL
