MODEL 1
REMARK VINA RESULT:    -3.399      0.000      0.000
REMARK INTER + INTRA:          -4.414
REMARK INTER:                  -4.193
REMARK INTRA:                  -0.221
REMARK UNBOUND:                -0.221
REMARK SMILES [NH3+][C@@H](Cc1ccc(O)cc1)C(=O)[O-]
REMARK SMILES IDX 3 1 2 2 1 3 11 7 12 8 13 9 4 10 5 11 10 12 6 13 9 14 7 15
REMARK SMILES IDX 8 16
REMARK H PARENT 1 4 1 5 1 6 8 17
REMARK Flexibility Score: inf
ROOT
ATOM      1  C   UNL     1     -29.157  63.536 -53.301  1.00  0.00     0.107 C 
ENDROOT
BRANCH   1   2
ATOM      2  C   UNL     1     -30.303  64.194 -52.506  1.00  0.00     0.232 C 
BRANCH   2   3
ATOM      3  N   UNL     1     -30.955  65.235 -53.311  1.00  0.00    -0.350 N 
ATOM      4  H   UNL     1     -30.265  65.655 -53.974  1.00  0.00     0.345 HD
ATOM      5  H   UNL     1     -31.733  64.816 -53.872  1.00  0.00     0.345 HD
ATOM      6  H   UNL     1     -31.342  65.990 -52.696  1.00  0.00     0.345 HD
ENDBRANCH   2   3
BRANCH   2   7
ATOM      7  C   UNL     1     -29.802  64.774 -51.209  1.00  0.00     0.099 C 
ATOM      8  O   UNL     1     -28.905  64.184 -50.550  1.00  0.00    -0.544 OA
ATOM      9  O   UNL     1     -30.347  65.954 -50.721  1.00  0.00    -0.544 OA
ENDBRANCH   2   7
ENDBRANCH   1   2
BRANCH   1  10
ATOM     10  C   UNL     1     -29.230  62.030 -53.246  1.00  0.00    -0.041 A 
ATOM     11  C   UNL     1     -28.191  61.287 -52.664  1.00  0.00     0.008 A 
ATOM     12  C   UNL     1     -30.362  61.361 -53.739  1.00  0.00     0.008 A 
ATOM     13  C   UNL     1     -28.277  59.894 -52.588  1.00  0.00     0.046 A 
ATOM     14  C   UNL     1     -30.446  59.968 -53.663  1.00  0.00     0.046 A 
ATOM     15  C   UNL     1     -29.405  59.230 -53.089  1.00  0.00     0.115 A 
BRANCH  15  16
ATOM     16  O   UNL     1     -29.502  57.842 -53.020  1.00  0.00    -0.508 OA
ATOM     17  H   UNL     1     -30.149  57.388 -52.385  1.00  0.00     0.293 HD
ENDBRANCH  15  16
ENDBRANCH   1  10
TORSDOF 5
ENDMDL
MODEL 2
REMARK VINA RESULT:    -3.297      8.127      9.861
REMARK INTER + INTRA:          -4.289
REMARK INTER:                  -4.190
REMARK INTRA:                  -0.099
REMARK UNBOUND:                -0.221
REMARK SMILES [NH3+][C@@H](Cc1ccc(O)cc1)C(=O)[O-]
REMARK SMILES IDX 3 1 2 2 1 3 11 7 12 8 13 9 4 10 5 11 10 12 6 13 9 14 7 15
REMARK SMILES IDX 8 16
REMARK H PARENT 1 4 1 5 1 6 8 17
REMARK Flexibility Score: inf
ROOT
ATOM      1  C   UNL     1     -23.179  59.639 -47.621  1.00  0.00     0.107 C 
ENDROOT
BRANCH   1   2
ATOM      2  C   UNL     1     -22.909  58.176 -47.213  1.00  0.00     0.232 C 
BRANCH   2   3
ATOM      3  N   UNL     1     -21.834  58.111 -46.216  1.00  0.00    -0.350 N 
ATOM      4  H   UNL     1     -21.176  58.913 -46.351  1.00  0.00     0.345 HD
ATOM      5  H   UNL     1     -22.237  58.179 -45.252  1.00  0.00     0.345 HD
ATOM      6  H   UNL     1     -21.301  57.214 -46.304  1.00  0.00     0.345 HD
ENDBRANCH   2   3
BRANCH   2   7
ATOM      7  C   UNL     1     -22.561  57.333 -48.412  1.00  0.00     0.099 C 
ATOM      8  O   UNL     1     -21.579  57.633 -49.141  1.00  0.00    -0.544 OA
ATOM      9  O   UNL     1     -23.342  56.230 -48.734  1.00  0.00    -0.544 OA
ENDBRANCH   2   7
ENDBRANCH   1   2
BRANCH   1  10
ATOM     10  C   UNL     1     -24.271  60.261 -46.787  1.00  0.00    -0.041 A 
ATOM     11  C   UNL     1     -24.001  60.722 -45.488  1.00  0.00     0.008 A 
ATOM     12  C   UNL     1     -25.560  60.423 -47.320  1.00  0.00     0.008 A 
ATOM     13  C   UNL     1     -25.009  61.325 -44.730  1.00  0.00     0.046 A 
ATOM     14  C   UNL     1     -26.567  61.026 -46.560  1.00  0.00     0.046 A 
ATOM     15  C   UNL     1     -26.296  61.477 -45.263  1.00  0.00     0.115 A 
BRANCH  15  16
ATOM     16  O   UNL     1     -27.308  62.076 -44.517  1.00  0.00    -0.508 OA
ATOM     17  H   UNL     1     -27.477  63.074 -44.560  1.00  0.00     0.293 HD
ENDBRANCH  15  16
ENDBRANCH   1  10
TORSDOF 5
ENDMDL
MODEL 3
REMARK VINA RESULT:    -3.171      0.827      1.698
REMARK INTER + INTRA:          -4.134
REMARK INTER:                  -3.931
REMARK INTRA:                  -0.203
REMARK UNBOUND:                -0.221
REMARK SMILES [NH3+][C@@H](Cc1ccc(O)cc1)C(=O)[O-]
REMARK SMILES IDX 3 1 2 2 1 3 11 7 12 8 13 9 4 10 5 11 10 12 6 13 9 14 7 15
REMARK SMILES IDX 8 16
REMARK H PARENT 1 4 1 5 1 6 8 17
REMARK Flexibility Score: inf
ROOT
ATOM      1  C   UNL     1     -29.287  63.046 -53.740  1.00  0.00     0.107 C 
ENDROOT
BRANCH   1   2
ATOM      2  C   UNL     1     -30.317  63.810 -52.882  1.00  0.00     0.232 C 
BRANCH   2   3
ATOM      3  N   UNL     1     -31.269  64.527 -53.740  1.00  0.00    -0.350 N 
ATOM      4  H   UNL     1     -31.917  65.098 -53.150  1.00  0.00     0.345 HD
ATOM      5  H   UNL     1     -30.754  65.174 -54.380  1.00  0.00     0.345 HD
ATOM      6  H   UNL     1     -31.833  63.853 -54.310  1.00  0.00     0.345 HD
ENDBRANCH   2   3
BRANCH   2   7
ATOM      7  C   UNL     1     -29.636  64.770 -51.942  1.00  0.00     0.099 C 
ATOM      8  O   UNL     1     -29.285  65.913 -52.339  1.00  0.00    -0.544 OA
ATOM      9  O   UNL     1     -29.368  64.388 -50.634  1.00  0.00    -0.544 OA
ENDBRANCH   2   7
ENDBRANCH   1   2
BRANCH   1  10
ATOM     10  C   UNL     1     -29.214  61.588 -53.359  1.00  0.00    -0.041 A 
ATOM     11  C   UNL     1     -30.179  60.681 -53.825  1.00  0.00     0.008 A 
ATOM     12  C   UNL     1     -28.151  61.118 -52.570  1.00  0.00     0.008 A 
ATOM     13  C   UNL     1     -30.090  59.325 -53.494  1.00  0.00     0.046 A 
ATOM     14  C   UNL     1     -28.064  59.762 -52.240  1.00  0.00     0.046 A 
ATOM     15  C   UNL     1     -29.032  58.862 -52.700  1.00  0.00     0.115 A 
BRANCH  15  16
ATOM     16  O   UNL     1     -28.933  57.514 -52.363  1.00  0.00    -0.508 OA
ATOM     17  H   UNL     1     -29.413  57.134 -51.556  1.00  0.00     0.293 HD
ENDBRANCH  15  16
ENDBRANCH   1  10
TORSDOF 5
ENDMDL
MODEL 4
REMARK VINA RESULT:    -3.145      3.173      5.553
REMARK INTER + INTRA:          -4.101
REMARK INTER:                  -3.878
REMARK INTRA:                  -0.224
REMARK UNBOUND:                -0.221
REMARK SMILES [NH3+][C@@H](Cc1ccc(O)cc1)C(=O)[O-]
REMARK SMILES IDX 3 1 2 2 1 3 11 7 12 8 13 9 4 10 5 11 10 12 6 13 9 14 7 15
REMARK SMILES IDX 8 16
REMARK H PARENT 1 4 1 5 1 6 8 17
REMARK Flexibility Score: inf
ROOT
ATOM      1  C   UNL     1     -27.789  59.636 -52.821  1.00  0.00     0.107 C 
ENDROOT
BRANCH   1   2
ATOM      2  C   UNL     1     -29.165  58.955 -52.678  1.00  0.00     0.232 C 
BRANCH   2   3
ATOM      3  N   UNL     1     -29.024  57.495 -52.739  1.00  0.00    -0.350 N 
ATOM      4  H   UNL     1     -28.013  57.239 -52.814  1.00  0.00     0.345 HD
ATOM      5  H   UNL     1     -29.405  57.064 -51.864  1.00  0.00     0.345 HD
ATOM      6  H   UNL     1     -29.537  57.107 -53.565  1.00  0.00     0.345 HD
ENDBRANCH   2   3
BRANCH   2   7
ATOM      7  C   UNL     1     -30.120  59.432 -53.742  1.00  0.00     0.099 C 
ATOM      8  O   UNL     1     -30.848  60.440 -53.541  1.00  0.00    -0.544 OA
ATOM      9  O   UNL     1     -30.219  58.744 -54.944  1.00  0.00    -0.544 OA
ENDBRANCH   2   7
ENDBRANCH   1   2
BRANCH   1  10
ATOM     10  C   UNL     1     -27.563  60.672 -51.747  1.00  0.00    -0.041 A 
ATOM     11  C   UNL     1     -27.879  62.020 -51.980  1.00  0.00     0.008 A 
ATOM     12  C   UNL     1     -27.077  60.287 -50.487  1.00  0.00     0.008 A 
ATOM     13  C   UNL     1     -27.696  62.972 -50.972  1.00  0.00     0.046 A 
ATOM     14  C   UNL     1     -26.895  61.240 -49.480  1.00  0.00     0.046 A 
ATOM     15  C   UNL     1     -27.203  62.584 -49.719  1.00  0.00     0.115 A 
BRANCH  15  16
ATOM     16  O   UNL     1     -27.017  63.522 -48.706  1.00  0.00    -0.508 OA
ATOM     17  H   UNL     1     -26.105  63.924 -48.519  1.00  0.00     0.293 HD
ENDBRANCH  15  16
ENDBRANCH   1  10
TORSDOF 5
ENDMDL
MODEL 5
REMARK VINA RESULT:    -3.140      2.374      3.125
REMARK INTER + INTRA:          -4.096
REMARK INTER:                  -3.873
REMARK INTRA:                  -0.223
REMARK UNBOUND:                -0.221
REMARK SMILES [NH3+][C@@H](Cc1ccc(O)cc1)C(=O)[O-]
REMARK SMILES IDX 3 1 2 2 1 3 11 7 12 8 13 9 4 10 5 11 10 12 6 13 9 14 7 15
REMARK SMILES IDX 8 16
REMARK H PARENT 1 4 1 5 1 6 8 17
REMARK Flexibility Score: inf
ROOT
ATOM      1  C   UNL     1     -27.715  64.102 -50.560  1.00  0.00     0.107 C 
ENDROOT
BRANCH   1   2
ATOM      2  C   UNL     1     -28.468  64.628 -51.799  1.00  0.00     0.232 C 
BRANCH   2   3
ATOM      3  N   UNL     1     -27.807  65.824 -52.334  1.00  0.00    -0.350 N 
ATOM      4  H   UNL     1     -28.513  66.444 -52.793  1.00  0.00     0.345 HD
ATOM      5  H   UNL     1     -27.359  66.361 -51.555  1.00  0.00     0.345 HD
ATOM      6  H   UNL     1     -27.076  65.560 -53.036  1.00  0.00     0.345 HD
ENDBRANCH   2   3
BRANCH   2   7
ATOM      7  C   UNL     1     -29.908  64.929 -51.472  1.00  0.00     0.099 C 
ATOM      8  O   UNL     1     -30.837  64.264 -52.004  1.00  0.00    -0.544 OA
ATOM      9  O   UNL     1     -30.219  65.961 -50.598  1.00  0.00    -0.544 OA
ENDBRANCH   2   7
ENDBRANCH   1   2
BRANCH   1  10
ATOM     10  C   UNL     1     -27.523  62.607 -50.615  1.00  0.00    -0.041 A 
ATOM     11  C   UNL     1     -27.727  61.905 -51.814  1.00  0.00     0.008 A 
ATOM     12  C   UNL     1     -27.094  61.908 -49.474  1.00  0.00     0.008 A 
ATOM     13  C   UNL     1     -27.519  60.524 -51.868  1.00  0.00     0.046 A 
ATOM     14  C   UNL     1     -26.886  60.527 -49.530  1.00  0.00     0.046 A 
ATOM     15  C   UNL     1     -27.098  59.831 -50.725  1.00  0.00     0.115 A 
BRANCH  15  16
ATOM     16  O   UNL     1     -26.887  58.454 -50.765  1.00  0.00    -0.508 OA
ATOM     17  H   UNL     1     -27.056  57.918 -51.609  1.00  0.00     0.293 HD
ENDBRANCH  15  16
ENDBRANCH   1  10
TORSDOF 5
ENDMDL
MODEL 6
REMARK VINA RESULT:    -3.133      2.550      5.392
REMARK INTER + INTRA:          -4.087
REMARK INTER:                  -3.873
REMARK INTRA:                  -0.213
REMARK UNBOUND:                -0.221
REMARK SMILES [NH3+][C@@H](Cc1ccc(O)cc1)C(=O)[O-]
REMARK SMILES IDX 3 1 2 2 1 3 11 7 12 8 13 9 4 10 5 11 10 12 6 13 9 14 7 15
REMARK SMILES IDX 8 16
REMARK H PARENT 1 4 1 5 1 6 8 17
REMARK Flexibility Score: inf
ROOT
ATOM      1  C   UNL     1     -29.622  59.702 -53.768  1.00  0.00     0.107 C 
ENDROOT
BRANCH   1   2
ATOM      2  C   UNL     1     -28.153  59.390 -53.416  1.00  0.00     0.232 C 
BRANCH   2   3
ATOM      3  N   UNL     1     -27.481  58.740 -54.547  1.00  0.00    -0.350 N 
ATOM      4  H   UNL     1     -27.002  57.869 -54.222  1.00  0.00     0.345 HD
ATOM      5  H   UNL     1     -28.185  58.473 -55.275  1.00  0.00     0.345 HD
ATOM      6  H   UNL     1     -26.771  59.381 -54.974  1.00  0.00     0.345 HD
ENDBRANCH   2   3
BRANCH   2   7
ATOM      7  C   UNL     1     -28.062  58.524 -52.186  1.00  0.00     0.099 C 
ATOM      8  O   UNL     1     -28.567  57.369 -52.179  1.00  0.00    -0.544 OA
ATOM      9  O   UNL     1     -27.440  59.006 -51.043  1.00  0.00    -0.544 OA
ENDBRANCH   2   7
ENDBRANCH   1   2
BRANCH   1  10
ATOM     10  C   UNL     1     -29.941  61.166 -53.591  1.00  0.00    -0.041 A 
ATOM     11  C   UNL     1     -31.246  61.642 -53.797  1.00  0.00     0.008 A 
ATOM     12  C   UNL     1     -28.942  62.060 -53.173  1.00  0.00     0.008 A 
ATOM     13  C   UNL     1     -31.544  62.994 -53.602  1.00  0.00     0.046 A 
ATOM     14  C   UNL     1     -29.241  63.412 -52.979  1.00  0.00     0.046 A 
ATOM     15  C   UNL     1     -30.541  63.883 -53.193  1.00  0.00     0.115 A 
BRANCH  15  16
ATOM     16  O   UNL     1     -30.825  65.233 -52.996  1.00  0.00    -0.508 OA
ATOM     17  H   UNL     1     -31.701  65.534 -52.586  1.00  0.00     0.293 HD
ENDBRANCH  15  16
ENDBRANCH   1  10
TORSDOF 5
ENDMDL
MODEL 7
REMARK VINA RESULT:    -3.121      2.235      2.869
REMARK INTER + INTRA:          -4.072
REMARK INTER:                  -3.897
REMARK INTRA:                  -0.175
REMARK UNBOUND:                -0.221
REMARK SMILES [NH3+][C@@H](Cc1ccc(O)cc1)C(=O)[O-]
REMARK SMILES IDX 3 1 2 2 1 3 11 7 12 8 13 9 4 10 5 11 10 12 6 13 9 14 7 15
REMARK SMILES IDX 8 16
REMARK H PARENT 1 4 1 5 1 6 8 17
REMARK Flexibility Score: inf
ROOT
ATOM      1  C   UNL     1     -30.466  62.230 -54.425  1.00  0.00     0.107 C 
ENDROOT
BRANCH   1   2
ATOM      2  C   UNL     1     -31.189  63.231 -53.501  1.00  0.00     0.232 C 
BRANCH   2   3
ATOM      3  N   UNL     1     -32.354  62.600 -52.869  1.00  0.00    -0.350 N 
ATOM      4  H   UNL     1     -32.135  61.604 -52.637  1.00  0.00     0.345 HD
ATOM      5  H   UNL     1     -32.590  63.098 -51.979  1.00  0.00     0.345 HD
ATOM      6  H   UNL     1     -33.182  62.626 -53.510  1.00  0.00     0.345 HD
ENDBRANCH   2   3
BRANCH   2   7
ATOM      7  C   UNL     1     -31.610  64.464 -54.259  1.00  0.00     0.099 C 
ATOM      8  O   UNL     1     -32.546  64.408 -55.101  1.00  0.00    -0.544 OA
ATOM      9  O   UNL     1     -30.948  65.666 -54.050  1.00  0.00    -0.544 OA
ENDBRANCH   2   7
ENDBRANCH   1   2
BRANCH   1  10
ATOM     10  C   UNL     1     -29.689  61.203 -53.638  1.00  0.00    -0.041 A 
ATOM     11  C   UNL     1     -30.051  59.847 -53.684  1.00  0.00     0.008 A 
ATOM     12  C   UNL     1     -28.567  61.591 -52.888  1.00  0.00     0.008 A 
ATOM     13  C   UNL     1     -29.310  58.895 -52.977  1.00  0.00     0.046 A 
ATOM     14  C   UNL     1     -27.828  60.638 -52.182  1.00  0.00     0.046 A 
ATOM     15  C   UNL     1     -28.196  59.288 -52.223  1.00  0.00     0.115 A 
BRANCH  15  16
ATOM     16  O   UNL     1     -27.450  58.350 -51.514  1.00  0.00    -0.508 OA
ATOM     17  H   UNL     1     -27.632  58.159 -50.536  1.00  0.00     0.293 HD
ENDBRANCH  15  16
ENDBRANCH   1  10
TORSDOF 5
ENDMDL
MODEL 8
REMARK VINA RESULT:    -3.114      9.699     10.485
REMARK INTER + INTRA:          -4.063
REMARK INTER:                  -3.824
REMARK INTRA:                  -0.239
REMARK UNBOUND:                -0.221
REMARK SMILES [NH3+][C@@H](Cc1ccc(O)cc1)C(=O)[O-]
REMARK SMILES IDX 3 1 2 2 1 3 11 7 12 8 13 9 4 10 5 11 10 12 6 13 9 14 7 15
REMARK SMILES IDX 8 16
REMARK H PARENT 1 4 1 5 1 6 8 17
REMARK Flexibility Score: inf
ROOT
ATOM      1  C   UNL     1     -35.023  65.709 -43.878  1.00  0.00     0.107 C 
ENDROOT
BRANCH   1   2
ATOM      2  C   UNL     1     -34.188  64.413 -43.836  1.00  0.00     0.232 C 
BRANCH   2   3
ATOM      3  N   UNL     1     -34.238  63.813 -42.497  1.00  0.00    -0.350 N 
ATOM      4  H   UNL     1     -34.665  62.860 -42.551  1.00  0.00     0.345 HD
ATOM      5  H   UNL     1     -33.268  63.715 -42.114  1.00  0.00     0.345 HD
ATOM      6  H   UNL     1     -34.807  64.405 -41.847  1.00  0.00     0.345 HD
ENDBRANCH   2   3
BRANCH   2   7
ATOM      7  C   UNL     1     -32.760  64.674 -44.238  1.00  0.00     0.099 C 
ATOM      8  O   UNL     1     -31.930  63.728 -44.302  1.00  0.00    -0.544 OA
ATOM      9  O   UNL     1     -32.344  65.969 -44.518  1.00  0.00    -0.544 OA
ENDBRANCH   2   7
ENDBRANCH   1   2
BRANCH   1  10
ATOM     10  C   UNL     1     -35.805  65.829 -45.163  1.00  0.00    -0.041 A 
ATOM     11  C   UNL     1     -35.671  66.967 -45.975  1.00  0.00     0.008 A 
ATOM     12  C   UNL     1     -36.640  64.780 -45.581  1.00  0.00     0.008 A 
ATOM     13  C   UNL     1     -36.374  67.061 -47.180  1.00  0.00     0.046 A 
ATOM     14  C   UNL     1     -37.343  64.876 -46.786  1.00  0.00     0.046 A 
ATOM     15  C   UNL     1     -37.213  66.015 -47.588  1.00  0.00     0.115 A 
BRANCH  15  16
ATOM     16  O   UNL     1     -37.919  66.097 -48.786  1.00  0.00    -0.508 OA
ATOM     17  H   UNL     1     -38.338  65.277 -49.210  1.00  0.00     0.293 HD
ENDBRANCH  15  16
ENDBRANCH   1  10
TORSDOF 5
ENDMDL
MODEL 9
REMARK VINA RESULT:    -3.084      3.105      5.404
REMARK INTER + INTRA:          -4.027
REMARK INTER:                  -3.822
REMARK INTRA:                  -0.204
REMARK UNBOUND:                -0.221
REMARK SMILES [NH3+][C@@H](Cc1ccc(O)cc1)C(=O)[O-]
REMARK SMILES IDX 3 1 2 2 1 3 11 7 12 8 13 9 4 10 5 11 10 12 6 13 9 14 7 15
REMARK SMILES IDX 8 16
REMARK H PARENT 1 4 1 5 1 6 8 17
REMARK Flexibility Score: inf
ROOT
ATOM      1  C   UNL     1     -27.206  60.206 -52.562  1.00  0.00     0.107 C 
ENDROOT
BRANCH   1   2
ATOM      2  C   UNL     1     -27.453  59.263 -51.366  1.00  0.00     0.232 C 
BRANCH   2   3
ATOM      3  N   UNL     1     -26.641  59.672 -50.213  1.00  0.00    -0.350 N 
ATOM      4  H   UNL     1     -27.140  60.417 -49.675  1.00  0.00     0.345 HD
ATOM      5  H   UNL     1     -26.491  58.855 -49.576  1.00  0.00     0.345 HD
ATOM      6  H   UNL     1     -25.713  60.041 -50.526  1.00  0.00     0.345 HD
ENDBRANCH   2   3
BRANCH   2   7
ATOM      7  C   UNL     1     -27.155  57.832 -51.733  1.00  0.00     0.099 C 
ATOM      8  O   UNL     1     -25.967  57.414 -51.765  1.00  0.00    -0.544 OA
ATOM      9  O   UNL     1     -28.193  56.971 -52.063  1.00  0.00    -0.544 OA
ENDBRANCH   2   7
ENDBRANCH   1   2
BRANCH   1  10
ATOM     10  C   UNL     1     -28.471  60.907 -52.992  1.00  0.00    -0.041 A 
ATOM     11  C   UNL     1     -29.577  60.168 -53.443  1.00  0.00     0.008 A 
ATOM     12  C   UNL     1     -28.569  62.305 -52.903  1.00  0.00     0.008 A 
ATOM     13  C   UNL     1     -30.758  60.819 -53.812  1.00  0.00     0.046 A 
ATOM     14  C   UNL     1     -29.750  62.954 -53.272  1.00  0.00     0.046 A 
ATOM     15  C   UNL     1     -30.847  62.215 -53.728  1.00  0.00     0.115 A 
BRANCH  15  16
ATOM     16  O   UNL     1     -32.018  62.876 -54.094  1.00  0.00    -0.508 OA
ATOM     17  H   UNL     1     -32.805  62.376 -54.491  1.00  0.00     0.293 HD
ENDBRANCH  15  16
ENDBRANCH   1  10
TORSDOF 5
ENDMDL
