MODEL 1
REMARK VINA RESULT:    -4.591      0.000      0.000
REMARK INTER + INTRA:         -10.945
REMARK INTER:                  -8.617
REMARK INTRA:                  -2.328
REMARK UNBOUND:                -2.328
REMARK SMILES CCCCCCCCC=CCCCCCCCC(=O)[O-]
REMARK SMILES IDX 10 1 9 2 11 3 12 4 13 5 14 6 15 7 16 8 17 9 18 10 19 11
REMARK SMILES IDX 20 12 8 13 7 14 6 15 5 16 4 17 3 18 2 19 1 20
REMARK H PARENT
REMARK Flexibility Score: inf
ROOT
ATOM      1  C   UNL     1       1.203  33.105   7.412  1.00  0.00    -0.031 C 
ATOM      2  C   UNL     1       1.108  32.105   6.516  1.00  0.00    -0.031 C 
ENDROOT
BRANCH   1   3
ATOM      3  C   UNL     1       1.895  34.422   7.160  1.00  0.00     0.027 C 
BRANCH   3   4
ATOM      4  C   UNL     1       0.969  35.467   6.514  1.00  0.00     0.004 C 
BRANCH   4   5
ATOM      5  C   UNL     1       1.359  35.826   5.065  1.00  0.00     0.000 C 
BRANCH   5   6
ATOM      6  C   UNL     1       0.134  36.138   4.187  1.00  0.00     0.000 C 
BRANCH   6   7
ATOM      7  C   UNL     1      -0.726  34.895   3.907  1.00  0.00     0.000 C 
BRANCH   7   8
ATOM      8  C   UNL     1      -2.195  35.245   3.614  1.00  0.00     0.006 C 
BRANCH   8   9
ATOM      9  C   UNL     1      -2.758  36.262   4.615  1.00  0.00     0.053 C 
BRANCH   9  10
ATOM     10  C   UNL     1      -3.473  37.385   3.929  1.00  0.00     0.041 C 
ATOM     11  O   UNL     1      -2.872  38.095   3.081  1.00  0.00    -0.550 OA
ATOM     12  O   UNL     1      -4.796  37.667   4.246  1.00  0.00    -0.550 OA
ENDBRANCH   9  10
ENDBRANCH   8   9
ENDBRANCH   7   8
ENDBRANCH   6   7
ENDBRANCH   5   6
ENDBRANCH   4   5
ENDBRANCH   3   4
ENDBRANCH   1   3
BRANCH   2  13
ATOM     13  C   UNL     1       1.597  32.176   5.092  1.00  0.00     0.027 C 
BRANCH  13  14
ATOM     14  C   UNL     1       2.632  31.076   4.817  1.00  0.00     0.004 C 
BRANCH  14  15
ATOM     15  C   UNL     1       2.686  30.014   5.931  1.00  0.00     0.000 C 
BRANCH  15  16
ATOM     16  C   UNL     1       4.096  29.485   6.260  1.00  0.00     0.000 C 
BRANCH  16  17
ATOM     17  C   UNL     1       4.637  29.880   7.648  1.00  0.00    -0.000 C 
BRANCH  17  18
ATOM     18  C   UNL     1       4.563  31.385   7.973  1.00  0.00    -0.000 C 
BRANCH  18  19
ATOM     19  C   UNL     1       5.733  32.222   7.428  1.00  0.00    -0.003 C 
ATOM     20  C   UNL     1       5.306  33.205   6.338  1.00  0.00     0.004 C 
ENDBRANCH  18  19
ENDBRANCH  17  18
ENDBRANCH  16  17
ENDBRANCH  15  16
ENDBRANCH  14  15
ENDBRANCH  13  14
ENDBRANCH   2  13
TORSDOF 15
ENDMDL
MODEL 2
REMARK VINA RESULT:    -4.560      4.170      7.526
REMARK INTER + INTRA:         -10.887
REMARK INTER:                  -8.012
REMARK INTRA:                  -2.875
REMARK UNBOUND:                -2.328
REMARK SMILES CCCCCCCCC=CCCCCCCCC(=O)[O-]
REMARK SMILES IDX 10 1 9 2 11 3 12 4 13 5 14 6 15 7 16 8 17 9 18 10 19 11
REMARK SMILES IDX 20 12 8 13 7 14 6 15 5 16 4 17 3 18 2 19 1 20
REMARK H PARENT
REMARK Flexibility Score: inf
ROOT
ATOM      1  C   UNL     1       1.150  33.300   7.591  1.00  0.00    -0.031 C 
ATOM      2  C   UNL     1       1.911  34.319   7.150  1.00  0.00    -0.031 C 
ENDROOT
BRANCH   1   3
ATOM      3  C   UNL     1       1.498  31.840   7.444  1.00  0.00     0.027 C 
BRANCH   3   4
ATOM      4  C   UNL     1       0.701  31.148   6.325  1.00  0.00     0.004 C 
BRANCH   4   5
ATOM      5  C   UNL     1       1.591  30.483   5.254  1.00  0.00     0.000 C 
BRANCH   5   6
ATOM      6  C   UNL     1       3.091  30.673   5.535  1.00  0.00     0.000 C 
BRANCH   6   7
ATOM      7  C   UNL     1       3.756  29.403   6.090  1.00  0.00     0.000 C 
BRANCH   7   8
ATOM      8  C   UNL     1       4.508  29.656   7.408  1.00  0.00     0.006 C 
BRANCH   8   9
ATOM      9  C   UNL     1       5.132  31.058   7.459  1.00  0.00     0.053 C 
BRANCH   9  10
ATOM     10  C   UNL     1       5.483  31.463   8.857  1.00  0.00     0.041 C 
ATOM     11  O   UNL     1       5.715  30.588   9.731  1.00  0.00    -0.550 OA
ATOM     12  O   UNL     1       5.526  32.808   9.203  1.00  0.00    -0.550 OA
ENDBRANCH   9  10
ENDBRANCH   8   9
ENDBRANCH   7   8
ENDBRANCH   6   7
ENDBRANCH   5   6
ENDBRANCH   4   5
ENDBRANCH   3   4
ENDBRANCH   1   3
BRANCH   2  13
ATOM     13  C   UNL     1       3.273  34.166   6.523  1.00  0.00     0.027 C 
BRANCH  13  14
ATOM     14  C   UNL     1       3.370  34.987   5.229  1.00  0.00     0.004 C 
BRANCH  14  15
ATOM     15  C   UNL     1       1.993  35.356   4.650  1.00  0.00     0.000 C 
BRANCH  15  16
ATOM     16  C   UNL     1       1.541  34.504   3.447  1.00  0.00     0.000 C 
BRANCH  16  17
ATOM     17  C   UNL     1       0.301  33.622   3.697  1.00  0.00    -0.000 C 
BRANCH  17  18
ATOM     18  C   UNL     1      -0.911  34.358   4.301  1.00  0.00    -0.000 C 
BRANCH  18  19
ATOM     19  C   UNL     1      -2.020  33.441   4.845  1.00  0.00    -0.003 C 
ATOM     20  C   UNL     1      -2.198  33.555   6.359  1.00  0.00     0.004 C 
ENDBRANCH  18  19
ENDBRANCH  17  18
ENDBRANCH  16  17
ENDBRANCH  15  16
ENDBRANCH  14  15
ENDBRANCH  13  14
ENDBRANCH   2  13
TORSDOF 15
ENDMDL
MODEL 3
REMARK VINA RESULT:    -4.510      3.632      5.025
REMARK INTER + INTRA:         -10.792
REMARK INTER:                  -8.188
REMARK INTRA:                  -2.604
REMARK UNBOUND:                -2.328
REMARK SMILES CCCCCCCCC=CCCCCCCCC(=O)[O-]
REMARK SMILES IDX 10 1 9 2 11 3 12 4 13 5 14 6 15 7 16 8 17 9 18 10 19 11
REMARK SMILES IDX 20 12 8 13 7 14 6 15 5 16 4 17 3 18 2 19 1 20
REMARK H PARENT
REMARK Flexibility Score: inf
ROOT
ATOM      1  C   UNL     1       1.858  34.355   7.016  1.00  0.00    -0.031 C 
ATOM      2  C   UNL     1       2.683  34.768   6.036  1.00  0.00    -0.031 C 
ENDROOT
BRANCH   1   3
ATOM      3  C   UNL     1       1.810  32.951   7.565  1.00  0.00     0.027 C 
BRANCH   3   4
ATOM      4  C   UNL     1       0.627  32.136   7.013  1.00  0.00     0.004 C 
BRANCH   4   5
ATOM      5  C   UNL     1      -0.705  32.914   6.997  1.00  0.00     0.000 C 
BRANCH   5   6
ATOM      6  C   UNL     1      -1.411  32.845   5.632  1.00  0.00     0.000 C 
BRANCH   6   7
ATOM      7  C   UNL     1      -0.447  32.500   4.484  1.00  0.00     0.000 C 
BRANCH   7   8
ATOM      8  C   UNL     1      -0.900  31.269   3.680  1.00  0.00     0.006 C 
BRANCH   8   9
ATOM      9  C   UNL     1       0.018  30.060   3.908  1.00  0.00     0.053 C 
BRANCH   9  10
ATOM     10  C   UNL     1      -0.741  28.870   4.411  1.00  0.00     0.041 C 
ATOM     11  O   UNL     1      -1.998  28.850   4.354  1.00  0.00    -0.550 OA
ATOM     12  O   UNL     1      -0.060  27.794   4.968  1.00  0.00    -0.550 OA
ENDBRANCH   9  10
ENDBRANCH   8   9
ENDBRANCH   7   8
ENDBRANCH   6   7
ENDBRANCH   5   6
ENDBRANCH   4   5
ENDBRANCH   3   4
ENDBRANCH   1   3
BRANCH   2  13
ATOM     13  C   UNL     1       3.752  33.918   5.397  1.00  0.00     0.027 C 
BRANCH  13  14
ATOM     14  C   UNL     1       5.119  34.188   6.042  1.00  0.00     0.004 C 
BRANCH  14  15
ATOM     15  C   UNL     1       5.740  32.930   6.675  1.00  0.00     0.000 C 
BRANCH  15  16
ATOM     16  C   UNL     1       5.347  32.678   8.145  1.00  0.00     0.000 C 
BRANCH  16  17
ATOM     17  C   UNL     1       5.245  31.194   8.551  1.00  0.00    -0.000 C 
BRANCH  17  18
ATOM     18  C   UNL     1       5.141  30.202   7.376  1.00  0.00    -0.000 C 
BRANCH  18  19
ATOM     19  C   UNL     1       3.709  29.762   7.026  1.00  0.00    -0.003 C 
ATOM     20  C   UNL     1       3.337  30.044   5.571  1.00  0.00     0.004 C 
ENDBRANCH  18  19
ENDBRANCH  17  18
ENDBRANCH  16  17
ENDBRANCH  15  16
ENDBRANCH  14  15
ENDBRANCH  13  14
ENDBRANCH   2  13
TORSDOF 15
ENDMDL
MODEL 4
REMARK VINA RESULT:    -4.505     14.034     16.046
REMARK INTER + INTRA:         -10.784
REMARK INTER:                  -8.133
REMARK INTRA:                  -2.651
REMARK UNBOUND:                -2.328
REMARK SMILES CCCCCCCCC=CCCCCCCCC(=O)[O-]
REMARK SMILES IDX 10 1 9 2 11 3 12 4 13 5 14 6 15 7 16 8 17 9 18 10 19 11
REMARK SMILES IDX 20 12 8 13 7 14 6 15 5 16 4 17 3 18 2 19 1 20
REMARK H PARENT
REMARK Flexibility Score: inf
ROOT
ATOM      1  C   UNL     1       8.263  43.441  16.793  1.00  0.00    -0.031 C 
ATOM      2  C   UNL     1       7.608  44.483  16.246  1.00  0.00    -0.031 C 
ENDROOT
BRANCH   1   3
ATOM      3  C   UNL     1       8.075  42.955  18.208  1.00  0.00     0.027 C 
BRANCH   3   4
ATOM      4  C   UNL     1       7.278  41.640  18.285  1.00  0.00     0.004 C 
BRANCH   4   5
ATOM      5  C   UNL     1       5.928  41.778  19.018  1.00  0.00     0.000 C 
BRANCH   5   6
ATOM      6  C   UNL     1       5.823  43.089  19.816  1.00  0.00     0.000 C 
BRANCH   6   7
ATOM      7  C   UNL     1       4.427  43.726  19.729  1.00  0.00     0.000 C 
BRANCH   7   8
ATOM      8  C   UNL     1       3.527  43.039  18.686  1.00  0.00     0.006 C 
BRANCH   8   9
ATOM      9  C   UNL     1       2.159  43.724  18.563  1.00  0.00     0.053 C 
BRANCH   9  10
ATOM     10  C   UNL     1       1.067  42.909  19.184  1.00  0.00     0.041 C 
ATOM     11  O   UNL     1      -0.027  42.750  18.581  1.00  0.00    -0.550 OA
ATOM     12  O   UNL     1       1.246  42.348  20.442  1.00  0.00    -0.550 OA
ENDBRANCH   9  10
ENDBRANCH   8   9
ENDBRANCH   7   8
ENDBRANCH   6   7
ENDBRANCH   5   6
ENDBRANCH   4   5
ENDBRANCH   3   4
ENDBRANCH   1   3
BRANCH   2  13
ATOM     13  C   UNL     1       6.520  45.270  16.930  1.00  0.00     0.027 C 
BRANCH  13  14
ATOM     14  C   UNL     1       5.149  44.947  16.318  1.00  0.00     0.004 C 
BRANCH  14  15
ATOM     15  C   UNL     1       5.242  44.486  14.853  1.00  0.00     0.000 C 
BRANCH  15  16
ATOM     16  C   UNL     1       4.393  43.247  14.503  1.00  0.00     0.000 C 
BRANCH  16  17
ATOM     17  C   UNL     1       4.549  42.053  15.465  1.00  0.00    -0.000 C 
BRANCH  17  18
ATOM     18  C   UNL     1       5.163  40.786  14.838  1.00  0.00    -0.000 C 
BRANCH  18  19
ATOM     19  C   UNL     1       4.970  40.659  13.317  1.00  0.00    -0.003 C 
ATOM     20  C   UNL     1       3.614  40.068  12.934  1.00  0.00     0.004 C 
ENDBRANCH  18  19
ENDBRANCH  17  18
ENDBRANCH  16  17
ENDBRANCH  15  16
ENDBRANCH  14  15
ENDBRANCH  13  14
ENDBRANCH   2  13
TORSDOF 15
ENDMDL
MODEL 5
REMARK VINA RESULT:    -4.494      1.349      3.188
REMARK INTER + INTRA:         -10.763
REMARK INTER:                  -8.031
REMARK INTRA:                  -2.733
REMARK UNBOUND:                -2.328
REMARK SMILES CCCCCCCCC=CCCCCCCCC(=O)[O-]
REMARK SMILES IDX 10 1 9 2 11 3 12 4 13 5 14 6 15 7 16 8 17 9 18 10 19 11
REMARK SMILES IDX 20 12 8 13 7 14 6 15 5 16 4 17 3 18 2 19 1 20
REMARK H PARENT
REMARK Flexibility Score: inf
ROOT
ATOM      1  C   UNL     1       1.393  34.773   3.750  1.00  0.00    -0.031 C 
ATOM      2  C   UNL     1       1.660  35.652   4.734  1.00  0.00    -0.031 C 
ENDROOT
BRANCH   1   3
ATOM      3  C   UNL     1       1.589  33.281   3.853  1.00  0.00     0.027 C 
BRANCH   3   4
ATOM      4  C   UNL     1       0.273  32.524   4.106  1.00  0.00     0.004 C 
BRANCH   4   5
ATOM      5  C   UNL     1      -0.791  32.752   3.013  1.00  0.00     0.000 C 
BRANCH   5   6
ATOM      6  C   UNL     1      -2.066  33.415   3.562  1.00  0.00     0.000 C 
BRANCH   6   7
ATOM      7  C   UNL     1      -2.006  33.647   5.081  1.00  0.00     0.000 C 
BRANCH   7   8
ATOM      8  C   UNL     1      -2.441  35.068   5.480  1.00  0.00     0.006 C 
BRANCH   8   9
ATOM      9  C   UNL     1      -2.335  36.056   4.310  1.00  0.00     0.053 C 
BRANCH   9  10
ATOM     10  C   UNL     1      -3.425  37.081   4.344  1.00  0.00     0.041 C 
ATOM     11  O   UNL     1      -3.386  38.074   3.571  1.00  0.00    -0.550 OA
ATOM     12  O   UNL     1      -4.472  36.957   5.250  1.00  0.00    -0.550 OA
ENDBRANCH   9  10
ENDBRANCH   8   9
ENDBRANCH   7   8
ENDBRANCH   6   7
ENDBRANCH   5   6
ENDBRANCH   4   5
ENDBRANCH   3   4
ENDBRANCH   1   3
BRANCH   2  13
ATOM     13  C   UNL     1       2.111  35.277   6.123  1.00  0.00     0.027 C 
BRANCH  13  14
ATOM     14  C   UNL     1       0.903  35.013   7.033  1.00  0.00     0.004 C 
BRANCH  14  15
ATOM     15  C   UNL     1       0.925  33.610   7.665  1.00  0.00     0.000 C 
BRANCH  15  16
ATOM     16  C   UNL     1       2.267  32.861   7.542  1.00  0.00     0.000 C 
BRANCH  16  17
ATOM     17  C   UNL     1       2.151  31.358   7.217  1.00  0.00    -0.000 C 
BRANCH  17  18
ATOM     18  C   UNL     1       3.274  30.796   6.323  1.00  0.00    -0.000 C 
BRANCH  18  19
ATOM     19  C   UNL     1       4.665  30.760   6.978  1.00  0.00    -0.003 C 
ATOM     20  C   UNL     1       4.762  29.747   8.119  1.00  0.00     0.004 C 
ENDBRANCH  18  19
ENDBRANCH  17  18
ENDBRANCH  16  17
ENDBRANCH  15  16
ENDBRANCH  14  15
ENDBRANCH  13  14
ENDBRANCH   2  13
TORSDOF 15
ENDMDL
MODEL 6
REMARK VINA RESULT:    -4.468      4.325      7.800
REMARK INTER + INTRA:         -10.714
REMARK INTER:                  -8.108
REMARK INTRA:                  -2.606
REMARK UNBOUND:                -2.328
REMARK SMILES CCCCCCCCC=CCCCCCCCC(=O)[O-]
REMARK SMILES IDX 10 1 9 2 11 3 12 4 13 5 14 6 15 7 16 8 17 9 18 10 19 11
REMARK SMILES IDX 20 12 8 13 7 14 6 15 5 16 4 17 3 18 2 19 1 20
REMARK H PARENT
REMARK Flexibility Score: inf
ROOT
ATOM      1  C   UNL     1       2.684  34.835   6.311  1.00  0.00    -0.031 C 
ATOM      2  C   UNL     1       2.435  35.009   5.000  1.00  0.00    -0.031 C 
ENDROOT
BRANCH   1   3
ATOM      3  C   UNL     1       3.070  33.523   6.946  1.00  0.00     0.027 C 
BRANCH   3   4
ATOM      4  C   UNL     1       1.880  32.812   7.615  1.00  0.00     0.004 C 
BRANCH   4   5
ATOM      5  C   UNL     1       1.763  31.320   7.243  1.00  0.00     0.000 C 
BRANCH   5   6
ATOM      6  C   UNL     1       2.824  30.884   6.218  1.00  0.00     0.000 C 
BRANCH   6   7
ATOM      7  C   UNL     1       3.770  29.804   6.767  1.00  0.00     0.000 C 
BRANCH   7   8
ATOM      8  C   UNL     1       5.086  30.389   7.309  1.00  0.00     0.006 C 
BRANCH   8   9
ATOM      9  C   UNL     1       5.255  30.136   8.813  1.00  0.00     0.053 C 
BRANCH   9  10
ATOM     10  C   UNL     1       5.793  31.339   9.525  1.00  0.00     0.041 C 
ATOM     11  O   UNL     1       5.502  32.496   9.123  1.00  0.00    -0.550 OA
ATOM     12  O   UNL     1       6.640  31.183  10.616  1.00  0.00    -0.550 OA
ENDBRANCH   9  10
ENDBRANCH   8   9
ENDBRANCH   7   8
ENDBRANCH   6   7
ENDBRANCH   5   6
ENDBRANCH   4   5
ENDBRANCH   3   4
ENDBRANCH   1   3
BRANCH   2  13
ATOM     13  C   UNL     1       2.592  33.943   3.946  1.00  0.00     0.027 C 
BRANCH  13  14
ATOM     14  C   UNL     1       1.242  33.633   3.282  1.00  0.00     0.004 C 
BRANCH  14  15
ATOM     15  C   UNL     1       0.359  32.700   4.130  1.00  0.00     0.000 C 
BRANCH  15  16
ATOM     16  C   UNL     1      -1.048  33.245   4.449  1.00  0.00     0.000 C 
BRANCH  16  17
ATOM     17  C   UNL     1      -1.126  34.182   5.671  1.00  0.00    -0.000 C 
BRANCH  17  18
ATOM     18  C   UNL     1      -1.156  35.687   5.338  1.00  0.00    -0.000 C 
BRANCH  18  19
ATOM     19  C   UNL     1      -2.346  36.134   4.472  1.00  0.00    -0.003 C 
ATOM     20  C   UNL     1      -1.931  36.566   3.066  1.00  0.00     0.004 C 
ENDBRANCH  18  19
ENDBRANCH  17  18
ENDBRANCH  16  17
ENDBRANCH  15  16
ENDBRANCH  14  15
ENDBRANCH  13  14
ENDBRANCH   2  13
TORSDOF 15
ENDMDL
MODEL 7
REMARK VINA RESULT:    -4.461      1.222      2.919
REMARK INTER + INTRA:         -10.701
REMARK INTER:                  -8.342
REMARK INTRA:                  -2.359
REMARK UNBOUND:                -2.328
REMARK SMILES CCCCCCCCC=CCCCCCCCC(=O)[O-]
REMARK SMILES IDX 10 1 9 2 11 3 12 4 13 5 14 6 15 7 16 8 17 9 18 10 19 11
REMARK SMILES IDX 20 12 8 13 7 14 6 15 5 16 4 17 3 18 2 19 1 20
REMARK H PARENT
REMARK Flexibility Score: inf
ROOT
ATOM      1  C   UNL     1       3.554  35.155   6.449  1.00  0.00    -0.031 C 
ATOM      2  C   UNL     1       4.381  34.551   7.323  1.00  0.00    -0.031 C 
ENDROOT
BRANCH   1   3
ATOM      3  C   UNL     1       3.455  34.813   4.983  1.00  0.00     0.027 C 
BRANCH   3   4
ATOM      4  C   UNL     1       2.001  34.776   4.479  1.00  0.00     0.004 C 
BRANCH   4   5
ATOM      5  C   UNL     1       1.240  36.100   4.691  1.00  0.00     0.000 C 
BRANCH   5   6
ATOM      6  C   UNL     1      -0.257  35.879   4.973  1.00  0.00     0.000 C 
BRANCH   6   7
ATOM      7  C   UNL     1      -0.872  34.786   4.085  1.00  0.00     0.000 C 
BRANCH   7   8
ATOM      8  C   UNL     1      -2.272  35.161   3.569  1.00  0.00     0.006 C 
BRANCH   8   9
ATOM      9  C   UNL     1      -2.472  36.681   3.491  1.00  0.00     0.053 C 
BRANCH   9  10
ATOM     10  C   UNL     1      -3.607  37.140   4.354  1.00  0.00     0.041 C 
ATOM     11  O   UNL     1      -4.304  38.131   4.011  1.00  0.00    -0.550 OA
ATOM     12  O   UNL     1      -3.878  36.492   5.553  1.00  0.00    -0.550 OA
ENDBRANCH   9  10
ENDBRANCH   8   9
ENDBRANCH   7   8
ENDBRANCH   6   7
ENDBRANCH   5   6
ENDBRANCH   4   5
ENDBRANCH   3   4
ENDBRANCH   1   3
BRANCH   2  13
ATOM     13  C   UNL     1       5.271  33.379   6.997  1.00  0.00     0.027 C 
BRANCH  13  14
ATOM     14  C   UNL     1       5.302  32.380   8.162  1.00  0.00     0.004 C 
BRANCH  14  15
ATOM     15  C   UNL     1       5.067  30.927   7.711  1.00  0.00     0.000 C 
BRANCH  15  16
ATOM     16  C   UNL     1       4.100  30.762   6.522  1.00  0.00     0.000 C 
BRANCH  16  17
ATOM     17  C   UNL     1       2.617  30.584   6.904  1.00  0.00    -0.000 C 
BRANCH  17  18
ATOM     18  C   UNL     1       1.680  31.711   6.425  1.00  0.00    -0.000 C 
BRANCH  18  19
ATOM     19  C   UNL     1       1.159  32.636   7.539  1.00  0.00    -0.003 C 
ATOM     20  C   UNL     1      -0.314  33.007   7.364  1.00  0.00     0.004 C 
ENDBRANCH  18  19
ENDBRANCH  17  18
ENDBRANCH  16  17
ENDBRANCH  15  16
ENDBRANCH  14  15
ENDBRANCH  13  14
ENDBRANCH   2  13
TORSDOF 15
ENDMDL
MODEL 8
REMARK VINA RESULT:    -4.439      4.050      6.813
REMARK INTER + INTRA:         -10.659
REMARK INTER:                  -7.794
REMARK INTRA:                  -2.865
REMARK UNBOUND:                -2.328
REMARK SMILES CCCCCCCCC=CCCCCCCCC(=O)[O-]
REMARK SMILES IDX 10 1 9 2 11 3 12 4 13 5 14 6 15 7 16 8 17 9 18 10 19 11
REMARK SMILES IDX 20 12 8 13 7 14 6 15 5 16 4 17 3 18 2 19 1 20
REMARK H PARENT
REMARK Flexibility Score: inf
ROOT
ATOM      1  C   UNL     1       3.771  29.490   6.218  1.00  0.00    -0.031 C 
ATOM      2  C   UNL     1       2.538  29.911   5.879  1.00  0.00    -0.031 C 
ENDROOT
BRANCH   1   3
ATOM      3  C   UNL     1       4.472  29.832   7.508  1.00  0.00     0.027 C 
BRANCH   3   4
ATOM      4  C   UNL     1       5.324  31.110   7.402  1.00  0.00     0.004 C 
BRANCH   4   5
ATOM      5  C   UNL     1       4.789  32.281   8.252  1.00  0.00     0.000 C 
BRANCH   5   6
ATOM      6  C   UNL     1       4.613  33.570   7.431  1.00  0.00     0.000 C 
BRANCH   6   7
ATOM      7  C   UNL     1       4.931  33.372   5.940  1.00  0.00     0.000 C 
BRANCH   7   8
ATOM      8  C   UNL     1       4.965  34.697   5.160  1.00  0.00     0.006 C 
BRANCH   8   9
ATOM      9  C   UNL     1       5.816  34.597   3.887  1.00  0.00     0.053 C 
BRANCH   9  10
ATOM     10  C   UNL     1       7.189  35.162   4.087  1.00  0.00     0.041 C 
ATOM     11  O   UNL     1       7.466  36.316   3.668  1.00  0.00    -0.550 OA
ATOM     12  O   UNL     1       8.172  34.402   4.710  1.00  0.00    -0.550 OA
ENDBRANCH   9  10
ENDBRANCH   8   9
ENDBRANCH   7   8
ENDBRANCH   6   7
ENDBRANCH   5   6
ENDBRANCH   4   5
ENDBRANCH   3   4
ENDBRANCH   1   3
BRANCH   2  13
ATOM     13  C   UNL     1       1.627  30.713   6.773  1.00  0.00     0.027 C 
BRANCH  13  14
ATOM     14  C   UNL     1       1.340  32.091   6.160  1.00  0.00     0.004 C 
BRANCH  14  15
ATOM     15  C   UNL     1       1.645  32.150   4.652  1.00  0.00     0.000 C 
BRANCH  15  16
ATOM     16  C   UNL     1       1.640  33.565   4.040  1.00  0.00     0.000 C 
BRANCH  16  17
ATOM     17  C   UNL     1       0.627  34.545   4.663  1.00  0.00    -0.000 C 
BRANCH  17  18
ATOM     18  C   UNL     1       1.218  35.895   5.114  1.00  0.00    -0.000 C 
BRANCH  18  19
ATOM     19  C   UNL     1       1.930  35.867   6.477  1.00  0.00    -0.003 C 
ATOM     20  C   UNL     1       1.014  35.425   7.619  1.00  0.00     0.004 C 
ENDBRANCH  18  19
ENDBRANCH  17  18
ENDBRANCH  16  17
ENDBRANCH  15  16
ENDBRANCH  14  15
ENDBRANCH  13  14
ENDBRANCH   2  13
TORSDOF 15
ENDMDL
MODEL 9
REMARK VINA RESULT:    -4.391      1.908      3.850
REMARK INTER + INTRA:         -10.569
REMARK INTER:                  -7.418
REMARK INTRA:                  -3.152
REMARK UNBOUND:                -2.328
REMARK SMILES CCCCCCCCC=CCCCCCCCC(=O)[O-]
REMARK SMILES IDX 10 1 9 2 11 3 12 4 13 5 14 6 15 7 16 8 17 9 18 10 19 11
REMARK SMILES IDX 20 12 8 13 7 14 6 15 5 16 4 17 3 18 2 19 1 20
REMARK H PARENT
REMARK Flexibility Score: inf
ROOT
ATOM      1  C   UNL     1       1.560  31.729   3.915  1.00  0.00    -0.031 C 
ATOM      2  C   UNL     1       1.564  32.990   3.444  1.00  0.00    -0.031 C 
ENDROOT
BRANCH   1   3
ATOM      3  C   UNL     1       2.613  31.148   4.825  1.00  0.00     0.027 C 
BRANCH   3   4
ATOM      4  C   UNL     1       2.033  30.636   6.155  1.00  0.00     0.004 C 
BRANCH   4   5
ATOM      5  C   UNL     1       0.653  31.234   6.499  1.00  0.00     0.000 C 
BRANCH   5   6
ATOM      6  C   UNL     1       0.762  32.497   7.372  1.00  0.00     0.000 C 
BRANCH   6   7
ATOM      7  C   UNL     1      -0.409  33.469   7.154  1.00  0.00     0.000 C 
BRANCH   7   8
ATOM      8  C   UNL     1      -1.277  33.090   5.943  1.00  0.00     0.006 C 
BRANCH   8   9
ATOM      9  C   UNL     1      -2.003  34.305   5.348  1.00  0.00     0.053 C 
BRANCH   9  10
ATOM     10  C   UNL     1      -2.258  34.140   3.881  1.00  0.00     0.041 C 
ATOM     11  O   UNL     1      -2.117  33.015   3.335  1.00  0.00    -0.550 OA
ATOM     12  O   UNL     1      -2.624  35.237   3.110  1.00  0.00    -0.550 OA
ENDBRANCH   9  10
ENDBRANCH   8   9
ENDBRANCH   7   8
ENDBRANCH   6   7
ENDBRANCH   5   6
ENDBRANCH   4   5
ENDBRANCH   3   4
ENDBRANCH   1   3
BRANCH   2  13
ATOM     13  C   UNL     1       2.571  34.046   3.823  1.00  0.00     0.027 C 
BRANCH  13  14
ATOM     14  C   UNL     1       1.988  34.998   4.878  1.00  0.00     0.004 C 
BRANCH  14  15
ATOM     15  C   UNL     1       2.922  35.196   6.085  1.00  0.00     0.000 C 
BRANCH  15  16
ATOM     16  C   UNL     1       4.191  34.320   6.079  1.00  0.00     0.000 C 
BRANCH  16  17
ATOM     17  C   UNL     1       4.475  33.569   7.395  1.00  0.00    -0.000 C 
BRANCH  17  18
ATOM     18  C   UNL     1       5.278  32.262   7.240  1.00  0.00    -0.000 C 
BRANCH  18  19
ATOM     19  C   UNL     1       5.257  31.340   8.472  1.00  0.00    -0.003 C 
ATOM     20  C   UNL     1       4.965  29.882   8.120  1.00  0.00     0.004 C 
ENDBRANCH  18  19
ENDBRANCH  17  18
ENDBRANCH  16  17
ENDBRANCH  15  16
ENDBRANCH  14  15
ENDBRANCH  13  14
ENDBRANCH   2  13
TORSDOF 15
ENDMDL
