MODEL 1
REMARK VINA RESULT:    -2.445      0.000      0.000
REMARK INTER + INTRA:          -2.742
REMARK INTER:                  -2.731
REMARK INTRA:                  -0.011
REMARK UNBOUND:                -0.011
REMARK SMILES CCCC(=O)[O-]
REMARK SMILES IDX 3 1 4 2 5 3 6 4 2 5 1 6
REMARK H PARENT
REMARK Flexibility Score: inf
ROOT
ATOM      1  C   UNL     1      55.063  27.070  50.385  1.00  0.00     0.052 C 
ENDROOT
BRANCH   1   2
ATOM      2  C   UNL     1      55.538  25.699  50.013  1.00  0.00     0.041 C 
ATOM      3  O   UNL     1      54.774  24.909  49.399  1.00  0.00    -0.550 OA
ATOM      4  O   UNL     1      56.813  25.284  50.373  1.00  0.00    -0.550 OA
ENDBRANCH   1   2
BRANCH   1   5
ATOM      5  C   UNL     1      53.590  27.281  50.011  1.00  0.00     0.003 C 
ATOM      6  C   UNL     1      53.080  28.666  50.413  1.00  0.00     0.004 C 
ENDBRANCH   1   5
TORSDOF 2
ENDMDL
MODEL 2
REMARK VINA RESULT:    -2.440      9.555     10.429
REMARK INTER + INTRA:          -2.736
REMARK INTER:                  -2.712
REMARK INTRA:                  -0.024
REMARK UNBOUND:                -0.011
REMARK SMILES CCCC(=O)[O-]
REMARK SMILES IDX 3 1 4 2 5 3 6 4 2 5 1 6
REMARK H PARENT
REMARK Flexibility Score: inf
ROOT
ATOM      1  C   UNL     1      58.445  16.580  50.493  1.00  0.00     0.052 C 
ENDROOT
BRANCH   1   2
ATOM      2  C   UNL     1      59.127  16.263  49.198  1.00  0.00     0.041 C 
ATOM      3  O   UNL     1      60.384  16.270  49.126  1.00  0.00    -0.550 OA
ATOM      4  O   UNL     1      58.374  15.991  48.064  1.00  0.00    -0.550 OA
ENDBRANCH   1   2
BRANCH   1   5
ATOM      5  C   UNL     1      57.907  18.017  50.514  1.00  0.00     0.003 C 
ATOM      6  C   UNL     1      56.409  18.073  50.815  1.00  0.00     0.004 C 
ENDBRANCH   1   5
TORSDOF 2
ENDMDL
MODEL 3
REMARK VINA RESULT:    -2.418     15.940     16.543
REMARK INTER + INTRA:          -2.711
REMARK INTER:                  -2.701
REMARK INTRA:                  -0.010
REMARK UNBOUND:                -0.011
REMARK SMILES CCCC(=O)[O-]
REMARK SMILES IDX 3 1 4 2 5 3 6 4 2 5 1 6
REMARK H PARENT
REMARK Flexibility Score: inf
ROOT
ATOM      1  C   UNL     1      63.421  35.529  61.362  1.00  0.00     0.052 C 
ENDROOT
BRANCH   1   2
ATOM      2  C   UNL     1      64.674  34.714  61.470  1.00  0.00     0.041 C 
ATOM      3  O   UNL     1      64.630  33.464  61.335  1.00  0.00    -0.550 OA
ATOM      4  O   UNL     1      65.884  35.335  61.751  1.00  0.00    -0.550 OA
ENDBRANCH   1   2
BRANCH   1   5
ATOM      5  C   UNL     1      62.278  34.729  60.724  1.00  0.00     0.003 C 
ATOM      6  C   UNL     1      61.025  35.578  60.505  1.00  0.00     0.004 C 
ENDBRANCH   1   5
TORSDOF 2
ENDMDL
MODEL 4
REMARK VINA RESULT:    -2.407      4.118      4.993
REMARK INTER + INTRA:          -2.700
REMARK INTER:                  -2.665
REMARK INTRA:                  -0.035
REMARK UNBOUND:                -0.011
REMARK SMILES CCCC(=O)[O-]
REMARK SMILES IDX 3 1 4 2 5 3 6 4 2 5 1 6
REMARK H PARENT
REMARK Flexibility Score: inf
ROOT
ATOM      1  C   UNL     1      59.359  28.416  49.509  1.00  0.00     0.052 C 
ENDROOT
BRANCH   1   2
ATOM      2  C   UNL     1      60.213  27.187  49.584  1.00  0.00     0.041 C 
ATOM      3  O   UNL     1      61.468  27.286  49.573  1.00  0.00    -0.550 OA
ATOM      4  O   UNL     1      59.621  25.932  49.634  1.00  0.00    -0.550 OA
ENDBRANCH   1   2
BRANCH   1   5
ATOM      5  C   UNL     1      58.621  28.674  50.828  1.00  0.00     0.003 C 
ATOM      6  C   UNL     1      57.165  28.207  50.781  1.00  0.00     0.004 C 
ENDBRANCH   1   5
TORSDOF 2
ENDMDL
MODEL 5
REMARK VINA RESULT:    -2.405      1.804      2.155
REMARK INTER + INTRA:          -2.698
REMARK INTER:                  -2.690
REMARK INTRA:                  -0.007
REMARK UNBOUND:                -0.011
REMARK SMILES CCCC(=O)[O-]
REMARK SMILES IDX 3 1 4 2 5 3 6 4 2 5 1 6
REMARK H PARENT
REMARK Flexibility Score: inf
ROOT
ATOM      1  C   UNL     1      55.101  25.918  49.970  1.00  0.00     0.052 C 
ENDROOT
BRANCH   1   2
ATOM      2  C   UNL     1      53.965  25.025  49.574  1.00  0.00     0.041 C 
ATOM      3  O   UNL     1      53.069  25.446  48.797  1.00  0.00    -0.550 OA
ATOM      4  O   UNL     1      53.881  23.738  50.090  1.00  0.00    -0.550 OA
ENDBRANCH   1   2
BRANCH   1   5
ATOM      5  C   UNL     1      54.617  27.333  50.310  1.00  0.00     0.003 C 
ATOM      6  C   UNL     1      55.729  28.203  50.898  1.00  0.00     0.004 C 
ENDBRANCH   1   5
TORSDOF 2
ENDMDL
MODEL 6
REMARK VINA RESULT:    -2.405     13.364     13.995
REMARK INTER + INTRA:          -2.697
REMARK INTER:                  -2.661
REMARK INTRA:                  -0.036
REMARK UNBOUND:                -0.011
REMARK SMILES CCCC(=O)[O-]
REMARK SMILES IDX 3 1 4 2 5 3 6 4 2 5 1 6
REMARK H PARENT
REMARK Flexibility Score: inf
ROOT
ATOM      1  C   UNL     1      61.400  30.358  61.785  1.00  0.00     0.052 C 
ENDROOT
BRANCH   1   2
ATOM      2  C   UNL     1      62.538  29.386  61.720  1.00  0.00     0.041 C 
ATOM      3  O   UNL     1      62.313  28.147  61.702  1.00  0.00    -0.550 OA
ATOM      4  O   UNL     1      63.847  29.848  61.711  1.00  0.00    -0.550 OA
ENDBRANCH   1   2
BRANCH   1   5
ATOM      5  C   UNL     1      61.237  31.129  60.470  1.00  0.00     0.003 C 
ATOM      6  C   UNL     1      61.850  32.529  60.536  1.00  0.00     0.004 C 
ENDBRANCH   1   5
TORSDOF 2
ENDMDL
MODEL 7
REMARK VINA RESULT:    -2.380     20.147     21.005
REMARK INTER + INTRA:          -2.669
REMARK INTER:                  -2.646
REMARK INTRA:                  -0.024
REMARK UNBOUND:                -0.011
REMARK SMILES CCCC(=O)[O-]
REMARK SMILES IDX 3 1 4 2 5 3 6 4 2 5 1 6
REMARK H PARENT
REMARK Flexibility Score: inf
ROOT
ATOM      1  C   UNL     1      72.830  30.801  60.495  1.00  0.00     0.052 C 
ENDROOT
BRANCH   1   2
ATOM      2  C   UNL     1      72.326  29.842  61.530  1.00  0.00     0.041 C 
ATOM      3  O   UNL     1      73.124  29.324  62.354  1.00  0.00    -0.550 OA
ATOM      4  O   UNL     1      70.982  29.498  61.563  1.00  0.00    -0.550 OA
ENDBRANCH   1   2
BRANCH   1   5
ATOM      5  C   UNL     1      72.117  32.155  60.582  1.00  0.00     0.003 C 
ATOM      6  C   UNL     1      71.623  32.642  59.219  1.00  0.00     0.004 C 
ENDBRANCH   1   5
TORSDOF 2
ENDMDL
MODEL 8
REMARK VINA RESULT:    -2.310      1.998      2.401
REMARK INTER + INTRA:          -2.591
REMARK INTER:                  -2.582
REMARK INTRA:                  -0.009
REMARK UNBOUND:                -0.011
REMARK SMILES CCCC(=O)[O-]
REMARK SMILES IDX 3 1 4 2 5 3 6 4 2 5 1 6
REMARK H PARENT
REMARK Flexibility Score: inf
ROOT
ATOM      1  C   UNL     1      55.378  26.472  50.212  1.00  0.00     0.052 C 
ENDROOT
BRANCH   1   2
ATOM      2  C   UNL     1      56.841  26.310  50.488  1.00  0.00     0.041 C 
ATOM      3  O   UNL     1      57.312  25.176  50.762  1.00  0.00    -0.550 OA
ATOM      4  O   UNL     1      57.678  27.418  50.474  1.00  0.00    -0.550 OA
ENDBRANCH   1   2
BRANCH   1   5
ATOM      5  C   UNL     1      54.781  25.217  49.564  1.00  0.00     0.003 C 
ATOM      6  C   UNL     1      53.332  25.424  49.121  1.00  0.00     0.004 C 
ENDBRANCH   1   5
TORSDOF 2
ENDMDL
MODEL 9
REMARK VINA RESULT:    -2.307     14.056     14.275
REMARK INTER + INTRA:          -2.588
REMARK INTER:                  -2.566
REMARK INTRA:                  -0.022
REMARK UNBOUND:                -0.011
REMARK SMILES CCCC(=O)[O-]
REMARK SMILES IDX 3 1 4 2 5 3 6 4 2 5 1 6
REMARK H PARENT
REMARK Flexibility Score: inf
ROOT
ATOM      1  C   UNL     1      62.767  31.313  60.833  1.00  0.00     0.052 C 
ENDROOT
BRANCH   1   2
ATOM      2  C   UNL     1      62.009  30.288  61.619  1.00  0.00     0.041 C 
ATOM      3  O   UNL     1      60.886  30.571  62.112  1.00  0.00    -0.550 OA
ATOM      4  O   UNL     1      62.558  29.030  61.833  1.00  0.00    -0.550 OA
ENDBRANCH   1   2
BRANCH   1   5
ATOM      5  C   UNL     1      61.893  32.527  60.494  1.00  0.00     0.003 C 
ATOM      6  C   UNL     1      62.654  33.847  60.625  1.00  0.00     0.004 C 
ENDBRANCH   1   5
TORSDOF 2
ENDMDL
