MODEL 1
REMARK VINA RESULT:    -3.871      0.000      0.000
REMARK INTER + INTRA:         -10.217
REMARK INTER:                  -7.492
REMARK INTRA:                  -2.724
REMARK UNBOUND:                -2.724
REMARK SMILES CCCCCCCCCCCCCCCCCC(=O)[O-]
REMARK SMILES IDX 10 1 11 2 12 3 13 4 14 5 15 6 16 7 17 8 18 9 19 10 20 11
REMARK SMILES IDX 9 12 8 13 7 14 6 15 5 16 4 17 3 18 2 19 1 20
REMARK H PARENT
REMARK Flexibility Score: inf
ROOT
ATOM      1  C   UNL     1      75.795  80.692  79.107  1.00  0.00     0.000 C 
ENDROOT
BRANCH   1   2
ATOM      2  C   UNL     1      75.239  81.931  78.385  1.00  0.00     0.000 C 
BRANCH   2   3
ATOM      3  C   UNL     1      74.004  81.603  77.518  1.00  0.00     0.000 C 
BRANCH   3   4
ATOM      4  C   UNL     1      74.151  80.304  76.701  1.00  0.00     0.000 C 
BRANCH   4   5
ATOM      5  C   UNL     1      74.664  80.501  75.263  1.00  0.00     0.000 C 
BRANCH   5   6
ATOM      6  C   UNL     1      76.199  80.481  75.108  1.00  0.00     0.000 C 
BRANCH   6   7
ATOM      7  C   UNL     1      76.802  81.701  74.383  1.00  0.00     0.006 C 
BRANCH   7   8
ATOM      8  C   UNL     1      77.202  82.858  75.312  1.00  0.00     0.053 C 
BRANCH   8   9
ATOM      9  C   UNL     1      76.351  84.071  75.092  1.00  0.00     0.041 C 
ATOM     10  O   UNL     1      75.098  83.995  75.194  1.00  0.00    -0.550 OA
ATOM     11  O   UNL     1      76.945  85.295  74.811  1.00  0.00    -0.550 OA
ENDBRANCH   8   9
ENDBRANCH   7   8
ENDBRANCH   6   7
ENDBRANCH   5   6
ENDBRANCH   4   5
ENDBRANCH   3   4
ENDBRANCH   2   3
ENDBRANCH   1   2
BRANCH   1  12
ATOM     12  C   UNL     1      77.223  80.330  78.659  1.00  0.00     0.000 C 
BRANCH  12  13
ATOM     13  C   UNL     1      78.244  81.482  78.746  1.00  0.00    -0.000 C 
BRANCH  13  14
ATOM     14  C   UNL     1      79.638  81.170  78.166  1.00  0.00    -0.000 C 
BRANCH  14  15
ATOM     15  C   UNL     1      79.926  79.678  77.916  1.00  0.00    -0.000 C 
BRANCH  15  16
ATOM     16  C   UNL     1      80.134  79.352  76.427  1.00  0.00    -0.000 C 
BRANCH  16  17
ATOM     17  C   UNL     1      80.128  80.604  75.532  1.00  0.00    -0.000 C 
BRANCH  17  18
ATOM     18  C   UNL     1      81.510  81.053  75.023  1.00  0.00    -0.000 C 
BRANCH  18  19
ATOM     19  C   UNL     1      81.950  82.407  75.598  1.00  0.00    -0.003 C 
ATOM     20  C   UNL     1      80.782  83.388  75.651  1.00  0.00     0.004 C 
ENDBRANCH  18  19
ENDBRANCH  17  18
ENDBRANCH  16  17
ENDBRANCH  15  16
ENDBRANCH  14  15
ENDBRANCH  13  14
ENDBRANCH  12  13
ENDBRANCH   1  12
TORSDOF 16
ENDMDL
MODEL 2
REMARK VINA RESULT:    -3.860      1.760      5.838
REMARK INTER + INTRA:         -10.196
REMARK INTER:                  -8.267
REMARK INTRA:                  -1.929
REMARK UNBOUND:                -2.724
REMARK SMILES CCCCCCCCCCCCCCCCCC(=O)[O-]
REMARK SMILES IDX 10 1 11 2 12 3 13 4 14 5 15 6 16 7 17 8 18 9 19 10 20 11
REMARK SMILES IDX 9 12 8 13 7 14 6 15 5 16 4 17 3 18 2 19 1 20
REMARK H PARENT
REMARK Flexibility Score: inf
ROOT
ATOM      1  C   UNL     1      77.400  80.688  78.709  1.00  0.00     0.000 C 
ENDROOT
BRANCH   1   2
ATOM      2  C   UNL     1      78.770  81.382  78.624  1.00  0.00     0.000 C 
BRANCH   2   3
ATOM      3  C   UNL     1      79.707  80.712  77.596  1.00  0.00     0.000 C 
BRANCH   3   4
ATOM      4  C   UNL     1      80.970  81.536  77.281  1.00  0.00     0.000 C 
BRANCH   4   5
ATOM      5  C   UNL     1      80.868  82.421  76.025  1.00  0.00     0.000 C 
BRANCH   5   6
ATOM      6  C   UNL     1      79.647  82.142  75.126  1.00  0.00     0.000 C 
BRANCH   6   7
ATOM      7  C   UNL     1      78.759  83.366  74.823  1.00  0.00     0.006 C 
BRANCH   7   8
ATOM      8  C   UNL     1      77.259  83.053  74.720  1.00  0.00     0.053 C 
BRANCH   8   9
ATOM      9  C   UNL     1      76.415  84.191  75.207  1.00  0.00     0.041 C 
ATOM     10  O   UNL     1      75.491  83.986  76.038  1.00  0.00    -0.550 OA
ATOM     11  O   UNL     1      76.672  85.484  74.770  1.00  0.00    -0.550 OA
ENDBRANCH   8   9
ENDBRANCH   7   8
ENDBRANCH   6   7
ENDBRANCH   5   6
ENDBRANCH   4   5
ENDBRANCH   3   4
ENDBRANCH   2   3
ENDBRANCH   1   2
BRANCH   1  12
ATOM     12  C   UNL     1      76.602  80.779  77.396  1.00  0.00     0.000 C 
BRANCH  12  13
ATOM     13  C   UNL     1      75.070  80.741  77.562  1.00  0.00    -0.000 C 
BRANCH  13  14
ATOM     14  C   UNL     1      74.295  80.121  76.381  1.00  0.00    -0.000 C 
BRANCH  14  15
ATOM     15  C   UNL     1      74.603  80.733  75.002  1.00  0.00    -0.000 C 
BRANCH  15  16
ATOM     16  C   UNL     1      73.334  81.093  74.211  1.00  0.00    -0.000 C 
BRANCH  16  17
ATOM     17  C   UNL     1      72.650  82.372  74.725  1.00  0.00    -0.000 C 
BRANCH  17  18
ATOM     18  C   UNL     1      71.124  82.274  74.901  1.00  0.00    -0.000 C 
BRANCH  18  19
ATOM     19  C   UNL     1      70.682  82.367  76.369  1.00  0.00    -0.003 C 
ATOM     20  C   UNL     1      71.837  82.809  77.264  1.00  0.00     0.004 C 
ENDBRANCH  18  19
ENDBRANCH  17  18
ENDBRANCH  16  17
ENDBRANCH  15  16
ENDBRANCH  14  15
ENDBRANCH  13  14
ENDBRANCH  12  13
ENDBRANCH   1  12
TORSDOF 16
ENDMDL
MODEL 3
REMARK VINA RESULT:    -3.736      1.339      1.992
REMARK INTER + INTRA:          -9.954
REMARK INTER:                  -8.239
REMARK INTRA:                  -1.715
REMARK UNBOUND:                -2.724
REMARK SMILES CCCCCCCCCCCCCCCCCC(=O)[O-]
REMARK SMILES IDX 10 1 11 2 12 3 13 4 14 5 15 6 16 7 17 8 18 9 19 10 20 11
REMARK SMILES IDX 9 12 8 13 7 14 6 15 5 16 4 17 3 18 2 19 1 20
REMARK H PARENT
REMARK Flexibility Score: inf
ROOT
ATOM      1  C   UNL     1      75.018  80.405  77.779  1.00  0.00     0.000 C 
ENDROOT
BRANCH   1   2
ATOM      2  C   UNL     1      73.964  81.523  77.845  1.00  0.00     0.000 C 
BRANCH   2   3
ATOM      3  C   UNL     1      72.925  81.421  76.707  1.00  0.00     0.000 C 
BRANCH   3   4
ATOM      4  C   UNL     1      72.715  82.742  75.942  1.00  0.00     0.000 C 
BRANCH   4   5
ATOM      5  C   UNL     1      73.716  82.992  74.799  1.00  0.00     0.000 C 
BRANCH   5   6
ATOM      6  C   UNL     1      74.500  81.749  74.332  1.00  0.00     0.000 C 
BRANCH   6   7
ATOM      7  C   UNL     1      76.034  81.862  74.437  1.00  0.00     0.006 C 
BRANCH   7   8
ATOM      8  C   UNL     1      76.527  82.854  75.501  1.00  0.00     0.053 C 
BRANCH   8   9
ATOM      9  C   UNL     1      77.351  83.953  74.903  1.00  0.00     0.041 C 
ATOM     10  O   UNL     1      78.507  83.713  74.465  1.00  0.00    -0.550 OA
ATOM     11  O   UNL     1      76.827  85.235  74.796  1.00  0.00    -0.550 OA
ENDBRANCH   8   9
ENDBRANCH   7   8
ENDBRANCH   6   7
ENDBRANCH   5   6
ENDBRANCH   4   5
ENDBRANCH   3   4
ENDBRANCH   2   3
ENDBRANCH   1   2
BRANCH   1  12
ATOM     12  C   UNL     1      75.639  80.087  79.151  1.00  0.00     0.000 C 
BRANCH  12  13
ATOM     13  C   UNL     1      77.162  80.311  79.243  1.00  0.00    -0.000 C 
BRANCH  13  14
ATOM     14  C   UNL     1      77.667  81.645  78.657  1.00  0.00    -0.000 C 
BRANCH  14  15
ATOM     15  C   UNL     1      78.929  81.540  77.782  1.00  0.00    -0.000 C 
BRANCH  15  16
ATOM     16  C   UNL     1      80.140  80.976  78.545  1.00  0.00    -0.000 C 
BRANCH  16  17
ATOM     17  C   UNL     1      81.415  80.912  77.684  1.00  0.00    -0.000 C 
BRANCH  17  18
ATOM     18  C   UNL     1      81.200  81.136  76.176  1.00  0.00    -0.000 C 
BRANCH  18  19
ATOM     19  C   UNL     1      81.930  82.377  75.643  1.00  0.00    -0.003 C 
ATOM     20  C   UNL     1      83.420  82.320  75.968  1.00  0.00     0.004 C 
ENDBRANCH  18  19
ENDBRANCH  17  18
ENDBRANCH  16  17
ENDBRANCH  15  16
ENDBRANCH  14  15
ENDBRANCH  13  14
ENDBRANCH  12  13
ENDBRANCH   1  12
TORSDOF 16
ENDMDL
MODEL 4
REMARK VINA RESULT:    -3.691      1.618      2.699
REMARK INTER + INTRA:          -9.867
REMARK INTER:                  -7.698
REMARK INTRA:                  -2.170
REMARK UNBOUND:                -2.724
REMARK SMILES CCCCCCCCCCCCCCCCCC(=O)[O-]
REMARK SMILES IDX 10 1 11 2 12 3 13 4 14 5 15 6 16 7 17 8 18 9 19 10 20 11
REMARK SMILES IDX 9 12 8 13 7 14 6 15 5 16 4 17 3 18 2 19 1 20
REMARK H PARENT
REMARK Flexibility Score: inf
ROOT
ATOM      1  C   UNL     1      77.089  79.745  78.751  1.00  0.00     0.000 C 
ENDROOT
BRANCH   1   2
ATOM      2  C   UNL     1      77.498  81.228  78.749  1.00  0.00     0.000 C 
BRANCH   2   3
ATOM      3  C   UNL     1      76.318  82.162  78.402  1.00  0.00     0.000 C 
BRANCH   3   4
ATOM      4  C   UNL     1      74.982  81.421  78.201  1.00  0.00     0.000 C 
BRANCH   4   5
ATOM      5  C   UNL     1      74.530  81.292  76.734  1.00  0.00     0.000 C 
BRANCH   5   6
ATOM      6  C   UNL     1      73.856  82.549  76.145  1.00  0.00     0.000 C 
BRANCH   6   7
ATOM      7  C   UNL     1      74.688  83.309  75.092  1.00  0.00     0.006 C 
BRANCH   7   8
ATOM      8  C   UNL     1      76.157  82.867  75.004  1.00  0.00     0.053 C 
BRANCH   8   9
ATOM      9  C   UNL     1      77.074  84.023  74.750  1.00  0.00     0.041 C 
ATOM     10  O   UNL     1      78.272  83.822  74.417  1.00  0.00    -0.550 OA
ATOM     11  O   UNL     1      76.596  85.324  74.846  1.00  0.00    -0.550 OA
ENDBRANCH   8   9
ENDBRANCH   7   8
ENDBRANCH   6   7
ENDBRANCH   5   6
ENDBRANCH   4   5
ENDBRANCH   3   4
ENDBRANCH   2   3
ENDBRANCH   1   2
BRANCH   1  12
ATOM     12  C   UNL     1      77.842  78.916  77.694  1.00  0.00     0.000 C 
BRANCH  12  13
ATOM     13  C   UNL     1      77.362  79.123  76.244  1.00  0.00    -0.000 C 
BRANCH  13  14
ATOM     14  C   UNL     1      78.337  79.898  75.333  1.00  0.00    -0.000 C 
BRANCH  14  15
ATOM     15  C   UNL     1      79.747  80.111  75.913  1.00  0.00    -0.000 C 
BRANCH  15  16
ATOM     16  C   UNL     1      80.019  81.575  76.300  1.00  0.00    -0.000 C 
BRANCH  16  17
ATOM     17  C   UNL     1      81.480  81.824  76.717  1.00  0.00    -0.000 C 
BRANCH  17  18
ATOM     18  C   UNL     1      82.034  80.852  77.774  1.00  0.00    -0.000 C 
BRANCH  18  19
ATOM     19  C   UNL     1      81.314  80.961  79.126  1.00  0.00    -0.003 C 
ATOM     20  C   UNL     1      82.312  81.124  80.269  1.00  0.00     0.004 C 
ENDBRANCH  18  19
ENDBRANCH  17  18
ENDBRANCH  16  17
ENDBRANCH  15  16
ENDBRANCH  14  15
ENDBRANCH  13  14
ENDBRANCH  12  13
ENDBRANCH   1  12
TORSDOF 16
ENDMDL
MODEL 5
REMARK VINA RESULT:    -3.662      1.536      2.733
REMARK INTER + INTRA:          -9.812
REMARK INTER:                  -7.714
REMARK INTRA:                  -2.098
REMARK UNBOUND:                -2.724
REMARK SMILES CCCCCCCCCCCCCCCCCC(=O)[O-]
REMARK SMILES IDX 10 1 11 2 12 3 13 4 14 5 15 6 16 7 17 8 18 9 19 10 20 11
REMARK SMILES IDX 9 12 8 13 7 14 6 15 5 16 4 17 3 18 2 19 1 20
REMARK H PARENT
REMARK Flexibility Score: inf
ROOT
ATOM      1  C   UNL     1      78.945  80.643  77.336  1.00  0.00     0.000 C 
ENDROOT
BRANCH   1   2
ATOM      2  C   UNL     1      78.103  81.413  78.368  1.00  0.00     0.000 C 
BRANCH   2   3
ATOM      3  C   UNL     1      77.082  80.506  79.088  1.00  0.00     0.000 C 
BRANCH   3   4
ATOM      4  C   UNL     1      75.615  80.893  78.818  1.00  0.00     0.000 C 
BRANCH   4   5
ATOM      5  C   UNL     1      75.247  81.034  77.329  1.00  0.00     0.000 C 
BRANCH   5   6
ATOM      6  C   UNL     1      74.452  82.305  76.970  1.00  0.00     0.000 C 
BRANCH   6   7
ATOM      7  C   UNL     1      74.767  82.909  75.586  1.00  0.00     0.006 C 
BRANCH   7   8
ATOM      8  C   UNL     1      76.210  82.683  75.108  1.00  0.00     0.053 C 
BRANCH   8   9
ATOM      9  C   UNL     1      76.928  83.976  74.866  1.00  0.00     0.041 C 
ATOM     10  O   UNL     1      78.135  83.974  74.510  1.00  0.00    -0.550 OA
ATOM     11  O   UNL     1      76.252  85.182  75.001  1.00  0.00    -0.550 OA
ENDBRANCH   8   9
ENDBRANCH   7   8
ENDBRANCH   6   7
ENDBRANCH   5   6
ENDBRANCH   4   5
ENDBRANCH   3   4
ENDBRANCH   2   3
ENDBRANCH   1   2
BRANCH   1  12
ATOM     12  C   UNL     1      80.245  80.072  77.932  1.00  0.00     0.000 C 
BRANCH  12  13
ATOM     13  C   UNL     1      80.851  80.899  79.083  1.00  0.00    -0.000 C 
BRANCH  13  14
ATOM     14  C   UNL     1      82.389  81.019  79.068  1.00  0.00    -0.000 C 
BRANCH  14  15
ATOM     15  C   UNL     1      83.068  80.580  77.758  1.00  0.00    -0.000 C 
BRANCH  15  16
ATOM     16  C   UNL     1      84.042  81.636  77.208  1.00  0.00    -0.000 C 
BRANCH  16  17
ATOM     17  C   UNL     1      83.529  82.313  75.924  1.00  0.00    -0.000 C 
BRANCH  17  18
ATOM     18  C   UNL     1      82.544  81.476  75.089  1.00  0.00    -0.000 C 
BRANCH  18  19
ATOM     19  C   UNL     1      81.184  82.162  74.898  1.00  0.00    -0.003 C 
ATOM     20  C   UNL     1      81.032  83.354  75.840  1.00  0.00     0.004 C 
ENDBRANCH  18  19
ENDBRANCH  17  18
ENDBRANCH  16  17
ENDBRANCH  15  16
ENDBRANCH  14  15
ENDBRANCH  13  14
ENDBRANCH  12  13
ENDBRANCH   1  12
TORSDOF 16
ENDMDL
MODEL 6
REMARK VINA RESULT:    -3.660      1.389      2.767
REMARK INTER + INTRA:          -9.808
REMARK INTER:                  -7.058
REMARK INTRA:                  -2.751
REMARK UNBOUND:                -2.724
REMARK SMILES CCCCCCCCCCCCCCCCCC(=O)[O-]
REMARK SMILES IDX 10 1 11 2 12 3 13 4 14 5 15 6 16 7 17 8 18 9 19 10 20 11
REMARK SMILES IDX 9 12 8 13 7 14 6 15 5 16 4 17 3 18 2 19 1 20
REMARK H PARENT
REMARK Flexibility Score: inf
ROOT
ATOM      1  C   UNL     1      77.803  80.244  77.795  1.00  0.00     0.000 C 
ENDROOT
BRANCH   1   2
ATOM      2  C   UNL     1      77.600  81.658  78.367  1.00  0.00     0.000 C 
BRANCH   2   3
ATOM      3  C   UNL     1      76.111  82.061  78.424  1.00  0.00     0.000 C 
BRANCH   3   4
ATOM      4  C   UNL     1      75.145  80.896  78.135  1.00  0.00     0.000 C 
BRANCH   4   5
ATOM      5  C   UNL     1      74.264  81.082  76.885  1.00  0.00     0.000 C 
BRANCH   5   6
ATOM      6  C   UNL     1      74.962  80.783  75.543  1.00  0.00     0.000 C 
BRANCH   6   7
ATOM      7  C   UNL     1      75.115  81.991  74.597  1.00  0.00     0.006 C 
BRANCH   7   8
ATOM      8  C   UNL     1      76.438  82.756  74.754  1.00  0.00     0.053 C 
BRANCH   8   9
ATOM      9  C   UNL     1      76.220  84.164  75.214  1.00  0.00     0.041 C 
ATOM     10  O   UNL     1      76.982  85.086  74.822  1.00  0.00    -0.550 OA
ATOM     11  O   UNL     1      75.151  84.464  76.049  1.00  0.00    -0.550 OA
ENDBRANCH   8   9
ENDBRANCH   7   8
ENDBRANCH   6   7
ENDBRANCH   5   6
ENDBRANCH   4   5
ENDBRANCH   3   4
ENDBRANCH   2   3
ENDBRANCH   1   2
BRANCH   1  12
ATOM     12  C   UNL     1      79.276  79.938  77.468  1.00  0.00     0.000 C 
BRANCH  12  13
ATOM     13  C   UNL     1      80.281  81.013  77.926  1.00  0.00    -0.000 C 
BRANCH  13  14
ATOM     14  C   UNL     1      81.033  81.737  76.791  1.00  0.00    -0.000 C 
BRANCH  14  15
ATOM     15  C   UNL     1      80.261  82.890  76.124  1.00  0.00    -0.000 C 
BRANCH  15  16
ATOM     16  C   UNL     1      80.121  82.714  74.603  1.00  0.00    -0.000 C 
BRANCH  16  17
ATOM     17  C   UNL     1      80.350  81.262  74.144  1.00  0.00    -0.000 C 
BRANCH  17  18
ATOM     18  C   UNL     1      79.074  80.476  73.793  1.00  0.00    -0.000 C 
BRANCH  18  19
ATOM     19  C   UNL     1      78.663  80.625  72.321  1.00  0.00    -0.003 C 
ATOM     20  C   UNL     1      77.204  80.227  72.115  1.00  0.00     0.004 C 
ENDBRANCH  18  19
ENDBRANCH  17  18
ENDBRANCH  16  17
ENDBRANCH  15  16
ENDBRANCH  14  15
ENDBRANCH  13  14
ENDBRANCH  12  13
ENDBRANCH   1  12
TORSDOF 16
ENDMDL
MODEL 7
REMARK VINA RESULT:    -3.618      1.579      3.167
REMARK INTER + INTRA:          -9.727
REMARK INTER:                  -7.014
REMARK INTRA:                  -2.714
REMARK UNBOUND:                -2.724
REMARK SMILES CCCCCCCCCCCCCCCCCC(=O)[O-]
REMARK SMILES IDX 10 1 11 2 12 3 13 4 14 5 15 6 16 7 17 8 18 9 19 10 20 11
REMARK SMILES IDX 9 12 8 13 7 14 6 15 5 16 4 17 3 18 2 19 1 20
REMARK H PARENT
REMARK Flexibility Score: inf
ROOT
ATOM      1  C   UNL     1      76.222  77.907  76.791  1.00  0.00     0.000 C 
ENDROOT
BRANCH   1   2
ATOM      2  C   UNL     1      76.919  79.015  75.982  1.00  0.00     0.000 C 
BRANCH   2   3
ATOM      3  C   UNL     1      75.978  79.665  74.944  1.00  0.00     0.000 C 
BRANCH   3   4
ATOM      4  C   UNL     1      74.491  79.327  75.162  1.00  0.00     0.000 C 
BRANCH   4   5
ATOM      5  C   UNL     1      73.516  80.483  74.868  1.00  0.00     0.000 C 
BRANCH   5   6
ATOM      6  C   UNL     1      73.728  81.749  75.722  1.00  0.00     0.000 C 
BRANCH   6   7
ATOM      7  C   UNL     1      74.188  82.998  74.943  1.00  0.00     0.006 C 
BRANCH   7   8
ATOM      8  C   UNL     1      75.186  83.887  75.701  1.00  0.00     0.053 C 
BRANCH   8   9
ATOM      9  C   UNL     1      76.453  84.092  74.928  1.00  0.00     0.041 C 
ATOM     10  O   UNL     1      76.966  85.238  74.842  1.00  0.00    -0.550 OA
ATOM     11  O   UNL     1      77.086  83.008  74.332  1.00  0.00    -0.550 OA
ENDBRANCH   8   9
ENDBRANCH   7   8
ENDBRANCH   6   7
ENDBRANCH   5   6
ENDBRANCH   4   5
ENDBRANCH   3   4
ENDBRANCH   2   3
ENDBRANCH   1   2
BRANCH   1  12
ATOM     12  C   UNL     1      76.450  78.040  78.307  1.00  0.00     0.000 C 
BRANCH  12  13
ATOM     13  C   UNL     1      75.376  78.854  79.057  1.00  0.00    -0.000 C 
BRANCH  13  14
ATOM     14  C   UNL     1      75.857  80.198  79.640  1.00  0.00    -0.000 C 
BRANCH  14  15
ATOM     15  C   UNL     1      75.620  81.425  78.741  1.00  0.00    -0.000 C 
BRANCH  15  16
ATOM     16  C   UNL     1      76.910  81.939  78.080  1.00  0.00    -0.000 C 
BRANCH  16  17
ATOM     17  C   UNL     1      78.185  81.431  78.778  1.00  0.00    -0.000 C 
BRANCH  17  18
ATOM     18  C   UNL     1      79.280  80.899  77.836  1.00  0.00    -0.000 C 
BRANCH  18  19
ATOM     19  C   UNL     1      79.380  81.690  76.524  1.00  0.00    -0.003 C 
ATOM     20  C   UNL     1      80.693  82.464  76.447  1.00  0.00     0.004 C 
ENDBRANCH  18  19
ENDBRANCH  17  18
ENDBRANCH  16  17
ENDBRANCH  15  16
ENDBRANCH  14  15
ENDBRANCH  13  14
ENDBRANCH  12  13
ENDBRANCH   1  12
TORSDOF 16
ENDMDL
MODEL 8
REMARK VINA RESULT:    -3.576      2.280      3.227
REMARK INTER + INTRA:          -9.646
REMARK INTER:                  -7.191
REMARK INTRA:                  -2.455
REMARK UNBOUND:                -2.724
REMARK SMILES CCCCCCCCCCCCCCCCCC(=O)[O-]
REMARK SMILES IDX 10 1 11 2 12 3 13 4 14 5 15 6 16 7 17 8 18 9 19 10 20 11
REMARK SMILES IDX 9 12 8 13 7 14 6 15 5 16 4 17 3 18 2 19 1 20
REMARK H PARENT
REMARK Flexibility Score: inf
ROOT
ATOM      1  C   UNL     1      75.047  80.268  78.579  1.00  0.00     0.000 C 
ENDROOT
BRANCH   1   2
ATOM      2  C   UNL     1      75.416  81.754  78.728  1.00  0.00     0.000 C 
BRANCH   2   3
ATOM      3  C   UNL     1      76.300  82.259  77.567  1.00  0.00     0.000 C 
BRANCH   3   4
ATOM      4  C   UNL     1      76.351  81.296  76.365  1.00  0.00     0.000 C 
BRANCH   4   5
ATOM      5  C   UNL     1      76.071  81.951  74.999  1.00  0.00     0.000 C 
BRANCH   5   6
ATOM      6  C   UNL     1      75.176  83.206  75.047  1.00  0.00     0.000 C 
BRANCH   6   7
ATOM      7  C   UNL     1      73.666  82.944  74.874  1.00  0.00     0.006 C 
BRANCH   7   8
ATOM      8  C   UNL     1      72.875  82.894  76.190  1.00  0.00     0.053 C 
BRANCH   8   9
ATOM      9  C   UNL     1      72.246  81.553  76.414  1.00  0.00     0.041 C 
ATOM     10  O   UNL     1      72.775  80.515  75.933  1.00  0.00    -0.550 OA
ATOM     11  O   UNL     1      71.095  81.444  77.184  1.00  0.00    -0.550 OA
ENDBRANCH   8   9
ENDBRANCH   7   8
ENDBRANCH   6   7
ENDBRANCH   5   6
ENDBRANCH   4   5
ENDBRANCH   3   4
ENDBRANCH   2   3
ENDBRANCH   1   2
BRANCH   1  12
ATOM     12  C   UNL     1      75.222  79.475  79.888  1.00  0.00     0.000 C 
BRANCH  12  13
ATOM     13  C   UNL     1      76.616  78.849  80.087  1.00  0.00    -0.000 C 
BRANCH  13  14
ATOM     14  C   UNL     1      77.456  78.690  78.804  1.00  0.00    -0.000 C 
BRANCH  14  15
ATOM     15  C   UNL     1      78.954  79.008  78.956  1.00  0.00    -0.000 C 
BRANCH  15  16
ATOM     16  C   UNL     1      79.324  80.407  78.434  1.00  0.00    -0.000 C 
BRANCH  16  17
ATOM     17  C   UNL     1      80.819  80.543  78.090  1.00  0.00    -0.000 C 
BRANCH  17  18
ATOM     18  C   UNL     1      81.154  81.610  77.032  1.00  0.00    -0.000 C 
BRANCH  18  19
ATOM     19  C   UNL     1      79.912  82.340  76.501  1.00  0.00    -0.003 C 
ATOM     20  C   UNL     1      80.301  83.455  75.534  1.00  0.00     0.004 C 
ENDBRANCH  18  19
ENDBRANCH  17  18
ENDBRANCH  16  17
ENDBRANCH  15  16
ENDBRANCH  14  15
ENDBRANCH  13  14
ENDBRANCH  12  13
ENDBRANCH   1  12
TORSDOF 16
ENDMDL
MODEL 9
REMARK VINA RESULT:    -3.569      2.215      3.384
REMARK INTER + INTRA:          -9.632
REMARK INTER:                  -6.935
REMARK INTRA:                  -2.697
REMARK UNBOUND:                -2.724
REMARK SMILES CCCCCCCCCCCCCCCCCC(=O)[O-]
REMARK SMILES IDX 10 1 11 2 12 3 13 4 14 5 15 6 16 7 17 8 18 9 19 10 20 11
REMARK SMILES IDX 9 12 8 13 7 14 6 15 5 16 4 17 3 18 2 19 1 20
REMARK H PARENT
REMARK Flexibility Score: inf
ROOT
ATOM      1  C   UNL     1      75.793  79.810  77.263  1.00  0.00     0.000 C 
ENDROOT
BRANCH   1   2
ATOM      2  C   UNL     1      75.063  80.595  78.366  1.00  0.00     0.000 C 
BRANCH   2   3
ATOM      3  C   UNL     1      75.148  82.122  78.156  1.00  0.00     0.000 C 
BRANCH   3   4
ATOM      4  C   UNL     1      76.041  82.533  76.969  1.00  0.00     0.000 C 
BRANCH   4   5
ATOM      5  C   UNL     1      75.413  83.567  76.016  1.00  0.00     0.000 C 
BRANCH   5   6
ATOM      6  C   UNL     1      74.770  82.977  74.744  1.00  0.00     0.000 C 
BRANCH   6   7
ATOM      7  C   UNL     1      73.229  82.993  74.717  1.00  0.00     0.006 C 
BRANCH   7   8
ATOM      8  C   UNL     1      72.574  81.637  75.023  1.00  0.00     0.053 C 
BRANCH   8   9
ATOM      9  C   UNL     1      72.019  81.585  76.413  1.00  0.00     0.041 C 
ATOM     10  O   UNL     1      71.801  80.476  76.969  1.00  0.00    -0.550 OA
ATOM     11  O   UNL     1      71.775  82.762  77.109  1.00  0.00    -0.550 OA
ENDBRANCH   8   9
ENDBRANCH   7   8
ENDBRANCH   6   7
ENDBRANCH   5   6
ENDBRANCH   4   5
ENDBRANCH   3   4
ENDBRANCH   2   3
ENDBRANCH   1   2
BRANCH   1  12
ATOM     12  C   UNL     1      76.983  78.992  77.799  1.00  0.00     0.000 C 
BRANCH  12  13
ATOM     13  C   UNL     1      78.055  79.813  78.542  1.00  0.00    -0.000 C 
BRANCH  13  14
ATOM     14  C   UNL     1      79.295  80.186  77.705  1.00  0.00    -0.000 C 
BRANCH  14  15
ATOM     15  C   UNL     1      79.419  81.677  77.344  1.00  0.00    -0.000 C 
BRANCH  15  16
ATOM     16  C   UNL     1      80.750  82.015  76.649  1.00  0.00    -0.000 C 
BRANCH  16  17
ATOM     17  C   UNL     1      80.564  82.876  75.387  1.00  0.00    -0.000 C 
BRANCH  17  18
ATOM     18  C   UNL     1      79.107  83.236  75.046  1.00  0.00    -0.000 C 
BRANCH  18  19
ATOM     19  C   UNL     1      78.607  82.561  73.760  1.00  0.00    -0.003 C 
ATOM     20  C   UNL     1      77.993  81.196  74.059  1.00  0.00     0.004 C 
ENDBRANCH  18  19
ENDBRANCH  17  18
ENDBRANCH  16  17
ENDBRANCH  15  16
ENDBRANCH  14  15
ENDBRANCH  13  14
ENDBRANCH  12  13
ENDBRANCH   1  12
TORSDOF 16
ENDMDL
