MODEL 1
REMARK VINA RESULT:    -4.186      0.000      0.000
REMARK INTER + INTRA:         -10.017
REMARK INTER:                  -7.123
REMARK INTRA:                  -2.894
REMARK UNBOUND:                -2.894
REMARK SMILES OC[C@@H]1O[C@H](Oc2cc(O)cc3[o+]c(-c4ccc(O)cc4)c(O[C@H]4O[C@@H](CO)[C@@H](O)[C@@H](O)[C@@H]4O)cc23)[C@H](O)[C@H](O)[C@H]1O.[Cl-]
REMARK SMILES IDX 14 1 22 2 35 3 36 4 7 5 8 6 9 7 11 8 12 9 13 10 15 11 16 12
REMARK SMILES IDX 17 13 18 14 21 15 20 16 19 17 23 19 24 20 33 21 25 22 31 23
REMARK SMILES IDX 26 24 29 25 34 26 32 28 27 30 28 31 30 33 6 35 5 36 37 37
REMARK SMILES IDX 4 38 39 39 3 40 41 41 38 42 40 44 2 46 1 47 42 49 10 51
REMARK H PARENT 19 18 34 27 32 29 28 32 30 34 38 43 40 45 1 48 42 50 10 52
REMARK Flexibility Score: inf
ROOT
ATOM      1  C   UNL     1       5.622  31.304  72.131  1.00  0.00     0.402 A 
ATOM      2  C   UNL     1       5.532  31.878  70.851  1.00  0.00     0.229 A 
ATOM      3  C   UNL     1       4.245  32.072  70.319  1.00  0.00     0.079 A 
ATOM      4  C   UNL     1       3.112  31.611  71.002  1.00  0.00     0.126 A 
ATOM      5  C   UNL     1       1.801  31.791  70.491  1.00  0.00     0.143 A 
ATOM      6  C   UNL     1       0.725  31.215  71.195  1.00  0.00     0.094 A 
ATOM      7  C   UNL     1       0.941  30.510  72.392  1.00  0.00     0.128 A 
ATOM      8  C   UNL     1       2.229  30.391  72.913  1.00  0.00     0.162 A 
ATOM      9  C   UNL     1       3.316  30.941  72.228  1.00  0.00     0.368 A 
ATOM     10  O   UNL     1       4.538  30.844  72.745  1.00  0.00    -0.202 OA
ENDROOT
BRANCH   1  11
ATOM     11  C   UNL     1       6.919  31.190  72.812  1.00  0.00     0.084 A 
ATOM     12  C   UNL     1       7.568  32.337  73.282  1.00  0.00     0.022 A 
ATOM     13  C   UNL     1       8.837  32.248  73.861  1.00  0.00     0.047 A 
ATOM     14  C   UNL     1       9.491  31.018  73.926  1.00  0.00     0.115 A 
ATOM     15  C   UNL     1       7.576  29.961  72.873  1.00  0.00     0.022 A 
ATOM     16  C   UNL     1       8.866  29.878  73.412  1.00  0.00     0.047 A 
BRANCH  14  17
ATOM     17  O   UNL     1      10.766  30.953  74.471  1.00  0.00    -0.508 OA
ATOM     18  H   UNL     1      11.338  30.131  74.351  1.00  0.00     0.293 HD
ENDBRANCH  14  17
ENDBRANCH   1  11
BRANCH   2  19
ATOM     19  O   UNL     1       6.704  32.212  70.132  1.00  0.00    -0.452 OA
BRANCH  19  20
ATOM     20  C   UNL     1       7.111  33.552  69.814  1.00  0.00     0.339 C 
ATOM     21  C   UNL     1       6.022  34.317  68.993  1.00  0.00     0.214 C 
ATOM     22  O   UNL     1       8.371  33.544  69.153  1.00  0.00    -0.332 OA
ATOM     23  C   UNL     1       6.436  34.430  67.509  1.00  0.00     0.180 C 
ATOM     24  C   UNL     1       8.361  32.867  67.903  1.00  0.00     0.179 C 
ATOM     25  C   UNL     1       7.073  33.108  67.059  1.00  0.00     0.177 C 
BRANCH  21  26
ATOM     26  O   UNL     1       5.832  35.596  69.546  1.00  0.00    -0.384 OA
ATOM     27  H   UNL     1       6.734  35.937  69.797  1.00  0.00     0.211 HD
ENDBRANCH  21  26
BRANCH  23  28
ATOM     28  O   UNL     1       5.345  34.787  66.695  1.00  0.00    -0.387 OA
ATOM     29  H   UNL     1       5.662  34.831  65.756  1.00  0.00     0.211 HD
ENDBRANCH  23  28
BRANCH  24  30
ATOM     30  C   UNL     1       8.859  31.409  68.089  1.00  0.00     0.191 C 
BRANCH  30  31
ATOM     31  O   UNL     1       7.810  30.496  68.323  1.00  0.00    -0.394 OA
ATOM     32  H   UNL     1       6.967  31.010  68.151  1.00  0.00     0.210 HD
ENDBRANCH  30  31
ENDBRANCH  24  30
BRANCH  25  33
ATOM     33  O   UNL     1       6.139  32.069  67.237  1.00  0.00    -0.387 OA
ATOM     34  H   UNL     1       6.319  31.378  66.534  1.00  0.00     0.211 HD
ENDBRANCH  25  33
ENDBRANCH  19  20
ENDBRANCH   2  19
BRANCH   5  35
ATOM     35  O   UNL     1       1.616  32.556  69.321  1.00  0.00    -0.461 OA
BRANCH  35  36
ATOM     36  C   UNL     1       0.386  33.140  68.872  1.00  0.00     0.339 C 
ATOM     37  C   UNL     1       0.475  33.609  67.406  1.00  0.00     0.214 C 
ATOM     38  O   UNL     1      -0.016  34.194  69.732  1.00  0.00    -0.332 OA
ATOM     39  C   UNL     1       1.477  34.768  67.272  1.00  0.00     0.180 C 
ATOM     40  C   UNL     1       0.827  35.349  69.696  1.00  0.00     0.179 C 
ATOM     41  C   UNL     1       1.119  35.880  68.267  1.00  0.00     0.177 C 
BRANCH  37  42
ATOM     42  O   UNL     1       0.845  32.533  66.582  1.00  0.00    -0.384 OA
ATOM     43  H   UNL     1       0.522  32.736  65.665  1.00  0.00     0.211 HD
ENDBRANCH  37  42
BRANCH  39  44
ATOM     44  O   UNL     1       2.797  34.333  67.499  1.00  0.00    -0.387 OA
ATOM     45  H   UNL     1       3.325  35.139  67.754  1.00  0.00     0.211 HD
ENDBRANCH  39  44
BRANCH  40  46
ATOM     46  C   UNL     1       2.078  35.188  70.578  1.00  0.00     0.191 C 
BRANCH  46  47
ATOM     47  O   UNL     1       3.135  35.958  70.057  1.00  0.00    -0.394 OA
ATOM     48  H   UNL     1       3.280  35.612  69.138  1.00  0.00     0.210 HD
ENDBRANCH  46  47
ENDBRANCH  40  46
BRANCH  41  49
ATOM     49  O   UNL     1      -0.017  36.563  67.782  1.00  0.00    -0.387 OA
ATOM     50  H   UNL     1      -0.741  35.895  67.748  1.00  0.00     0.211 HD
ENDBRANCH  41  49
ENDBRANCH  35  36
ENDBRANCH   5  35
BRANCH   7  51
ATOM     51  O   UNL     1      -0.124  29.937  73.079  1.00  0.00    -0.507 OA
ATOM     52  H   UNL     1      -0.716  29.237  72.650  1.00  0.00     0.293 HD
ENDBRANCH   7  51
TORSDOF 17
ENDMDL
MODEL 2
REMARK VINA RESULT:    -3.256     15.122     18.929
REMARK INTER + INTRA:          -8.434
REMARK INTER:                  -6.747
REMARK INTRA:                  -1.687
REMARK UNBOUND:                -2.894
REMARK SMILES OC[C@@H]1O[C@H](Oc2cc(O)cc3[o+]c(-c4ccc(O)cc4)c(O[C@H]4O[C@@H](CO)[C@@H](O)[C@@H](O)[C@@H]4O)cc23)[C@H](O)[C@H](O)[C@H]1O.[Cl-]
REMARK SMILES IDX 14 1 22 2 35 3 36 4 7 5 8 6 9 7 11 8 12 9 13 10 15 11 16 12
REMARK SMILES IDX 17 13 18 14 21 15 20 16 19 17 23 19 24 20 33 21 25 22 31 23
REMARK SMILES IDX 26 24 29 25 34 26 32 28 27 30 28 31 30 33 6 35 5 36 37 37
REMARK SMILES IDX 4 38 39 39 3 40 41 41 38 42 40 44 2 46 1 47 42 49 10 51
REMARK H PARENT 19 18 34 27 32 29 28 32 30 34 38 43 40 45 1 48 42 50 10 52
REMARK Flexibility Score: inf
ROOT
ATOM      1  C   UNL     1      19.460  41.312  77.558  1.00  0.00     0.402 A 
ATOM      2  C   UNL     1      19.033  41.863  76.338  1.00  0.00     0.229 A 
ATOM      3  C   UNL     1      19.014  43.265  76.234  1.00  0.00     0.079 A 
ATOM      4  C   UNL     1      19.307  44.069  77.343  1.00  0.00     0.126 A 
ATOM      5  C   UNL     1      19.295  45.485  77.271  1.00  0.00     0.143 A 
ATOM      6  C   UNL     1      19.510  46.216  78.455  1.00  0.00     0.094 A 
ATOM      7  C   UNL     1      19.766  45.561  79.671  1.00  0.00     0.128 A 
ATOM      8  C   UNL     1      19.834  44.168  79.717  1.00  0.00     0.162 A 
ATOM      9  C   UNL     1      19.610  43.418  78.559  1.00  0.00     0.368 A 
ATOM     10  O   UNL     1      19.700  42.092  78.607  1.00  0.00    -0.202 OA
ENDROOT
BRANCH   1  11
ATOM     11  C   UNL     1      19.636  39.860  77.705  1.00  0.00     0.084 A 
ATOM     12  C   UNL     1      20.030  39.087  76.607  1.00  0.00     0.022 A 
ATOM     13  C   UNL     1      20.125  37.697  76.715  1.00  0.00     0.047 A 
ATOM     14  C   UNL     1      19.775  37.063  77.908  1.00  0.00     0.115 A 
ATOM     15  C   UNL     1      19.282  39.225  78.895  1.00  0.00     0.022 A 
ATOM     16  C   UNL     1      19.334  37.829  78.991  1.00  0.00     0.047 A 
BRANCH  14  17
ATOM     17  O   UNL     1      19.840  35.678  77.987  1.00  0.00    -0.508 OA
ATOM     18  H   UNL     1      19.091  35.105  77.631  1.00  0.00     0.293 HD
ENDBRANCH  14  17
ENDBRANCH   1  11
BRANCH   2  19
ATOM     19  O   UNL     1      18.618  41.022  75.278  1.00  0.00    -0.452 OA
BRANCH  19  20
ATOM     20  C   UNL     1      18.104  41.487  74.021  1.00  0.00     0.339 C 
ATOM     21  C   UNL     1      16.664  42.082  74.160  1.00  0.00     0.214 C 
ATOM     22  O   UNL     1      18.163  40.453  73.047  1.00  0.00    -0.332 OA
ATOM     23  C   UNL     1      15.611  41.101  73.597  1.00  0.00     0.180 C 
ATOM     24  C   UNL     1      17.364  39.319  73.362  1.00  0.00     0.179 C 
ATOM     25  C   UNL     1      15.987  39.669  74.002  1.00  0.00     0.177 C 
BRANCH  21  26
ATOM     26  O   UNL     1      16.598  43.312  73.481  1.00  0.00    -0.384 OA
ATOM     27  H   UNL     1      17.522  43.519  73.173  1.00  0.00     0.211 HD
ENDBRANCH  21  26
BRANCH  23  28
ATOM     28  O   UNL     1      14.313  41.439  74.021  1.00  0.00    -0.387 OA
ATOM     29  H   UNL     1      14.293  41.408  75.012  1.00  0.00     0.211 HD
ENDBRANCH  23  28
BRANCH  24  30
ATOM     30  C   UNL     1      18.238  38.232  74.042  1.00  0.00     0.191 C 
BRANCH  30  31
ATOM     31  O   UNL     1      18.210  36.998  73.360  1.00  0.00    -0.394 OA
ATOM     32  H   UNL     1      17.259  36.685  73.413  1.00  0.00     0.210 HD
ENDBRANCH  30  31
ENDBRANCH  24  30
BRANCH  25  33
ATOM     33  O   UNL     1      16.037  39.592  75.407  1.00  0.00    -0.387 OA
ATOM     34  H   UNL     1      16.108  40.529  75.759  1.00  0.00     0.211 HD
ENDBRANCH  25  33
ENDBRANCH  19  20
ENDBRANCH   2  19
BRANCH   5  35
ATOM     35  O   UNL     1      19.096  46.110  76.021  1.00  0.00    -0.461 OA
BRANCH  35  36
ATOM     36  C   UNL     1      19.195  47.513  75.747  1.00  0.00     0.339 C 
ATOM     37  C   UNL     1      17.818  48.135  75.436  1.00  0.00     0.214 C 
ATOM     38  O   UNL     1      20.125  47.760  74.705  1.00  0.00    -0.332 OA
ATOM     39  C   UNL     1      17.255  47.565  74.123  1.00  0.00     0.180 C 
ATOM     40  C   UNL     1      19.716  47.290  73.417  1.00  0.00     0.179 C 
ATOM     41  C   UNL     1      18.288  47.731  73.001  1.00  0.00     0.177 C 
BRANCH  37  42
ATOM     42  O   UNL     1      16.934  47.897  76.502  1.00  0.00    -0.384 OA
ATOM     43  H   UNL     1      16.362  47.127  76.247  1.00  0.00     0.211 HD
ENDBRANCH  37  42
BRANCH  39  44
ATOM     44  O   UNL     1      16.915  46.205  74.259  1.00  0.00    -0.387 OA
ATOM     45  H   UNL     1      17.630  45.683  73.803  1.00  0.00     0.211 HD
ENDBRANCH  39  44
BRANCH  40  46
ATOM     46  C   UNL     1      19.995  45.788  73.227  1.00  0.00     0.191 C 
BRANCH  46  47
ATOM     47  O   UNL     1      18.857  45.153  72.695  1.00  0.00    -0.394 OA
ATOM     48  H   UNL     1      18.111  45.406  73.300  1.00  0.00     0.210 HD
ENDBRANCH  46  47
ENDBRANCH  40  46
BRANCH  41  49
ATOM     49  O   UNL     1      18.312  49.089  72.616  1.00  0.00    -0.387 OA
ATOM     50  H   UNL     1      17.676  49.170  71.868  1.00  0.00     0.211 HD
ENDBRANCH  41  49
ENDBRANCH  35  36
ENDBRANCH   5  35
BRANCH   7  51
ATOM     51  O   UNL     1      19.971  46.288  80.840  1.00  0.00    -0.507 OA
ATOM     52  H   UNL     1      19.210  46.765  81.306  1.00  0.00     0.293 HD
ENDBRANCH   7  51
TORSDOF 17
ENDMDL
MODEL 3
REMARK VINA RESULT:    -2.768     16.354     20.408
REMARK INTER + INTRA:          -7.604
REMARK INTER:                  -5.976
REMARK INTRA:                  -1.628
REMARK UNBOUND:                -2.894
REMARK SMILES OC[C@@H]1O[C@H](Oc2cc(O)cc3[o+]c(-c4ccc(O)cc4)c(O[C@H]4O[C@@H](CO)[C@@H](O)[C@@H](O)[C@@H]4O)cc23)[C@H](O)[C@H](O)[C@H]1O.[Cl-]
REMARK SMILES IDX 14 1 22 2 35 3 36 4 7 5 8 6 9 7 11 8 12 9 13 10 15 11 16 12
REMARK SMILES IDX 17 13 18 14 21 15 20 16 19 17 23 19 24 20 33 21 25 22 31 23
REMARK SMILES IDX 26 24 29 25 34 26 32 28 27 30 28 31 30 33 6 35 5 36 37 37
REMARK SMILES IDX 4 38 39 39 3 40 41 41 38 42 40 44 2 46 1 47 42 49 10 51
REMARK H PARENT 19 18 34 27 32 29 28 32 30 34 38 43 40 45 1 48 42 50 10 52
REMARK Flexibility Score: inf
ROOT
ATOM      1  C   UNL     1      16.645  43.784  74.808  1.00  0.00     0.402 A 
ATOM      2  C   UNL     1      17.353  44.020  76.000  1.00  0.00     0.229 A 
ATOM      3  C   UNL     1      17.529  45.359  76.393  1.00  0.00     0.079 A 
ATOM      4  C   UNL     1      17.105  46.408  75.568  1.00  0.00     0.126 A 
ATOM      5  C   UNL     1      17.270  47.768  75.936  1.00  0.00     0.143 A 
ATOM      6  C   UNL     1      16.900  48.760  75.007  1.00  0.00     0.094 A 
ATOM      7  C   UNL     1      16.349  48.413  73.761  1.00  0.00     0.128 A 
ATOM      8  C   UNL     1      16.139  47.073  73.436  1.00  0.00     0.162 A 
ATOM      9  C   UNL     1      16.509  46.069  74.333  1.00  0.00     0.368 A 
ATOM     10  O   UNL     1      16.283  44.794  74.025  1.00  0.00    -0.202 OA
ENDROOT
BRANCH   1  11
ATOM     11  C   UNL     1      16.303  42.416  74.397  1.00  0.00     0.084 A 
ATOM     12  C   UNL     1      14.963  42.049  74.227  1.00  0.00     0.022 A 
ATOM     13  C   UNL     1      14.623  40.731  73.913  1.00  0.00     0.047 A 
ATOM     14  C   UNL     1      15.616  39.755  73.819  1.00  0.00     0.115 A 
ATOM     15  C   UNL     1      17.295  41.439  74.308  1.00  0.00     0.022 A 
ATOM     16  C   UNL     1      16.951  40.108  74.037  1.00  0.00     0.047 A 
BRANCH  14  17
ATOM     17  O   UNL     1      15.257  38.443  73.542  1.00  0.00    -0.508 OA
ATOM     18  H   UNL     1      15.451  37.704  74.200  1.00  0.00     0.293 HD
ENDBRANCH  14  17
ENDBRANCH   1  11
BRANCH   2  19
ATOM     19  O   UNL     1      17.883  42.939  76.744  1.00  0.00    -0.452 OA
BRANCH  19  20
ATOM     20  C   UNL     1      19.230  42.455  76.633  1.00  0.00     0.339 C 
ATOM     21  C   UNL     1      19.304  40.896  76.732  1.00  0.00     0.214 C 
ATOM     22  O   UNL     1      20.066  43.092  77.591  1.00  0.00    -0.332 OA
ATOM     23  C   UNL     1      19.849  40.462  78.110  1.00  0.00     0.180 C 
ATOM     24  C   UNL     1      19.702  42.827  78.939  1.00  0.00     0.179 C 
ATOM     25  C   UNL     1      19.246  41.360  79.199  1.00  0.00     0.177 C 
BRANCH  21  26
ATOM     26  O   UNL     1      20.125  40.400  75.703  1.00  0.00    -0.384 OA
ATOM     27  H   UNL     1      20.864  39.897  76.143  1.00  0.00     0.211 HD
ENDBRANCH  21  26
BRANCH  23  28
ATOM     28  O   UNL     1      19.598  39.100  78.359  1.00  0.00    -0.387 OA
ATOM     29  H   UNL     1      20.211  38.798  79.078  1.00  0.00     0.211 HD
ENDBRANCH  23  28
BRANCH  24  30
ATOM     30  C   UNL     1      18.817  43.981  79.482  1.00  0.00     0.191 C 
BRANCH  30  31
ATOM     31  O   UNL     1      19.481  44.781  80.434  1.00  0.00    -0.394 OA
ATOM     32  H   UNL     1      20.052  45.410  79.902  1.00  0.00     0.210 HD
ENDBRANCH  30  31
ENDBRANCH  24  30
BRANCH  25  33
ATOM     33  O   UNL     1      17.843  41.242  79.160  1.00  0.00    -0.387 OA
ATOM     34  H   UNL     1      17.461  42.168  79.205  1.00  0.00     0.211 HD
ENDBRANCH  25  33
ENDBRANCH  19  20
ENDBRANCH   2  19
BRANCH   5  35
ATOM     35  O   UNL     1      17.768  48.079  77.218  1.00  0.00    -0.461 OA
BRANCH  35  36
ATOM     36  C   UNL     1      19.002  48.747  77.512  1.00  0.00     0.339 C 
ATOM     37  C   UNL     1      19.873  47.937  78.493  1.00  0.00     0.214 C 
ATOM     38  O   UNL     1      18.764  50.061  77.990  1.00  0.00    -0.332 OA
ATOM     39  C   UNL     1      19.192  47.848  79.869  1.00  0.00     0.180 C 
ATOM     40  C   UNL     1      18.143  50.124  79.277  1.00  0.00     0.179 C 
ATOM     41  C   UNL     1      18.834  49.256  80.362  1.00  0.00     0.177 C 
BRANCH  37  42
ATOM     42  O   UNL     1      20.113  46.654  77.972  1.00  0.00    -0.384 OA
ATOM     43  H   UNL     1      19.397  46.057  78.311  1.00  0.00     0.211 HD
ENDBRANCH  37  42
BRANCH  39  44
ATOM     44  O   UNL     1      18.031  47.053  79.816  1.00  0.00    -0.387 OA
ATOM     45  H   UNL     1      18.266  46.235  79.299  1.00  0.00     0.211 HD
ENDBRANCH  39  44
BRANCH  40  46
ATOM     46  C   UNL     1      16.616  49.941  79.200  1.00  0.00     0.191 C 
BRANCH  46  47
ATOM     47  O   UNL     1      16.153  49.284  80.355  1.00  0.00    -0.394 OA
ATOM     48  H   UNL     1      16.315  49.922  81.099  1.00  0.00     0.210 HD
ENDBRANCH  46  47
ENDBRANCH  40  46
BRANCH  41  49
ATOM     49  O   UNL     1      20.020  49.894  80.784  1.00  0.00    -0.387 OA
ATOM     50  H   UNL     1      20.613  49.916  79.997  1.00  0.00     0.211 HD
ENDBRANCH  41  49
ENDBRANCH  35  36
ENDBRANCH   5  35
BRANCH   7  51
ATOM     51  O   UNL     1      15.993  49.398  72.845  1.00  0.00    -0.507 OA
ATOM     52  H   UNL     1      15.034  49.520  72.546  1.00  0.00     0.293 HD
ENDBRANCH   7  51
TORSDOF 17
ENDMDL
MODEL 4
REMARK VINA RESULT:    -1.694     15.392     19.031
REMARK INTER + INTRA:          -5.777
REMARK INTER:                  -5.288
REMARK INTRA:                  -0.489
REMARK UNBOUND:                -2.894
REMARK SMILES OC[C@@H]1O[C@H](Oc2cc(O)cc3[o+]c(-c4ccc(O)cc4)c(O[C@H]4O[C@@H](CO)[C@@H](O)[C@@H](O)[C@@H]4O)cc23)[C@H](O)[C@H](O)[C@H]1O.[Cl-]
REMARK SMILES IDX 14 1 22 2 35 3 36 4 7 5 8 6 9 7 11 8 12 9 13 10 15 11 16 12
REMARK SMILES IDX 17 13 18 14 21 15 20 16 19 17 23 19 24 20 33 21 25 22 31 23
REMARK SMILES IDX 26 24 29 25 34 26 32 28 27 30 28 31 30 33 6 35 5 36 37 37
REMARK SMILES IDX 4 38 39 39 3 40 41 41 38 42 40 44 2 46 1 47 42 49 10 51
REMARK H PARENT 19 18 34 27 32 29 28 32 30 34 38 43 40 45 1 48 42 50 10 52
REMARK Flexibility Score: inf
ROOT
ATOM      1  C   UNL     1      19.301  41.706  77.679  1.00  0.00     0.402 A 
ATOM      2  C   UNL     1      18.700  42.290  76.550  1.00  0.00     0.229 A 
ATOM      3  C   UNL     1      18.631  43.694  76.509  1.00  0.00     0.079 A 
ATOM      4  C   UNL     1      19.051  44.463  77.602  1.00  0.00     0.126 A 
ATOM      5  C   UNL     1      18.993  45.880  77.591  1.00  0.00     0.143 A 
ATOM      6  C   UNL     1      19.348  46.572  78.765  1.00  0.00     0.094 A 
ATOM      7  C   UNL     1      19.782  45.879  79.908  1.00  0.00     0.128 A 
ATOM      8  C   UNL     1      19.890  44.488  79.885  1.00  0.00     0.162 A 
ATOM      9  C   UNL     1      19.532  43.776  78.738  1.00  0.00     0.368 A 
ATOM     10  O   UNL     1      19.661  42.452  78.717  1.00  0.00    -0.202 OA
ENDROOT
BRANCH   1  11
ATOM     11  C   UNL     1      19.532  40.256  77.739  1.00  0.00     0.084 A 
ATOM     12  C   UNL     1      19.977  39.569  76.605  1.00  0.00     0.022 A 
ATOM     13  C   UNL     1      20.125  38.180  76.629  1.00  0.00     0.047 A 
ATOM     14  C   UNL     1      19.777  37.459  77.772  1.00  0.00     0.115 A 
ATOM     15  C   UNL     1      19.179  39.535  78.880  1.00  0.00     0.022 A 
ATOM     16  C   UNL     1      19.285  38.138  78.891  1.00  0.00     0.047 A 
BRANCH  14  17
ATOM     17  O   UNL     1      19.896  36.076  77.767  1.00  0.00    -0.508 OA
ATOM     18  H   UNL     1      19.145  35.492  78.102  1.00  0.00     0.293 HD
ENDBRANCH  14  17
ENDBRANCH   1  11
BRANCH   2  19
ATOM     19  O   UNL     1      18.166  41.478  75.522  1.00  0.00    -0.452 OA
BRANCH  19  20
ATOM     20  C   UNL     1      18.342  41.719  74.118  1.00  0.00     0.339 C 
ATOM     21  C   UNL     1      17.937  43.176  73.717  1.00  0.00     0.214 C 
ATOM     22  O   UNL     1      17.645  40.742  73.355  1.00  0.00    -0.332 OA
ATOM     23  C   UNL     1      16.578  43.183  72.984  1.00  0.00     0.180 C 
ATOM     24  C   UNL     1      16.236  40.760  73.546  1.00  0.00     0.179 C 
ATOM     25  C   UNL     1      15.628  42.190  73.669  1.00  0.00     0.177 C 
BRANCH  21  26
ATOM     26  O   UNL     1      18.937  43.731  72.898  1.00  0.00    -0.384 OA
ATOM     27  H   UNL     1      19.059  44.674  73.194  1.00  0.00     0.211 HD
ENDBRANCH  21  26
BRANCH  23  28
ATOM     28  O   UNL     1      16.027  44.477  72.930  1.00  0.00    -0.387 OA
ATOM     29  H   UNL     1      16.728  45.123  73.203  1.00  0.00     0.211 HD
ENDBRANCH  23  28
BRANCH  24  30
ATOM     30  C   UNL     1      15.835  39.695  74.601  1.00  0.00     0.191 C 
BRANCH  30  31
ATOM     31  O   UNL     1      16.897  38.835  74.946  1.00  0.00    -0.394 OA
ATOM     32  H   UNL     1      16.466  37.965  75.192  1.00  0.00     0.210 HD
ENDBRANCH  30  31
ENDBRANCH  24  30
BRANCH  25  33
ATOM     33  O   UNL     1      15.469  42.568  75.016  1.00  0.00    -0.387 OA
ATOM     34  H   UNL     1      14.489  42.705  75.177  1.00  0.00     0.211 HD
ENDBRANCH  25  33
ENDBRANCH  19  20
ENDBRANCH   2  19
BRANCH   5  35
ATOM     35  O   UNL     1      18.612  46.546  76.406  1.00  0.00    -0.461 OA
BRANCH  35  36
ATOM     36  C   UNL     1      18.018  45.945  75.248  1.00  0.00     0.339 C 
ATOM     37  C   UNL     1      18.745  46.357  73.952  1.00  0.00     0.214 C 
ATOM     38  O   UNL     1      16.631  46.238  75.182  1.00  0.00    -0.332 OA
ATOM     39  C   UNL     1      18.568  47.863  73.691  1.00  0.00     0.180 C 
ATOM     40  C   UNL     1      16.323  47.611  74.929  1.00  0.00     0.179 C 
ATOM     41  C   UNL     1      17.075  48.221  73.716  1.00  0.00     0.177 C 
BRANCH  37  42
ATOM     42  O   UNL     1      20.107  46.024  74.042  1.00  0.00    -0.384 OA
ATOM     43  H   UNL     1      20.515  46.197  73.153  1.00  0.00     0.211 HD
ENDBRANCH  37  42
BRANCH  39  44
ATOM     44  O   UNL     1      19.258  48.633  74.647  1.00  0.00    -0.387 OA
ATOM     45  H   UNL     1      18.575  49.182  75.120  1.00  0.00     0.211 HD
ENDBRANCH  39  44
BRANCH  40  46
ATOM     46  C   UNL     1      16.382  48.470  76.205  1.00  0.00     0.191 C 
BRANCH  46  47
ATOM     47  O   UNL     1      16.854  49.760  75.895  1.00  0.00    -0.394 OA
ATOM     48  H   UNL     1      16.866  50.247  76.761  1.00  0.00     0.210 HD
ENDBRANCH  46  47
ENDBRANCH  40  46
BRANCH  41  49
ATOM     49  O   UNL     1      16.487  47.756  72.520  1.00  0.00    -0.387 OA
ATOM     50  H   UNL     1      17.179  47.846  71.824  1.00  0.00     0.211 HD
ENDBRANCH  41  49
ENDBRANCH  35  36
ENDBRANCH   5  35
BRANCH   7  51
ATOM     51  O   UNL     1      20.125  46.567  81.067  1.00  0.00    -0.507 OA
ATOM     52  H   UNL     1      20.891  47.228  81.084  1.00  0.00     0.293 HD
ENDBRANCH   7  51
TORSDOF 17
ENDMDL
MODEL 5
REMARK VINA RESULT:    -1.455     17.742     21.231
REMARK INTER + INTRA:          -5.371
REMARK INTER:                  -5.215
REMARK INTRA:                  -0.156
REMARK UNBOUND:                -2.894
REMARK SMILES OC[C@@H]1O[C@H](Oc2cc(O)cc3[o+]c(-c4ccc(O)cc4)c(O[C@H]4O[C@@H](CO)[C@@H](O)[C@@H](O)[C@@H]4O)cc23)[C@H](O)[C@H](O)[C@H]1O.[Cl-]
REMARK SMILES IDX 14 1 22 2 35 3 36 4 7 5 8 6 9 7 11 8 12 9 13 10 15 11 16 12
REMARK SMILES IDX 17 13 18 14 21 15 20 16 19 17 23 19 24 20 33 21 25 22 31 23
REMARK SMILES IDX 26 24 29 25 34 26 32 28 27 30 28 31 30 33 6 35 5 36 37 37
REMARK SMILES IDX 4 38 39 39 3 40 41 41 38 42 40 44 2 46 1 47 42 49 10 51
REMARK H PARENT 19 18 34 27 32 29 28 32 30 34 38 43 40 45 1 48 42 50 10 52
REMARK Flexibility Score: inf
ROOT
ATOM      1  C   UNL     1      18.753  46.022  80.076  1.00  0.00     0.402 A 
ATOM      2  C   UNL     1      18.848  46.437  78.737  1.00  0.00     0.229 A 
ATOM      3  C   UNL     1      18.572  45.481  77.743  1.00  0.00     0.079 A 
ATOM      4  C   UNL     1      18.318  44.147  78.085  1.00  0.00     0.126 A 
ATOM      5  C   UNL     1      18.037  43.160  77.106  1.00  0.00     0.143 A 
ATOM      6  C   UNL     1      17.885  41.825  77.528  1.00  0.00     0.094 A 
ATOM      7  C   UNL     1      17.975  41.484  78.889  1.00  0.00     0.128 A 
ATOM      8  C   UNL     1      18.193  42.474  79.847  1.00  0.00     0.162 A 
ATOM      9  C   UNL     1      18.360  43.804  79.454  1.00  0.00     0.368 A 
ATOM     10  O   UNL     1      18.544  44.745  80.377  1.00  0.00    -0.202 OA
ENDROOT
BRANCH   1  11
ATOM     11  C   UNL     1      18.894  46.990  81.173  1.00  0.00     0.084 A 
ATOM     12  C   UNL     1      17.822  47.229  82.040  1.00  0.00     0.022 A 
ATOM     13  C   UNL     1      17.920  48.203  83.037  1.00  0.00     0.047 A 
ATOM     14  C   UNL     1      19.071  48.984  83.142  1.00  0.00     0.115 A 
ATOM     15  C   UNL     1      20.043  47.774  81.275  1.00  0.00     0.022 A 
ATOM     16  C   UNL     1      20.125  48.781  82.246  1.00  0.00     0.047 A 
BRANCH  14  17
ATOM     17  O   UNL     1      19.137  49.972  84.115  1.00  0.00    -0.508 OA
ATOM     18  H   UNL     1      18.340  50.177  84.698  1.00  0.00     0.293 HD
ENDBRANCH  14  17
ENDBRANCH   1  11
BRANCH   2  19
ATOM     19  O   UNL     1      19.236  47.762  78.423  1.00  0.00    -0.452 OA
BRANCH  19  20
ATOM     20  C   UNL     1      18.583  48.941  78.916  1.00  0.00     0.339 C 
ATOM     21  C   UNL     1      17.026  48.844  78.797  1.00  0.00     0.214 C 
ATOM     22  O   UNL     1      19.096  50.099  78.270  1.00  0.00    -0.332 OA
ATOM     23  C   UNL     1      16.512  49.717  77.631  1.00  0.00     0.180 C 
ATOM     24  C   UNL     1      18.868  50.125  76.867  1.00  0.00     0.179 C 
ATOM     25  C   UNL     1      17.470  49.585  76.439  1.00  0.00     0.177 C 
BRANCH  21  26
ATOM     26  O   UNL     1      16.438  49.250  80.008  1.00  0.00    -0.384 OA
ATOM     27  H   UNL     1      15.528  48.847  80.035  1.00  0.00     0.211 HD
ENDBRANCH  21  26
BRANCH  23  28
ATOM     28  O   UNL     1      15.192  49.381  77.278  1.00  0.00    -0.387 OA
ATOM     29  H   UNL     1      15.070  48.408  77.428  1.00  0.00     0.211 HD
ENDBRANCH  23  28
BRANCH  24  30
ATOM     30  C   UNL     1      20.122  49.597  76.119  1.00  0.00     0.191 C 
BRANCH  30  31
ATOM     31  O   UNL     1      19.949  49.549  74.721  1.00  0.00    -0.394 OA
ATOM     32  H   UNL     1      19.310  48.795  74.557  1.00  0.00     0.210 HD
ENDBRANCH  30  31
ENDBRANCH  24  30
BRANCH  25  33
ATOM     33  O   UNL     1      17.535  48.232  76.055  1.00  0.00    -0.387 OA
ATOM     34  H   UNL     1      17.118  48.155  75.147  1.00  0.00     0.211 HD
ENDBRANCH  25  33
ENDBRANCH  19  20
ENDBRANCH   2  19
BRANCH   5  35
ATOM     35  O   UNL     1      17.893  43.548  75.757  1.00  0.00    -0.461 OA
BRANCH  35  36
ATOM     36  C   UNL     1      18.254  44.816  75.195  1.00  0.00     0.339 C 
ATOM     37  C   UNL     1      17.222  45.296  74.154  1.00  0.00     0.214 C 
ATOM     38  O   UNL     1      19.562  44.773  74.648  1.00  0.00    -0.332 OA
ATOM     39  C   UNL     1      17.218  44.363  72.931  1.00  0.00     0.180 C 
ATOM     40  C   UNL     1      19.698  43.947  73.489  1.00  0.00     0.179 C 
ATOM     41  C   UNL     1      18.645  44.222  72.383  1.00  0.00     0.177 C 
BRANCH  37  42
ATOM     42  O   UNL     1      15.946  45.355  74.739  1.00  0.00    -0.384 OA
ATOM     43  H   UNL     1      15.646  46.301  74.705  1.00  0.00     0.211 HD
ENDBRANCH  37  42
BRANCH  39  44
ATOM     44  O   UNL     1      16.706  43.092  73.257  1.00  0.00    -0.387 OA
ATOM     45  H   UNL     1      17.467  42.453  73.201  1.00  0.00     0.211 HD
ENDBRANCH  39  44
BRANCH  40  46
ATOM     46  C   UNL     1      19.864  42.459  73.847  1.00  0.00     0.191 C 
BRANCH  46  47
ATOM     47  O   UNL     1      18.892  41.692  73.177  1.00  0.00    -0.394 OA
ATOM     48  H   UNL     1      18.048  41.850  73.677  1.00  0.00     0.210 HD
ENDBRANCH  46  47
ENDBRANCH  40  46
BRANCH  41  49
ATOM     49  O   UNL     1      18.980  45.413  71.705  1.00  0.00    -0.387 OA
ATOM     50  H   UNL     1      19.929  45.584  71.909  1.00  0.00     0.211 HD
ENDBRANCH  41  49
ENDBRANCH  35  36
ENDBRANCH   5  35
BRANCH   7  51
ATOM     51  O   UNL     1      17.831  40.162  79.300  1.00  0.00    -0.507 OA
ATOM     52  H   UNL     1      18.472  39.441  78.995  1.00  0.00     0.293 HD
ENDBRANCH   7  51
TORSDOF 17
ENDMDL
MODEL 6
REMARK VINA RESULT:    -1.338     16.816     20.641
REMARK INTER + INTRA:          -5.171
REMARK INTER:                  -3.202
REMARK INTRA:                  -1.968
REMARK UNBOUND:                -2.894
REMARK SMILES OC[C@@H]1O[C@H](Oc2cc(O)cc3[o+]c(-c4ccc(O)cc4)c(O[C@H]4O[C@@H](CO)[C@@H](O)[C@@H](O)[C@@H]4O)cc23)[C@H](O)[C@H](O)[C@H]1O.[Cl-]
REMARK SMILES IDX 14 1 22 2 35 3 36 4 7 5 8 6 9 7 11 8 12 9 13 10 15 11 16 12
REMARK SMILES IDX 17 13 18 14 21 15 20 16 19 17 23 19 24 20 33 21 25 22 31 23
REMARK SMILES IDX 26 24 29 25 34 26 32 28 27 30 28 31 30 33 6 35 5 36 37 37
REMARK SMILES IDX 4 38 39 39 3 40 41 41 38 42 40 44 2 46 1 47 42 49 10 51
REMARK H PARENT 19 18 34 27 32 29 28 32 30 34 38 43 40 45 1 48 42 50 10 52
REMARK Flexibility Score: inf
ROOT
ATOM      1  C   UNL     1      14.356  47.979  71.677  1.00  0.00     0.402 A 
ATOM      2  C   UNL     1      14.542  47.437  72.960  1.00  0.00     0.229 A 
ATOM      3  C   UNL     1      15.808  47.597  73.551  1.00  0.00     0.079 A 
ATOM      4  C   UNL     1      16.862  48.181  72.838  1.00  0.00     0.126 A 
ATOM      5  C   UNL     1      18.150  48.355  73.406  1.00  0.00     0.143 A 
ATOM      6  C   UNL     1      19.177  48.865  72.588  1.00  0.00     0.094 A 
ATOM      7  C   UNL     1      18.925  49.226  71.254  1.00  0.00     0.128 A 
ATOM      8  C   UNL     1      17.640  49.105  70.725  1.00  0.00     0.162 A 
ATOM      9  C   UNL     1      16.606  48.588  71.510  1.00  0.00     0.368 A 
ATOM     10  O   UNL     1      15.378  48.498  71.006  1.00  0.00    -0.202 OA
ENDROOT
BRANCH   1  11
ATOM     11  C   UNL     1      13.029  47.973  71.046  1.00  0.00     0.084 A 
ATOM     12  C   UNL     1      11.971  48.680  71.628  1.00  0.00     0.022 A 
ATOM     13  C   UNL     1      10.688  48.617  71.080  1.00  0.00     0.047 A 
ATOM     14  C   UNL     1      10.439  47.803  69.974  1.00  0.00     0.115 A 
ATOM     15  C   UNL     1      12.778  47.156  69.944  1.00  0.00     0.022 A 
ATOM     16  C   UNL     1      11.483  47.057  69.420  1.00  0.00     0.047 A 
BRANCH  14  17
ATOM     17  O   UNL     1       9.150  47.723  69.464  1.00  0.00    -0.508 OA
ATOM     18  H   UNL     1       8.977  47.840  68.477  1.00  0.00     0.293 HD
ENDBRANCH  14  17
ENDBRANCH   1  11
BRANCH   2  19
ATOM     19  O   UNL     1      13.493  46.736  73.601  1.00  0.00    -0.452 OA
BRANCH  19  20
ATOM     20  C   UNL     1      13.538  46.260  74.955  1.00  0.00     0.339 C 
ATOM     21  C   UNL     1      12.287  45.391  75.314  1.00  0.00     0.214 C 
ATOM     22  O   UNL     1      13.710  47.346  75.857  1.00  0.00    -0.332 OA
ATOM     23  C   UNL     1      11.310  46.184  76.209  1.00  0.00     0.180 C 
ATOM     24  C   UNL     1      12.640  48.282  75.843  1.00  0.00     0.179 C 
ATOM     25  C   UNL     1      11.229  47.634  75.711  1.00  0.00     0.177 C 
BRANCH  21  26
ATOM     26  O   UNL     1      12.705  44.217  75.965  1.00  0.00    -0.384 OA
ATOM     27  H   UNL     1      13.625  44.390  76.306  1.00  0.00     0.211 HD
ENDBRANCH  21  26
BRANCH  23  28
ATOM     28  O   UNL     1      10.042  45.577  76.253  1.00  0.00    -0.387 OA
ATOM     29  H   UNL     1       9.668  45.706  77.163  1.00  0.00     0.211 HD
ENDBRANCH  23  28
BRANCH  24  30
ATOM     30  C   UNL     1      12.994  49.473  74.913  1.00  0.00     0.191 C 
BRANCH  30  31
ATOM     31  O   UNL     1      14.217  50.088  75.250  1.00  0.00    -0.394 OA
ATOM     32  H   UNL     1      14.557  50.489  74.397  1.00  0.00     0.210 HD
ENDBRANCH  30  31
ENDBRANCH  24  30
BRANCH  25  33
ATOM     33  O   UNL     1      10.787  47.631  74.374  1.00  0.00    -0.387 OA
ATOM     34  H   UNL     1      10.523  46.691  74.145  1.00  0.00     0.211 HD
ENDBRANCH  25  33
ENDBRANCH  19  20
ENDBRANCH   2  19
BRANCH   5  35
ATOM     35  O   UNL     1      18.352  48.040  74.766  1.00  0.00    -0.461 OA
BRANCH  35  36
ATOM     36  C   UNL     1      19.608  48.015  75.456  1.00  0.00     0.339 C 
ATOM     37  C   UNL     1      20.056  46.576  75.781  1.00  0.00     0.214 C 
ATOM     38  O   UNL     1      19.560  48.821  76.623  1.00  0.00    -0.332 OA
ATOM     39  C   UNL     1      19.094  45.928  76.791  1.00  0.00     0.180 C 
ATOM     40  C   UNL     1      18.707  48.323  77.656  1.00  0.00     0.179 C 
ATOM     41  C   UNL     1      18.948  46.834  78.021  1.00  0.00     0.177 C 
BRANCH  37  42
ATOM     42  O   UNL     1      20.121  45.818  74.600  1.00  0.00    -0.384 OA
ATOM     43  H   UNL     1      20.098  44.860  74.859  1.00  0.00     0.211 HD
ENDBRANCH  37  42
BRANCH  39  44
ATOM     44  O   UNL     1      17.828  45.697  76.218  1.00  0.00    -0.387 OA
ATOM     45  H   UNL     1      17.193  45.557  76.972  1.00  0.00     0.211 HD
ENDBRANCH  39  44
BRANCH  40  46
ATOM     46  C   UNL     1      17.229  48.684  77.420  1.00  0.00     0.191 C 
BRANCH  46  47
ATOM     47  O   UNL     1      17.139  49.881  76.685  1.00  0.00    -0.394 OA
ATOM     48  H   UNL     1      16.250  49.847  76.241  1.00  0.00     0.210 HD
ENDBRANCH  46  47
ENDBRANCH  40  46
BRANCH  41  49
ATOM     49  O   UNL     1      20.125  46.728  78.794  1.00  0.00    -0.387 OA
ATOM     50  H   UNL     1      20.837  46.458  78.168  1.00  0.00     0.211 HD
ENDBRANCH  41  49
ENDBRANCH  35  36
ENDBRANCH   5  35
BRANCH   7  51
ATOM     51  O   UNL     1      19.945  49.723  70.449  1.00  0.00    -0.507 OA
ATOM     52  H   UNL     1      20.746  50.201  70.843  1.00  0.00     0.293 HD
ENDBRANCH   7  51
TORSDOF 17
ENDMDL
MODEL 7
REMARK VINA RESULT:    -1.301     17.339     20.931
REMARK INTER + INTRA:          -5.108
REMARK INTER:                  -5.446
REMARK INTRA:                   0.338
REMARK UNBOUND:                -2.894
REMARK SMILES OC[C@@H]1O[C@H](Oc2cc(O)cc3[o+]c(-c4ccc(O)cc4)c(O[C@H]4O[C@@H](CO)[C@@H](O)[C@@H](O)[C@@H]4O)cc23)[C@H](O)[C@H](O)[C@H]1O.[Cl-]
REMARK SMILES IDX 14 1 22 2 35 3 36 4 7 5 8 6 9 7 11 8 12 9 13 10 15 11 16 12
REMARK SMILES IDX 17 13 18 14 21 15 20 16 19 17 23 19 24 20 33 21 25 22 31 23
REMARK SMILES IDX 26 24 29 25 34 26 32 28 27 30 28 31 30 33 6 35 5 36 37 37
REMARK SMILES IDX 4 38 39 39 3 40 41 41 38 42 40 44 2 46 1 47 42 49 10 51
REMARK H PARENT 19 18 34 27 32 29 28 32 30 34 38 43 40 45 1 48 42 50 10 52
REMARK Flexibility Score: inf
ROOT
ATOM      1  C   UNL     1      19.305  45.599  79.235  1.00  0.00     0.402 A 
ATOM      2  C   UNL     1      18.663  45.832  78.007  1.00  0.00     0.229 A 
ATOM      3  C   UNL     1      18.313  44.708  77.238  1.00  0.00     0.079 A 
ATOM      4  C   UNL     1      18.689  43.420  77.641  1.00  0.00     0.126 A 
ATOM      5  C   UNL     1      18.352  42.267  76.886  1.00  0.00     0.143 A 
ATOM      6  C   UNL     1      18.849  41.021  77.313  1.00  0.00     0.094 A 
ATOM      7  C   UNL     1      19.630  40.916  78.477  1.00  0.00     0.128 A 
ATOM      8  C   UNL     1      19.905  42.050  79.241  1.00  0.00     0.162 A 
ATOM      9  C   UNL     1      19.436  43.301  78.833  1.00  0.00     0.368 A 
ATOM     10  O   UNL     1      19.682  44.373  79.581  1.00  0.00    -0.202 OA
ENDROOT
BRANCH   1  11
ATOM     11  C   UNL     1      19.584  46.708  80.158  1.00  0.00     0.084 A 
ATOM     12  C   UNL     1      19.399  46.539  81.535  1.00  0.00     0.022 A 
ATOM     13  C   UNL     1      19.586  47.609  82.413  1.00  0.00     0.047 A 
ATOM     14  C   UNL     1      19.907  48.873  81.917  1.00  0.00     0.115 A 
ATOM     15  C   UNL     1      19.900  47.973  79.662  1.00  0.00     0.022 A 
ATOM     16  C   UNL     1      20.044  49.057  80.538  1.00  0.00     0.047 A 
BRANCH  14  17
ATOM     17  O   UNL     1      20.054  49.934  82.800  1.00  0.00    -0.508 OA
ATOM     18  H   UNL     1      19.723  50.856  82.560  1.00  0.00     0.293 HD
ENDBRANCH  14  17
ENDBRANCH   1  11
BRANCH   2  19
ATOM     19  O   UNL     1      18.414  47.154  77.568  1.00  0.00    -0.452 OA
BRANCH  19  20
ATOM     20  C   UNL     1      17.834  47.497  76.300  1.00  0.00     0.339 C 
ATOM     21  C   UNL     1      18.920  47.886  75.244  1.00  0.00     0.214 C 
ATOM     22  O   UNL     1      16.856  48.517  76.462  1.00  0.00    -0.332 OA
ATOM     23  C   UNL     1      18.943  49.415  75.022  1.00  0.00     0.180 C 
ATOM     24  C   UNL     1      17.378  49.742  76.958  1.00  0.00     0.179 C 
ATOM     25  C   UNL     1      18.771  50.125  76.372  1.00  0.00     0.177 C 
BRANCH  21  26
ATOM     26  O   UNL     1      18.655  47.221  74.034  1.00  0.00    -0.384 OA
ATOM     27  H   UNL     1      19.516  46.825  73.729  1.00  0.00     0.211 HD
ENDBRANCH  21  26
BRANCH  23  28
ATOM     28  O   UNL     1      20.118  49.823  74.364  1.00  0.00    -0.387 OA
ATOM     29  H   UNL     1      20.542  49.022  73.963  1.00  0.00     0.211 HD
ENDBRANCH  23  28
BRANCH  24  30
ATOM     30  C   UNL     1      17.181  49.814  78.496  1.00  0.00     0.191 C 
BRANCH  30  31
ATOM     31  O   UNL     1      15.824  49.850  78.875  1.00  0.00    -0.394 OA
ATOM     32  H   UNL     1      15.534  50.800  78.741  1.00  0.00     0.210 HD
ENDBRANCH  30  31
ENDBRANCH  24  30
BRANCH  25  33
ATOM     33  O   UNL     1      19.816  49.731  77.230  1.00  0.00    -0.387 OA
ATOM     34  H   UNL     1      19.402  49.410  78.084  1.00  0.00     0.211 HD
ENDBRANCH  25  33
ENDBRANCH  19  20
ENDBRANCH   2  19
BRANCH   5  35
ATOM     35  O   UNL     1      17.514  42.402  75.759  1.00  0.00    -0.461 OA
BRANCH  35  36
ATOM     36  C   UNL     1      17.737  41.833  74.462  1.00  0.00     0.339 C 
ATOM     37  C   UNL     1      19.129  42.197  73.907  1.00  0.00     0.214 C 
ATOM     38  O   UNL     1      16.705  42.206  73.563  1.00  0.00    -0.332 OA
ATOM     39  C   UNL     1      19.224  43.709  73.643  1.00  0.00     0.180 C 
ATOM     40  C   UNL     1      16.686  43.593  73.218  1.00  0.00     0.179 C 
ATOM     41  C   UNL     1      18.056  44.153  72.751  1.00  0.00     0.177 C 
BRANCH  37  42
ATOM     42  O   UNL     1      20.125  41.786  74.809  1.00  0.00    -0.384 OA
ATOM     43  H   UNL     1      20.645  42.591  75.065  1.00  0.00     0.211 HD
ENDBRANCH  37  42
BRANCH  39  44
ATOM     44  O   UNL     1      19.210  44.442  74.845  1.00  0.00    -0.387 OA
ATOM     45  H   UNL     1      18.860  43.831  75.550  1.00  0.00     0.211 HD
ENDBRANCH  39  44
BRANCH  40  46
ATOM     46  C   UNL     1      15.983  44.452  74.285  1.00  0.00     0.191 C 
BRANCH  46  47
ATOM     47  O   UNL     1      14.874  43.759  74.805  1.00  0.00    -0.394 OA
ATOM     48  H   UNL     1      14.304  44.458  75.222  1.00  0.00     0.210 HD
ENDBRANCH  46  47
ENDBRANCH  40  46
BRANCH  41  49
ATOM     49  O   UNL     1      18.313  43.719  71.433  1.00  0.00    -0.387 OA
ATOM     50  H   UNL     1      18.295  44.529  70.872  1.00  0.00     0.211 HD
ENDBRANCH  41  49
ENDBRANCH  35  36
ENDBRANCH   5  35
BRANCH   7  51
ATOM     51  O   UNL     1      20.125  39.683  78.890  1.00  0.00    -0.507 OA
ATOM     52  H   UNL     1      20.028  39.368  79.847  1.00  0.00     0.293 HD
ENDBRANCH   7  51
TORSDOF 17
ENDMDL
