MODEL 1
REMARK VINA RESULT:    -2.213      0.000      0.000
REMARK INTER + INTRA:          -2.213
REMARK INTER:                  -2.213
REMARK INTRA:                   0.000
REMARK UNBOUND:                 0.000
REMARK SMILES CC(=O)[O-]
REMARK SMILES IDX 1 1 2 2 3 3 4 4
REMARK H PARENT
REMARK Flexibility Score: inf
ROOT
ATOM      1  C   UNL     1      25.788   3.603   7.243  1.00  0.00     0.063 C 
ATOM      2  C   UNL     1      26.526   2.817   8.273  1.00  0.00     0.038 C 
ATOM      3  O   UNL     1      26.373   1.569   8.345  1.00  0.00    -0.550 OA
ATOM      4  O   UNL     1      27.343   3.465   9.191  1.00  0.00    -0.550 OA
ENDROOT
TORSDOF 0
ENDMDL
MODEL 2
REMARK VINA RESULT:    -2.197      3.889      4.481
REMARK INTER + INTRA:          -2.197
REMARK INTER:                  -2.197
REMARK INTRA:                   0.000
REMARK UNBOUND:                 0.000
REMARK SMILES CC(=O)[O-]
REMARK SMILES IDX 1 1 2 2 3 3 4 4
REMARK H PARENT
REMARK Flexibility Score: inf
ROOT
ATOM      1  C   UNL     1      25.244   3.188  13.284  1.00  0.00     0.063 C 
ATOM      2  C   UNL     1      26.034   2.560  12.186  1.00  0.00     0.038 C 
ATOM      3  O   UNL     1      27.083   3.115  11.767  1.00  0.00    -0.550 OA
ATOM      4  O   UNL     1      25.586   1.391  11.586  1.00  0.00    -0.550 OA
ENDROOT
TORSDOF 0
ENDMDL
MODEL 3
REMARK VINA RESULT:    -2.056      4.308      4.735
REMARK INTER + INTRA:          -2.056
REMARK INTER:                  -2.056
REMARK INTRA:                   0.000
REMARK UNBOUND:                 0.000
REMARK SMILES CC(=O)[O-]
REMARK SMILES IDX 1 1 2 2 3 3 4 4
REMARK H PARENT
REMARK Flexibility Score: inf
ROOT
ATOM      1  C   UNL     1      22.882   6.073   7.269  1.00  0.00     0.063 C 
ATOM      2  C   UNL     1      23.568   5.241   6.239  1.00  0.00     0.038 C 
ATOM      3  O   UNL     1      24.408   5.765   5.462  1.00  0.00    -0.550 OA
ATOM      4  O   UNL     1      23.242   3.899   6.098  1.00  0.00    -0.550 OA
ENDROOT
TORSDOF 0
ENDMDL
MODEL 4
REMARK VINA RESULT:    -2.045      4.793      5.092
REMARK INTER + INTRA:          -2.045
REMARK INTER:                  -2.045
REMARK INTRA:                   0.000
REMARK UNBOUND:                 0.000
REMARK SMILES CC(=O)[O-]
REMARK SMILES IDX 1 1 2 2 3 3 4 4
REMARK H PARENT
REMARK Flexibility Score: inf
ROOT
ATOM      1  C   UNL     1      22.901   6.074   7.275  1.00  0.00     0.063 C 
ATOM      2  C   UNL     1      23.301   5.631   5.909  1.00  0.00     0.038 C 
ATOM      3  O   UNL     1      22.426   5.450   5.022  1.00  0.00    -0.550 OA
ATOM      4  O   UNL     1      24.635   5.367   5.625  1.00  0.00    -0.550 OA
ENDROOT
TORSDOF 0
ENDMDL
MODEL 5
REMARK VINA RESULT:    -2.032      4.860      5.152
REMARK INTER + INTRA:          -2.032
REMARK INTER:                  -2.032
REMARK INTRA:                   0.000
REMARK UNBOUND:                 0.000
REMARK SMILES CC(=O)[O-]
REMARK SMILES IDX 1 1 2 2 3 3 4 4
REMARK H PARENT
REMARK Flexibility Score: inf
ROOT
ATOM      1  C   UNL     1      24.318   5.348   5.677  1.00  0.00     0.063 C 
ATOM      2  C   UNL     1      22.999   5.719   6.265  1.00  0.00     0.038 C 
ATOM      3  O   UNL     1      21.960   5.690   5.554  1.00  0.00    -0.550 OA
ATOM      4  O   UNL     1      22.920   6.148   7.583  1.00  0.00    -0.550 OA
ENDROOT
TORSDOF 0
ENDMDL
MODEL 6
REMARK VINA RESULT:    -2.015      7.507      7.871
REMARK INTER + INTRA:          -2.015
REMARK INTER:                  -2.015
REMARK INTRA:                   0.000
REMARK UNBOUND:                 0.000
REMARK SMILES CC(=O)[O-]
REMARK SMILES IDX 1 1 2 2 3 3 4 4
REMARK H PARENT
REMARK Flexibility Score: inf
ROOT
ATOM      1  C   UNL     1      23.874   4.244  14.941  1.00  0.00     0.063 C 
ATOM      2  C   UNL     1      23.261   5.574  14.661  1.00  0.00     0.038 C 
ATOM      3  O   UNL     1      22.735   5.803  13.540  1.00  0.00    -0.550 OA
ATOM      4  O   UNL     1      23.314   6.580  15.616  1.00  0.00    -0.550 OA
ENDROOT
TORSDOF 0
ENDMDL
MODEL 7
REMARK VINA RESULT:    -2.006      6.864      7.140
REMARK INTER + INTRA:          -2.006
REMARK INTER:                  -2.006
REMARK INTRA:                   0.000
REMARK UNBOUND:                 0.000
REMARK SMILES CC(=O)[O-]
REMARK SMILES IDX 1 1 2 2 3 3 4 4
REMARK H PARENT
REMARK Flexibility Score: inf
ROOT
ATOM      1  C   UNL     1      22.872   6.124  13.626  1.00  0.00     0.063 C 
ATOM      2  C   UNL     1      23.561   4.984  14.296  1.00  0.00     0.038 C 
ATOM      3  O   UNL     1      23.302   4.707  15.497  1.00  0.00    -0.550 OA
ATOM      4  O   UNL     1      24.530   4.258  13.616  1.00  0.00    -0.550 OA
ENDROOT
TORSDOF 0
ENDMDL
MODEL 8
REMARK VINA RESULT:    -1.919      4.687      5.078
REMARK INTER + INTRA:          -1.919
REMARK INTER:                  -1.919
REMARK INTRA:                   0.000
REMARK UNBOUND:                 0.000
REMARK SMILES CC(=O)[O-]
REMARK SMILES IDX 1 1 2 2 3 3 4 4
REMARK H PARENT
REMARK Flexibility Score: inf
ROOT
ATOM      1  C   UNL     1      21.999   5.429   5.285  1.00  0.00     0.063 C 
ATOM      2  C   UNL     1      23.174   5.684   6.168  1.00  0.00     0.038 C 
ATOM      3  O   UNL     1      23.002   6.094   7.345  1.00  0.00    -0.550 OA
ATOM      4  O   UNL     1      24.462   5.520   5.677  1.00  0.00    -0.550 OA
ENDROOT
TORSDOF 0
ENDMDL
MODEL 9
REMARK VINA RESULT:    -1.915     11.039     11.428
REMARK INTER + INTRA:          -1.915
REMARK INTER:                  -1.915
REMARK INTRA:                   0.000
REMARK UNBOUND:                 0.000
REMARK SMILES CC(=O)[O-]
REMARK SMILES IDX 1 1 2 2 3 3 4 4
REMARK H PARENT
REMARK Flexibility Score: inf
ROOT
ATOM      1  C   UNL     1      19.204  11.965  10.908  1.00  0.00     0.063 C 
ATOM      2  C   UNL     1      18.858  10.578  11.332  1.00  0.00     0.038 C 
ATOM      3  O   UNL     1      19.572   9.979  12.179  1.00  0.00    -0.550 OA
ATOM      4  O   UNL     1      17.778   9.922  10.755  1.00  0.00    -0.550 OA
ENDROOT
TORSDOF 0
ENDMDL
