MODEL 1
REMARK VINA RESULT:    -5.790      0.000      0.000
REMARK INTER + INTRA:          -6.681
REMARK INTER:                  -6.467
REMARK INTRA:                  -0.213
REMARK UNBOUND:                -0.213
REMARK SMILES CC(C)c1ccc(C(=O)[O-])cc1
REMARK SMILES IDX 7 1 6 2 11 3 5 4 12 5 4 6 8 7 9 8 10 9 2 10 1 11 3 12
REMARK H PARENT
REMARK Flexibility Score: inf
ROOT
ATOM      1  C   UNL     1      14.208 -32.481  21.980  1.00  0.00    -0.003 A 
ATOM      2  C   UNL     1      14.448 -32.152  23.325  1.00  0.00     0.010 A 
ATOM      3  C   UNL     1      13.306 -31.701  21.239  1.00  0.00     0.010 A 
ATOM      4  C   UNL     1      13.798 -31.065  23.916  1.00  0.00     0.004 A 
ATOM      5  C   UNL     1      12.656 -30.614  21.829  1.00  0.00     0.004 A 
ATOM      6  C   UNL     1      12.895 -30.283  23.174  1.00  0.00    -0.045 A 
ENDROOT
BRANCH   1   7
ATOM      7  C   UNL     1      14.894 -33.632  21.351  1.00  0.00     0.071 C 
ATOM      8  O   UNL     1      14.774 -33.852  20.116  1.00  0.00    -0.545 OA
ATOM      9  O   UNL     1      15.681 -34.487  22.113  1.00  0.00    -0.545 OA
ENDBRANCH   1   7
BRANCH   6  10
ATOM     10  C   UNL     1      12.182 -29.100  23.803  1.00  0.00     0.013 C 
ATOM     11  C   UNL     1      10.892 -28.765  23.045  1.00  0.00     0.012 C 
ATOM     12  C   UNL     1      13.106 -27.879  23.888  1.00  0.00     0.012 C 
ENDBRANCH   6  10
TORSDOF 2
ENDMDL
MODEL 2
REMARK VINA RESULT:    -5.644      0.572      1.762
REMARK INTER + INTRA:          -6.517
REMARK INTER:                  -6.306
REMARK INTRA:                  -0.211
REMARK UNBOUND:                -0.213
REMARK SMILES CC(C)c1ccc(C(=O)[O-])cc1
REMARK SMILES IDX 7 1 6 2 11 3 5 4 12 5 4 6 8 7 9 8 10 9 2 10 1 11 3 12
REMARK H PARENT
REMARK Flexibility Score: inf
ROOT
ATOM      1  C   UNL     1      14.547 -32.924  22.151  1.00  0.00    -0.003 A 
ATOM      2  C   UNL     1      13.810 -32.121  21.264  1.00  0.00     0.010 A 
ATOM      3  C   UNL     1      14.573 -32.585  23.514  1.00  0.00     0.010 A 
ATOM      4  C   UNL     1      13.114 -31.003  21.730  1.00  0.00     0.004 A 
ATOM      5  C   UNL     1      13.877 -31.466  23.980  1.00  0.00     0.004 A 
ATOM      6  C   UNL     1      13.139 -30.663  23.095  1.00  0.00    -0.045 A 
ENDROOT
BRANCH   1   7
ATOM      7  C   UNL     1      15.285 -34.109  21.662  1.00  0.00     0.071 C 
ATOM      8  O   UNL     1      16.075 -34.731  22.422  1.00  0.00    -0.545 OA
ATOM      9  O   UNL     1      15.118 -34.554  20.355  1.00  0.00    -0.545 OA
ENDBRANCH   1   7
BRANCH   6  10
ATOM     10  C   UNL     1      12.388 -29.451  23.614  1.00  0.00     0.013 C 
ATOM     11  C   UNL     1      11.136 -29.174  22.774  1.00  0.00     0.012 C 
ATOM     12  C   UNL     1      13.299 -28.219  23.672  1.00  0.00     0.012 C 
ENDBRANCH   6  10
TORSDOF 2
ENDMDL
MODEL 3
REMARK VINA RESULT:    -5.486      1.645      1.814
REMARK INTER + INTRA:          -6.341
REMARK INTER:                  -6.128
REMARK INTRA:                  -0.213
REMARK UNBOUND:                -0.213
REMARK SMILES CC(C)c1ccc(C(=O)[O-])cc1
REMARK SMILES IDX 7 1 6 2 11 3 5 4 12 5 4 6 8 7 9 8 10 9 2 10 1 11 3 12
REMARK H PARENT
REMARK Flexibility Score: inf
ROOT
ATOM      1  C   UNL     1      15.166 -31.334  22.094  1.00  0.00    -0.003 A 
ATOM      2  C   UNL     1      15.395 -29.949  22.038  1.00  0.00     0.010 A 
ATOM      3  C   UNL     1      14.072 -31.814  22.832  1.00  0.00     0.010 A 
ATOM      4  C   UNL     1      14.546 -29.061  22.705  1.00  0.00     0.004 A 
ATOM      5  C   UNL     1      13.223 -30.927  23.500  1.00  0.00     0.004 A 
ATOM      6  C   UNL     1      13.449 -29.541  23.444  1.00  0.00    -0.045 A 
ENDROOT
BRANCH   1   7
ATOM      7  C   UNL     1      16.062 -32.277  21.389  1.00  0.00     0.071 C 
ATOM      8  O   UNL     1      17.166 -31.886  20.926  1.00  0.00    -0.545 OA
ATOM      9  O   UNL     1      15.698 -33.609  21.229  1.00  0.00    -0.545 OA
ENDBRANCH   1   7
BRANCH   6  10
ATOM     10  C   UNL     1      12.520 -28.589  24.174  1.00  0.00     0.013 C 
ATOM     11  C   UNL     1      11.181 -28.452  23.439  1.00  0.00     0.012 C 
ATOM     12  C   UNL     1      13.180 -27.221  24.380  1.00  0.00     0.012 C 
ENDBRANCH   6  10
TORSDOF 2
ENDMDL
MODEL 4
REMARK VINA RESULT:    -5.412      2.780      5.268
REMARK INTER + INTRA:          -6.258
REMARK INTER:                  -6.040
REMARK INTRA:                  -0.219
REMARK UNBOUND:                -0.213
REMARK SMILES CC(C)c1ccc(C(=O)[O-])cc1
REMARK SMILES IDX 7 1 6 2 11 3 5 4 12 5 4 6 8 7 9 8 10 9 2 10 1 11 3 12
REMARK H PARENT
REMARK Flexibility Score: inf
ROOT
ATOM      1  C   UNL     1      13.152 -30.973  22.697  1.00  0.00    -0.003 A 
ATOM      2  C   UNL     1      13.180 -31.324  21.337  1.00  0.00     0.010 A 
ATOM      3  C   UNL     1      13.871 -31.755  23.617  1.00  0.00     0.010 A 
ATOM      4  C   UNL     1      13.912 -32.434  20.905  1.00  0.00     0.004 A 
ATOM      5  C   UNL     1      14.603 -32.865  23.186  1.00  0.00     0.004 A 
ATOM      6  C   UNL     1      14.633 -33.217  21.826  1.00  0.00    -0.045 A 
ENDROOT
BRANCH   1   7
ATOM      7  C   UNL     1      12.378 -29.800  23.159  1.00  0.00     0.071 C 
ATOM      8  O   UNL     1      11.353 -29.422  22.533  1.00  0.00    -0.545 OA
ATOM      9  O   UNL     1      12.773 -29.096  24.292  1.00  0.00    -0.545 OA
ENDBRANCH   1   7
BRANCH   6  10
ATOM     10  C   UNL     1      15.431 -34.424  21.371  1.00  0.00     0.013 C 
ATOM     11  C   UNL     1      16.704 -34.593  22.209  1.00  0.00     0.012 C 
ATOM     12  C   UNL     1      15.761 -34.339  19.876  1.00  0.00     0.012 C 
ENDBRANCH   6  10
TORSDOF 2
ENDMDL
MODEL 5
REMARK VINA RESULT:    -5.411      2.786      5.083
REMARK INTER + INTRA:          -6.257
REMARK INTER:                  -6.038
REMARK INTRA:                  -0.219
REMARK UNBOUND:                -0.213
REMARK SMILES CC(C)c1ccc(C(=O)[O-])cc1
REMARK SMILES IDX 7 1 6 2 11 3 5 4 12 5 4 6 8 7 9 8 10 9 2 10 1 11 3 12
REMARK H PARENT
REMARK Flexibility Score: inf
ROOT
ATOM      1  C   UNL     1      13.160 -30.950  22.736  1.00  0.00    -0.003 A 
ATOM      2  C   UNL     1      13.859 -31.734  23.670  1.00  0.00     0.010 A 
ATOM      3  C   UNL     1      13.200 -31.311  21.379  1.00  0.00     0.010 A 
ATOM      4  C   UNL     1      14.583 -32.855  23.255  1.00  0.00     0.004 A 
ATOM      5  C   UNL     1      13.924 -32.432  20.964  1.00  0.00     0.004 A 
ATOM      6  C   UNL     1      14.623 -33.217  21.896  1.00  0.00    -0.045 A 
ENDROOT
BRANCH   1   7
ATOM      7  C   UNL     1      12.393 -29.762  23.170  1.00  0.00     0.071 C 
ATOM      8  O   UNL     1      11.368 -29.395  22.537  1.00  0.00    -0.545 OA
ATOM      9  O   UNL     1      12.793 -29.034  24.285  1.00  0.00    -0.545 OA
ENDBRANCH   1   7
BRANCH   6  10
ATOM     10  C   UNL     1      15.405 -34.432  21.432  1.00  0.00     0.013 C 
ATOM     11  C   UNL     1      16.712 -34.582  22.220  1.00  0.00     0.012 C 
ATOM     12  C   UNL     1      15.673 -34.374  19.923  1.00  0.00     0.012 C 
ENDBRANCH   6  10
TORSDOF 2
ENDMDL
MODEL 6
REMARK VINA RESULT:    -5.139      3.482      5.127
REMARK INTER + INTRA:          -5.953
REMARK INTER:                  -5.753
REMARK INTRA:                  -0.200
REMARK UNBOUND:                -0.213
REMARK SMILES CC(C)c1ccc(C(=O)[O-])cc1
REMARK SMILES IDX 7 1 6 2 11 3 5 4 12 5 4 6 8 7 9 8 10 9 2 10 1 11 3 12
REMARK H PARENT
REMARK Flexibility Score: inf
ROOT
ATOM      1  C   UNL     1      13.217 -29.786  23.274  1.00  0.00    -0.003 A 
ATOM      2  C   UNL     1      14.369 -29.060  22.928  1.00  0.00     0.010 A 
ATOM      3  C   UNL     1      13.345 -31.138  23.630  1.00  0.00     0.010 A 
ATOM      4  C   UNL     1      15.625 -29.674  22.939  1.00  0.00     0.004 A 
ATOM      5  C   UNL     1      14.600 -31.753  23.641  1.00  0.00     0.004 A 
ATOM      6  C   UNL     1      15.754 -31.029  23.297  1.00  0.00    -0.045 A 
ENDROOT
BRANCH   1   7
ATOM      7  C   UNL     1      11.886 -29.139  23.263  1.00  0.00     0.071 C 
ATOM      8  O   UNL     1      11.604 -28.240  24.099  1.00  0.00    -0.545 OA
ATOM      9  O   UNL     1      10.927 -29.515  22.330  1.00  0.00    -0.545 OA
ENDBRANCH   1   7
BRANCH   6  10
ATOM     10  C   UNL     1      17.110 -31.709  23.313  1.00  0.00     0.013 C 
ATOM     11  C   UNL     1      17.969 -31.203  24.478  1.00  0.00     0.012 C 
ATOM     12  C   UNL     1      17.836 -31.529  21.974  1.00  0.00     0.012 C 
ENDBRANCH   6  10
TORSDOF 2
ENDMDL
MODEL 7
REMARK VINA RESULT:    -5.080      9.587     10.363
REMARK INTER + INTRA:          -5.887
REMARK INTER:                  -5.676
REMARK INTRA:                  -0.211
REMARK UNBOUND:                -0.213
REMARK SMILES CC(C)c1ccc(C(=O)[O-])cc1
REMARK SMILES IDX 7 1 6 2 11 3 5 4 12 5 4 6 8 7 9 8 10 9 2 10 1 11 3 12
REMARK H PARENT
REMARK Flexibility Score: inf
ROOT
ATOM      1  C   UNL     1      22.483 -25.840  20.326  1.00  0.00    -0.003 A 
ATOM      2  C   UNL     1      21.086 -25.804  20.185  1.00  0.00     0.010 A 
ATOM      3  C   UNL     1      23.087 -27.004  20.826  1.00  0.00     0.010 A 
ATOM      4  C   UNL     1      20.308 -26.911  20.536  1.00  0.00     0.004 A 
ATOM      5  C   UNL     1      22.311 -28.111  21.179  1.00  0.00     0.004 A 
ATOM      6  C   UNL     1      20.913 -28.079  21.037  1.00  0.00    -0.045 A 
ENDROOT
BRANCH   1   7
ATOM      7  C   UNL     1      23.310 -24.670  19.955  1.00  0.00     0.071 C 
ATOM      8  O   UNL     1      23.760 -24.549  18.785  1.00  0.00    -0.545 OA
ATOM      9  O   UNL     1      23.600 -23.686  20.893  1.00  0.00    -0.545 OA
ENDBRANCH   1   7
BRANCH   6  10
ATOM     10  C   UNL     1      20.082 -29.287  21.424  1.00  0.00     0.013 C 
ATOM     11  C   UNL     1      20.722 -30.585  20.915  1.00  0.00     0.012 C 
ATOM     12  C   UNL     1      18.639 -29.150  20.922  1.00  0.00     0.012 C 
ENDBRANCH   6  10
TORSDOF 2
ENDMDL
MODEL 8
REMARK VINA RESULT:    -5.062      3.521      5.329
REMARK INTER + INTRA:          -5.867
REMARK INTER:                  -5.650
REMARK INTRA:                  -0.217
REMARK UNBOUND:                -0.213
REMARK SMILES CC(C)c1ccc(C(=O)[O-])cc1
REMARK SMILES IDX 7 1 6 2 11 3 5 4 12 5 4 6 8 7 9 8 10 9 2 10 1 11 3 12
REMARK H PARENT
REMARK Flexibility Score: inf
ROOT
ATOM      1  C   UNL     1      13.512 -29.344  23.574  1.00  0.00    -0.003 A 
ATOM      2  C   UNL     1      14.696 -29.105  22.855  1.00  0.00     0.010 A 
ATOM      3  C   UNL     1      13.202 -30.659  23.957  1.00  0.00     0.010 A 
ATOM      4  C   UNL     1      15.552 -30.159  22.527  1.00  0.00     0.004 A 
ATOM      5  C   UNL     1      14.058 -31.714  23.628  1.00  0.00     0.004 A 
ATOM      6  C   UNL     1      15.242 -31.477  22.911  1.00  0.00    -0.045 A 
ENDROOT
BRANCH   1   7
ATOM      7  C   UNL     1      12.603 -28.230  23.923  1.00  0.00     0.071 C 
ATOM      8  O   UNL     1      11.354 -28.371  23.836  1.00  0.00    -0.545 OA
ATOM      9  O   UNL     1      13.114 -27.011  24.354  1.00  0.00    -0.545 OA
ENDBRANCH   1   7
BRANCH   6  10
ATOM     10  C   UNL     1      16.162 -32.632  22.561  1.00  0.00     0.013 C 
ATOM     11  C   UNL     1      16.935 -32.350  21.266  1.00  0.00     0.012 C 
ATOM     12  C   UNL     1      15.385 -33.950  22.464  1.00  0.00     0.012 C 
ENDBRANCH   6  10
TORSDOF 2
ENDMDL
MODEL 9
REMARK VINA RESULT:    -4.981      2.425      3.854
REMARK INTER + INTRA:          -5.776
REMARK INTER:                  -5.557
REMARK INTRA:                  -0.220
REMARK UNBOUND:                -0.213
REMARK SMILES CC(C)c1ccc(C(=O)[O-])cc1
REMARK SMILES IDX 7 1 6 2 11 3 5 4 12 5 4 6 8 7 9 8 10 9 2 10 1 11 3 12
REMARK H PARENT
REMARK Flexibility Score: inf
ROOT
ATOM      1  C   UNL     1      16.369 -35.142  20.921  1.00  0.00    -0.003 A 
ATOM      2  C   UNL     1      15.429 -34.494  20.101  1.00  0.00     0.010 A 
ATOM      3  C   UNL     1      16.479 -34.755  22.267  1.00  0.00     0.010 A 
ATOM      4  C   UNL     1      14.616 -33.481  20.617  1.00  0.00     0.004 A 
ATOM      5  C   UNL     1      15.667 -33.741  22.782  1.00  0.00     0.004 A 
ATOM      6  C   UNL     1      14.726 -33.093  21.965  1.00  0.00    -0.045 A 
ENDROOT
BRANCH   1   7
ATOM      7  C   UNL     1      17.231 -36.215  20.379  1.00  0.00     0.071 C 
ATOM      8  O   UNL     1      17.271 -36.441  19.141  1.00  0.00    -0.545 OA
ATOM      9  O   UNL     1      18.011 -36.990  21.231  1.00  0.00    -0.545 OA
ENDBRANCH   1   7
BRANCH   6  10
ATOM     10  C   UNL     1      13.850 -31.994  22.537  1.00  0.00     0.013 C 
ATOM     11  C   UNL     1      13.033 -31.307  21.436  1.00  0.00     0.012 C 
ATOM     12  C   UNL     1      14.684 -30.975  23.323  1.00  0.00     0.012 C 
ENDBRANCH   6  10
TORSDOF 2
ENDMDL
