MODEL 1
REMARK VINA RESULT:    -3.964      0.000      0.000
REMARK INTER + INTRA:          -5.644
REMARK INTER:                  -5.354
REMARK INTRA:                  -0.290
REMARK UNBOUND:                -0.290
REMARK SMILES CCCCCCC=CC(=O)[O-]
REMARK SMILES IDX 5 1 6 2 7 3 8 4 9 5 10 6 11 7 4 8 3 9 2 10 1 11
REMARK H PARENT
REMARK Flexibility Score: inf
ROOT
ATOM      1  C   UNL     1     212.251 208.305 201.451  1.00  0.00     0.004 C 
ENDROOT
BRANCH   1   2
ATOM      2  C   UNL     1     211.192 207.217 201.675  1.00  0.00     0.027 C 
BRANCH   2   3
ATOM      3  C   UNL     1     211.055 206.323 200.474  1.00  0.00    -0.025 C 
ATOM      4  C   UNL     1     211.074 206.813 199.230  1.00  0.00     0.020 C 
BRANCH   4   5
ATOM      5  C   UNL     1     210.977 205.944 198.049  1.00  0.00     0.064 C 
ATOM      6  O   UNL     1     211.776 204.979 197.920  1.00  0.00    -0.545 OA
ATOM      7  O   UNL     1     210.017 206.170 197.069  1.00  0.00    -0.545 OA
ENDBRANCH   4   5
ENDBRANCH   2   3
ENDBRANCH   1   2
BRANCH   1   8
ATOM      8  C   UNL     1     212.692 208.967 202.769  1.00  0.00     0.000 C 
BRANCH   8   9
ATOM      9  C   UNL     1     214.183 209.366 202.750  1.00  0.00    -0.000 C 
BRANCH   9  10
ATOM     10  C   UNL     1     215.004 208.731 203.884  1.00  0.00    -0.003 C 
ATOM     11  C   UNL     1     214.219 207.694 204.684  1.00  0.00     0.004 C 
ENDBRANCH   9  10
ENDBRANCH   8   9
ENDBRANCH   1   8
TORSDOF 6
ENDMDL
MODEL 2
REMARK VINA RESULT:    -3.904     13.326     15.051
REMARK INTER + INTRA:          -5.563
REMARK INTER:                  -4.861
REMARK INTRA:                  -0.702
REMARK UNBOUND:                -0.290
REMARK SMILES CCCCCCC=CC(=O)[O-]
REMARK SMILES IDX 5 1 6 2 7 3 8 4 9 5 10 6 11 7 4 8 3 9 2 10 1 11
REMARK H PARENT
REMARK Flexibility Score: inf
ROOT
ATOM      1  C   UNL     1     199.614 206.175 190.233  1.00  0.00     0.004 C 
ENDROOT
BRANCH   1   2
ATOM      2  C   UNL     1     200.606 205.390 189.364  1.00  0.00     0.027 C 
BRANCH   2   3
ATOM      3  C   UNL     1     201.966 206.030 189.363  1.00  0.00    -0.025 C 
ATOM      4  C   UNL     1     203.007 205.465 189.983  1.00  0.00     0.020 C 
BRANCH   4   5
ATOM      5  C   UNL     1     204.349 206.064 189.957  1.00  0.00     0.064 C 
ATOM      6  O   UNL     1     204.566 207.128 190.596  1.00  0.00    -0.545 OA
ATOM      7  O   UNL     1     205.384 205.477 189.239  1.00  0.00    -0.545 OA
ENDBRANCH   4   5
ENDBRANCH   2   3
ENDBRANCH   1   2
BRANCH   1   8
ATOM      8  C   UNL     1     199.052 205.325 191.386  1.00  0.00     0.000 C 
BRANCH   8   9
ATOM      9  C   UNL     1     200.025 205.251 192.582  1.00  0.00    -0.000 C 
BRANCH   9  10
ATOM     10  C   UNL     1     200.284 206.612 193.249  1.00  0.00    -0.003 C 
ATOM     11  C   UNL     1     201.738 207.065 193.141  1.00  0.00     0.004 C 
ENDBRANCH   9  10
ENDBRANCH   8   9
ENDBRANCH   1   8
TORSDOF 6
ENDMDL
MODEL 3
REMARK VINA RESULT:    -3.799     12.588     15.121
REMARK INTER + INTRA:          -5.421
REMARK INTER:                  -4.737
REMARK INTRA:                  -0.684
REMARK UNBOUND:                -0.290
REMARK SMILES CCCCCCC=CC(=O)[O-]
REMARK SMILES IDX 5 1 6 2 7 3 8 4 9 5 10 6 11 7 4 8 3 9 2 10 1 11
REMARK H PARENT
REMARK Flexibility Score: inf
ROOT
ATOM      1  C   UNL     1     200.174 205.776 189.153  1.00  0.00     0.004 C 
ENDROOT
BRANCH   1   2
ATOM      2  C   UNL     1     201.545 205.150 189.446  1.00  0.00     0.027 C 
BRANCH   2   3
ATOM      3  C   UNL     1     202.503 206.160 190.015  1.00  0.00    -0.025 C 
ATOM      4  C   UNL     1     203.083 205.981 191.206  1.00  0.00     0.020 C 
BRANCH   4   5
ATOM      5  C   UNL     1     204.048 206.945 191.755  1.00  0.00     0.064 C 
ATOM      6  O   UNL     1     204.111 207.120 193.000  1.00  0.00    -0.545 OA
ATOM      7  O   UNL     1     204.893 207.667 190.922  1.00  0.00    -0.545 OA
ENDBRANCH   4   5
ENDBRANCH   2   3
ENDBRANCH   1   2
BRANCH   1   8
ATOM      8  C   UNL     1     199.533 206.385 190.413  1.00  0.00     0.000 C 
BRANCH   8   9
ATOM      9  C   UNL     1     198.979 205.304 191.365  1.00  0.00    -0.000 C 
BRANCH   9  10
ATOM     10  C   UNL     1     199.746 205.203 192.694  1.00  0.00    -0.003 C 
ATOM     11  C   UNL     1     200.107 206.565 193.282  1.00  0.00     0.004 C 
ENDBRANCH   9  10
ENDBRANCH   8   9
ENDBRANCH   1   8
TORSDOF 6
ENDMDL
MODEL 4
REMARK VINA RESULT:    -3.793     12.733     15.488
REMARK INTER + INTRA:          -5.413
REMARK INTER:                  -4.875
REMARK INTRA:                  -0.538
REMARK UNBOUND:                -0.290
REMARK SMILES CCCCCCC=CC(=O)[O-]
REMARK SMILES IDX 5 1 6 2 7 3 8 4 9 5 10 6 11 7 4 8 3 9 2 10 1 11
REMARK H PARENT
REMARK Flexibility Score: inf
ROOT
ATOM      1  C   UNL     1     198.930 205.393 191.080  1.00  0.00     0.004 C 
ENDROOT
BRANCH   1   2
ATOM      2  C   UNL     1     199.497 205.221 192.495  1.00  0.00     0.027 C 
BRANCH   2   3
ATOM      3  C   UNL     1     200.658 206.144 192.742  1.00  0.00    -0.025 C 
ATOM      4  C   UNL     1     200.677 206.983 193.782  1.00  0.00     0.020 C 
BRANCH   4   5
ATOM      5  C   UNL     1     201.822 207.864 194.052  1.00  0.00     0.064 C 
ATOM      6  O   UNL     1     202.200 208.681 193.171  1.00  0.00    -0.545 OA
ATOM      7  O   UNL     1     202.497 207.811 195.266  1.00  0.00    -0.545 OA
ENDBRANCH   4   5
ENDBRANCH   2   3
ENDBRANCH   1   2
BRANCH   1   8
ATOM      8  C   UNL     1     199.661 206.495 190.291  1.00  0.00     0.000 C 
BRANCH   8   9
ATOM      9  C   UNL     1     200.137 206.003 188.908  1.00  0.00    -0.000 C 
BRANCH   9  10
ATOM     10  C   UNL     1     201.330 205.035 188.977  1.00  0.00    -0.003 C 
ATOM     11  C   UNL     1     202.549 205.636 189.673  1.00  0.00     0.004 C 
ENDBRANCH   9  10
ENDBRANCH   8   9
ENDBRANCH   1   8
TORSDOF 6
ENDMDL
MODEL 5
REMARK VINA RESULT:    -3.752     13.878     15.797
REMARK INTER + INTRA:          -5.358
REMARK INTER:                  -4.641
REMARK INTRA:                  -0.717
REMARK UNBOUND:                -0.290
REMARK SMILES CCCCCCC=CC(=O)[O-]
REMARK SMILES IDX 5 1 6 2 7 3 8 4 9 5 10 6 11 7 4 8 3 9 2 10 1 11
REMARK H PARENT
REMARK Flexibility Score: inf
ROOT
ATOM      1  C   UNL     1     201.766 205.039 189.735  1.00  0.00     0.004 C 
ENDROOT
BRANCH   1   2
ATOM      2  C   UNL     1     200.615 205.585 188.880  1.00  0.00     0.027 C 
BRANCH   2   3
ATOM      3  C   UNL     1     199.529 206.182 189.731  1.00  0.00    -0.025 C 
ATOM      4  C   UNL     1     199.137 205.606 190.872  1.00  0.00     0.020 C 
BRANCH   4   5
ATOM      5  C   UNL     1     198.101 206.201 191.729  1.00  0.00     0.064 C 
ATOM      6  O   UNL     1     196.888 206.073 191.418  1.00  0.00    -0.545 OA
ATOM      7  O   UNL     1     198.440 206.903 192.880  1.00  0.00    -0.545 OA
ENDBRANCH   4   5
ENDBRANCH   2   3
ENDBRANCH   1   2
BRANCH   1   8
ATOM      8  C   UNL     1     203.039 205.894 189.610  1.00  0.00     0.000 C 
BRANCH   8   9
ATOM      9  C   UNL     1     203.527 206.415 190.979  1.00  0.00    -0.000 C 
BRANCH   9  10
ATOM     10  C   UNL     1     202.667 205.939 192.161  1.00  0.00    -0.003 C 
ATOM     11  C   UNL     1     201.963 207.082 192.888  1.00  0.00     0.004 C 
ENDBRANCH   9  10
ENDBRANCH   8   9
ENDBRANCH   1   8
TORSDOF 6
ENDMDL
MODEL 6
REMARK VINA RESULT:    -3.682     14.210     15.626
REMARK INTER + INTRA:          -5.263
REMARK INTER:                  -4.983
REMARK INTRA:                  -0.280
REMARK UNBOUND:                -0.290
REMARK SMILES CCCCCCC=CC(=O)[O-]
REMARK SMILES IDX 5 1 6 2 7 3 8 4 9 5 10 6 11 7 4 8 3 9 2 10 1 11
REMARK H PARENT
REMARK Flexibility Score: inf
ROOT
ATOM      1  C   UNL     1     200.972 205.792 192.154  1.00  0.00     0.004 C 
ENDROOT
BRANCH   1   2
ATOM      2  C   UNL     1     201.399 205.528 190.704  1.00  0.00     0.027 C 
BRANCH   2   3
ATOM      3  C   UNL     1     202.875 205.740 190.515  1.00  0.00    -0.025 C 
ATOM      4  C   UNL     1     203.388 206.080 189.329  1.00  0.00     0.020 C 
BRANCH   4   5
ATOM      5  C   UNL     1     204.826 206.325 189.142  1.00  0.00     0.064 C 
ATOM      6  O   UNL     1     205.635 205.364 189.222  1.00  0.00    -0.545 OA
ATOM      7  O   UNL     1     205.308 207.601 188.879  1.00  0.00    -0.545 OA
ENDBRANCH   4   5
ENDBRANCH   2   3
ENDBRANCH   1   2
BRANCH   1   8
ATOM      8  C   UNL     1     199.536 205.314 192.434  1.00  0.00     0.000 C 
BRANCH   8   9
ATOM      9  C   UNL     1     198.655 205.348 191.167  1.00  0.00    -0.000 C 
BRANCH   9  10
ATOM     10  C   UNL     1     197.608 206.474 191.175  1.00  0.00    -0.003 C 
ATOM     11  C   UNL     1     196.950 206.670 192.539  1.00  0.00     0.004 C 
ENDBRANCH   9  10
ENDBRANCH   8   9
ENDBRANCH   1   8
TORSDOF 6
ENDMDL
MODEL 7
REMARK VINA RESULT:    -3.665      6.427      9.121
REMARK INTER + INTRA:          -5.240
REMARK INTER:                  -4.589
REMARK INTRA:                  -0.651
REMARK UNBOUND:                -0.290
REMARK SMILES CCCCCCC=CC(=O)[O-]
REMARK SMILES IDX 5 1 6 2 7 3 8 4 9 5 10 6 11 7 4 8 3 9 2 10 1 11
REMARK H PARENT
REMARK Flexibility Score: inf
ROOT
ATOM      1  C   UNL     1     215.510 205.358 193.659  1.00  0.00     0.004 C 
ENDROOT
BRANCH   1   2
ATOM      2  C   UNL     1     215.490 203.841 193.891  1.00  0.00     0.027 C 
BRANCH   2   3
ATOM      3  C   UNL     1     214.799 203.489 195.179  1.00  0.00    -0.025 C 
ATOM      4  C   UNL     1     213.571 203.936 195.461  1.00  0.00     0.020 C 
BRANCH   4   5
ATOM      5  C   UNL     1     212.873 203.569 196.701  1.00  0.00     0.064 C 
ATOM      6  O   UNL     1     212.131 204.411 197.270  1.00  0.00    -0.545 OA
ATOM      7  O   UNL     1     213.019 202.303 197.258  1.00  0.00    -0.545 OA
ENDBRANCH   4   5
ENDBRANCH   2   3
ENDBRANCH   1   2
BRANCH   1   8
ATOM      8  C   UNL     1     214.862 205.750 192.319  1.00  0.00     0.000 C 
BRANCH   8   9
ATOM      9  C   UNL     1     214.298 204.526 191.565  1.00  0.00    -0.000 C 
BRANCH   9  10
ATOM     10  C   UNL     1     212.824 204.681 191.156  1.00  0.00    -0.003 C 
ATOM     11  C   UNL     1     211.853 204.144 192.204  1.00  0.00     0.004 C 
ENDBRANCH   9  10
ENDBRANCH   8   9
ENDBRANCH   1   8
TORSDOF 6
ENDMDL
MODEL 8
REMARK VINA RESULT:    -3.645     14.763     16.428
REMARK INTER + INTRA:          -5.214
REMARK INTER:                  -4.495
REMARK INTRA:                  -0.719
REMARK UNBOUND:                -0.290
REMARK SMILES CCCCCCC=CC(=O)[O-]
REMARK SMILES IDX 5 1 6 2 7 3 8 4 9 5 10 6 11 7 4 8 3 9 2 10 1 11
REMARK H PARENT
REMARK Flexibility Score: inf
ROOT
ATOM      1  C   UNL     1     198.508 205.377 191.200  1.00  0.00     0.004 C 
ENDROOT
BRANCH   1   2
ATOM      2  C   UNL     1     199.566 205.337 192.312  1.00  0.00     0.027 C 
BRANCH   2   3
ATOM      3  C   UNL     1     200.930 205.694 191.789  1.00  0.00    -0.025 C 
ATOM      4  C   UNL     1     201.233 205.588 190.492  1.00  0.00     0.020 C 
BRANCH   4   5
ATOM      5  C   UNL     1     202.552 205.968 189.966  1.00  0.00     0.064 C 
ATOM      6  O   UNL     1     202.654 206.965 189.205  1.00  0.00    -0.545 OA
ATOM      7  O   UNL     1     203.691 205.242 190.295  1.00  0.00    -0.545 OA
ENDBRANCH   4   5
ENDBRANCH   2   3
ENDBRANCH   1   2
BRANCH   1   8
ATOM      8  C   UNL     1     197.258 206.173 191.615  1.00  0.00     0.000 C 
BRANCH   8   9
ATOM      9  C   UNL     1     197.298 207.628 191.102  1.00  0.00    -0.000 C 
BRANCH   9  10
ATOM     10  C   UNL     1     198.270 207.841 189.930  1.00  0.00    -0.003 C 
ATOM     11  C   UNL     1     199.367 208.858 190.239  1.00  0.00     0.004 C 
ENDBRANCH   9  10
ENDBRANCH   8   9
ENDBRANCH   1   8
TORSDOF 6
ENDMDL
MODEL 9
REMARK VINA RESULT:    -3.603     13.255     15.478
REMARK INTER + INTRA:          -5.156
REMARK INTER:                  -4.390
REMARK INTRA:                  -0.766
REMARK UNBOUND:                -0.290
REMARK SMILES CCCCCCC=CC(=O)[O-]
REMARK SMILES IDX 5 1 6 2 7 3 8 4 9 5 10 6 11 7 4 8 3 9 2 10 1 11
REMARK H PARENT
REMARK Flexibility Score: inf
ROOT
ATOM      1  C   UNL     1     202.434 206.088 189.488  1.00  0.00     0.004 C 
ENDROOT
BRANCH   1   2
ATOM      2  C   UNL     1     203.180 205.557 190.720  1.00  0.00     0.027 C 
BRANCH   2   3
ATOM      3  C   UNL     1     202.440 205.871 191.991  1.00  0.00    -0.025 C 
ATOM      4  C   UNL     1     202.248 207.130 192.397  1.00  0.00     0.020 C 
BRANCH   4   5
ATOM      5  C   UNL     1     201.495 207.448 193.620  1.00  0.00     0.064 C 
ATOM      6  O   UNL     1     200.329 206.998 193.766  1.00  0.00    -0.545 OA
ATOM      7  O   UNL     1     202.052 208.239 194.618  1.00  0.00    -0.545 OA
ENDBRANCH   4   5
ENDBRANCH   2   3
ENDBRANCH   1   2
BRANCH   1   8
ATOM      8  C   UNL     1     201.092 205.369 189.265  1.00  0.00     0.000 C 
BRANCH   8   9
ATOM      9  C   UNL     1     199.928 206.360 189.055  1.00  0.00    -0.000 C 
BRANCH   9  10
ATOM     10  C   UNL     1     199.129 206.651 190.336  1.00  0.00    -0.003 C 
ATOM     11  C   UNL     1     198.828 205.396 191.152  1.00  0.00     0.004 C 
ENDBRANCH   9  10
ENDBRANCH   8   9
ENDBRANCH   1   8
TORSDOF 6
ENDMDL
