MODEL 1
REMARK VINA RESULT:    -0.826      0.000      0.000
REMARK INTER + INTRA:          -1.843
REMARK INTER:                  -1.310
REMARK INTRA:                  -0.533
REMARK UNBOUND:                -0.533
REMARK SMILES CCCCCCCCCCCC(=O)[O-]
REMARK SMILES IDX 7 1 8 2 9 3 10 4 11 5 12 6 13 7 14 8 6 9 5 10 4 11 3 12 2 13
REMARK SMILES IDX 1 14
REMARK H PARENT
REMARK Flexibility Score: inf
ROOT
ATOM      1  C   UNL     1      19.711  22.464  48.125  1.00  0.00     0.000 C 
ENDROOT
BRANCH   1   2
ATOM      2  C   UNL     1      19.200  23.918  48.041  1.00  0.00     0.000 C 
BRANCH   2   3
ATOM      3  C   UNL     1      17.683  24.023  47.791  1.00  0.00     0.000 C 
BRANCH   3   4
ATOM      4  C   UNL     1      17.304  25.067  46.723  1.00  0.00     0.006 C 
BRANCH   4   5
ATOM      5  C   UNL     1      16.875  24.421  45.398  1.00  0.00     0.053 C 
BRANCH   5   6
ATOM      6  C   UNL     1      17.914  24.650  44.346  1.00  0.00     0.041 C 
ATOM      7  O   UNL     1      17.573  24.994  43.184  1.00  0.00    -0.550 OA
ATOM      8  O   UNL     1      19.261  24.533  44.662  1.00  0.00    -0.550 OA
ENDBRANCH   5   6
ENDBRANCH   4   5
ENDBRANCH   3   4
ENDBRANCH   2   3
ENDBRANCH   1   2
BRANCH   1   9
ATOM      9  C   UNL     1      21.186  22.287  47.715  1.00  0.00     0.000 C 
BRANCH   9  10
ATOM     10  C   UNL     1      21.402  22.113  46.198  1.00  0.00    -0.000 C 
BRANCH  10  11
ATOM     11  C   UNL     1      22.534  23.005  45.659  1.00  0.00    -0.000 C 
BRANCH  11  12
ATOM     12  C   UNL     1      23.928  22.486  46.040  1.00  0.00    -0.000 C 
BRANCH  12  13
ATOM     13  C   UNL     1      25.020  23.556  45.889  1.00  0.00    -0.003 C 
ATOM     14  C   UNL     1      26.396  22.989  46.225  1.00  0.00     0.004 C 
ENDBRANCH  12  13
ENDBRANCH  11  12
ENDBRANCH  10  11
ENDBRANCH   9  10
ENDBRANCH   1   9
TORSDOF 10
ENDMDL
MODEL 2
REMARK VINA RESULT:    -0.393      0.979      1.790
REMARK INTER + INTRA:          -1.155
REMARK INTER:                  -0.649
REMARK INTRA:                  -0.506
REMARK UNBOUND:                -0.533
REMARK SMILES CCCCCCCCCCCC(=O)[O-]
REMARK SMILES IDX 7 1 8 2 9 3 10 4 11 5 12 6 13 7 14 8 6 9 5 10 4 11 3 12 2 13
REMARK SMILES IDX 1 14
REMARK H PARENT
REMARK Flexibility Score: inf
ROOT
ATOM      1  C   UNL     1      21.057  21.893  46.802  1.00  0.00     0.000 C 
ENDROOT
BRANCH   1   2
ATOM      2  C   UNL     1      20.695  22.775  48.017  1.00  0.00     0.000 C 
BRANCH   2   3
ATOM      3  C   UNL     1      19.189  23.083  48.125  1.00  0.00     0.000 C 
BRANCH   3   4
ATOM      4  C   UNL     1      18.795  24.450  47.534  1.00  0.00     0.006 C 
BRANCH   4   5
ATOM      5  C   UNL     1      17.634  24.346  46.536  1.00  0.00     0.053 C 
BRANCH   5   6
ATOM      6  C   UNL     1      18.140  24.464  45.133  1.00  0.00     0.041 C 
ATOM      7  O   UNL     1      17.345  24.356  44.162  1.00  0.00    -0.550 OA
ATOM      8  O   UNL     1      19.480  24.743  44.898  1.00  0.00    -0.550 OA
ENDBRANCH   5   6
ENDBRANCH   4   5
ENDBRANCH   3   4
ENDBRANCH   2   3
ENDBRANCH   1   2
BRANCH   1   9
ATOM      9  C   UNL     1      22.141  22.495  45.886  1.00  0.00     0.000 C 
BRANCH   9  10
ATOM     10  C   UNL     1      23.447  22.868  46.616  1.00  0.00    -0.000 C 
BRANCH  10  11
ATOM     11  C   UNL     1      24.578  23.247  45.644  1.00  0.00    -0.000 C 
BRANCH  11  12
ATOM     12  C   UNL     1      25.973  23.037  46.250  1.00  0.00    -0.000 C 
BRANCH  12  13
ATOM     13  C   UNL     1      26.993  24.077  45.764  1.00  0.00    -0.003 C 
ATOM     14  C   UNL     1      28.404  23.719  46.221  1.00  0.00     0.004 C 
ENDBRANCH  12  13
ENDBRANCH  11  12
ENDBRANCH  10  11
ENDBRANCH   9  10
ENDBRANCH   1   9
TORSDOF 10
ENDMDL
