MODEL 1
REMARK VINA RESULT:    -3.009      0.000      0.000
REMARK INTER + INTRA:          -4.198
REMARK INTER:                  -3.800
REMARK INTRA:                  -0.398
REMARK UNBOUND:                -0.398
REMARK SMILES CCCCC[C@@H](C)O
REMARK SMILES IDX 4 1 3 2 2 3 1 4 5 5 6 6 7 7 8 8
REMARK H PARENT 8 9
REMARK Flexibility Score: inf
ROOT
ATOM      1  C   UNL     1     140.679 148.491 139.461  1.00  0.00     0.003 C 
ENDROOT
BRANCH   1   2
ATOM      2  C   UNL     1     140.508 149.112 140.854  1.00  0.00    -0.000 C 
BRANCH   2   3
ATOM      3  C   UNL     1     141.315 150.409 140.981  1.00  0.00    -0.003 C 
ATOM      4  C   UNL     1     142.461 150.249 141.976  1.00  0.00     0.004 C 
ENDBRANCH   2   3
ENDBRANCH   1   2
BRANCH   1   5
ATOM      5  C   UNL     1     141.493 147.188 139.540  1.00  0.00     0.031 C 
BRANCH   5   6
ATOM      6  C   UNL     1     143.011 147.376 139.327  1.00  0.00     0.111 C 
ATOM      7  C   UNL     1     143.352 148.589 138.446  1.00  0.00     0.038 C 
BRANCH   6   8
ATOM      8  O   UNL     1     143.700 147.417 140.553  1.00  0.00    -0.393 OA
ATOM      9  H   UNL     1     144.671 147.351 140.364  1.00  0.00     0.210 HD
ENDBRANCH   6   8
ENDBRANCH   5   6
ENDBRANCH   1   5
TORSDOF 5
ENDMDL
MODEL 2
REMARK VINA RESULT:    -2.961     10.290     11.371
REMARK INTER + INTRA:          -4.139
REMARK INTER:                  -3.744
REMARK INTRA:                  -0.395
REMARK UNBOUND:                -0.398
REMARK SMILES CCCCC[C@@H](C)O
REMARK SMILES IDX 4 1 3 2 2 3 1 4 5 5 6 6 7 7 8 8
REMARK H PARENT 8 9
REMARK Flexibility Score: inf
ROOT
ATOM      1  C   UNL     1     133.151 140.738 139.359  1.00  0.00     0.003 C 
ENDROOT
BRANCH   1   2
ATOM      2  C   UNL     1     132.478 140.541 140.724  1.00  0.00    -0.000 C 
BRANCH   2   3
ATOM      3  C   UNL     1     131.203 141.384 140.836  1.00  0.00    -0.003 C 
ATOM      4  C   UNL     1     131.358 142.478 141.889  1.00  0.00     0.004 C 
ENDBRANCH   2   3
ENDBRANCH   1   2
BRANCH   1   5
ATOM      5  C   UNL     1     134.449 141.551 139.502  1.00  0.00     0.031 C 
BRANCH   5   6
ATOM      6  C   UNL     1     134.272 143.070 139.286  1.00  0.00     0.111 C 
ATOM      7  C   UNL     1     133.092 143.416 138.363  1.00  0.00     0.038 C 
BRANCH   6   8
ATOM      8  O   UNL     1     134.189 143.755 140.512  1.00  0.00    -0.393 OA
ATOM      9  H   UNL     1     135.007 143.553 141.034  1.00  0.00     0.210 HD
ENDBRANCH   6   8
ENDBRANCH   5   6
ENDBRANCH   1   5
TORSDOF 5
ENDMDL
MODEL 3
REMARK VINA RESULT:    -2.944     10.348     11.363
REMARK INTER + INTRA:          -4.116
REMARK INTER:                  -3.705
REMARK INTRA:                  -0.412
REMARK UNBOUND:                -0.398
REMARK SMILES CCCCC[C@@H](C)O
REMARK SMILES IDX 4 1 3 2 2 3 1 4 5 5 6 6 7 7 8 8
REMARK H PARENT 8 9
REMARK Flexibility Score: inf
ROOT
ATOM      1  C   UNL     1     148.521 140.745 139.298  1.00  0.00     0.003 C 
ENDROOT
BRANCH   1   2
ATOM      2  C   UNL     1     148.880 141.343 140.665  1.00  0.00    -0.000 C 
BRANCH   2   3
ATOM      3  C   UNL     1     149.981 140.526 141.351  1.00  0.00    -0.003 C 
ATOM      4  C   UNL     1     150.852 139.807 140.325  1.00  0.00     0.004 C 
ENDBRANCH   2   3
ENDBRANCH   1   2
BRANCH   1   5
ATOM      5  C   UNL     1     147.185 139.985 139.368  1.00  0.00     0.031 C 
BRANCH   5   6
ATOM      6  C   UNL     1     147.326 138.449 139.300  1.00  0.00     0.111 C 
ATOM      7  C   UNL     1     148.342 137.981 138.245  1.00  0.00     0.038 C 
BRANCH   6   8
ATOM      8  O   UNL     1     147.605 137.903 140.565  1.00  0.00    -0.393 OA
ATOM      9  H   UNL     1     146.891 137.249 140.784  1.00  0.00     0.210 HD
ENDBRANCH   6   8
ENDBRANCH   5   6
ENDBRANCH   1   5
TORSDOF 5
ENDMDL
MODEL 4
REMARK VINA RESULT:    -2.695      1.049      1.820
REMARK INTER + INTRA:          -3.803
REMARK INTER:                  -3.570
REMARK INTRA:                  -0.233
REMARK UNBOUND:                -0.398
REMARK SMILES CCCCC[C@@H](C)O
REMARK SMILES IDX 4 1 3 2 2 3 1 4 5 5 6 6 7 7 8 8
REMARK H PARENT 8 9
REMARK Flexibility Score: inf
ROOT
ATOM      1  C   UNL     1     141.864 149.938 139.105  1.00  0.00     0.003 C 
ENDROOT
BRANCH   1   2
ATOM      2  C   UNL     1     142.041 150.880 140.303  1.00  0.00    -0.000 C 
BRANCH   2   3
ATOM      3  C   UNL     1     141.583 150.208 141.603  1.00  0.00    -0.003 C 
ATOM      4  C   UNL     1     140.236 149.515 141.418  1.00  0.00     0.004 C 
ENDBRANCH   2   3
ENDBRANCH   1   2
BRANCH   1   5
ATOM      5  C   UNL     1     143.139 149.111 138.866  1.00  0.00     0.031 C 
BRANCH   5   6
ATOM      6  C   UNL     1     143.040 147.644 139.336  1.00  0.00     0.111 C 
ATOM      7  C   UNL     1     143.484 146.635 138.265  1.00  0.00     0.038 C 
BRANCH   6   8
ATOM      8  O   UNL     1     143.724 147.446 140.549  1.00  0.00    -0.393 OA
ATOM      9  H   UNL     1     144.687 147.622 140.392  1.00  0.00     0.210 HD
ENDBRANCH   6   8
ENDBRANCH   5   6
ENDBRANCH   1   5
TORSDOF 5
ENDMDL
MODEL 5
REMARK VINA RESULT:    -2.617      9.622     10.665
REMARK INTER + INTRA:          -3.704
REMARK INTER:                  -3.484
REMARK INTRA:                  -0.220
REMARK UNBOUND:                -0.398
REMARK SMILES CCCCC[C@@H](C)O
REMARK SMILES IDX 4 1 3 2 2 3 1 4 5 5 6 6 7 7 8 8
REMARK H PARENT 8 9
REMARK Flexibility Score: inf
ROOT
ATOM      1  C   UNL     1     148.496 140.344 138.652  1.00  0.00     0.003 C 
ENDROOT
BRANCH   1   2
ATOM      2  C   UNL     1     147.059 139.905 138.339  1.00  0.00    -0.000 C 
BRANCH   2   3
ATOM      3  C   UNL     1     146.419 139.217 139.550  1.00  0.00    -0.003 C 
ATOM      4  C   UNL     1     144.978 139.680 139.747  1.00  0.00     0.004 C 
ENDBRANCH   2   3
ENDBRANCH   1   2
BRANCH   1   5
ATOM      5  C   UNL     1     148.523 141.314 139.846  1.00  0.00     0.031 C 
BRANCH   5   6
ATOM      6  C   UNL     1     149.463 140.882 140.993  1.00  0.00     0.111 C 
ATOM      7  C   UNL     1     150.612 139.975 140.523  1.00  0.00     0.038 C 
BRANCH   6   8
ATOM      8  O   UNL     1     149.940 141.993 141.711  1.00  0.00    -0.393 OA
ATOM      9  H   UNL     1     150.388 142.605 141.071  1.00  0.00     0.210 HD
ENDBRANCH   6   8
ENDBRANCH   5   6
ENDBRANCH   1   5
TORSDOF 5
ENDMDL
MODEL 6
REMARK VINA RESULT:    -2.569     10.842     11.994
REMARK INTER + INTRA:          -3.643
REMARK INTER:                  -3.405
REMARK INTRA:                  -0.238
REMARK UNBOUND:                -0.398
REMARK SMILES CCCCC[C@@H](C)O
REMARK SMILES IDX 4 1 3 2 2 3 1 4 5 5 6 6 7 7 8 8
REMARK H PARENT 8 9
REMARK Flexibility Score: inf
ROOT
ATOM      1  C   UNL     1     150.114 138.300 139.102  1.00  0.00     0.003 C 
ENDROOT
BRANCH   1   2
ATOM      2  C   UNL     1     150.419 139.766 139.436  1.00  0.00    -0.000 C 
BRANCH   2   3
ATOM      3  C   UNL     1     150.633 139.954 140.943  1.00  0.00    -0.003 C 
ATOM      4  C   UNL     1     149.808 141.122 141.474  1.00  0.00     0.004 C 
ENDBRANCH   2   3
ENDBRANCH   1   2
BRANCH   1   5
ATOM      5  C   UNL     1     148.685 138.149 138.555  1.00  0.00     0.031 C 
BRANCH   5   6
ATOM      6  C   UNL     1     147.588 138.710 139.487  1.00  0.00     0.111 C 
ATOM      7  C   UNL     1     146.240 138.916 138.778  1.00  0.00     0.038 C 
BRANCH   6   8
ATOM      8  O   UNL     1     147.449 137.925 140.646  1.00  0.00    -0.393 OA
ATOM      9  H   UNL     1     146.792 138.369 141.242  1.00  0.00     0.210 HD
ENDBRANCH   6   8
ENDBRANCH   5   6
ENDBRANCH   1   5
TORSDOF 5
ENDMDL
MODEL 7
REMARK VINA RESULT:    -2.534      2.407      3.978
REMARK INTER + INTRA:          -3.598
REMARK INTER:                  -3.348
REMARK INTRA:                  -0.250
REMARK UNBOUND:                -0.398
REMARK SMILES CCCCC[C@@H](C)O
REMARK SMILES IDX 4 1 3 2 2 3 1 4 5 5 6 6 7 7 8 8
REMARK H PARENT 8 9
REMARK Flexibility Score: inf
ROOT
ATOM      1  C   UNL     1     141.503 147.633 139.427  1.00  0.00     0.003 C 
ENDROOT
BRANCH   1   2
ATOM      2  C   UNL     1     141.488 147.550 137.894  1.00  0.00    -0.000 C 
BRANCH   2   3
ATOM      3  C   UNL     1     140.933 148.839 137.279  1.00  0.00    -0.003 C 
ATOM      4  C   UNL     1     140.309 148.572 135.912  1.00  0.00     0.004 C 
ENDBRANCH   2   3
ENDBRANCH   1   2
BRANCH   1   5
ATOM      5  C   UNL     1     140.334 148.492 139.938  1.00  0.00     0.031 C 
BRANCH   5   6
ATOM      6  C   UNL     1     140.719 149.486 141.056  1.00  0.00     0.111 C 
ATOM      7  C   UNL     1     141.580 150.656 140.554  1.00  0.00     0.038 C 
BRANCH   6   8
ATOM      8  O   UNL     1     139.585 149.939 141.752  1.00  0.00    -0.393 OA
ATOM      9  H   UNL     1     139.752 150.873 142.041  1.00  0.00     0.210 HD
ENDBRANCH   6   8
ENDBRANCH   5   6
ENDBRANCH   1   5
TORSDOF 5
ENDMDL
MODEL 8
REMARK VINA RESULT:    -2.533     15.093     16.516
REMARK INTER + INTRA:          -3.598
REMARK INTER:                  -3.199
REMARK INTRA:                  -0.399
REMARK UNBOUND:                -0.398
REMARK SMILES CCCCC[C@@H](C)O
REMARK SMILES IDX 4 1 3 2 2 3 1 4 5 5 6 6 7 7 8 8
REMARK H PARENT 8 9
REMARK Flexibility Score: inf
ROOT
ATOM      1  C   UNL     1     139.869 132.034 138.917  1.00  0.00     0.003 C 
ENDROOT
BRANCH   1   2
ATOM      2  C   UNL     1     138.520 132.662 138.541  1.00  0.00    -0.000 C 
BRANCH   2   3
ATOM      3  C   UNL     1     138.430 134.109 139.039  1.00  0.00    -0.003 C 
ATOM      4  C   UNL     1     139.808 134.650 139.409  1.00  0.00     0.004 C 
ENDBRANCH   2   3
ENDBRANCH   1   2
BRANCH   1   5
ATOM      5  C   UNL     1     139.676 130.880 139.915  1.00  0.00     0.031 C 
BRANCH   5   6
ATOM      6  C   UNL     1     140.014 131.243 141.377  1.00  0.00     0.111 C 
ATOM      7  C   UNL     1     141.362 131.966 141.524  1.00  0.00     0.038 C 
BRANCH   6   8
ATOM      8  O   UNL     1     138.969 131.966 141.980  1.00  0.00    -0.393 OA
ATOM      9  H   UNL     1     138.466 131.348 142.570  1.00  0.00     0.210 HD
ENDBRANCH   6   8
ENDBRANCH   5   6
ENDBRANCH   1   5
TORSDOF 5
ENDMDL
