MODEL 1
REMARK VINA RESULT:    -3.761      0.000      0.000
REMARK INTER + INTRA:          -4.868
REMARK INTER:                  -4.641
REMARK INTRA:                  -0.227
REMARK UNBOUND:                -0.227
REMARK SMILES CCCCCC(=O)[O-]
REMARK SMILES IDX 4 1 5 2 6 3 7 4 8 5 3 6 2 7 1 8
REMARK H PARENT
REMARK Flexibility Score: inf
ROOT
ATOM      1  C   UNL     1      89.049  75.340  68.974  1.00  0.00     0.006 C 
ENDROOT
BRANCH   1   2
ATOM      2  C   UNL     1      89.048  73.857  69.367  1.00  0.00     0.053 C 
BRANCH   2   3
ATOM      3  C   UNL     1      89.994  73.617  70.501  1.00  0.00     0.041 C 
ATOM      4  O   UNL     1      91.237  73.624  70.303  1.00  0.00    -0.550 OA
ATOM      5  O   UNL     1      89.503  73.434  71.788  1.00  0.00    -0.550 OA
ENDBRANCH   2   3
ENDBRANCH   1   2
BRANCH   1   6
ATOM      6  C   UNL     1      87.814  76.098  69.494  1.00  0.00     0.000 C 
BRANCH   6   7
ATOM      7  C   UNL     1      87.995  76.759  70.873  1.00  0.00    -0.003 C 
ATOM      8  C   UNL     1      87.057  76.191  71.936  1.00  0.00     0.004 C 
ENDBRANCH   6   7
ENDBRANCH   1   6
TORSDOF 4
ENDMDL
MODEL 2
REMARK VINA RESULT:    -3.756      2.333      3.079
REMARK INTER + INTRA:          -4.861
REMARK INTER:                  -4.617
REMARK INTRA:                  -0.245
REMARK UNBOUND:                -0.227
REMARK SMILES CCCCCC(=O)[O-]
REMARK SMILES IDX 4 1 5 2 6 3 7 4 8 5 3 6 2 7 1 8
REMARK H PARENT
REMARK Flexibility Score: inf
ROOT
ATOM      1  C   UNL     1      89.102  74.283  69.594  1.00  0.00     0.006 C 
ENDROOT
BRANCH   1   2
ATOM      2  C   UNL     1      89.689  75.534  68.928  1.00  0.00     0.053 C 
BRANCH   2   3
ATOM      3  C   UNL     1      90.089  76.537  69.963  1.00  0.00     0.041 C 
ATOM      4  O   UNL     1      91.262  76.993  69.986  1.00  0.00    -0.550 OA
ATOM      5  O   UNL     1      89.150  77.007  70.875  1.00  0.00    -0.550 OA
ENDBRANCH   2   3
ENDBRANCH   1   2
BRANCH   1   6
ATOM      6  C   UNL     1      90.152  73.470  70.372  1.00  0.00     0.000 C 
BRANCH   6   7
ATOM      7  C   UNL     1      89.999  73.516  71.903  1.00  0.00    -0.003 C 
ATOM      8  C   UNL     1      88.565  73.792  72.353  1.00  0.00     0.004 C 
ENDBRANCH   6   7
ENDBRANCH   1   6
TORSDOF 4
ENDMDL
MODEL 3
REMARK VINA RESULT:    -3.740      2.217      3.569
REMARK INTER + INTRA:          -4.841
REMARK INTER:                  -4.691
REMARK INTRA:                  -0.151
REMARK UNBOUND:                -0.227
REMARK SMILES CCCCCC(=O)[O-]
REMARK SMILES IDX 4 1 5 2 6 3 7 4 8 5 3 6 2 7 1 8
REMARK H PARENT
REMARK Flexibility Score: inf
ROOT
ATOM      1  C   UNL     1      87.729  76.212  69.758  1.00  0.00     0.006 C 
ENDROOT
BRANCH   1   2
ATOM      2  C   UNL     1      87.774  76.892  71.131  1.00  0.00     0.053 C 
BRANCH   2   3
ATOM      3  C   UNL     1      87.251  75.971  72.187  1.00  0.00     0.041 C 
ATOM      4  O   UNL     1      87.803  74.859  72.390  1.00  0.00    -0.550 OA
ATOM      5  O   UNL     1      86.181  76.363  72.983  1.00  0.00    -0.550 OA
ENDBRANCH   2   3
ENDBRANCH   1   2
BRANCH   1   6
ATOM      6  C   UNL     1      89.088  76.232  69.034  1.00  0.00     0.000 C 
BRANCH   6   7
ATOM      7  C   UNL     1      90.295  75.871  69.918  1.00  0.00    -0.003 C 
ATOM      8  C   UNL     1      91.237  77.052  70.154  1.00  0.00     0.004 C 
ENDBRANCH   6   7
ENDBRANCH   1   6
TORSDOF 4
ENDMDL
MODEL 4
REMARK VINA RESULT:    -3.735      2.167      3.643
REMARK INTER + INTRA:          -4.836
REMARK INTER:                  -4.610
REMARK INTRA:                  -0.225
REMARK UNBOUND:                -0.227
REMARK SMILES CCCCCC(=O)[O-]
REMARK SMILES IDX 4 1 5 2 6 3 7 4 8 5 3 6 2 7 1 8
REMARK H PARENT
REMARK Flexibility Score: inf
ROOT
ATOM      1  C   UNL     1      88.045  76.225  69.214  1.00  0.00     0.006 C 
ENDROOT
BRANCH   1   2
ATOM      2  C   UNL     1      87.600  76.106  70.677  1.00  0.00     0.053 C 
BRANCH   2   3
ATOM      3  C   UNL     1      88.371  77.057  71.536  1.00  0.00     0.041 C 
ATOM      4  O   UNL     1      87.869  78.164  71.866  1.00  0.00    -0.550 OA
ATOM      5  O   UNL     1      89.626  76.702  72.014  1.00  0.00    -0.550 OA
ENDBRANCH   2   3
ENDBRANCH   1   2
BRANCH   1   6
ATOM      6  C   UNL     1      89.238  75.312  68.875  1.00  0.00     0.000 C 
BRANCH   6   7
ATOM      7  C   UNL     1      89.201  73.926  69.544  1.00  0.00    -0.003 C 
ATOM      8  C   UNL     1      90.450  73.630  70.374  1.00  0.00     0.004 C 
ENDBRANCH   6   7
ENDBRANCH   1   6
TORSDOF 4
ENDMDL
MODEL 5
REMARK VINA RESULT:    -3.726      1.604      2.202
REMARK INTER + INTRA:          -4.824
REMARK INTER:                  -4.673
REMARK INTRA:                  -0.151
REMARK UNBOUND:                -0.227
REMARK SMILES CCCCCC(=O)[O-]
REMARK SMILES IDX 4 1 5 2 6 3 7 4 8 5 3 6 2 7 1 8
REMARK H PARENT
REMARK Flexibility Score: inf
ROOT
ATOM      1  C   UNL     1      88.037  75.713  69.645  1.00  0.00     0.006 C 
ENDROOT
BRANCH   1   2
ATOM      2  C   UNL     1      89.280  76.263  68.935  1.00  0.00     0.053 C 
BRANCH   2   3
ATOM      3  C   UNL     1      90.494  76.077  69.788  1.00  0.00     0.041 C 
ATOM      4  O   UNL     1      91.197  77.068  70.116  1.00  0.00    -0.550 OA
ATOM      5  O   UNL     1      90.823  74.813  70.265  1.00  0.00    -0.550 OA
ENDBRANCH   2   3
ENDBRANCH   1   2
BRANCH   1   6
ATOM      6  C   UNL     1      87.572  76.603  70.812  1.00  0.00     0.000 C 
BRANCH   6   7
ATOM      7  C   UNL     1      87.515  75.898  72.179  1.00  0.00    -0.003 C 
ATOM      8  C   UNL     1      86.337  76.354  73.039  1.00  0.00     0.004 C 
ENDBRANCH   6   7
ENDBRANCH   1   6
TORSDOF 4
ENDMDL
MODEL 6
REMARK VINA RESULT:    -3.527      2.478      4.105
REMARK INTER + INTRA:          -4.579
REMARK INTER:                  -4.375
REMARK INTRA:                  -0.204
REMARK UNBOUND:                -0.227
REMARK SMILES CCCCCC(=O)[O-]
REMARK SMILES IDX 4 1 5 2 6 3 7 4 8 5 3 6 2 7 1 8
REMARK H PARENT
REMARK Flexibility Score: inf
ROOT
ATOM      1  C   UNL     1      89.351  75.023  72.319  1.00  0.00     0.006 C 
ENDROOT
BRANCH   1   2
ATOM      2  C   UNL     1      87.866  75.378  72.178  1.00  0.00     0.053 C 
BRANCH   2   3
ATOM      3  C   UNL     1      87.688  76.505  71.211  1.00  0.00     0.041 C 
ATOM      4  O   UNL     1      87.840  77.696  71.590  1.00  0.00    -0.550 OA
ATOM      5  O   UNL     1      87.403  76.238  69.877  1.00  0.00    -0.550 OA
ENDBRANCH   2   3
ENDBRANCH   1   2
BRANCH   1   6
ATOM      6  C   UNL     1      89.660  73.569  71.919  1.00  0.00     0.000 C 
BRANCH   6   7
ATOM      7  C   UNL     1      90.124  73.384  70.463  1.00  0.00    -0.003 C 
ATOM      8  C   UNL     1      89.001  72.931  69.530  1.00  0.00     0.004 C 
ENDBRANCH   6   7
ENDBRANCH   1   6
TORSDOF 4
ENDMDL
MODEL 7
REMARK VINA RESULT:    -3.520      1.805      3.565
REMARK INTER + INTRA:          -4.570
REMARK INTER:                  -4.359
REMARK INTRA:                  -0.211
REMARK UNBOUND:                -0.227
REMARK SMILES CCCCCC(=O)[O-]
REMARK SMILES IDX 4 1 5 2 6 3 7 4 8 5 3 6 2 7 1 8
REMARK H PARENT
REMARK Flexibility Score: inf
ROOT
ATOM      1  C   UNL     1      86.853  76.334  72.543  1.00  0.00     0.006 C 
ENDROOT
BRANCH   1   2
ATOM      2  C   UNL     1      87.709  75.560  73.554  1.00  0.00     0.053 C 
BRANCH   2   3
ATOM      3  C   UNL     1      87.700  74.099  73.236  1.00  0.00     0.041 C 
ATOM      4  O   UNL     1      86.831  73.344  73.745  1.00  0.00    -0.550 OA
ATOM      5  O   UNL     1      88.623  73.578  72.336  1.00  0.00    -0.550 OA
ENDBRANCH   2   3
ENDBRANCH   1   2
BRANCH   1   6
ATOM      6  C   UNL     1      87.689  76.983  71.424  1.00  0.00     0.000 C 
BRANCH   6   7
ATOM      7  C   UNL     1      87.636  76.250  70.072  1.00  0.00    -0.003 C 
ATOM      8  C   UNL     1      89.021  75.979  69.485  1.00  0.00     0.004 C 
ENDBRANCH   6   7
ENDBRANCH   1   6
TORSDOF 4
ENDMDL
MODEL 8
REMARK VINA RESULT:    -3.402      2.184      3.597
REMARK INTER + INTRA:          -4.424
REMARK INTER:                  -4.198
REMARK INTRA:                  -0.226
REMARK UNBOUND:                -0.227
REMARK SMILES CCCCCC(=O)[O-]
REMARK SMILES IDX 4 1 5 2 6 3 7 4 8 5 3 6 2 7 1 8
REMARK H PARENT
REMARK Flexibility Score: inf
ROOT
ATOM      1  C   UNL     1      89.998  73.650  71.527  1.00  0.00     0.006 C 
ENDROOT
BRANCH   1   2
ATOM      2  C   UNL     1      88.732  73.631  72.393  1.00  0.00     0.053 C 
BRANCH   2   3
ATOM      3  C   UNL     1      88.380  75.017  72.832  1.00  0.00     0.041 C 
ATOM      4  O   UNL     1      87.396  75.210  73.594  1.00  0.00    -0.550 OA
ATOM      5  O   UNL     1      89.169  76.092  72.441  1.00  0.00    -0.550 OA
ENDBRANCH   2   3
ENDBRANCH   1   2
BRANCH   1   6
ATOM      6  C   UNL     1      89.736  73.216  70.073  1.00  0.00     0.000 C 
BRANCH   6   7
ATOM      7  C   UNL     1      88.862  74.184  69.257  1.00  0.00    -0.003 C 
ATOM      8  C   UNL     1      89.574  75.494  68.921  1.00  0.00     0.004 C 
ENDBRANCH   6   7
ENDBRANCH   1   6
TORSDOF 4
ENDMDL
MODEL 9
REMARK VINA RESULT:    -3.311      1.643      2.716
REMARK INTER + INTRA:          -4.313
REMARK INTER:                  -4.040
REMARK INTRA:                  -0.273
REMARK UNBOUND:                -0.227
REMARK SMILES CCCCCC(=O)[O-]
REMARK SMILES IDX 4 1 5 2 6 3 7 4 8 5 3 6 2 7 1 8
REMARK H PARENT
REMARK Flexibility Score: inf
ROOT
ATOM      1  C   UNL     1      87.863  77.383  71.563  1.00  0.00     0.006 C 
ENDROOT
BRANCH   1   2
ATOM      2  C   UNL     1      87.837  76.216  70.567  1.00  0.00     0.053 C 
BRANCH   2   3
ATOM      3  C   UNL     1      88.980  75.286  70.824  1.00  0.00     0.041 C 
ATOM      4  O   UNL     1      90.164  75.667  70.629  1.00  0.00    -0.550 OA
ATOM      5  O   UNL     1      88.740  74.012  71.325  1.00  0.00    -0.550 OA
ENDBRANCH   2   3
ENDBRANCH   1   2
BRANCH   1   6
ATOM      6  C   UNL     1      87.526  76.950  73.002  1.00  0.00     0.000 C 
BRANCH   6   7
ATOM      7  C   UNL     1      86.162  76.257  73.166  1.00  0.00    -0.003 C 
ATOM      8  C   UNL     1      86.268  74.864  73.784  1.00  0.00     0.004 C 
ENDBRANCH   6   7
ENDBRANCH   1   6
TORSDOF 4
ENDMDL
