MODEL 1
REMARK VINA RESULT:    -5.889      0.000      0.000
REMARK INTER + INTRA:         -12.803
REMARK INTER:                 -11.397
REMARK INTRA:                  -1.406
REMARK UNBOUND:                -1.406
REMARK SMILES CCCCCCCCCCCCCCCCCC(=O)[O-]
REMARK SMILES IDX 10 1 11 2 12 3 13 4 14 5 15 6 16 7 17 8 18 9 19 10 20 11
REMARK SMILES IDX 9 12 8 13 7 14 6 15 5 16 4 17 3 18 2 19 1 20
REMARK H PARENT
REMARK Flexibility Score: inf
ROOT
ATOM      1  C   UNL     1     -24.454 -31.976  25.685  1.00  0.00     0.000 C 
ENDROOT
BRANCH   1   2
ATOM      2  C   UNL     1     -25.342 -33.215  25.881  1.00  0.00     0.000 C 
BRANCH   2   3
ATOM      3  C   UNL     1     -26.760 -32.856  26.372  1.00  0.00     0.000 C 
BRANCH   3   4
ATOM      4  C   UNL     1     -27.833 -32.918  25.269  1.00  0.00     0.000 C 
BRANCH   4   5
ATOM      5  C   UNL     1     -27.347 -33.494  23.926  1.00  0.00     0.000 C 
BRANCH   5   6
ATOM      6  C   UNL     1     -28.301 -33.271  22.735  1.00  0.00     0.000 C 
BRANCH   6   7
ATOM      7  C   UNL     1     -28.122 -31.932  21.992  1.00  0.00     0.006 C 
BRANCH   7   8
ATOM      8  C   UNL     1     -26.706 -31.342  22.075  1.00  0.00     0.053 C 
BRANCH   8   9
ATOM      9  C   UNL     1     -26.671 -30.080  22.881  1.00  0.00     0.041 C 
ATOM     10  O   UNL     1     -25.674 -29.313  22.812  1.00  0.00    -0.550 OA
ATOM     11  O   UNL     1     -27.752 -29.733  23.680  1.00  0.00    -0.550 OA
ENDBRANCH   8   9
ENDBRANCH   7   8
ENDBRANCH   6   7
ENDBRANCH   5   6
ENDBRANCH   4   5
ENDBRANCH   3   4
ENDBRANCH   2   3
ENDBRANCH   1   2
BRANCH   1  12
ATOM     12  C   UNL     1     -23.804 -31.978  24.297  1.00  0.00     0.000 C 
BRANCH  12  13
ATOM     13  C   UNL     1     -22.555 -31.084  24.274  1.00  0.00    -0.000 C 
BRANCH  13  14
ATOM     14  C   UNL     1     -21.625 -31.396  23.090  1.00  0.00    -0.000 C 
BRANCH  14  15
ATOM     15  C   UNL     1     -20.167 -31.611  23.524  1.00  0.00    -0.000 C 
BRANCH  15  16
ATOM     16  C   UNL     1     -19.659 -30.417  24.347  1.00  0.00    -0.000 C 
BRANCH  16  17
ATOM     17  C   UNL     1     -18.319 -29.868  23.832  1.00  0.00    -0.000 C 
BRANCH  17  18
ATOM     18  C   UNL     1     -17.258 -30.964  23.658  1.00  0.00    -0.000 C 
BRANCH  18  19
ATOM     19  C   UNL     1     -16.154 -30.510  22.695  1.00  0.00    -0.003 C 
ATOM     20  C   UNL     1     -16.580 -30.699  21.241  1.00  0.00     0.004 C 
ENDBRANCH  18  19
ENDBRANCH  17  18
ENDBRANCH  16  17
ENDBRANCH  15  16
ENDBRANCH  14  15
ENDBRANCH  13  14
ENDBRANCH  12  13
ENDBRANCH   1  12
TORSDOF 16
ENDMDL
MODEL 2
REMARK VINA RESULT:    -5.855      3.593      9.059
REMARK INTER + INTRA:         -12.737
REMARK INTER:                 -11.621
REMARK INTRA:                  -1.116
REMARK UNBOUND:                -1.406
REMARK SMILES CCCCCCCCCCCCCCCCCC(=O)[O-]
REMARK SMILES IDX 10 1 11 2 12 3 13 4 14 5 15 6 16 7 17 8 18 9 19 10 20 11
REMARK SMILES IDX 9 12 8 13 7 14 6 15 5 16 4 17 3 18 2 19 1 20
REMARK H PARENT
REMARK Flexibility Score: inf
ROOT
ATOM      1  C   UNL     1     -22.346 -31.695  23.888  1.00  0.00     0.000 C 
ENDROOT
BRANCH   1   2
ATOM      2  C   UNL     1     -20.897 -31.423  23.452  1.00  0.00     0.000 C 
BRANCH   2   3
ATOM      3  C   UNL     1     -20.293 -30.185  24.146  1.00  0.00     0.000 C 
BRANCH   3   4
ATOM      4  C   UNL     1     -18.768 -30.269  24.346  1.00  0.00     0.000 C 
BRANCH   4   5
ATOM      5  C   UNL     1     -18.049 -31.271  23.426  1.00  0.00     0.000 C 
BRANCH   5   6
ATOM      6  C   UNL     1     -16.543 -31.008  23.220  1.00  0.00     0.000 C 
BRANCH   6   7
ATOM      7  C   UNL     1     -16.136 -30.614  21.785  1.00  0.00     0.006 C 
BRANCH   7   8
ATOM      8  C   UNL     1     -16.517 -29.180  21.387  1.00  0.00     0.053 C 
BRANCH   8   9
ATOM      9  C   UNL     1     -16.413 -28.962  19.909  1.00  0.00     0.041 C 
ATOM     10  O   UNL     1     -16.551 -29.930  19.115  1.00  0.00    -0.550 OA
ATOM     11  O   UNL     1     -16.195 -27.686  19.407  1.00  0.00    -0.550 OA
ENDBRANCH   8   9
ENDBRANCH   7   8
ENDBRANCH   6   7
ENDBRANCH   5   6
ENDBRANCH   4   5
ENDBRANCH   3   4
ENDBRANCH   2   3
ENDBRANCH   1   2
BRANCH   1  12
ATOM     12  C   UNL     1     -22.876 -30.562  24.774  1.00  0.00     0.000 C 
BRANCH  12  13
ATOM     13  C   UNL     1     -24.395 -30.685  24.972  1.00  0.00    -0.000 C 
BRANCH  13  14
ATOM     14  C   UNL     1     -24.910 -32.114  24.738  1.00  0.00    -0.000 C 
BRANCH  14  15
ATOM     15  C   UNL     1     -25.477 -32.755  26.014  1.00  0.00    -0.000 C 
BRANCH  15  16
ATOM     16  C   UNL     1     -26.967 -33.087  25.843  1.00  0.00    -0.000 C 
BRANCH  16  17
ATOM     17  C   UNL     1     -27.573 -32.463  24.575  1.00  0.00    -0.000 C 
BRANCH  17  18
ATOM     18  C   UNL     1     -28.031 -33.517  23.557  1.00  0.00    -0.000 C 
BRANCH  18  19
ATOM     19  C   UNL     1     -27.925 -32.978  22.125  1.00  0.00    -0.003 C 
ATOM     20  C   UNL     1     -27.572 -31.493  22.121  1.00  0.00     0.004 C 
ENDBRANCH  18  19
ENDBRANCH  17  18
ENDBRANCH  16  17
ENDBRANCH  15  16
ENDBRANCH  14  15
ENDBRANCH  13  14
ENDBRANCH  12  13
ENDBRANCH   1  12
TORSDOF 16
ENDMDL
MODEL 3
REMARK VINA RESULT:    -5.837      1.209      2.215
REMARK INTER + INTRA:         -12.702
REMARK INTER:                 -10.593
REMARK INTRA:                  -2.109
REMARK UNBOUND:                -1.406
REMARK SMILES CCCCCCCCCCCCCCCCCC(=O)[O-]
REMARK SMILES IDX 10 1 11 2 12 3 13 4 14 5 15 6 16 7 17 8 18 9 19 10 20 11
REMARK SMILES IDX 9 12 8 13 7 14 6 15 5 16 4 17 3 18 2 19 1 20
REMARK H PARENT
REMARK Flexibility Score: inf
ROOT
ATOM      1  C   UNL     1     -25.693 -33.244  26.077  1.00  0.00     0.000 C 
ENDROOT
BRANCH   1   2
ATOM      2  C   UNL     1     -26.659 -32.064  26.271  1.00  0.00     0.000 C 
BRANCH   2   3
ATOM      3  C   UNL     1     -27.783 -32.040  25.214  1.00  0.00     0.000 C 
BRANCH   3   4
ATOM      4  C   UNL     1     -27.740 -33.230  24.236  1.00  0.00     0.000 C 
BRANCH   4   5
ATOM      5  C   UNL     1     -27.540 -32.846  22.758  1.00  0.00     0.000 C 
BRANCH   5   6
ATOM      6  C   UNL     1     -26.197 -32.160  22.436  1.00  0.00     0.000 C 
BRANCH   6   7
ATOM      7  C   UNL     1     -26.310 -30.798  21.721  1.00  0.00     0.006 C 
BRANCH   7   8
ATOM      8  C   UNL     1     -27.152 -29.754  22.471  1.00  0.00     0.053 C 
BRANCH   8   9
ATOM      9  C   UNL     1     -26.326 -28.951  23.427  1.00  0.00     0.041 C 
ATOM     10  O   UNL     1     -26.777 -28.665  24.568  1.00  0.00    -0.550 OA
ATOM     11  O   UNL     1     -25.046 -28.546  23.073  1.00  0.00    -0.550 OA
ENDBRANCH   8   9
ENDBRANCH   7   8
ENDBRANCH   6   7
ENDBRANCH   5   6
ENDBRANCH   4   5
ENDBRANCH   3   4
ENDBRANCH   2   3
ENDBRANCH   1   2
BRANCH   1  12
ATOM     12  C   UNL     1     -24.256 -32.751  25.876  1.00  0.00     0.000 C 
BRANCH  12  13
ATOM     13  C   UNL     1     -24.234 -31.408  25.131  1.00  0.00    -0.000 C 
BRANCH  13  14
ATOM     14  C   UNL     1     -22.898 -31.148  24.416  1.00  0.00    -0.000 C 
BRANCH  14  15
ATOM     15  C   UNL     1     -22.669 -32.094  23.228  1.00  0.00    -0.000 C 
BRANCH  15  16
ATOM     16  C   UNL     1     -21.171 -32.212  22.904  1.00  0.00    -0.000 C 
BRANCH  16  17
ATOM     17  C   UNL     1     -20.302 -31.285  23.768  1.00  0.00    -0.000 C 
BRANCH  17  18
ATOM     18  C   UNL     1     -18.812 -31.363  23.406  1.00  0.00    -0.000 C 
BRANCH  18  19
ATOM     19  C   UNL     1     -18.131 -30.001  23.591  1.00  0.00    -0.003 C 
ATOM     20  C   UNL     1     -19.006 -29.055  24.409  1.00  0.00     0.004 C 
ENDBRANCH  18  19
ENDBRANCH  17  18
ENDBRANCH  16  17
ENDBRANCH  15  16
ENDBRANCH  14  15
ENDBRANCH  13  14
ENDBRANCH  12  13
ENDBRANCH   1  12
TORSDOF 16
ENDMDL
MODEL 4
REMARK VINA RESULT:    -5.815      1.954      2.990
REMARK INTER + INTRA:         -12.660
REMARK INTER:                 -10.490
REMARK INTRA:                  -2.170
REMARK UNBOUND:                -1.406
REMARK SMILES CCCCCCCCCCCCCCCCCC(=O)[O-]
REMARK SMILES IDX 10 1 11 2 12 3 13 4 14 5 15 6 16 7 17 8 18 9 19 10 20 11
REMARK SMILES IDX 9 12 8 13 7 14 6 15 5 16 4 17 3 18 2 19 1 20
REMARK H PARENT
REMARK Flexibility Score: inf
ROOT
ATOM      1  C   UNL     1     -24.133 -31.529  23.724  1.00  0.00     0.000 C 
ENDROOT
BRANCH   1   2
ATOM      2  C   UNL     1     -23.751 -31.818  25.184  1.00  0.00     0.000 C 
BRANCH   2   3
ATOM      3  C   UNL     1     -24.532 -33.009  25.776  1.00  0.00     0.000 C 
BRANCH   3   4
ATOM      4  C   UNL     1     -26.057 -32.912  25.574  1.00  0.00     0.000 C 
BRANCH   4   5
ATOM      5  C   UNL     1     -26.779 -31.962  26.546  1.00  0.00     0.000 C 
BRANCH   5   6
ATOM      6  C   UNL     1     -27.393 -30.705  25.897  1.00  0.00     0.000 C 
BRANCH   6   7
ATOM      7  C   UNL     1     -28.550 -30.972  24.912  1.00  0.00     0.006 C 
BRANCH   7   8
ATOM      8  C   UNL     1     -28.183 -30.775  23.433  1.00  0.00     0.053 C 
BRANCH   8   9
ATOM      9  C   UNL     1     -28.719 -31.877  22.572  1.00  0.00     0.041 C 
ATOM     10  O   UNL     1     -29.651 -31.646  21.756  1.00  0.00    -0.550 OA
ATOM     11  O   UNL     1     -28.168 -33.149  22.644  1.00  0.00    -0.550 OA
ENDBRANCH   8   9
ENDBRANCH   7   8
ENDBRANCH   6   7
ENDBRANCH   5   6
ENDBRANCH   4   5
ENDBRANCH   3   4
ENDBRANCH   2   3
ENDBRANCH   1   2
BRANCH   1  12
ATOM     12  C   UNL     1     -23.926 -30.050  23.382  1.00  0.00     0.000 C 
BRANCH  12  13
ATOM     13  C   UNL     1     -24.477 -29.146  24.497  1.00  0.00    -0.000 C 
BRANCH  13  14
ATOM     14  C   UNL     1     -23.389 -28.273  25.143  1.00  0.00    -0.000 C 
BRANCH  14  15
ATOM     15  C   UNL     1     -22.003 -28.498  24.521  1.00  0.00    -0.000 C 
BRANCH  15  16
ATOM     16  C   UNL     1     -21.059 -29.183  25.521  1.00  0.00    -0.000 C 
BRANCH  16  17
ATOM     17  C   UNL     1     -19.837 -29.822  24.843  1.00  0.00    -0.000 C 
BRANCH  17  18
ATOM     18  C   UNL     1     -20.222 -30.914  23.835  1.00  0.00    -0.000 C 
BRANCH  18  19
ATOM     19  C   UNL     1     -18.979 -31.654  23.327  1.00  0.00    -0.003 C 
ATOM     20  C   UNL     1     -17.701 -30.914  23.714  1.00  0.00     0.004 C 
ENDBRANCH  18  19
ENDBRANCH  17  18
ENDBRANCH  16  17
ENDBRANCH  15  16
ENDBRANCH  14  15
ENDBRANCH  13  14
ENDBRANCH  12  13
ENDBRANCH   1  12
TORSDOF 16
ENDMDL
MODEL 5
REMARK VINA RESULT:    -5.809      1.753      2.197
REMARK INTER + INTRA:         -12.647
REMARK INTER:                 -11.440
REMARK INTRA:                  -1.207
REMARK UNBOUND:                -1.406
REMARK SMILES CCCCCCCCCCCCCCCCCC(=O)[O-]
REMARK SMILES IDX 10 1 11 2 12 3 13 4 14 5 15 6 16 7 17 8 18 9 19 10 20 11
REMARK SMILES IDX 9 12 8 13 7 14 6 15 5 16 4 17 3 18 2 19 1 20
REMARK H PARENT
REMARK Flexibility Score: inf
ROOT
ATOM      1  C   UNL     1     -25.310 -31.721  25.265  1.00  0.00     0.000 C 
ENDROOT
BRANCH   1   2
ATOM      2  C   UNL     1     -26.230 -32.896  25.633  1.00  0.00     0.000 C 
BRANCH   2   3
ATOM      3  C   UNL     1     -27.384 -33.082  24.627  1.00  0.00     0.000 C 
BRANCH   3   4
ATOM      4  C   UNL     1     -27.097 -32.484  23.236  1.00  0.00     0.000 C 
BRANCH   4   5
ATOM      5  C   UNL     1     -28.138 -32.827  22.156  1.00  0.00     0.000 C 
BRANCH   5   6
ATOM      6  C   UNL     1     -29.370 -31.900  22.116  1.00  0.00     0.000 C 
BRANCH   6   7
ATOM      7  C   UNL     1     -29.232 -30.590  22.918  1.00  0.00     0.006 C 
BRANCH   7   8
ATOM      8  C   UNL     1     -30.333 -30.366  23.965  1.00  0.00     0.053 C 
BRANCH   8   9
ATOM      9  C   UNL     1     -29.787 -29.807  25.243  1.00  0.00     0.041 C 
ATOM     10  O   UNL     1     -28.595 -30.041  25.577  1.00  0.00    -0.550 OA
ATOM     11  O   UNL     1     -30.581 -29.001  26.047  1.00  0.00    -0.550 OA
ENDBRANCH   8   9
ENDBRANCH   7   8
ENDBRANCH   6   7
ENDBRANCH   5   6
ENDBRANCH   4   5
ENDBRANCH   3   4
ENDBRANCH   2   3
ENDBRANCH   1   2
BRANCH   1  12
ATOM     12  C   UNL     1     -23.840 -32.154  25.257  1.00  0.00     0.000 C 
BRANCH  12  13
ATOM     13  C   UNL     1     -22.997 -31.218  24.377  1.00  0.00    -0.000 C 
BRANCH  13  14
ATOM     14  C   UNL     1     -22.084 -31.982  23.404  1.00  0.00    -0.000 C 
BRANCH  14  15
ATOM     15  C   UNL     1     -20.676 -31.375  23.313  1.00  0.00    -0.000 C 
BRANCH  15  16
ATOM     16  C   UNL     1     -20.448 -30.351  24.436  1.00  0.00    -0.000 C 
BRANCH  16  17
ATOM     17  C   UNL     1     -18.997 -29.847  24.494  1.00  0.00    -0.000 C 
BRANCH  17  18
ATOM     18  C   UNL     1     -17.987 -30.891  23.998  1.00  0.00    -0.000 C 
BRANCH  18  19
ATOM     19  C   UNL     1     -17.038 -30.283  22.959  1.00  0.00    -0.003 C 
ATOM     20  C   UNL     1     -17.547 -28.928  22.473  1.00  0.00     0.004 C 
ENDBRANCH  18  19
ENDBRANCH  17  18
ENDBRANCH  16  17
ENDBRANCH  15  16
ENDBRANCH  14  15
ENDBRANCH  13  14
ENDBRANCH  12  13
ENDBRANCH   1  12
TORSDOF 16
ENDMDL
MODEL 6
REMARK VINA RESULT:    -5.765      1.980      3.714
REMARK INTER + INTRA:         -12.562
REMARK INTER:                 -10.160
REMARK INTRA:                  -2.403
REMARK UNBOUND:                -1.406
REMARK SMILES CCCCCCCCCCCCCCCCCC(=O)[O-]
REMARK SMILES IDX 10 1 11 2 12 3 13 4 14 5 15 6 16 7 17 8 18 9 19 10 20 11
REMARK SMILES IDX 9 12 8 13 7 14 6 15 5 16 4 17 3 18 2 19 1 20
REMARK H PARENT
REMARK Flexibility Score: inf
ROOT
ATOM      1  C   UNL     1     -22.950 -31.084  22.187  1.00  0.00     0.000 C 
ENDROOT
BRANCH   1   2
ATOM      2  C   UNL     1     -24.375 -31.374  22.682  1.00  0.00     0.000 C 
BRANCH   2   3
ATOM      3  C   UNL     1     -24.901 -30.287  23.643  1.00  0.00     0.000 C 
BRANCH   3   4
ATOM      4  C   UNL     1     -24.950 -30.734  25.116  1.00  0.00     0.000 C 
BRANCH   4   5
ATOM      5  C   UNL     1     -24.638 -32.223  25.352  1.00  0.00     0.000 C 
BRANCH   5   6
ATOM      6  C   UNL     1     -25.789 -33.044  25.968  1.00  0.00     0.000 C 
BRANCH   6   7
ATOM      7  C   UNL     1     -27.189 -32.744  25.395  1.00  0.00     0.006 C 
BRANCH   7   8
ATOM      8  C   UNL     1     -27.444 -33.333  23.998  1.00  0.00     0.053 C 
BRANCH   8   9
ATOM      9  C   UNL     1     -28.104 -32.346  23.086  1.00  0.00     0.041 C 
ATOM     10  O   UNL     1     -28.307 -31.164  23.472  1.00  0.00    -0.550 OA
ATOM     11  O   UNL     1     -28.466 -32.720  21.799  1.00  0.00    -0.550 OA
ENDBRANCH   8   9
ENDBRANCH   7   8
ENDBRANCH   6   7
ENDBRANCH   5   6
ENDBRANCH   4   5
ENDBRANCH   3   4
ENDBRANCH   2   3
ENDBRANCH   1   2
BRANCH   1  12
ATOM     12  C   UNL     1     -21.934 -32.018  22.854  1.00  0.00     0.000 C 
BRANCH  12  13
ATOM     13  C   UNL     1     -21.153 -31.285  23.956  1.00  0.00    -0.000 C 
BRANCH  13  14
ATOM     14  C   UNL     1     -19.649 -31.187  23.652  1.00  0.00    -0.000 C 
BRANCH  14  15
ATOM     15  C   UNL     1     -18.960 -30.056  24.430  1.00  0.00    -0.000 C 
BRANCH  15  16
ATOM     16  C   UNL     1     -19.876 -29.521  25.542  1.00  0.00    -0.000 C 
BRANCH  16  17
ATOM     17  C   UNL     1     -19.738 -28.004  25.746  1.00  0.00    -0.000 C 
BRANCH  17  18
ATOM     18  C   UNL     1     -20.356 -27.193  24.598  1.00  0.00    -0.000 C 
BRANCH  18  19
ATOM     19  C   UNL     1     -21.767 -27.697  24.270  1.00  0.00    -0.003 C 
ATOM     20  C   UNL     1     -22.010 -27.714  22.763  1.00  0.00     0.004 C 
ENDBRANCH  18  19
ENDBRANCH  17  18
ENDBRANCH  16  17
ENDBRANCH  15  16
ENDBRANCH  14  15
ENDBRANCH  13  14
ENDBRANCH  12  13
ENDBRANCH   1  12
TORSDOF 16
ENDMDL
MODEL 7
REMARK VINA RESULT:    -5.716      2.817      7.472
REMARK INTER + INTRA:         -12.469
REMARK INTER:                  -9.769
REMARK INTRA:                  -2.700
REMARK UNBOUND:                -1.406
REMARK SMILES CCCCCCCCCCCCCCCCCC(=O)[O-]
REMARK SMILES IDX 10 1 11 2 12 3 13 4 14 5 15 6 16 7 17 8 18 9 19 10 20 11
REMARK SMILES IDX 9 12 8 13 7 14 6 15 5 16 4 17 3 18 2 19 1 20
REMARK H PARENT
REMARK Flexibility Score: inf
ROOT
ATOM      1  C   UNL     1     -27.235 -33.553  24.097  1.00  0.00     0.000 C 
ENDROOT
BRANCH   1   2
ATOM      2  C   UNL     1     -27.740 -32.848  25.365  1.00  0.00     0.000 C 
BRANCH   2   3
ATOM      3  C   UNL     1     -26.590 -32.395  26.289  1.00  0.00     0.000 C 
BRANCH   3   4
ATOM      4  C   UNL     1     -25.302 -33.224  26.125  1.00  0.00     0.000 C 
BRANCH   4   5
ATOM      5  C   UNL     1     -24.109 -32.455  25.529  1.00  0.00     0.000 C 
BRANCH   5   6
ATOM      6  C   UNL     1     -24.407 -30.997  25.122  1.00  0.00     0.000 C 
BRANCH   6   7
ATOM      7  C   UNL     1     -23.364 -30.349  24.189  1.00  0.00     0.006 C 
BRANCH   7   8
ATOM      8  C   UNL     1     -21.937 -30.316  24.758  1.00  0.00     0.053 C 
BRANCH   8   9
ATOM      9  C   UNL     1     -20.941 -30.906  23.807  1.00  0.00     0.041 C 
ATOM     10  O   UNL     1     -19.885 -30.279  23.527  1.00  0.00    -0.550 OA
ATOM     11  O   UNL     1     -21.162 -32.161  23.257  1.00  0.00    -0.550 OA
ENDBRANCH   8   9
ENDBRANCH   7   8
ENDBRANCH   6   7
ENDBRANCH   5   6
ENDBRANCH   4   5
ENDBRANCH   3   4
ENDBRANCH   2   3
ENDBRANCH   1   2
BRANCH   1  12
ATOM     12  C   UNL     1     -28.300 -33.535  22.995  1.00  0.00     0.000 C 
BRANCH  12  13
ATOM     13  C   UNL     1     -28.140 -32.299  22.097  1.00  0.00    -0.000 C 
BRANCH  13  14
ATOM     14  C   UNL     1     -26.702 -31.755  22.088  1.00  0.00    -0.000 C 
BRANCH  14  15
ATOM     15  C   UNL     1     -26.629 -30.272  22.482  1.00  0.00    -0.000 C 
BRANCH  15  16
ATOM     16  C   UNL     1     -27.958 -29.802  23.093  1.00  0.00    -0.000 C 
BRANCH  16  17
ATOM     17  C   UNL     1     -27.798 -29.274  24.528  1.00  0.00    -0.000 C 
BRANCH  17  18
ATOM     18  C   UNL     1     -29.080 -29.420  25.359  1.00  0.00    -0.000 C 
BRANCH  18  19
ATOM     19  C   UNL     1     -30.117 -30.274  24.620  1.00  0.00    -0.003 C 
ATOM     20  C   UNL     1     -31.416 -29.502  24.405  1.00  0.00     0.004 C 
ENDBRANCH  18  19
ENDBRANCH  17  18
ENDBRANCH  16  17
ENDBRANCH  15  16
ENDBRANCH  14  15
ENDBRANCH  13  14
ENDBRANCH  12  13
ENDBRANCH   1  12
TORSDOF 16
ENDMDL
MODEL 8
REMARK VINA RESULT:    -5.714      3.306      8.035
REMARK INTER + INTRA:         -12.463
REMARK INTER:                 -10.076
REMARK INTRA:                  -2.387
REMARK UNBOUND:                -1.406
REMARK SMILES CCCCCCCCCCCCCCCCCC(=O)[O-]
REMARK SMILES IDX 10 1 11 2 12 3 13 4 14 5 15 6 16 7 17 8 18 9 19 10 20 11
REMARK SMILES IDX 9 12 8 13 7 14 6 15 5 16 4 17 3 18 2 19 1 20
REMARK H PARENT
REMARK Flexibility Score: inf
ROOT
ATOM      1  C   UNL     1     -25.274 -29.451  24.153  1.00  0.00     0.000 C 
ENDROOT
BRANCH   1   2
ATOM      2  C   UNL     1     -24.459 -28.171  24.396  1.00  0.00     0.000 C 
BRANCH   2   3
ATOM      3  C   UNL     1     -23.407 -28.342  25.512  1.00  0.00     0.000 C 
BRANCH   3   4
ATOM      4  C   UNL     1     -21.954 -28.207  25.020  1.00  0.00     0.000 C 
BRANCH   4   5
ATOM      5  C   UNL     1     -21.033 -29.384  25.391  1.00  0.00     0.000 C 
BRANCH   5   6
ATOM      6  C   UNL     1     -21.075 -30.580  24.418  1.00  0.00     0.000 C 
BRANCH   6   7
ATOM      7  C   UNL     1     -19.725 -30.946  23.768  1.00  0.00     0.006 C 
BRANCH   7   8
ATOM      8  C   UNL     1     -18.581 -29.973  24.090  1.00  0.00     0.053 C 
BRANCH   8   9
ATOM      9  C   UNL     1     -17.331 -30.309  23.335  1.00  0.00     0.041 C 
ATOM     10  O   UNL     1     -16.948 -29.575  22.386  1.00  0.00    -0.550 OA
ATOM     11  O   UNL     1     -16.571 -31.412  23.701  1.00  0.00    -0.550 OA
ENDBRANCH   8   9
ENDBRANCH   7   8
ENDBRANCH   6   7
ENDBRANCH   5   6
ENDBRANCH   4   5
ENDBRANCH   3   4
ENDBRANCH   2   3
ENDBRANCH   1   2
BRANCH   1  12
ATOM     12  C   UNL     1     -24.598 -30.344  23.107  1.00  0.00     0.000 C 
BRANCH  12  13
ATOM     13  C   UNL     1     -24.394 -31.767  23.648  1.00  0.00    -0.000 C 
BRANCH  13  14
ATOM     14  C   UNL     1     -24.524 -31.844  25.178  1.00  0.00    -0.000 C 
BRANCH  14  15
ATOM     15  C   UNL     1     -25.536 -32.905  25.634  1.00  0.00    -0.000 C 
BRANCH  15  16
ATOM     16  C   UNL     1     -26.868 -32.253  26.036  1.00  0.00    -0.000 C 
BRANCH  16  17
ATOM     17  C   UNL     1     -27.899 -32.258  24.896  1.00  0.00    -0.000 C 
BRANCH  17  18
ATOM     18  C   UNL     1     -27.646 -33.373  23.872  1.00  0.00    -0.000 C 
BRANCH  18  19
ATOM     19  C   UNL     1     -27.820 -32.852  22.441  1.00  0.00    -0.003 C 
ATOM     20  C   UNL     1     -28.150 -31.362  22.433  1.00  0.00     0.004 C 
ENDBRANCH  18  19
ENDBRANCH  17  18
ENDBRANCH  16  17
ENDBRANCH  15  16
ENDBRANCH  14  15
ENDBRANCH  13  14
ENDBRANCH  12  13
ENDBRANCH   1  12
TORSDOF 16
ENDMDL
MODEL 9
REMARK VINA RESULT:    -5.692      3.022      6.991
REMARK INTER + INTRA:         -12.422
REMARK INTER:                  -9.481
REMARK INTRA:                  -2.941
REMARK UNBOUND:                -1.406
REMARK SMILES CCCCCCCCCCCCCCCCCC(=O)[O-]
REMARK SMILES IDX 10 1 11 2 12 3 13 4 14 5 15 6 16 7 17 8 18 9 19 10 20 11
REMARK SMILES IDX 9 12 8 13 7 14 6 15 5 16 4 17 3 18 2 19 1 20
REMARK H PARENT
REMARK Flexibility Score: inf
ROOT
ATOM      1  C   UNL     1     -29.190 -30.014  25.125  1.00  0.00     0.000 C 
ENDROOT
BRANCH   1   2
ATOM      2  C   UNL     1     -27.930 -29.316  24.591  1.00  0.00     0.000 C 
BRANCH   2   3
ATOM      3  C   UNL     1     -26.720 -29.474  25.536  1.00  0.00     0.000 C 
BRANCH   3   4
ATOM      4  C   UNL     1     -25.393 -29.751  24.803  1.00  0.00     0.000 C 
BRANCH   4   5
ATOM      5  C   UNL     1     -25.524 -29.958  23.283  1.00  0.00     0.000 C 
BRANCH   5   6
ATOM      6  C   UNL     1     -24.192 -29.964  22.506  1.00  0.00     0.000 C 
BRANCH   6   7
ATOM      7  C   UNL     1     -23.520 -31.345  22.366  1.00  0.00     0.006 C 
BRANCH   7   8
ATOM      8  C   UNL     1     -22.703 -31.781  23.591  1.00  0.00     0.053 C 
BRANCH   8   9
ATOM      9  C   UNL     1     -21.778 -30.701  24.061  1.00  0.00     0.041 C 
ATOM     10  O   UNL     1     -21.891 -30.233  25.225  1.00  0.00    -0.550 OA
ATOM     11  O   UNL     1     -20.770 -30.235  23.227  1.00  0.00    -0.550 OA
ENDBRANCH   8   9
ENDBRANCH   7   8
ENDBRANCH   6   7
ENDBRANCH   5   6
ENDBRANCH   4   5
ENDBRANCH   3   4
ENDBRANCH   2   3
ENDBRANCH   1   2
BRANCH   1  12
ATOM     12  C   UNL     1     -30.062 -30.532  23.976  1.00  0.00     0.000 C 
BRANCH  12  13
ATOM     13  C   UNL     1     -29.251 -30.641  22.676  1.00  0.00    -0.000 C 
BRANCH  13  14
ATOM     14  C   UNL     1     -29.347 -32.034  22.033  1.00  0.00    -0.000 C 
BRANCH  14  15
ATOM     15  C   UNL     1     -28.012 -32.794  22.065  1.00  0.00    -0.000 C 
BRANCH  15  16
ATOM     16  C   UNL     1     -27.902 -33.653  23.335  1.00  0.00    -0.000 C 
BRANCH  16  17
ATOM     17  C   UNL     1     -26.888 -33.093  24.345  1.00  0.00    -0.000 C 
BRANCH  17  18
ATOM     18  C   UNL     1     -27.443 -33.040  25.775  1.00  0.00    -0.000 C 
BRANCH  18  19
ATOM     19  C   UNL     1     -26.315 -33.168  26.806  1.00  0.00    -0.003 C 
ATOM     20  C   UNL     1     -24.950 -33.225  26.124  1.00  0.00     0.004 C 
ENDBRANCH  18  19
ENDBRANCH  17  18
ENDBRANCH  16  17
ENDBRANCH  15  16
ENDBRANCH  14  15
ENDBRANCH  13  14
ENDBRANCH  12  13
ENDBRANCH   1  12
TORSDOF 16
ENDMDL
