MODEL 1
REMARK VINA RESULT:    -3.810      0.000      0.000
REMARK INTER + INTRA:          -9.285
REMARK INTER:                  -7.152
REMARK INTRA:                  -2.134
REMARK UNBOUND:                -2.134
REMARK SMILES O=C([O-])CCCCCCCCCCCCCCC(=O)[O-]
REMARK SMILES IDX 10 1 9 2 8 3 7 4 6 5 5 6 4 7 2 8 1 9 3 10 11 11 12 12 13 13
REMARK SMILES IDX 14 14 15 15 16 16 17 17 18 18 19 19 20 20
REMARK H PARENT
REMARK Flexibility Score: inf
ROOT
ATOM      1  C   UNL     1      15.102  18.332  17.848  1.00  0.00     0.000 C 
ENDROOT
BRANCH   1   2
ATOM      2  C   UNL     1      14.042  19.425  17.671  1.00  0.00     0.000 C 
BRANCH   2   3
ATOM      3  C   UNL     1      14.373  20.324  16.470  1.00  0.00     0.000 C 
BRANCH   3   4
ATOM      4  C   UNL     1      13.251  20.359  15.417  1.00  0.00     0.000 C 
BRANCH   4   5
ATOM      5  C   UNL     1      13.057  19.051  14.627  1.00  0.00     0.000 C 
BRANCH   5   6
ATOM      6  C   UNL     1      11.643  18.466  14.773  1.00  0.00     0.006 C 
BRANCH   6   7
ATOM      7  C   UNL     1      11.665  16.950  15.008  1.00  0.00     0.053 C 
BRANCH   7   8
ATOM      8  C   UNL     1      11.148  16.589  16.366  1.00  0.00     0.041 C 
ATOM      9  O   UNL     1      11.106  17.455  17.280  1.00  0.00    -0.550 OA
ATOM     10  O   UNL     1      10.739  15.289  16.633  1.00  0.00    -0.550 OA
ENDBRANCH   7   8
ENDBRANCH   6   7
ENDBRANCH   5   6
ENDBRANCH   4   5
ENDBRANCH   3   4
ENDBRANCH   2   3
ENDBRANCH   1   2
BRANCH   1  11
ATOM     11  C   UNL     1      14.578  16.974  17.356  1.00  0.00     0.000 C 
BRANCH  11  12
ATOM     12  C   UNL     1      15.286  16.495  16.080  1.00  0.00     0.000 C 
BRANCH  12  13
ATOM     13  C   UNL     1      16.590  17.264  15.803  1.00  0.00     0.000 C 
BRANCH  13  14
ATOM     14  C   UNL     1      16.691  17.744  14.346  1.00  0.00     0.000 C 
BRANCH  14  15
ATOM     15  C   UNL     1      17.620  18.961  14.190  1.00  0.00     0.000 C 
BRANCH  15  16
ATOM     16  C   UNL     1      18.477  19.220  15.443  1.00  0.00     0.006 C 
BRANCH  16  17
ATOM     17  C   UNL     1      19.812  18.460  15.462  1.00  0.00     0.053 C 
BRANCH  17  18
ATOM     18  C   UNL     1      20.239  18.109  16.855  1.00  0.00     0.041 C 
ATOM     19  O   UNL     1      20.537  19.017  17.674  1.00  0.00    -0.550 OA
ATOM     20  O   UNL     1      20.274  16.780  17.257  1.00  0.00    -0.550 OA
ENDBRANCH  17  18
ENDBRANCH  16  17
ENDBRANCH  15  16
ENDBRANCH  14  15
ENDBRANCH  13  14
ENDBRANCH  12  13
ENDBRANCH  11  12
ENDBRANCH   1  11
TORSDOF 15
ENDMDL
MODEL 2
REMARK VINA RESULT:    -3.804      2.631      7.896
REMARK INTER + INTRA:          -9.274
REMARK INTER:                  -8.073
REMARK INTRA:                  -1.201
REMARK UNBOUND:                -2.134
REMARK SMILES O=C([O-])CCCCCCCCCCCCCCC(=O)[O-]
REMARK SMILES IDX 10 1 9 2 8 3 7 4 6 5 5 6 4 7 2 8 1 9 3 10 11 11 12 12 13 13
REMARK SMILES IDX 14 14 15 15 16 16 17 17 18 18 19 19 20 20
REMARK H PARENT
REMARK Flexibility Score: inf
ROOT
ATOM      1  C   UNL     1      12.912  15.352  17.756  1.00  0.00     0.000 C 
ENDROOT
BRANCH   1   2
ATOM      2  C   UNL     1      13.781  16.562  17.392  1.00  0.00     0.000 C 
BRANCH   2   3
ATOM      3  C   UNL     1      14.661  16.259  16.170  1.00  0.00     0.000 C 
BRANCH   3   4
ATOM      4  C   UNL     1      15.090  17.527  15.409  1.00  0.00     0.000 C 
BRANCH   4   5
ATOM      5  C   UNL     1      16.527  17.500  14.855  1.00  0.00     0.000 C 
BRANCH   5   6
ATOM      6  C   UNL     1      17.454  18.514  15.545  1.00  0.00     0.006 C 
BRANCH   6   7
ATOM      7  C   UNL     1      17.980  17.995  16.891  1.00  0.00     0.053 C 
BRANCH   7   8
ATOM      8  C   UNL     1      19.437  17.659  16.826  1.00  0.00     0.041 C 
ATOM      9  O   UNL     1      20.035  17.637  15.718  1.00  0.00    -0.550 OA
ATOM     10  O   UNL     1      20.131  17.343  17.987  1.00  0.00    -0.550 OA
ENDBRANCH   7   8
ENDBRANCH   6   7
ENDBRANCH   5   6
ENDBRANCH   4   5
ENDBRANCH   3   4
ENDBRANCH   2   3
ENDBRANCH   1   2
BRANCH   1  11
ATOM     11  C   UNL     1      11.650  15.298  16.882  1.00  0.00     0.000 C 
BRANCH  11  12
ATOM     12  C   UNL     1      11.082  16.693  16.578  1.00  0.00     0.000 C 
BRANCH  12  13
ATOM     13  C   UNL     1      11.022  16.991  15.069  1.00  0.00     0.000 C 
BRANCH  13  14
ATOM     14  C   UNL     1      11.474  18.421  14.735  1.00  0.00     0.000 C 
BRANCH  14  15
ATOM     15  C   UNL     1      11.209  18.794  13.265  1.00  0.00     0.000 C 
BRANCH  15  16
ATOM     16  C   UNL     1       9.928  18.145  12.709  1.00  0.00     0.006 C 
BRANCH  16  17
ATOM     17  C   UNL     1      10.167  17.186  11.532  1.00  0.00     0.053 C 
BRANCH  17  18
ATOM     18  C   UNL     1       9.030  16.229  11.348  1.00  0.00     0.041 C 
ATOM     19  O   UNL     1       8.508  15.665  12.346  1.00  0.00    -0.550 OA
ATOM     20  O   UNL     1       8.523  15.987  10.077  1.00  0.00    -0.550 OA
ENDBRANCH  17  18
ENDBRANCH  16  17
ENDBRANCH  15  16
ENDBRANCH  14  15
ENDBRANCH  13  14
ENDBRANCH  12  13
ENDBRANCH  11  12
ENDBRANCH   1  11
TORSDOF 15
ENDMDL
MODEL 3
REMARK VINA RESULT:    -3.792      1.072      6.639
REMARK INTER + INTRA:          -9.251
REMARK INTER:                  -6.880
REMARK INTRA:                  -2.371
REMARK UNBOUND:                -2.134
REMARK SMILES O=C([O-])CCCCCCCCCCCCCCC(=O)[O-]
REMARK SMILES IDX 10 1 9 2 8 3 7 4 6 5 5 6 4 7 2 8 1 9 3 10 11 11 12 12 13 13
REMARK SMILES IDX 14 14 15 15 16 16 17 17 18 18 19 19 20 20
REMARK H PARENT
REMARK Flexibility Score: inf
ROOT
ATOM      1  C   UNL     1      15.375  17.743  17.207  1.00  0.00     0.000 C 
ENDROOT
BRANCH   1   2
ATOM      2  C   UNL     1      15.804  17.084  15.891  1.00  0.00     0.000 C 
BRANCH   2   3
ATOM      3  C   UNL     1      15.989  18.133  14.784  1.00  0.00     0.000 C 
BRANCH   3   4
ATOM      4  C   UNL     1      17.418  18.161  14.214  1.00  0.00     0.000 C 
BRANCH   4   5
ATOM      5  C   UNL     1      18.155  19.505  14.366  1.00  0.00     0.000 C 
BRANCH   5   6
ATOM      6  C   UNL     1      19.284  19.454  15.409  1.00  0.00     0.006 C 
BRANCH   6   7
ATOM      7  C   UNL     1      19.742  18.018  15.696  1.00  0.00     0.053 C 
BRANCH   7   8
ATOM      8  C   UNL     1      19.646  17.684  17.153  1.00  0.00     0.041 C 
ATOM      9  O   UNL     1      20.348  16.759  17.640  1.00  0.00    -0.550 OA
ATOM     10  O   UNL     1      18.759  18.375  17.968  1.00  0.00    -0.550 OA
ENDBRANCH   7   8
ENDBRANCH   6   7
ENDBRANCH   5   6
ENDBRANCH   4   5
ENDBRANCH   3   4
ENDBRANCH   2   3
ENDBRANCH   1   2
BRANCH   1  11
ATOM     11  C   UNL     1      15.506  19.272  17.125  1.00  0.00     0.000 C 
BRANCH  11  12
ATOM     12  C   UNL     1      14.177  19.994  17.393  1.00  0.00     0.000 C 
BRANCH  12  13
ATOM     13  C   UNL     1      13.528  20.536  16.107  1.00  0.00     0.000 C 
BRANCH  13  14
ATOM     14  C   UNL     1      12.219  19.810  15.758  1.00  0.00     0.000 C 
BRANCH  14  15
ATOM     15  C   UNL     1      12.401  18.776  14.633  1.00  0.00     0.000 C 
BRANCH  15  16
ATOM     16  C   UNL     1      12.098  17.338  15.092  1.00  0.00     0.006 C 
BRANCH  16  17
ATOM     17  C   UNL     1      11.814  17.203  16.597  1.00  0.00     0.053 C 
BRANCH  17  18
ATOM     18  C   UNL     1      11.881  15.779  17.055  1.00  0.00     0.041 C 
ATOM     19  O   UNL     1      10.993  14.958  16.706  1.00  0.00    -0.550 OA
ATOM     20  O   UNL     1      12.944  15.350  17.840  1.00  0.00    -0.550 OA
ENDBRANCH  17  18
ENDBRANCH  16  17
ENDBRANCH  15  16
ENDBRANCH  14  15
ENDBRANCH  13  14
ENDBRANCH  12  13
ENDBRANCH  11  12
ENDBRANCH   1  11
TORSDOF 15
ENDMDL
MODEL 4
REMARK VINA RESULT:    -3.788      2.036      5.928
REMARK INTER + INTRA:          -9.243
REMARK INTER:                  -6.813
REMARK INTRA:                  -2.430
REMARK UNBOUND:                -2.134
REMARK SMILES O=C([O-])CCCCCCCCCCCCCCC(=O)[O-]
REMARK SMILES IDX 10 1 9 2 8 3 7 4 6 5 5 6 4 7 2 8 1 9 3 10 11 11 12 12 13 13
REMARK SMILES IDX 14 14 15 15 16 16 17 17 18 18 19 19 20 20
REMARK H PARENT
REMARK Flexibility Score: inf
ROOT
ATOM      1  C   UNL     1      12.776  15.911  17.288  1.00  0.00     0.000 C 
ENDROOT
BRANCH   1   2
ATOM      2  C   UNL     1      14.140  16.611  17.292  1.00  0.00     0.000 C 
BRANCH   2   3
ATOM      3  C   UNL     1      14.927  16.290  16.011  1.00  0.00     0.000 C 
BRANCH   3   4
ATOM      4  C   UNL     1      16.243  17.081  15.900  1.00  0.00     0.000 C 
BRANCH   4   5
ATOM      5  C   UNL     1      16.685  17.413  14.462  1.00  0.00     0.000 C 
BRANCH   5   6
ATOM      6  C   UNL     1      17.472  18.731  14.367  1.00  0.00     0.006 C 
BRANCH   6   7
ATOM      7  C   UNL     1      18.301  19.002  15.629  1.00  0.00     0.053 C 
BRANCH   7   8
ATOM      8  C   UNL     1      19.713  18.526  15.481  1.00  0.00     0.041 C 
ATOM      9  O   UNL     1      20.079  17.447  16.018  1.00  0.00    -0.550 OA
ATOM     10  O   UNL     1      20.633  19.288  14.772  1.00  0.00    -0.550 OA
ENDBRANCH   7   8
ENDBRANCH   6   7
ENDBRANCH   5   6
ENDBRANCH   4   5
ENDBRANCH   3   4
ENDBRANCH   2   3
ENDBRANCH   1   2
BRANCH   1  11
ATOM     11  C   UNL     1      11.661  16.882  16.871  1.00  0.00     0.000 C 
BRANCH  11  12
ATOM     12  C   UNL     1      11.145  16.615  15.450  1.00  0.00     0.000 C 
BRANCH  12  13
ATOM     13  C   UNL     1      11.485  17.754  14.473  1.00  0.00     0.000 C 
BRANCH  13  14
ATOM     14  C   UNL     1      12.083  18.979  15.183  1.00  0.00     0.000 C 
BRANCH  14  15
ATOM     15  C   UNL     1      13.483  19.341  14.655  1.00  0.00     0.000 C 
BRANCH  15  16
ATOM     16  C   UNL     1      14.303  20.169  15.661  1.00  0.00     0.006 C 
BRANCH  16  17
ATOM     17  C   UNL     1      13.619  20.362  17.024  1.00  0.00     0.053 C 
BRANCH  17  18
ATOM     18  C   UNL     1      14.570  20.159  18.163  1.00  0.00     0.041 C 
ATOM     19  O   UNL     1      14.146  20.146  19.349  1.00  0.00    -0.550 OA
ATOM     20  O   UNL     1      15.921  19.950  17.913  1.00  0.00    -0.550 OA
ENDBRANCH  17  18
ENDBRANCH  16  17
ENDBRANCH  15  16
ENDBRANCH  14  15
ENDBRANCH  13  14
ENDBRANCH  12  13
ENDBRANCH  11  12
ENDBRANCH   1  11
TORSDOF 15
ENDMDL
MODEL 5
REMARK VINA RESULT:    -3.743      1.505      6.820
REMARK INTER + INTRA:          -9.159
REMARK INTER:                  -7.116
REMARK INTRA:                  -2.043
REMARK UNBOUND:                -2.134
REMARK SMILES O=C([O-])CCCCCCCCCCCCCCC(=O)[O-]
REMARK SMILES IDX 10 1 9 2 8 3 7 4 6 5 5 6 4 7 2 8 1 9 3 10 11 11 12 12 13 13
REMARK SMILES IDX 14 14 15 15 16 16 17 17 18 18 19 19 20 20
REMARK H PARENT
REMARK Flexibility Score: inf
ROOT
ATOM      1  C   UNL     1      16.578  17.497  14.622  1.00  0.00     0.000 C 
ENDROOT
BRANCH   1   2
ATOM      2  C   UNL     1      16.721  19.023  14.573  1.00  0.00     0.000 C 
BRANCH   2   3
ATOM      3  C   UNL     1      18.057  19.430  13.932  1.00  0.00     0.000 C 
BRANCH   3   4
ATOM      4  C   UNL     1      19.164  19.696  14.968  1.00  0.00     0.000 C 
BRANCH   4   5
ATOM      5  C   UNL     1      19.966  18.454  15.399  1.00  0.00     0.000 C 
BRANCH   5   6
ATOM      6  C   UNL     1      20.398  18.503  16.874  1.00  0.00     0.006 C 
BRANCH   6   7
ATOM      7  C   UNL     1      20.262  17.138  17.562  1.00  0.00     0.053 C 
BRANCH   7   8
ATOM      8  C   UNL     1      19.842  17.275  18.993  1.00  0.00     0.041 C 
ATOM      9  O   UNL     1      19.312  18.343  19.400  1.00  0.00    -0.550 OA
ATOM     10  O   UNL     1      20.061  16.233  19.886  1.00  0.00    -0.550 OA
ENDBRANCH   7   8
ENDBRANCH   6   7
ENDBRANCH   5   6
ENDBRANCH   4   5
ENDBRANCH   3   4
ENDBRANCH   2   3
ENDBRANCH   1   2
BRANCH   1  11
ATOM     11  C   UNL     1      16.332  17.012  16.059  1.00  0.00     0.000 C 
BRANCH  11  12
ATOM     12  C   UNL     1      16.546  18.121  17.100  1.00  0.00     0.000 C 
BRANCH  12  13
ATOM     13  C   UNL     1      15.447  18.141  18.177  1.00  0.00     0.000 C 
BRANCH  13  14
ATOM     14  C   UNL     1      14.575  19.404  18.104  1.00  0.00     0.000 C 
BRANCH  14  15
ATOM     15  C   UNL     1      13.588  19.371  16.923  1.00  0.00     0.000 C 
BRANCH  15  16
ATOM     16  C   UNL     1      12.455  18.349  17.123  1.00  0.00     0.006 C 
BRANCH  16  17
ATOM     17  C   UNL     1      12.556  17.109  16.220  1.00  0.00     0.053 C 
BRANCH  17  18
ATOM     18  C   UNL     1      12.313  15.841  16.978  1.00  0.00     0.041 C 
ATOM     19  O   UNL     1      13.118  15.472  17.873  1.00  0.00    -0.550 OA
ATOM     20  O   UNL     1      11.176  15.084  16.720  1.00  0.00    -0.550 OA
ENDBRANCH  17  18
ENDBRANCH  16  17
ENDBRANCH  15  16
ENDBRANCH  14  15
ENDBRANCH  13  14
ENDBRANCH  12  13
ENDBRANCH  11  12
ENDBRANCH   1  11
TORSDOF 15
ENDMDL
MODEL 6
REMARK VINA RESULT:    -3.726      2.096      7.685
REMARK INTER + INTRA:          -9.126
REMARK INTER:                  -7.833
REMARK INTRA:                  -1.293
REMARK UNBOUND:                -2.134
REMARK SMILES O=C([O-])CCCCCCCCCCCCCCC(=O)[O-]
REMARK SMILES IDX 10 1 9 2 8 3 7 4 6 5 5 6 4 7 2 8 1 9 3 10 11 11 12 12 13 13
REMARK SMILES IDX 14 14 15 15 16 16 17 17 18 18 19 19 20 20
REMARK H PARENT
REMARK Flexibility Score: inf
ROOT
ATOM      1  C   UNL     1      16.804  17.738  16.623  1.00  0.00     0.000 C 
ENDROOT
BRANCH   1   2
ATOM      2  C   UNL     1      17.540  18.994  16.144  1.00  0.00     0.000 C 
BRANCH   2   3
ATOM      3  C   UNL     1      18.606  18.641  15.095  1.00  0.00     0.000 C 
BRANCH   3   4
ATOM      4  C   UNL     1      19.880  18.035  15.712  1.00  0.00     0.000 C 
BRANCH   4   5
ATOM      5  C   UNL     1      20.674  18.983  16.630  1.00  0.00     0.000 C 
BRANCH   5   6
ATOM      6  C   UNL     1      20.678  18.530  18.100  1.00  0.00     0.006 C 
BRANCH   6   7
ATOM      7  C   UNL     1      20.033  17.149  18.281  1.00  0.00     0.053 C 
BRANCH   7   8
ATOM      8  C   UNL     1      20.900  16.231  19.086  1.00  0.00     0.041 C 
ATOM      9  O   UNL     1      20.383  15.316  19.781  1.00  0.00    -0.550 OA
ATOM     10  O   UNL     1      22.278  16.402  19.091  1.00  0.00    -0.550 OA
ENDBRANCH   7   8
ENDBRANCH   6   7
ENDBRANCH   5   6
ENDBRANCH   4   5
ENDBRANCH   3   4
ENDBRANCH   2   3
ENDBRANCH   1   2
BRANCH   1  11
ATOM     11  C   UNL     1      16.192  16.973  15.439  1.00  0.00     0.000 C 
BRANCH  11  12
ATOM     12  C   UNL     1      14.899  16.234  15.817  1.00  0.00     0.000 C 
BRANCH  12  13
ATOM     13  C   UNL     1      14.174  16.884  17.009  1.00  0.00     0.000 C 
BRANCH  13  14
ATOM     14  C   UNL     1      13.284  15.888  17.770  1.00  0.00     0.000 C 
BRANCH  14  15
ATOM     15  C   UNL     1      12.021  15.504  16.979  1.00  0.00     0.000 C 
BRANCH  15  16
ATOM     16  C   UNL     1      11.175  16.726  16.578  1.00  0.00     0.006 C 
BRANCH  16  17
ATOM     17  C   UNL     1      11.071  16.952  15.062  1.00  0.00     0.053 C 
BRANCH  17  18
ATOM     18  C   UNL     1      11.153  18.404  14.703  1.00  0.00     0.041 C 
ATOM     19  O   UNL     1      10.479  18.858  13.741  1.00  0.00    -0.550 OA
ATOM     20  O   UNL     1      11.948  19.262  15.453  1.00  0.00    -0.550 OA
ENDBRANCH  17  18
ENDBRANCH  16  17
ENDBRANCH  15  16
ENDBRANCH  14  15
ENDBRANCH  13  14
ENDBRANCH  12  13
ENDBRANCH  11  12
ENDBRANCH   1  11
TORSDOF 15
ENDMDL
MODEL 7
REMARK VINA RESULT:    -3.702      1.789      3.556
REMARK INTER + INTRA:          -9.082
REMARK INTER:                  -7.444
REMARK INTRA:                  -1.638
REMARK UNBOUND:                -2.134
REMARK SMILES O=C([O-])CCCCCCCCCCCCCCC(=O)[O-]
REMARK SMILES IDX 10 1 9 2 8 3 7 4 6 5 5 6 4 7 2 8 1 9 3 10 11 11 12 12 13 13
REMARK SMILES IDX 14 14 15 15 16 16 17 17 18 18 19 19 20 20
REMARK H PARENT
REMARK Flexibility Score: inf
ROOT
ATOM      1  C   UNL     1      16.649  19.037  14.627  1.00  0.00     0.000 C 
ENDROOT
BRANCH   1   2
ATOM      2  C   UNL     1      16.629  17.510  14.489  1.00  0.00     0.000 C 
BRANCH   2   3
ATOM      3  C   UNL     1      16.333  16.839  15.838  1.00  0.00     0.000 C 
BRANCH   3   4
ATOM      4  C   UNL     1      15.928  17.842  16.933  1.00  0.00     0.000 C 
BRANCH   4   5
ATOM      5  C   UNL     1      14.575  17.556  17.612  1.00  0.00     0.000 C 
BRANCH   5   6
ATOM      6  C   UNL     1      13.372  17.903  16.719  1.00  0.00     0.006 C 
BRANCH   6   7
ATOM      7  C   UNL     1      12.790  16.665  16.025  1.00  0.00     0.053 C 
BRANCH   7   8
ATOM      8  C   UNL     1      11.913  15.872  16.944  1.00  0.00     0.041 C 
ATOM      9  O   UNL     1      12.418  15.035  17.739  1.00  0.00    -0.550 OA
ATOM     10  O   UNL     1      10.535  16.036  16.904  1.00  0.00    -0.550 OA
ENDBRANCH   7   8
ENDBRANCH   6   7
ENDBRANCH   5   6
ENDBRANCH   4   5
ENDBRANCH   3   4
ENDBRANCH   2   3
ENDBRANCH   1   2
BRANCH   1  11
ATOM     11  C   UNL     1      17.524  19.677  13.538  1.00  0.00     0.000 C 
BRANCH  11  12
ATOM     12  C   UNL     1      18.878  20.162  14.078  1.00  0.00     0.000 C 
BRANCH  12  13
ATOM     13  C   UNL     1      19.132  19.715  15.528  1.00  0.00     0.000 C 
BRANCH  13  14
ATOM     14  C   UNL     1      20.306  18.731  15.642  1.00  0.00     0.000 C 
BRANCH  14  15
ATOM     15  C   UNL     1      19.931  17.454  16.416  1.00  0.00     0.000 C 
BRANCH  15  16
ATOM     16  C   UNL     1      19.527  17.738  17.874  1.00  0.00     0.006 C 
BRANCH  16  17
ATOM     17  C   UNL     1      20.712  17.878  18.842  1.00  0.00     0.053 C 
BRANCH  17  18
ATOM     18  C   UNL     1      21.189  16.548  19.340  1.00  0.00     0.041 C 
ATOM     19  O   UNL     1      22.412  16.359  19.572  1.00  0.00    -0.550 OA
ATOM     20  O   UNL     1      20.278  15.527  19.580  1.00  0.00    -0.550 OA
ENDBRANCH  17  18
ENDBRANCH  16  17
ENDBRANCH  15  16
ENDBRANCH  14  15
ENDBRANCH  13  14
ENDBRANCH  12  13
ENDBRANCH  11  12
ENDBRANCH   1  11
TORSDOF 15
ENDMDL
MODEL 8
REMARK VINA RESULT:    -3.692      4.420      8.098
REMARK INTER + INTRA:          -9.063
REMARK INTER:                  -7.151
REMARK INTRA:                  -1.911
REMARK UNBOUND:                -2.134
REMARK SMILES O=C([O-])CCCCCCCCCCCCCCC(=O)[O-]
REMARK SMILES IDX 10 1 9 2 8 3 7 4 6 5 5 6 4 7 2 8 1 9 3 10 11 11 12 12 13 13
REMARK SMILES IDX 14 14 15 15 16 16 17 17 18 18 19 19 20 20
REMARK H PARENT
REMARK Flexibility Score: inf
ROOT
ATOM      1  C   UNL     1      10.624  17.193  13.431  1.00  0.00     0.000 C 
ENDROOT
BRANCH   1   2
ATOM      2  C   UNL     1      10.404  18.708  13.515  1.00  0.00     0.000 C 
BRANCH   2   3
ATOM      3  C   UNL     1      11.739  19.464  13.429  1.00  0.00     0.000 C 
BRANCH   3   4
ATOM      4  C   UNL     1      12.693  19.134  14.591  1.00  0.00     0.000 C 
BRANCH   4   5
ATOM      5  C   UNL     1      12.168  19.503  15.991  1.00  0.00     0.000 C 
BRANCH   5   6
ATOM      6  C   UNL     1      12.308  18.355  17.005  1.00  0.00     0.006 C 
BRANCH   6   7
ATOM      7  C   UNL     1      12.856  17.076  16.359  1.00  0.00     0.053 C 
BRANCH   7   8
ATOM      8  C   UNL     1      12.340  15.844  17.037  1.00  0.00     0.041 C 
ATOM      9  O   UNL     1      12.978  15.332  17.994  1.00  0.00    -0.550 OA
ATOM     10  O   UNL     1      11.168  15.246  16.594  1.00  0.00    -0.550 OA
ENDBRANCH   7   8
ENDBRANCH   6   7
ENDBRANCH   5   6
ENDBRANCH   4   5
ENDBRANCH   3   4
ENDBRANCH   2   3
ENDBRANCH   1   2
BRANCH   1  11
ATOM     11  C   UNL     1      10.259  16.661  12.037  1.00  0.00     0.000 C 
BRANCH  11  12
ATOM     12  C   UNL     1       8.839  16.077  11.980  1.00  0.00     0.000 C 
BRANCH  12  13
ATOM     13  C   UNL     1       8.207  16.190  10.582  1.00  0.00     0.000 C 
BRANCH  13  14
ATOM     14  C   UNL     1       6.972  17.104  10.568  1.00  0.00     0.000 C 
BRANCH  14  15
ATOM     15  C   UNL     1       7.248  18.477  11.206  1.00  0.00     0.000 C 
BRANCH  15  16
ATOM     16  C   UNL     1       7.734  19.521  10.184  1.00  0.00     0.006 C 
BRANCH  16  17
ATOM     17  C   UNL     1       9.125  20.102  10.489  1.00  0.00     0.053 C 
BRANCH  17  18
ATOM     18  C   UNL     1      10.199  19.436   9.685  1.00  0.00     0.041 C 
ATOM     19  O   UNL     1      11.412  19.663   9.936  1.00  0.00    -0.550 OA
ATOM     20  O   UNL     1       9.861  18.537   8.681  1.00  0.00    -0.550 OA
ENDBRANCH  17  18
ENDBRANCH  16  17
ENDBRANCH  15  16
ENDBRANCH  14  15
ENDBRANCH  13  14
ENDBRANCH  12  13
ENDBRANCH  11  12
ENDBRANCH   1  11
TORSDOF 15
ENDMDL
MODEL 9
REMARK VINA RESULT:    -3.674      2.613      3.574
REMARK INTER + INTRA:          -9.030
REMARK INTER:                  -7.572
REMARK INTRA:                  -1.458
REMARK UNBOUND:                -2.134
REMARK SMILES O=C([O-])CCCCCCCCCCCCCCC(=O)[O-]
REMARK SMILES IDX 10 1 9 2 8 3 7 4 6 5 5 6 4 7 2 8 1 9 3 10 11 11 12 12 13 13
REMARK SMILES IDX 14 14 15 15 16 16 17 17 18 18 19 19 20 20
REMARK H PARENT
REMARK Flexibility Score: inf
ROOT
ATOM      1  C   UNL     1      13.479  16.235  16.502  1.00  0.00     0.000 C 
ENDROOT
BRANCH   1   2
ATOM      2  C   UNL     1      12.081  15.838  16.991  1.00  0.00     0.000 C 
BRANCH   2   3
ATOM      3  C   UNL     1      10.990  16.493  16.130  1.00  0.00     0.000 C 
BRANCH   3   4
ATOM      4  C   UNL     1      11.517  17.002  14.776  1.00  0.00     0.000 C 
BRANCH   4   5
ATOM      5  C   UNL     1      10.848  18.289  14.258  1.00  0.00     0.000 C 
BRANCH   5   6
ATOM      6  C   UNL     1      10.299  18.145  12.828  1.00  0.00     0.006 C 
BRANCH   6   7
ATOM      7  C   UNL     1      10.326  16.689  12.342  1.00  0.00     0.053 C 
BRANCH   7   8
ATOM      8  C   UNL     1       9.190  16.393  11.412  1.00  0.00     0.041 C 
ATOM      9  O   UNL     1       9.292  16.651  10.183  1.00  0.00    -0.550 OA
ATOM     10  O   UNL     1       8.008  15.856  11.905  1.00  0.00    -0.550 OA
ENDBRANCH   7   8
ENDBRANCH   6   7
ENDBRANCH   5   6
ENDBRANCH   4   5
ENDBRANCH   3   4
ENDBRANCH   2   3
ENDBRANCH   1   2
BRANCH   1  11
ATOM     11  C   UNL     1      14.179  17.146  17.522  1.00  0.00     0.000 C 
BRANCH  11  12
ATOM     12  C   UNL     1      13.822  18.628  17.335  1.00  0.00     0.000 C 
BRANCH  12  13
ATOM     13  C   UNL     1      14.813  19.364  16.417  1.00  0.00     0.000 C 
BRANCH  13  14
ATOM     14  C   UNL     1      14.439  19.245  14.931  1.00  0.00     0.000 C 
BRANCH  14  15
ATOM     15  C   UNL     1      15.626  19.547  13.999  1.00  0.00     0.000 C 
BRANCH  15  16
ATOM     16  C   UNL     1      16.729  18.476  14.074  1.00  0.00     0.006 C 
BRANCH  16  17
ATOM     17  C   UNL     1      18.112  19.021  14.465  1.00  0.00     0.053 C 
BRANCH  17  18
ATOM     18  C   UNL     1      18.734  18.230  15.575  1.00  0.00     0.041 C 
ATOM     19  O   UNL     1      18.026  17.808  16.527  1.00  0.00    -0.550 OA
ATOM     20  O   UNL     1      20.090  17.931  15.541  1.00  0.00    -0.550 OA
ENDBRANCH  17  18
ENDBRANCH  16  17
ENDBRANCH  15  16
ENDBRANCH  14  15
ENDBRANCH  13  14
ENDBRANCH  12  13
ENDBRANCH  11  12
ENDBRANCH   1  11
TORSDOF 15
ENDMDL
