MODEL 1
REMARK VINA RESULT:    -7.923      0.000      0.000
REMARK INTER + INTRA:          -9.864
REMARK INTER:                  -9.544
REMARK INTRA:                  -0.320
REMARK UNBOUND:                -0.320
REMARK SMILES O=c1c(O)c(-c2ccc(O)c(O)c2)oc2cc(O)cc(O)c12
REMARK SMILES IDX 5 1 3 2 2 3 1 4 22 5 20 6 19 7 17 8 16 9 15 10 14 11 6 12
REMARK SMILES IDX 7 13 8 14 9 15 13 16 11 17 10 18 12 20 4 22 21 24 18 26
REMARK H PARENT 10 19 12 21 4 23 21 25 18 27
REMARK Flexibility Score: inf
ROOT
ATOM      1  C   UNL     1      14.409   5.966  80.883  1.00  0.00     0.180 A 
ATOM      2  C   UNL     1      15.052   4.968  81.634  1.00  0.00     0.208 A 
ATOM      3  C   UNL     1      16.154   4.301  81.078  1.00  0.00     0.238 A 
ATOM      4  O   UNL     1      16.770   3.462  81.784  1.00  0.00    -0.285 OA
ATOM      5  C   UNL     1      16.567   4.600  79.756  1.00  0.00     0.111 A 
ATOM      6  C   UNL     1      17.643   3.955  79.074  1.00  0.00     0.134 A 
ATOM      7  C   UNL     1      18.028   4.408  77.806  1.00  0.00     0.093 A 
ATOM      8  C   UNL     1      17.335   5.440  77.168  1.00  0.00     0.123 A 
ATOM      9  C   UNL     1      16.249   6.039  77.802  1.00  0.00     0.094 A 
ATOM     10  C   UNL     1      15.865   5.634  79.083  1.00  0.00     0.146 A 
ATOM     11  O   UNL     1      14.837   6.248  79.659  1.00  0.00    -0.452 OA
ENDROOT
BRANCH   1  12
ATOM     12  C   UNL     1      13.249   6.723  81.406  1.00  0.00     0.025 A 
ATOM     13  C   UNL     1      13.463   7.925  82.094  1.00  0.00     0.016 A 
ATOM     14  C   UNL     1      12.385   8.644  82.613  1.00  0.00     0.051 A 
ATOM     15  C   UNL     1      11.077   8.173  82.471  1.00  0.00     0.157 A 
ATOM     16  C   UNL     1      11.937   6.233  81.281  1.00  0.00     0.062 A 
ATOM     17  C   UNL     1      10.849   6.946  81.802  1.00  0.00     0.158 A 
BRANCH  15  18
ATOM     18  O   UNL     1      10.043   8.943  83.007  1.00  0.00    -0.504 OA
ATOM     19  H   UNL     1      10.064   9.950  83.071  1.00  0.00     0.293 HD
ENDBRANCH  15  18
BRANCH  17  20
ATOM     20  O   UNL     1       9.574   6.401  81.639  1.00  0.00    -0.504 OA
ATOM     21  H   UNL     1       9.224   6.038  80.764  1.00  0.00     0.293 HD
ENDBRANCH  17  20
ENDBRANCH   1  12
BRANCH   2  22
ATOM     22  O   UNL     1      14.583   4.633  82.907  1.00  0.00    -0.502 OA
ATOM     23  H   UNL     1      14.163   5.314  83.529  1.00  0.00     0.293 HD
ENDBRANCH   2  22
BRANCH   6  24
ATOM     24  O   UNL     1      18.345   2.857  79.582  1.00  0.00    -0.507 OA
ATOM     25  H   UNL     1      18.614   2.738  80.546  1.00  0.00     0.293 HD
ENDBRANCH   6  24
BRANCH   8  26
ATOM     26  O   UNL     1      17.714   5.872  75.900  1.00  0.00    -0.508 OA
ATOM     27  H   UNL     1      18.672   6.129  75.692  1.00  0.00     0.293 HD
ENDBRANCH   8  26
TORSDOF 6
ENDMDL
MODEL 2
REMARK VINA RESULT:    -7.909      5.853     11.241
REMARK INTER + INTRA:          -9.848
REMARK INTER:                  -9.517
REMARK INTRA:                  -0.331
REMARK UNBOUND:                -0.320
REMARK SMILES O=c1c(O)c(-c2ccc(O)c(O)c2)oc2cc(O)cc(O)c12
REMARK SMILES IDX 5 1 3 2 2 3 1 4 22 5 20 6 19 7 17 8 16 9 15 10 14 11 6 12
REMARK SMILES IDX 7 13 8 14 9 15 13 16 11 17 10 18 12 20 4 22 21 24 18 26
REMARK H PARENT 10 19 12 21 4 23 21 25 18 27
REMARK Flexibility Score: inf
ROOT
ATOM      1  C   UNL     1      20.608   1.729  74.993  1.00  0.00     0.180 A 
ATOM      2  C   UNL     1      20.060   2.691  74.129  1.00  0.00     0.208 A 
ATOM      3  C   UNL     1      19.415   3.811  74.678  1.00  0.00     0.238 A 
ATOM      4  O   UNL     1      18.993   4.705  73.900  1.00  0.00    -0.285 OA
ATOM      5  C   UNL     1      19.277   3.927  76.083  1.00  0.00     0.111 A 
ATOM      6  C   UNL     1      18.603   4.996  76.748  1.00  0.00     0.134 A 
ATOM      7  C   UNL     1      18.622   5.060  78.147  1.00  0.00     0.093 A 
ATOM      8  C   UNL     1      19.235   4.060  78.906  1.00  0.00     0.123 A 
ATOM      9  C   UNL     1      19.847   2.985  78.268  1.00  0.00     0.094 A 
ATOM     10  C   UNL     1      19.878   2.912  76.873  1.00  0.00     0.146 A 
ATOM     11  O   UNL     1      20.492   1.880  76.306  1.00  0.00    -0.452 OA
ENDROOT
BRANCH   1  12
ATOM     12  C   UNL     1      21.316   0.529  74.490  1.00  0.00     0.025 A 
ATOM     13  C   UNL     1      20.602  -0.662  74.295  1.00  0.00     0.016 A 
ATOM     14  C   UNL     1      21.253  -1.809  73.841  1.00  0.00     0.051 A 
ATOM     15  C   UNL     1      22.629  -1.798  73.587  1.00  0.00     0.157 A 
ATOM     16  C   UNL     1      22.702   0.539  74.258  1.00  0.00     0.062 A 
ATOM     17  C   UNL     1      23.365  -0.609  73.806  1.00  0.00     0.158 A 
BRANCH  15  18
ATOM     18  O   UNL     1      23.218  -2.977  73.127  1.00  0.00    -0.504 OA
ATOM     19  H   UNL     1      23.025  -3.891  73.509  1.00  0.00     0.293 HD
ENDBRANCH  15  18
BRANCH  17  20
ATOM     20  O   UNL     1      24.743  -0.526  73.594  1.00  0.00    -0.504 OA
ATOM     21  H   UNL     1      25.164  -0.070  72.799  1.00  0.00     0.293 HD
ENDBRANCH  17  20
ENDBRANCH   1  12
BRANCH   2  22
ATOM     22  O   UNL     1      20.140   2.521  72.744  1.00  0.00    -0.502 OA
ATOM     23  H   UNL     1      19.867   3.244  72.090  1.00  0.00     0.293 HD
ENDBRANCH   2  22
BRANCH   6  24
ATOM     24  O   UNL     1      17.884   5.998  76.089  1.00  0.00    -0.507 OA
ATOM     25  H   UNL     1      17.031   5.854  75.573  1.00  0.00     0.293 HD
ENDBRANCH   6  24
BRANCH   8  26
ATOM     26  O   UNL     1      19.233   4.123  80.297  1.00  0.00    -0.508 OA
ATOM     27  H   UNL     1      19.281   3.286  80.867  1.00  0.00     0.293 HD
ENDBRANCH   8  26
TORSDOF 6
ENDMDL
MODEL 3
REMARK VINA RESULT:    -7.848      5.442     10.880
REMARK INTER + INTRA:          -9.774
REMARK INTER:                  -9.454
REMARK INTRA:                  -0.320
REMARK UNBOUND:                -0.320
REMARK SMILES O=c1c(O)c(-c2ccc(O)c(O)c2)oc2cc(O)cc(O)c12
REMARK SMILES IDX 5 1 3 2 2 3 1 4 22 5 20 6 19 7 17 8 16 9 15 10 14 11 6 12
REMARK SMILES IDX 7 13 8 14 9 15 13 16 11 17 10 18 12 20 4 22 21 24 18 26
REMARK H PARENT 10 19 12 21 4 23 21 25 18 27
REMARK Flexibility Score: inf
ROOT
ATOM      1  C   UNL     1      19.946   1.189  75.214  1.00  0.00     0.180 A 
ATOM      2  C   UNL     1      18.926   1.730  74.415  1.00  0.00     0.208 A 
ATOM      3  C   UNL     1      18.126   2.759  74.935  1.00  0.00     0.238 A 
ATOM      4  O   UNL     1      17.264   3.289  74.189  1.00  0.00    -0.285 OA
ATOM      5  C   UNL     1      18.319   3.197  76.269  1.00  0.00     0.111 A 
ATOM      6  C   UNL     1      17.538   4.202  76.916  1.00  0.00     0.134 A 
ATOM      7  C   UNL     1      17.890   4.628  78.203  1.00  0.00     0.093 A 
ATOM      8  C   UNL     1      18.954   4.040  78.891  1.00  0.00     0.123 A 
ATOM      9  C   UNL     1      19.688   3.022  78.289  1.00  0.00     0.094 A 
ATOM     10  C   UNL     1      19.386   2.601  76.992  1.00  0.00     0.146 A 
ATOM     11  O   UNL     1      20.126   1.641  76.449  1.00  0.00    -0.452 OA
ENDROOT
BRANCH   1  12
ATOM     12  C   UNL     1      20.840   0.112  74.730  1.00  0.00     0.025 A 
ATOM     13  C   UNL     1      21.990   0.444  74.001  1.00  0.00     0.016 A 
ATOM     14  C   UNL     1      22.835  -0.556  73.518  1.00  0.00     0.051 A 
ATOM     15  C   UNL     1      22.543  -1.906  73.739  1.00  0.00     0.157 A 
ATOM     16  C   UNL     1      20.531  -1.244  74.935  1.00  0.00     0.062 A 
ATOM     17  C   UNL     1      21.371  -2.256  74.451  1.00  0.00     0.158 A 
BRANCH  15  18
ATOM     18  O   UNL     1      23.433  -2.857  73.237  1.00  0.00    -0.504 OA
ATOM     19  H   UNL     1      24.436  -2.743  73.227  1.00  0.00     0.293 HD
ENDBRANCH  15  18
BRANCH  17  20
ATOM     20  O   UNL     1      21.003  -3.581  74.694  1.00  0.00    -0.504 OA
ATOM     21  H   UNL     1      21.660  -4.323  74.884  1.00  0.00     0.293 HD
ENDBRANCH  17  20
ENDBRANCH   1  12
BRANCH   2  22
ATOM     22  O   UNL     1      18.701   1.232  73.128  1.00  0.00    -0.502 OA
ATOM     23  H   UNL     1      17.785   1.231  72.697  1.00  0.00     0.293 HD
ENDBRANCH   2  22
BRANCH   6  24
ATOM     24  O   UNL     1      16.400   4.791  76.354  1.00  0.00    -0.507 OA
ATOM     25  H   UNL     1      15.857   4.398  75.602  1.00  0.00     0.293 HD
ENDBRANCH   6  24
BRANCH   8  26
ATOM     26  O   UNL     1      19.286   4.459  80.177  1.00  0.00    -0.508 OA
ATOM     27  H   UNL     1      18.794   4.109  80.992  1.00  0.00     0.293 HD
ENDBRANCH   8  26
TORSDOF 6
ENDMDL
MODEL 4
REMARK VINA RESULT:    -7.844      3.701      5.427
REMARK INTER + INTRA:          -9.770
REMARK INTER:                  -9.581
REMARK INTRA:                  -0.189
REMARK UNBOUND:                -0.320
REMARK SMILES O=c1c(O)c(-c2ccc(O)c(O)c2)oc2cc(O)cc(O)c12
REMARK SMILES IDX 5 1 3 2 2 3 1 4 22 5 20 6 19 7 17 8 16 9 15 10 14 11 6 12
REMARK SMILES IDX 7 13 8 14 9 15 13 16 11 17 10 18 12 20 4 22 21 24 18 26
REMARK H PARENT 10 19 12 21 4 23 21 25 18 27
REMARK Flexibility Score: inf
ROOT
ATOM      1  C   UNL     1      17.358   5.127  77.807  1.00  0.00     0.180 A 
ATOM      2  C   UNL     1      16.319   4.354  77.262  1.00  0.00     0.208 A 
ATOM      3  C   UNL     1      16.554   3.633  76.081  1.00  0.00     0.238 A 
ATOM      4  O   UNL     1      15.645   2.885  75.639  1.00  0.00    -0.285 OA
ATOM      5  C   UNL     1      17.807   3.739  75.427  1.00  0.00     0.111 A 
ATOM      6  C   UNL     1      18.141   3.090  74.200  1.00  0.00     0.134 A 
ATOM      7  C   UNL     1      19.447   3.182  73.704  1.00  0.00     0.093 A 
ATOM      8  C   UNL     1      20.414   3.954  74.354  1.00  0.00     0.123 A 
ATOM      9  C   UNL     1      20.082   4.635  75.522  1.00  0.00     0.094 A 
ATOM     10  C   UNL     1      18.798   4.532  76.063  1.00  0.00     0.146 A 
ATOM     11  O   UNL     1      18.532   5.182  77.190  1.00  0.00    -0.452 OA
ENDROOT
BRANCH   1  12
ATOM     12  C   UNL     1      17.191   5.903  79.057  1.00  0.00     0.025 A 
ATOM     13  C   UNL     1      16.345   7.020  79.069  1.00  0.00     0.016 A 
ATOM     14  C   UNL     1      16.189   7.777  80.231  1.00  0.00     0.051 A 
ATOM     15  C   UNL     1      16.883   7.445  81.399  1.00  0.00     0.157 A 
ATOM     16  C   UNL     1      17.908   5.579  80.222  1.00  0.00     0.062 A 
ATOM     17  C   UNL     1      17.761   6.335  81.393  1.00  0.00     0.158 A 
BRANCH  15  18
ATOM     18  O   UNL     1      16.678   8.237  82.529  1.00  0.00    -0.504 OA
ATOM     19  H   UNL     1      15.966   8.058  83.222  1.00  0.00     0.293 HD
ENDBRANCH  15  18
BRANCH  17  20
ATOM     20  O   UNL     1      18.503   5.953  82.512  1.00  0.00    -0.504 OA
ATOM     21  H   UNL     1      18.105   5.514  83.329  1.00  0.00     0.293 HD
ENDBRANCH  17  20
ENDBRANCH   1  12
BRANCH   2  22
ATOM     22  O   UNL     1      15.066   4.323  77.880  1.00  0.00    -0.502 OA
ATOM     23  H   UNL     1      14.871   3.741  78.685  1.00  0.00     0.293 HD
ENDBRANCH   2  22
BRANCH   6  24
ATOM     24  O   UNL     1      17.230   2.368  73.423  1.00  0.00    -0.507 OA
ATOM     25  H   UNL     1      16.631   2.764  72.716  1.00  0.00     0.293 HD
ENDBRANCH   6  24
BRANCH   8  26
ATOM     26  O   UNL     1      21.705   4.054  73.843  1.00  0.00    -0.508 OA
ATOM     27  H   UNL     1      22.404   4.645  74.279  1.00  0.00     0.293 HD
ENDBRANCH   8  26
TORSDOF 6
ENDMDL
MODEL 5
REMARK VINA RESULT:    -7.816      3.500      7.118
REMARK INTER + INTRA:          -9.736
REMARK INTER:                  -9.829
REMARK INTRA:                   0.094
REMARK UNBOUND:                -0.320
REMARK SMILES O=c1c(O)c(-c2ccc(O)c(O)c2)oc2cc(O)cc(O)c12
REMARK SMILES IDX 5 1 3 2 2 3 1 4 22 5 20 6 19 7 17 8 16 9 15 10 14 11 6 12
REMARK SMILES IDX 7 13 8 14 9 15 13 16 11 17 10 18 12 20 4 22 21 24 18 26
REMARK H PARENT 10 19 12 21 4 23 21 25 18 27
REMARK Flexibility Score: inf
ROOT
ATOM      1  C   UNL     1      15.207   4.472  77.010  1.00  0.00     0.180 A 
ATOM      2  C   UNL     1      16.292   5.362  76.943  1.00  0.00     0.208 A 
ATOM      3  C   UNL     1      16.493   6.272  77.992  1.00  0.00     0.238 A 
ATOM      4  O   UNL     1      17.507   7.015  77.961  1.00  0.00    -0.285 OA
ATOM      5  C   UNL     1      15.574   6.320  79.070  1.00  0.00     0.111 A 
ATOM      6  C   UNL     1      15.652   7.232  80.165  1.00  0.00     0.134 A 
ATOM      7  C   UNL     1      14.747   7.115  81.227  1.00  0.00     0.093 A 
ATOM      8  C   UNL     1      13.726   6.162  81.203  1.00  0.00     0.123 A 
ATOM      9  C   UNL     1      13.608   5.303  80.113  1.00  0.00     0.094 A 
ATOM     10  C   UNL     1      14.519   5.370  79.056  1.00  0.00     0.146 A 
ATOM     11  O   UNL     1      14.381   4.517  78.048  1.00  0.00    -0.452 OA
ENDROOT
BRANCH   1  12
ATOM     12  C   UNL     1      14.939   3.473  75.949  1.00  0.00     0.025 A 
ATOM     13  C   UNL     1      15.999   2.718  75.429  1.00  0.00     0.016 A 
ATOM     14  C   UNL     1      15.772   1.786  74.415  1.00  0.00     0.051 A 
ATOM     15  C   UNL     1      14.489   1.600  73.890  1.00  0.00     0.157 A 
ATOM     16  C   UNL     1      13.652   3.306  75.409  1.00  0.00     0.062 A 
ATOM     17  C   UNL     1      13.415   2.376  74.388  1.00  0.00     0.158 A 
BRANCH  15  18
ATOM     18  O   UNL     1      14.327   0.648  72.883  1.00  0.00    -0.504 OA
ATOM     19  H   UNL     1      14.444   0.840  71.899  1.00  0.00     0.293 HD
ENDBRANCH  15  18
BRANCH  17  20
ATOM     20  O   UNL     1      12.112   2.261  73.901  1.00  0.00    -0.504 OA
ATOM     21  H   UNL     1      11.286   2.463  74.446  1.00  0.00     0.293 HD
ENDBRANCH  17  20
ENDBRANCH   1  12
BRANCH   2  22
ATOM     22  O   UNL     1      17.144   5.351  75.835  1.00  0.00    -0.502 OA
ATOM     23  H   UNL     1      17.879   4.664  75.720  1.00  0.00     0.293 HD
ENDBRANCH   2  22
BRANCH   6  24
ATOM     24  O   UNL     1      16.576   8.279  80.247  1.00  0.00    -0.507 OA
ATOM     25  H   UNL     1      16.354   9.256  80.144  1.00  0.00     0.293 HD
ENDBRANCH   6  24
BRANCH   8  26
ATOM     26  O   UNL     1      12.820   6.065  82.256  1.00  0.00    -0.508 OA
ATOM     27  H   UNL     1      13.112   6.178  83.220  1.00  0.00     0.293 HD
ENDBRANCH   8  26
TORSDOF 6
ENDMDL
MODEL 6
REMARK VINA RESULT:    -7.812      3.738      7.942
REMARK INTER + INTRA:          -9.731
REMARK INTER:                  -9.605
REMARK INTRA:                  -0.126
REMARK UNBOUND:                -0.320
REMARK SMILES O=c1c(O)c(-c2ccc(O)c(O)c2)oc2cc(O)cc(O)c12
REMARK SMILES IDX 5 1 3 2 2 3 1 4 22 5 20 6 19 7 17 8 16 9 15 10 14 11 6 12
REMARK SMILES IDX 7 13 8 14 9 15 13 16 11 17 10 18 12 20 4 22 21 24 18 26
REMARK H PARENT 10 19 12 21 4 23 21 25 18 27
REMARK Flexibility Score: inf
ROOT
ATOM      1  C   UNL     1      18.628   3.963  78.255  1.00  0.00     0.180 A 
ATOM      2  C   UNL     1      18.012   2.842  78.836  1.00  0.00     0.208 A 
ATOM      3  C   UNL     1      17.296   3.002  80.032  1.00  0.00     0.238 A 
ATOM      4  O   UNL     1      16.685   2.010  80.507  1.00  0.00    -0.285 OA
ATOM      5  C   UNL     1      17.251   4.270  80.664  1.00  0.00     0.111 A 
ATOM      6  C   UNL     1      16.593   4.538  81.902  1.00  0.00     0.134 A 
ATOM      7  C   UNL     1      16.524   5.854  82.377  1.00  0.00     0.093 A 
ATOM      8  C   UNL     1      17.145   6.901  81.691  1.00  0.00     0.123 A 
ATOM      9  C   UNL     1      17.836   6.640  80.511  1.00  0.00     0.094 A 
ATOM     10  C   UNL     1      17.890   5.345  79.992  1.00  0.00     0.146 A 
ATOM     11  O   UNL     1      18.542   5.146  78.852  1.00  0.00    -0.452 OA
ENDROOT
BRANCH   1  12
ATOM     12  C   UNL     1      19.389   3.877  76.987  1.00  0.00     0.025 A 
ATOM     13  C   UNL     1      20.544   3.086  76.928  1.00  0.00     0.016 A 
ATOM     14  C   UNL     1      21.287   3.007  75.749  1.00  0.00     0.051 A 
ATOM     15  C   UNL     1      20.902   3.725  74.612  1.00  0.00     0.157 A 
ATOM     16  C   UNL     1      19.010   4.619  75.854  1.00  0.00     0.062 A 
ATOM     17  C   UNL     1      19.752   4.548  74.667  1.00  0.00     0.158 A 
BRANCH  15  18
ATOM     18  O   UNL     1      21.683   3.597  73.463  1.00  0.00    -0.504 OA
ATOM     19  H   UNL     1      21.733   4.293  72.733  1.00  0.00     0.293 HD
ENDBRANCH  15  18
BRANCH  17  20
ATOM     20  O   UNL     1      19.316   5.310  73.581  1.00  0.00    -0.504 OA
ATOM     21  H   UNL     1      19.746   6.176  73.291  1.00  0.00     0.293 HD
ENDBRANCH  17  20
ENDBRANCH   1  12
BRANCH   2  22
ATOM     22  O   UNL     1      18.132   1.585  78.238  1.00  0.00    -0.502 OA
ATOM     23  H   UNL     1      17.698   1.360  77.351  1.00  0.00     0.293 HD
ENDBRANCH   2  22
BRANCH   6  24
ATOM     24  O   UNL     1      16.017   3.554  82.712  1.00  0.00    -0.507 OA
ATOM     25  H   UNL     1      15.658   2.671  82.383  1.00  0.00     0.293 HD
ENDBRANCH   6  24
BRANCH   8  26
ATOM     26  O   UNL     1      17.087   8.204  82.180  1.00  0.00    -0.508 OA
ATOM     27  H   UNL     1      17.075   8.397  83.175  1.00  0.00     0.293 HD
ENDBRANCH   8  26
TORSDOF 6
ENDMDL
MODEL 7
REMARK VINA RESULT:    -7.810      5.139      6.900
REMARK INTER + INTRA:          -9.728
REMARK INTER:                  -9.810
REMARK INTRA:                   0.082
REMARK UNBOUND:                -0.320
REMARK SMILES O=c1c(O)c(-c2ccc(O)c(O)c2)oc2cc(O)cc(O)c12
REMARK SMILES IDX 5 1 3 2 2 3 1 4 22 5 20 6 19 7 17 8 16 9 15 10 14 11 6 12
REMARK SMILES IDX 7 13 8 14 9 15 13 16 11 17 10 18 12 20 4 22 21 24 18 26
REMARK H PARENT 10 19 12 21 4 23 21 25 18 27
REMARK Flexibility Score: inf
ROOT
ATOM      1  C   UNL     1      18.415   1.777  79.038  1.00  0.00     0.180 A 
ATOM      2  C   UNL     1      19.187   2.947  79.140  1.00  0.00     0.208 A 
ATOM      3  C   UNL     1      20.085   3.263  78.109  1.00  0.00     0.238 A 
ATOM      4  O   UNL     1      20.717   4.349  78.172  1.00  0.00    -0.285 OA
ATOM      5  C   UNL     1      20.243   2.377  77.015  1.00  0.00     0.111 A 
ATOM      6  C   UNL     1      21.157   2.573  75.936  1.00  0.00     0.134 A 
ATOM      7  C   UNL     1      21.150   1.684  74.854  1.00  0.00     0.093 A 
ATOM      8  C   UNL     1      20.308   0.569  74.843  1.00  0.00     0.123 A 
ATOM      9  C   UNL     1      19.451   0.339  75.917  1.00  0.00     0.094 A 
ATOM     10  C   UNL     1      19.408   1.229  76.992  1.00  0.00     0.146 A 
ATOM     11  O   UNL     1      18.561   0.982  77.985  1.00  0.00    -0.452 OA
ENDROOT
BRANCH   1  12
ATOM     12  C   UNL     1      17.436   1.384  80.077  1.00  0.00     0.025 A 
ATOM     13  C   UNL     1      16.554   2.343  80.592  1.00  0.00     0.016 A 
ATOM     14  C   UNL     1      15.637   1.999  81.586  1.00  0.00     0.051 A 
ATOM     15  C   UNL     1      15.592   0.698  82.097  1.00  0.00     0.157 A 
ATOM     16  C   UNL     1      17.411   0.081  80.604  1.00  0.00     0.062 A 
ATOM     17  C   UNL     1      16.496  -0.273  81.605  1.00  0.00     0.158 A 
BRANCH  15  18
ATOM     18  O   UNL     1      14.647   0.416  83.085  1.00  0.00    -0.504 OA
ATOM     19  H   UNL     1      14.028   1.105  83.488  1.00  0.00     0.293 HD
ENDBRANCH  15  18
BRANCH  17  20
ATOM     20  O   UNL     1      16.525  -1.586  82.080  1.00  0.00    -0.504 OA
ATOM     21  H   UNL     1      16.032  -1.899  82.903  1.00  0.00     0.293 HD
ENDBRANCH  17  20
ENDBRANCH   1  12
BRANCH   2  22
ATOM     22  O   UNL     1      19.072   3.769  80.265  1.00  0.00    -0.502 OA
ATOM     23  H   UNL     1      18.861   3.406  81.186  1.00  0.00     0.293 HD
ENDBRANCH   2  22
BRANCH   6  24
ATOM     24  O   UNL     1      22.102   3.603  75.888  1.00  0.00    -0.507 OA
ATOM     25  H   UNL     1      22.973   3.566  75.383  1.00  0.00     0.293 HD
ENDBRANCH   6  24
BRANCH   8  26
ATOM     26  O   UNL     1      20.320  -0.320  73.771  1.00  0.00    -0.508 OA
ATOM     27  H   UNL     1      20.950  -1.114  73.748  1.00  0.00     0.293 HD
ENDBRANCH   8  26
TORSDOF 6
ENDMDL
MODEL 8
REMARK VINA RESULT:    -7.737      4.017      6.554
REMARK INTER + INTRA:          -9.641
REMARK INTER:                  -9.560
REMARK INTRA:                  -0.081
REMARK UNBOUND:                -0.320
REMARK SMILES O=c1c(O)c(-c2ccc(O)c(O)c2)oc2cc(O)cc(O)c12
REMARK SMILES IDX 5 1 3 2 2 3 1 4 22 5 20 6 19 7 17 8 16 9 15 10 14 11 6 12
REMARK SMILES IDX 7 13 8 14 9 15 13 16 11 17 10 18 12 20 4 22 21 24 18 26
REMARK H PARENT 10 19 12 21 4 23 21 25 18 27
REMARK Flexibility Score: inf
ROOT
ATOM      1  C   UNL     1      18.457   3.834  77.724  1.00  0.00     0.180 A 
ATOM      2  C   UNL     1      19.172   4.019  76.529  1.00  0.00     0.208 A 
ATOM      3  C   UNL     1      19.611   2.892  75.816  1.00  0.00     0.238 A 
ATOM      4  O   UNL     1      20.185   3.064  74.710  1.00  0.00    -0.285 OA
ATOM      5  C   UNL     1      19.380   1.595  76.335  1.00  0.00     0.111 A 
ATOM      6  C   UNL     1      19.820   0.383  75.721  1.00  0.00     0.134 A 
ATOM      7  C   UNL     1      19.440  -0.847  76.271  1.00  0.00     0.093 A 
ATOM      8  C   UNL     1      18.691  -0.910  77.449  1.00  0.00     0.123 A 
ATOM      9  C   UNL     1      18.304   0.266  78.086  1.00  0.00     0.094 A 
ATOM     10  C   UNL     1      18.635   1.509  77.541  1.00  0.00     0.146 A 
ATOM     11  O   UNL     1      18.226   2.605  78.169  1.00  0.00    -0.452 OA
ENDROOT
BRANCH   1  12
ATOM     12  C   UNL     1      17.949   4.972  78.523  1.00  0.00     0.025 A 
ATOM     13  C   UNL     1      17.077   5.897  77.931  1.00  0.00     0.016 A 
ATOM     14  C   UNL     1      16.603   6.987  78.661  1.00  0.00     0.051 A 
ATOM     15  C   UNL     1      16.998   7.187  79.987  1.00  0.00     0.157 A 
ATOM     16  C   UNL     1      18.367   5.181  79.849  1.00  0.00     0.062 A 
ATOM     17  C   UNL     1      17.898   6.275  80.588  1.00  0.00     0.158 A 
BRANCH  15  18
ATOM     18  O   UNL     1      16.481   8.293  80.664  1.00  0.00    -0.504 OA
ATOM     19  H   UNL     1      16.724   9.249  80.451  1.00  0.00     0.293 HD
ENDBRANCH  15  18
BRANCH  17  20
ATOM     20  O   UNL     1      18.354   6.418  81.900  1.00  0.00    -0.504 OA
ATOM     21  H   UNL     1      18.083   5.812  82.660  1.00  0.00     0.293 HD
ENDBRANCH  17  20
ENDBRANCH   1  12
BRANCH   2  22
ATOM     22  O   UNL     1      19.457   5.309  76.072  1.00  0.00    -0.502 OA
ATOM     23  H   UNL     1      19.808   5.491  75.140  1.00  0.00     0.293 HD
ENDBRANCH   2  22
BRANCH   6  24
ATOM     24  O   UNL     1      20.645   0.332  74.593  1.00  0.00    -0.507 OA
ATOM     25  H   UNL     1      21.066  -0.505  74.222  1.00  0.00     0.293 HD
ENDBRANCH   6  24
BRANCH   8  26
ATOM     26  O   UNL     1      18.333  -2.139  77.999  1.00  0.00    -0.508 OA
ATOM     27  H   UNL     1      17.730  -2.201  78.811  1.00  0.00     0.293 HD
ENDBRANCH   8  26
TORSDOF 6
ENDMDL
MODEL 9
REMARK VINA RESULT:    -7.729      2.428      3.996
REMARK INTER + INTRA:          -9.631
REMARK INTER:                  -9.377
REMARK INTRA:                  -0.254
REMARK UNBOUND:                -0.320
REMARK SMILES O=c1c(O)c(-c2ccc(O)c(O)c2)oc2cc(O)cc(O)c12
REMARK SMILES IDX 5 1 3 2 2 3 1 4 22 5 20 6 19 7 17 8 16 9 15 10 14 11 6 12
REMARK SMILES IDX 7 13 8 14 9 15 13 16 11 17 10 18 12 20 4 22 21 24 18 26
REMARK H PARENT 10 19 12 21 4 23 21 25 18 27
REMARK Flexibility Score: inf
ROOT
ATOM      1  C   UNL     1      17.660   5.535  78.690  1.00  0.00     0.180 A 
ATOM      2  C   UNL     1      18.752   4.905  79.309  1.00  0.00     0.208 A 
ATOM      3  C   UNL     1      19.766   4.357  78.508  1.00  0.00     0.238 A 
ATOM      4  O   UNL     1      20.776   3.860  79.069  1.00  0.00    -0.285 OA
ATOM      5  C   UNL     1      19.648   4.395  77.096  1.00  0.00     0.111 A 
ATOM      6  C   UNL     1      20.592   3.830  76.186  1.00  0.00     0.134 A 
ATOM      7  C   UNL     1      20.424   4.022  74.809  1.00  0.00     0.093 A 
ATOM      8  C   UNL     1      19.311   4.702  74.307  1.00  0.00     0.123 A 
ATOM      9  C   UNL     1      18.357   5.209  75.184  1.00  0.00     0.094 A 
ATOM     10  C   UNL     1      18.516   5.067  76.565  1.00  0.00     0.146 A 
ATOM     11  O   UNL     1      17.592   5.584  77.365  1.00  0.00    -0.452 OA
ENDROOT
BRANCH   1  12
ATOM     12  C   UNL     1      16.559   6.149  79.468  1.00  0.00     0.025 A 
ATOM     13  C   UNL     1      16.782   7.358  80.143  1.00  0.00     0.016 A 
ATOM     14  C   UNL     1      15.765   7.943  80.897  1.00  0.00     0.051 A 
ATOM     15  C   UNL     1      14.513   7.330  81.007  1.00  0.00     0.157 A 
ATOM     16  C   UNL     1      15.310   5.518  79.594  1.00  0.00     0.062 A 
ATOM     17  C   UNL     1      14.284   6.097  80.352  1.00  0.00     0.158 A 
BRANCH  15  18
ATOM     18  O   UNL     1      13.536   7.971  81.771  1.00  0.00    -0.504 OA
ATOM     19  H   UNL     1      13.546   8.957  81.989  1.00  0.00     0.293 HD
ENDBRANCH  15  18
BRANCH  17  20
ATOM     20  O   UNL     1      13.067   5.415  80.432  1.00  0.00    -0.504 OA
ATOM     21  H   UNL     1      12.962   4.427  80.251  1.00  0.00     0.293 HD
ENDBRANCH  17  20
ENDBRANCH   1  12
BRANCH   2  22
ATOM     22  O   UNL     1      18.813   4.810  80.702  1.00  0.00    -0.502 OA
ATOM     23  H   UNL     1      18.405   5.507  81.314  1.00  0.00     0.293 HD
ENDBRANCH   2  22
BRANCH   6  24
ATOM     24  O   UNL     1      21.690   3.057  76.577  1.00  0.00    -0.507 OA
ATOM     25  H   UNL     1      22.368   3.325  77.272  1.00  0.00     0.293 HD
ENDBRANCH   6  24
BRANCH   8  26
ATOM     26  O   UNL     1      19.144   4.873  72.935  1.00  0.00    -0.508 OA
ATOM     27  H   UNL     1      19.872   5.276  72.357  1.00  0.00     0.293 HD
ENDBRANCH   8  26
TORSDOF 6
ENDMDL
