MODEL 1
REMARK VINA RESULT:    -4.776      0.000      0.000
REMARK INTER + INTRA:          -8.722
REMARK INTER:                  -7.569
REMARK INTRA:                  -1.153
REMARK UNBOUND:                -1.153
REMARK SMILES CCCCCCCCCCCC(=O)[O-]
REMARK SMILES IDX 7 1 8 2 9 3 10 4 11 5 12 6 13 7 14 8 6 9 5 10 4 11 3 12 2 13
REMARK SMILES IDX 1 14
REMARK H PARENT
REMARK Flexibility Score: inf
ROOT
ATOM      1  C   UNL     1     -26.496 -30.478 -10.867  1.00  0.00     0.000 C 
ENDROOT
BRANCH   1   2
ATOM      2  C   UNL     1     -25.735 -31.789 -10.606  1.00  0.00     0.000 C 
BRANCH   2   3
ATOM      3  C   UNL     1     -24.245 -31.696 -10.977  1.00  0.00     0.000 C 
BRANCH   3   4
ATOM      4  C   UNL     1     -23.829 -32.708 -12.059  1.00  0.00     0.006 C 
BRANCH   4   5
ATOM      5  C   UNL     1     -24.750 -33.936 -12.150  1.00  0.00     0.053 C 
BRANCH   5   6
ATOM      6  C   UNL     1     -24.027 -35.165 -12.613  1.00  0.00     0.041 C 
ATOM      7  O   UNL     1     -22.769 -35.180 -12.654  1.00  0.00    -0.550 OA
ATOM      8  O   UNL     1     -24.740 -36.305 -12.964  1.00  0.00    -0.550 OA
ENDBRANCH   5   6
ENDBRANCH   4   5
ENDBRANCH   3   4
ENDBRANCH   2   3
ENDBRANCH   1   2
BRANCH   1   9
ATOM      9  C   UNL     1     -26.979 -30.358 -12.322  1.00  0.00     0.000 C 
BRANCH   9  10
ATOM     10  C   UNL     1     -28.283 -31.135 -12.585  1.00  0.00    -0.000 C 
BRANCH  10  11
ATOM     11  C   UNL     1     -28.104 -32.491 -13.297  1.00  0.00    -0.000 C 
BRANCH  11  12
ATOM     12  C   UNL     1     -28.431 -33.730 -12.440  1.00  0.00    -0.000 C 
BRANCH  12  13
ATOM     13  C   UNL     1     -28.021 -35.074 -13.067  1.00  0.00    -0.003 C 
ATOM     14  C   UNL     1     -27.707 -34.964 -14.558  1.00  0.00     0.004 C 
ENDBRANCH  12  13
ENDBRANCH  11  12
ENDBRANCH  10  11
ENDBRANCH   9  10
ENDBRANCH   1   9
TORSDOF 10
ENDMDL
MODEL 2
REMARK VINA RESULT:    -4.547      1.567      2.443
REMARK INTER + INTRA:          -8.359
REMARK INTER:                  -7.384
REMARK INTRA:                  -0.975
REMARK UNBOUND:                -1.153
REMARK SMILES CCCCCCCCCCCC(=O)[O-]
REMARK SMILES IDX 7 1 8 2 9 3 10 4 11 5 12 6 13 7 14 8 6 9 5 10 4 11 3 12 2 13
REMARK SMILES IDX 1 14
REMARK H PARENT
REMARK Flexibility Score: inf
ROOT
ATOM      1  C   UNL     1     -25.118 -32.221 -11.126  1.00  0.00     0.000 C 
ENDROOT
BRANCH   1   2
ATOM      2  C   UNL     1     -24.337 -33.049 -12.160  1.00  0.00     0.000 C 
BRANCH   2   3
ATOM      3  C   UNL     1     -24.680 -34.548 -12.103  1.00  0.00     0.000 C 
BRANCH   3   4
ATOM      4  C   UNL     1     -23.546 -35.446 -12.628  1.00  0.00     0.006 C 
BRANCH   4   5
ATOM      5  C   UNL     1     -22.276 -34.677 -13.028  1.00  0.00     0.053 C 
BRANCH   5   6
ATOM      6  C   UNL     1     -21.021 -35.428 -12.702  1.00  0.00     0.041 C 
ATOM      7  O   UNL     1     -20.902 -36.010 -11.592  1.00  0.00    -0.550 OA
ATOM      8  O   UNL     1     -19.996 -35.516 -13.636  1.00  0.00    -0.550 OA
ENDBRANCH   5   6
ENDBRANCH   4   5
ENDBRANCH   3   4
ENDBRANCH   2   3
ENDBRANCH   1   2
BRANCH   1   9
ATOM      9  C   UNL     1     -25.882 -31.050 -11.766  1.00  0.00     0.000 C 
BRANCH   9  10
ATOM     10  C   UNL     1     -27.385 -31.063 -11.430  1.00  0.00    -0.000 C 
BRANCH  10  11
ATOM     11  C   UNL     1     -28.306 -31.550 -12.567  1.00  0.00    -0.000 C 
BRANCH  11  12
ATOM     12  C   UNL     1     -28.336 -33.077 -12.777  1.00  0.00    -0.000 C 
BRANCH  12  13
ATOM     13  C   UNL     1     -27.595 -33.570 -14.032  1.00  0.00    -0.003 C 
ATOM     14  C   UNL     1     -27.670 -35.085 -14.211  1.00  0.00     0.004 C 
ENDBRANCH  12  13
ENDBRANCH  11  12
ENDBRANCH  10  11
ENDBRANCH   9  10
ENDBRANCH   1   9
TORSDOF 10
ENDMDL
MODEL 3
REMARK VINA RESULT:    -4.415      1.686      2.910
REMARK INTER + INTRA:          -8.150
REMARK INTER:                  -6.765
REMARK INTRA:                  -1.385
REMARK UNBOUND:                -1.153
REMARK SMILES CCCCCCCCCCCC(=O)[O-]
REMARK SMILES IDX 7 1 8 2 9 3 10 4 11 5 12 6 13 7 14 8 6 9 5 10 4 11 3 12 2 13
REMARK SMILES IDX 1 14
REMARK H PARENT
REMARK Flexibility Score: inf
ROOT
ATOM      1  C   UNL     1     -27.919 -30.922 -12.728  1.00  0.00     0.000 C 
ENDROOT
BRANCH   1   2
ATOM      2  C   UNL     1     -27.691 -30.673 -11.228  1.00  0.00     0.000 C 
BRANCH   2   3
ATOM      3  C   UNL     1     -26.321 -31.179 -10.743  1.00  0.00     0.000 C 
BRANCH   3   4
ATOM      4  C   UNL     1     -25.143 -30.566 -11.520  1.00  0.00     0.006 C 
BRANCH   4   5
ATOM      5  C   UNL     1     -24.290 -31.600 -12.276  1.00  0.00     0.053 C 
BRANCH   5   6
ATOM      6  C   UNL     1     -23.060 -31.996 -11.518  1.00  0.00     0.041 C 
ATOM      7  O   UNL     1     -22.719 -31.358 -10.487  1.00  0.00    -0.550 OA
ATOM      8  O   UNL     1     -22.308 -33.090 -11.928  1.00  0.00    -0.550 OA
ENDBRANCH   5   6
ENDBRANCH   4   5
ENDBRANCH   3   4
ENDBRANCH   2   3
ENDBRANCH   1   2
BRANCH   1   9
ATOM      9  C   UNL     1     -28.616 -32.265 -13.003  1.00  0.00     0.000 C 
BRANCH   9  10
ATOM     10  C   UNL     1     -27.679 -33.306 -13.642  1.00  0.00    -0.000 C 
BRANCH  10  11
ATOM     11  C   UNL     1     -27.699 -34.699 -12.980  1.00  0.00    -0.000 C 
BRANCH  11  12
ATOM     12  C   UNL     1     -27.150 -34.749 -11.540  1.00  0.00    -0.000 C 
BRANCH  12  13
ATOM     13  C   UNL     1     -25.617 -34.822 -11.436  1.00  0.00    -0.003 C 
ATOM     14  C   UNL     1     -24.974 -35.539 -12.622  1.00  0.00     0.004 C 
ENDBRANCH  12  13
ENDBRANCH  11  12
ENDBRANCH  10  11
ENDBRANCH   9  10
ENDBRANCH   1   9
TORSDOF 10
ENDMDL
MODEL 4
REMARK VINA RESULT:    -4.404      1.721      4.364
REMARK INTER + INTRA:          -8.132
REMARK INTER:                  -7.187
REMARK INTRA:                  -0.945
REMARK UNBOUND:                -1.153
REMARK SMILES CCCCCCCCCCCC(=O)[O-]
REMARK SMILES IDX 7 1 8 2 9 3 10 4 11 5 12 6 13 7 14 8 6 9 5 10 4 11 3 12 2 13
REMARK SMILES IDX 1 14
REMARK H PARENT
REMARK Flexibility Score: inf
ROOT
ATOM      1  C   UNL     1     -25.682 -31.944 -10.609  1.00  0.00     0.000 C 
ENDROOT
BRANCH   1   2
ATOM      2  C   UNL     1     -26.608 -30.723 -10.732  1.00  0.00     0.000 C 
BRANCH   2   3
ATOM      3  C   UNL     1     -27.729 -30.928 -11.766  1.00  0.00     0.000 C 
BRANCH   3   4
ATOM      4  C   UNL     1     -27.369 -31.964 -12.846  1.00  0.00     0.006 C 
BRANCH   4   5
ATOM      5  C   UNL     1     -28.407 -33.089 -13.001  1.00  0.00     0.053 C 
BRANCH   5   6
ATOM      6  C   UNL     1     -27.851 -34.436 -12.652  1.00  0.00     0.041 C 
ATOM      7  O   UNL     1     -27.494 -35.228 -13.563  1.00  0.00    -0.550 OA
ATOM      8  O   UNL     1     -27.695 -34.804 -11.321  1.00  0.00    -0.550 OA
ENDBRANCH   5   6
ENDBRANCH   4   5
ENDBRANCH   3   4
ENDBRANCH   2   3
ENDBRANCH   1   2
BRANCH   1   9
ATOM      9  C   UNL     1     -24.226 -31.619 -10.982  1.00  0.00     0.000 C 
BRANCH   9  10
ATOM     10  C   UNL     1     -23.682 -32.518 -12.107  1.00  0.00    -0.000 C 
BRANCH  10  11
ATOM     11  C   UNL     1     -24.339 -33.910 -12.208  1.00  0.00    -0.000 C 
BRANCH  11  12
ATOM     12  C   UNL     1     -23.390 -35.056 -12.608  1.00  0.00    -0.000 C 
BRANCH  12  13
ATOM     13  C   UNL     1     -21.936 -34.628 -12.872  1.00  0.00    -0.003 C 
ATOM     14  C   UNL     1     -20.913 -35.587 -12.264  1.00  0.00     0.004 C 
ENDBRANCH  12  13
ENDBRANCH  11  12
ENDBRANCH  10  11
ENDBRANCH   9  10
ENDBRANCH   1   9
TORSDOF 10
ENDMDL
MODEL 5
REMARK VINA RESULT:    -4.399      1.964      3.633
REMARK INTER + INTRA:          -8.124
REMARK INTER:                  -7.185
REMARK INTRA:                  -0.939
REMARK UNBOUND:                -1.153
REMARK SMILES CCCCCCCCCCCC(=O)[O-]
REMARK SMILES IDX 7 1 8 2 9 3 10 4 11 5 12 6 13 7 14 8 6 9 5 10 4 11 3 12 2 13
REMARK SMILES IDX 1 14
REMARK H PARENT
REMARK Flexibility Score: inf
ROOT
ATOM      1  C   UNL     1     -26.751 -34.715 -11.818  1.00  0.00     0.000 C 
ENDROOT
BRANCH   1   2
ATOM      2  C   UNL     1     -25.282 -34.303 -11.627  1.00  0.00     0.000 C 
BRANCH   2   3
ATOM      3  C   UNL     1     -24.306 -35.203 -12.405  1.00  0.00     0.000 C 
BRANCH   3   4
ATOM      4  C   UNL     1     -22.993 -34.489 -12.775  1.00  0.00     0.006 C 
BRANCH   4   5
ATOM      5  C   UNL     1     -21.736 -35.350 -12.568  1.00  0.00     0.053 C 
BRANCH   5   6
ATOM      6  C   UNL     1     -20.647 -35.023 -13.544  1.00  0.00     0.041 C 
ATOM      7  O   UNL     1     -19.544 -35.628 -13.488  1.00  0.00    -0.550 OA
ATOM      8  O   UNL     1     -20.861 -34.075 -14.538  1.00  0.00    -0.550 OA
ENDBRANCH   5   6
ENDBRANCH   4   5
ENDBRANCH   3   4
ENDBRANCH   2   3
ENDBRANCH   1   2
BRANCH   1   9
ATOM      9  C   UNL     1     -27.128 -34.880 -13.300  1.00  0.00     0.000 C 
BRANCH   9  10
ATOM     10  C   UNL     1     -27.737 -33.602 -13.907  1.00  0.00    -0.000 C 
BRANCH  10  11
ATOM     11  C   UNL     1     -28.524 -32.719 -12.918  1.00  0.00    -0.000 C 
BRANCH  11  12
ATOM     12  C   UNL     1     -28.127 -31.229 -12.910  1.00  0.00    -0.000 C 
BRANCH  12  13
ATOM     13  C   UNL     1     -26.883 -30.897 -12.067  1.00  0.00    -0.003 C 
ATOM     14  C   UNL     1     -25.649 -30.601 -12.918  1.00  0.00     0.004 C 
ENDBRANCH  12  13
ENDBRANCH  11  12
ENDBRANCH  10  11
ENDBRANCH   9  10
ENDBRANCH   1   9
TORSDOF 10
ENDMDL
MODEL 6
REMARK VINA RESULT:    -4.382      3.111      5.946
REMARK INTER + INTRA:          -8.097
REMARK INTER:                  -7.497
REMARK INTRA:                  -0.600
REMARK UNBOUND:                -1.153
REMARK SMILES CCCCCCCCCCCC(=O)[O-]
REMARK SMILES IDX 7 1 8 2 9 3 10 4 11 5 12 6 13 7 14 8 6 9 5 10 4 11 3 12 2 13
REMARK SMILES IDX 1 14
REMARK H PARENT
REMARK Flexibility Score: inf
ROOT
ATOM      1  C   UNL     1     -25.981 -34.688 -11.966  1.00  0.00     0.000 C 
ENDROOT
BRANCH   1   2
ATOM      2  C   UNL     1     -26.784 -35.136 -13.199  1.00  0.00     0.000 C 
BRANCH   2   3
ATOM      3  C   UNL     1     -27.600 -33.993 -13.826  1.00  0.00     0.000 C 
BRANCH   3   4
ATOM      4  C   UNL     1     -28.447 -33.223 -12.798  1.00  0.00     0.006 C 
BRANCH   4   5
ATOM      5  C   UNL     1     -28.472 -31.702 -13.024  1.00  0.00     0.053 C 
BRANCH   5   6
ATOM      6  C   UNL     1     -27.535 -30.969 -12.113  1.00  0.00     0.041 C 
ATOM      7  O   UNL     1     -27.983 -30.335 -11.122  1.00  0.00    -0.550 OA
ATOM      8  O   UNL     1     -26.165 -31.014 -12.337  1.00  0.00    -0.550 OA
ENDBRANCH   5   6
ENDBRANCH   4   5
ENDBRANCH   3   4
ENDBRANCH   2   3
ENDBRANCH   1   2
BRANCH   1   9
ATOM      9  C   UNL     1     -24.538 -34.287 -12.317  1.00  0.00     0.000 C 
BRANCH   9  10
ATOM     10  C   UNL     1     -23.607 -35.501 -12.489  1.00  0.00    -0.000 C 
BRANCH  10  11
ATOM     11  C   UNL     1     -22.110 -35.161 -12.638  1.00  0.00    -0.000 C 
BRANCH  11  12
ATOM     12  C   UNL     1     -21.807 -33.831 -13.357  1.00  0.00    -0.000 C 
BRANCH  12  13
ATOM     13  C   UNL     1     -20.776 -33.932 -14.493  1.00  0.00    -0.003 C 
ATOM     14  C   UNL     1     -19.544 -33.059 -14.259  1.00  0.00     0.004 C 
ENDBRANCH  12  13
ENDBRANCH  11  12
ENDBRANCH  10  11
ENDBRANCH   9  10
ENDBRANCH   1   9
TORSDOF 10
ENDMDL
MODEL 7
REMARK VINA RESULT:    -4.206      3.147      6.090
REMARK INTER + INTRA:          -7.818
REMARK INTER:                  -7.200
REMARK INTRA:                  -0.618
REMARK UNBOUND:                -1.153
REMARK SMILES CCCCCCCCCCCC(=O)[O-]
REMARK SMILES IDX 7 1 8 2 9 3 10 4 11 5 12 6 13 7 14 8 6 9 5 10 4 11 3 12 2 13
REMARK SMILES IDX 1 14
REMARK H PARENT
REMARK Flexibility Score: inf
ROOT
ATOM      1  C   UNL     1     -25.050 -36.024 -13.008  1.00  0.00     0.000 C 
ENDROOT
BRANCH   1   2
ATOM      2  C   UNL     1     -26.151 -35.146 -12.389  1.00  0.00     0.000 C 
BRANCH   2   3
ATOM      3  C   UNL     1     -27.289 -34.835 -13.376  1.00  0.00     0.000 C 
BRANCH   3   4
ATOM      4  C   UNL     1     -28.102 -33.589 -12.985  1.00  0.00     0.006 C 
BRANCH   4   5
ATOM      5  C   UNL     1     -27.298 -32.279 -13.035  1.00  0.00     0.053 C 
BRANCH   5   6
ATOM      6  C   UNL     1     -27.185 -31.621 -11.693  1.00  0.00     0.041 C 
ATOM      7  O   UNL     1     -28.024 -30.750 -11.343  1.00  0.00    -0.550 OA
ATOM      8  O   UNL     1     -26.174 -31.994 -10.815  1.00  0.00    -0.550 OA
ENDBRANCH   5   6
ENDBRANCH   4   5
ENDBRANCH   3   4
ENDBRANCH   2   3
ENDBRANCH   1   2
BRANCH   1   9
ATOM      9  C   UNL     1     -23.643 -35.630 -12.529  1.00  0.00     0.000 C 
BRANCH   9  10
ATOM     10  C   UNL     1     -23.397 -34.111 -12.586  1.00  0.00    -0.000 C 
BRANCH  10  11
ATOM     11  C   UNL     1     -21.928 -33.694 -12.802  1.00  0.00    -0.000 C 
BRANCH  11  12
ATOM     12  C   UNL     1     -20.990 -34.819 -13.283  1.00  0.00    -0.000 C 
BRANCH  12  13
ATOM     13  C   UNL     1     -19.992 -35.323 -12.226  1.00  0.00    -0.003 C 
ATOM     14  C   UNL     1     -19.002 -36.346 -12.782  1.00  0.00     0.004 C 
ENDBRANCH  12  13
ENDBRANCH  11  12
ENDBRANCH  10  11
ENDBRANCH   9  10
ENDBRANCH   1   9
TORSDOF 10
ENDMDL
MODEL 8
REMARK VINA RESULT:    -4.201      2.696      5.610
REMARK INTER + INTRA:          -7.810
REMARK INTER:                  -6.877
REMARK INTRA:                  -0.932
REMARK UNBOUND:                -1.153
REMARK SMILES CCCCCCCCCCCC(=O)[O-]
REMARK SMILES IDX 7 1 8 2 9 3 10 4 11 5 12 6 13 7 14 8 6 9 5 10 4 11 3 12 2 13
REMARK SMILES IDX 1 14
REMARK H PARENT
REMARK Flexibility Score: inf
ROOT
ATOM      1  C   UNL     1     -26.336 -35.251 -12.347  1.00  0.00     0.000 C 
ENDROOT
BRANCH   1   2
ATOM      2  C   UNL     1     -27.298 -35.130 -13.540  1.00  0.00     0.000 C 
BRANCH   2   3
ATOM      3  C   UNL     1     -27.616 -33.668 -13.902  1.00  0.00     0.000 C 
BRANCH   3   4
ATOM      4  C   UNL     1     -28.507 -32.970 -12.860  1.00  0.00     0.006 C 
BRANCH   4   5
ATOM      5  C   UNL     1     -28.583 -31.443 -13.028  1.00  0.00     0.053 C 
BRANCH   5   6
ATOM      6  C   UNL     1     -27.539 -30.723 -12.229  1.00  0.00     0.041 C 
ATOM      7  O   UNL     1     -26.717 -29.962 -12.802  1.00  0.00    -0.550 OA
ATOM      8  O   UNL     1     -27.496 -30.865 -10.847  1.00  0.00    -0.550 OA
ENDBRANCH   5   6
ENDBRANCH   4   5
ENDBRANCH   3   4
ENDBRANCH   2   3
ENDBRANCH   1   2
BRANCH   1   9
ATOM      9  C   UNL     1     -24.879 -35.476 -12.786  1.00  0.00     0.000 C 
BRANCH   9  10
ATOM     10  C   UNL     1     -23.957 -34.297 -12.425  1.00  0.00    -0.000 C 
BRANCH  10  11
ATOM     11  C   UNL     1     -24.668 -33.073 -11.815  1.00  0.00    -0.000 C 
BRANCH  11  12
ATOM     12  C   UNL     1     -23.799 -31.807 -11.683  1.00  0.00    -0.000 C 
BRANCH  12  13
ATOM     13  C   UNL     1     -23.887 -31.103 -10.318  1.00  0.00    -0.003 C 
ATOM     14  C   UNL     1     -22.602 -30.365  -9.944  1.00  0.00     0.004 C 
ENDBRANCH  12  13
ENDBRANCH  11  12
ENDBRANCH  10  11
ENDBRANCH   9  10
ENDBRANCH   1   9
TORSDOF 10
ENDMDL
MODEL 9
REMARK VINA RESULT:    -4.179     14.617     16.765
REMARK INTER + INTRA:          -7.776
REMARK INTER:                  -6.523
REMARK INTRA:                  -1.253
REMARK UNBOUND:                -1.153
REMARK SMILES CCCCCCCCCCCC(=O)[O-]
REMARK SMILES IDX 7 1 8 2 9 3 10 4 11 5 12 6 13 7 14 8 6 9 5 10 4 11 3 12 2 13
REMARK SMILES IDX 1 14
REMARK H PARENT
REMARK Flexibility Score: inf
ROOT
ATOM      1  C   UNL     1     -31.299 -48.394  -8.975  1.00  0.00     0.000 C 
ENDROOT
BRANCH   1   2
ATOM      2  C   UNL     1     -32.541 -49.268  -9.216  1.00  0.00     0.000 C 
BRANCH   2   3
ATOM      3  C   UNL     1     -33.815 -48.438  -9.456  1.00  0.00     0.000 C 
BRANCH   3   4
ATOM      4  C   UNL     1     -33.528 -46.940  -9.657  1.00  0.00     0.006 C 
BRANCH   4   5
ATOM      5  C   UNL     1     -34.726 -46.143 -10.202  1.00  0.00     0.053 C 
BRANCH   5   6
ATOM      6  C   UNL     1     -34.526 -44.661 -10.102  1.00  0.00     0.041 C 
ATOM      7  O   UNL     1     -34.261 -43.988 -11.132  1.00  0.00    -0.550 OA
ATOM      8  O   UNL     1     -34.666 -44.018  -8.878  1.00  0.00    -0.550 OA
ENDBRANCH   5   6
ENDBRANCH   4   5
ENDBRANCH   3   4
ENDBRANCH   2   3
ENDBRANCH   1   2
BRANCH   1   9
ATOM      9  C   UNL     1     -30.211 -49.127  -8.171  1.00  0.00     0.000 C 
BRANCH   9  10
ATOM     10  C   UNL     1     -29.934 -48.472  -6.806  1.00  0.00    -0.000 C 
BRANCH  10  11
ATOM     11  C   UNL     1     -30.923 -47.360  -6.401  1.00  0.00    -0.000 C 
BRANCH  11  12
ATOM     12  C   UNL     1     -32.009 -47.783  -5.392  1.00  0.00    -0.000 C 
BRANCH  12  13
ATOM     13  C   UNL     1     -33.443 -47.390  -5.785  1.00  0.00    -0.003 C 
ATOM     14  C   UNL     1     -33.562 -45.930  -6.221  1.00  0.00     0.004 C 
ENDBRANCH  12  13
ENDBRANCH  11  12
ENDBRANCH  10  11
ENDBRANCH   9  10
ENDBRANCH   1   9
TORSDOF 10
ENDMDL
