MODEL 1
REMARK VINA RESULT:    -6.439      0.000      0.000
REMARK INTER + INTRA:          -7.818
REMARK INTER:                  -7.568
REMARK INTRA:                  -0.250
REMARK UNBOUND:                -0.250
REMARK SMILES O=c1c(O)c(-c2ccc(O)cc2)oc2cc(O)cc(O)c12
REMARK SMILES IDX 5 1 3 2 2 3 1 4 21 5 19 6 18 7 16 8 15 9 14 10 13 11 6 12
REMARK SMILES IDX 7 13 8 14 9 15 12 16 11 17 10 18 4 20 20 22 17 24
REMARK H PARENT 10 19 4 21 20 23 17 25
REMARK Flexibility Score: inf
ROOT
ATOM      1  C   UNL     1     253.586 -24.343  46.884  1.00  0.00     0.180 A 
ATOM      2  C   UNL     1     252.548 -23.573  46.326  1.00  0.00     0.208 A 
ATOM      3  C   UNL     1     252.515 -23.386  44.935  1.00  0.00     0.238 A 
ATOM      4  O   UNL     1     251.595 -22.689  44.426  1.00  0.00    -0.285 OA
ATOM      5  C   UNL     1     253.504 -23.985  44.128  1.00  0.00     0.111 A 
ATOM      6  C   UNL     1     253.539 -23.848  42.720  1.00  0.00     0.134 A 
ATOM      7  C   UNL     1     254.552 -24.483  41.984  1.00  0.00     0.093 A 
ATOM      8  C   UNL     1     255.525 -25.250  42.628  1.00  0.00     0.123 A 
ATOM      9  C   UNL     1     255.496 -25.388  44.020  1.00  0.00     0.094 A 
ATOM     10  C   UNL     1     254.496 -24.761  44.771  1.00  0.00     0.146 A 
ATOM     11  O   UNL     1     254.493 -24.904  46.091  1.00  0.00    -0.452 OA
ENDROOT
BRANCH   1  12
ATOM     12  C   UNL     1     253.701 -24.570  48.344  1.00  0.00     0.021 A 
ATOM     13  C   UNL     1     254.645 -23.876  49.122  1.00  0.00     0.016 A 
ATOM     14  C   UNL     1     254.750 -24.125  50.494  1.00  0.00     0.047 A 
ATOM     15  C   UNL     1     253.924 -25.080  51.102  1.00  0.00     0.115 A 
ATOM     16  C   UNL     1     252.891 -25.540  48.957  1.00  0.00     0.016 A 
ATOM     17  C   UNL     1     252.998 -25.786  50.330  1.00  0.00     0.047 A 
BRANCH  15  18
ATOM     18  O   UNL     1     254.019 -25.335  52.469  1.00  0.00    -0.508 OA
ATOM     19  H   UNL     1     254.779 -25.885  52.852  1.00  0.00     0.293 HD
ENDBRANCH  15  18
ENDBRANCH   1  12
BRANCH   2  20
ATOM     20  O   UNL     1     251.553 -23.032  47.143  1.00  0.00    -0.502 OA
ATOM     21  H   UNL     1     251.106 -23.565  47.881  1.00  0.00     0.293 HD
ENDBRANCH   2  20
BRANCH   6  22
ATOM     22  O   UNL     1     252.581 -23.090  42.046  1.00  0.00    -0.507 OA
ATOM     23  H   UNL     1     252.098 -22.321  42.495  1.00  0.00     0.293 HD
ENDBRANCH   6  22
BRANCH   8  24
ATOM     24  O   UNL     1     256.520 -25.871  41.875  1.00  0.00    -0.508 OA
ATOM     25  H   UNL     1     256.511 -26.870  41.707  1.00  0.00     0.293 HD
ENDBRANCH   8  24
TORSDOF 5
ENDMDL
MODEL 2
REMARK VINA RESULT:    -6.291     13.454     15.040
REMARK INTER + INTRA:          -7.644
REMARK INTER:                  -7.354
REMARK INTRA:                  -0.290
REMARK UNBOUND:                -0.250
REMARK SMILES O=c1c(O)c(-c2ccc(O)cc2)oc2cc(O)cc(O)c12
REMARK SMILES IDX 5 1 3 2 2 3 1 4 21 5 19 6 18 7 16 8 15 9 14 10 13 11 6 12
REMARK SMILES IDX 7 13 8 14 9 15 12 16 11 17 10 18 4 20 20 22 17 24
REMARK H PARENT 10 19 4 21 20 23 17 25
REMARK Flexibility Score: inf
ROOT
ATOM      1  C   UNL     1     262.214 -28.086  57.537  1.00  0.00     0.180 A 
ATOM      2  C   UNL     1     262.085 -27.316  56.366  1.00  0.00     0.208 A 
ATOM      3  C   UNL     1     263.088 -27.398  55.387  1.00  0.00     0.238 A 
ATOM      4  O   UNL     1     262.988 -26.704  54.338  1.00  0.00    -0.285 OA
ATOM      5  C   UNL     1     264.187 -28.258  55.585  1.00  0.00     0.111 A 
ATOM      6  C   UNL     1     265.237 -28.401  54.647  1.00  0.00     0.134 A 
ATOM      7  C   UNL     1     266.293 -29.286  54.914  1.00  0.00     0.093 A 
ATOM      8  C   UNL     1     266.318 -30.028  56.096  1.00  0.00     0.123 A 
ATOM      9  C   UNL     1     265.284 -29.891  57.027  1.00  0.00     0.094 A 
ATOM     10  C   UNL     1     264.224 -29.013  56.781  1.00  0.00     0.146 A 
ATOM     11  O   UNL     1     263.257 -28.897  57.684  1.00  0.00    -0.452 OA
ENDROOT
BRANCH   1  12
ATOM     12  C   UNL     1     261.208 -28.040  58.624  1.00  0.00     0.021 A 
ATOM     13  C   UNL     1     260.089 -28.892  58.624  1.00  0.00     0.016 A 
ATOM     14  C   UNL     1     259.140 -28.812  59.649  1.00  0.00     0.047 A 
ATOM     15  C   UNL     1     259.291 -27.873  60.677  1.00  0.00     0.115 A 
ATOM     16  C   UNL     1     261.341 -27.087  59.648  1.00  0.00     0.016 A 
ATOM     17  C   UNL     1     260.391 -27.011  60.671  1.00  0.00     0.047 A 
BRANCH  15  18
ATOM     18  O   UNL     1     258.353 -27.786  61.704  1.00  0.00    -0.508 OA
ATOM     19  H   UNL     1     258.323 -26.986  62.326  1.00  0.00     0.293 HD
ENDBRANCH  15  18
ENDBRANCH   1  12
BRANCH   2  20
ATOM     20  O   UNL     1     260.961 -26.510  56.171  1.00  0.00    -0.502 OA
ATOM     21  H   UNL     1     260.431 -26.516  55.308  1.00  0.00     0.293 HD
ENDBRANCH   2  20
BRANCH   6  22
ATOM     22  O   UNL     1     265.240 -27.674  53.456  1.00  0.00    -0.507 OA
ATOM     23  H   UNL     1     266.094 -27.503  52.938  1.00  0.00     0.293 HD
ENDBRANCH   6  22
BRANCH   8  24
ATOM     24  O   UNL     1     267.379 -30.901  56.337  1.00  0.00    -0.508 OA
ATOM     25  H   UNL     1     267.952 -30.820  57.168  1.00  0.00     0.293 HD
ENDBRANCH   8  24
TORSDOF 5
ENDMDL
MODEL 3
REMARK VINA RESULT:    -6.229      1.475      2.035
REMARK INTER + INTRA:          -7.571
REMARK INTER:                  -7.292
REMARK INTRA:                  -0.278
REMARK UNBOUND:                -0.250
REMARK SMILES O=c1c(O)c(-c2ccc(O)cc2)oc2cc(O)cc(O)c12
REMARK SMILES IDX 5 1 3 2 2 3 1 4 21 5 19 6 18 7 16 8 15 9 14 10 13 11 6 12
REMARK SMILES IDX 7 13 8 14 9 15 12 16 11 17 10 18 4 20 20 22 17 24
REMARK H PARENT 10 19 4 21 20 23 17 25
REMARK Flexibility Score: inf
ROOT
ATOM      1  C   UNL     1     252.962 -24.931  48.502  1.00  0.00     0.180 A 
ATOM      2  C   UNL     1     251.629 -24.795  48.070  1.00  0.00     0.208 A 
ATOM      3  C   UNL     1     251.372 -24.640  46.698  1.00  0.00     0.238 A 
ATOM      4  O   UNL     1     250.183 -24.507  46.302  1.00  0.00    -0.285 OA
ATOM      5  C   UNL     1     252.446 -24.643  45.784  1.00  0.00     0.111 A 
ATOM      6  C   UNL     1     252.272 -24.497  44.387  1.00  0.00     0.134 A 
ATOM      7  C   UNL     1     253.392 -24.519  43.541  1.00  0.00     0.093 A 
ATOM      8  C   UNL     1     254.675 -24.686  44.063  1.00  0.00     0.123 A 
ATOM      9  C   UNL     1     254.854 -24.831  45.443  1.00  0.00     0.094 A 
ATOM     10  C   UNL     1     253.751 -24.809  46.303  1.00  0.00     0.146 A 
ATOM     11  O   UNL     1     253.948 -24.943  47.609  1.00  0.00    -0.452 OA
ENDROOT
BRANCH   1  12
ATOM     12  C   UNL     1     253.315 -25.079  49.933  1.00  0.00     0.021 A 
ATOM     13  C   UNL     1     253.732 -23.978  50.703  1.00  0.00     0.016 A 
ATOM     14  C   UNL     1     254.083 -24.148  52.046  1.00  0.00     0.047 A 
ATOM     15  C   UNL     1     254.035 -25.420  52.632  1.00  0.00     0.115 A 
ATOM     16  C   UNL     1     253.289 -26.355  50.522  1.00  0.00     0.016 A 
ATOM     17  C   UNL     1     253.639 -26.521  51.865  1.00  0.00     0.047 A 
BRANCH  15  18
ATOM     18  O   UNL     1     254.380 -25.601  53.969  1.00  0.00    -0.508 OA
ATOM     19  H   UNL     1     255.277 -25.297  54.329  1.00  0.00     0.293 HD
ENDBRANCH  15  18
ENDBRANCH   1  12
BRANCH   2  20
ATOM     20  O   UNL     1     250.580 -24.846  48.991  1.00  0.00    -0.502 OA
ATOM     21  H   UNL     1     249.608 -24.869  48.707  1.00  0.00     0.293 HD
ENDBRANCH   2  20
BRANCH   6  22
ATOM     22  O   UNL     1     251.002 -24.329  43.834  1.00  0.00    -0.507 OA
ATOM     23  H   UNL     1     250.311 -23.722  44.259  1.00  0.00     0.293 HD
ENDBRANCH   6  22
BRANCH   8  24
ATOM     24  O   UNL     1     255.771 -24.705  43.201  1.00  0.00    -0.508 OA
ATOM     25  H   UNL     1     255.673 -24.963  42.227  1.00  0.00     0.293 HD
ENDBRANCH   8  24
TORSDOF 5
ENDMDL
MODEL 4
REMARK VINA RESULT:    -6.113     17.347     18.738
REMARK INTER + INTRA:          -7.435
REMARK INTER:                  -7.159
REMARK INTRA:                  -0.276
REMARK UNBOUND:                -0.250
REMARK SMILES O=c1c(O)c(-c2ccc(O)cc2)oc2cc(O)cc(O)c12
REMARK SMILES IDX 5 1 3 2 2 3 1 4 21 5 19 6 18 7 16 8 15 9 14 10 13 11 6 12
REMARK SMILES IDX 7 13 8 14 9 15 12 16 11 17 10 18 4 20 20 22 17 24
REMARK H PARENT 10 19 4 21 20 23 17 25
REMARK Flexibility Score: inf
ROOT
ATOM      1  C   UNL     1     268.252 -35.368  51.301  1.00  0.00     0.180 A 
ATOM      2  C   UNL     1     268.223 -33.966  51.176  1.00  0.00     0.208 A 
ATOM      3  C   UNL     1     268.266 -33.398  49.893  1.00  0.00     0.238 A 
ATOM      4  O   UNL     1     268.250 -32.143  49.769  1.00  0.00    -0.285 OA
ATOM      5  C   UNL     1     268.317 -34.238  48.761  1.00  0.00     0.111 A 
ATOM      6  C   UNL     1     268.358 -33.746  47.434  1.00  0.00     0.134 A 
ATOM      7  C   UNL     1     268.399 -34.647  46.359  1.00  0.00     0.093 A 
ATOM      8  C   UNL     1     268.398 -36.025  46.585  1.00  0.00     0.123 A 
ATOM      9  C   UNL     1     268.358 -36.517  47.893  1.00  0.00     0.094 A 
ATOM     10  C   UNL     1     268.319 -35.635  48.979  1.00  0.00     0.146 A 
ATOM     11  O   UNL     1     268.286 -36.128  50.211  1.00  0.00    -0.452 OA
ENDROOT
BRANCH   1  12
ATOM     12  C   UNL     1     268.230 -36.041  52.620  1.00  0.00     0.021 A 
ATOM     13  C   UNL     1     269.392 -36.156  53.405  1.00  0.00     0.016 A 
ATOM     14  C   UNL     1     269.350 -36.817  54.637  1.00  0.00     0.047 A 
ATOM     15  C   UNL     1     268.153 -37.383  55.092  1.00  0.00     0.115 A 
ATOM     16  C   UNL     1     267.038 -36.630  53.075  1.00  0.00     0.016 A 
ATOM     17  C   UNL     1     266.999 -37.289  54.308  1.00  0.00     0.047 A 
BRANCH  15  18
ATOM     18  O   UNL     1     268.099 -38.043  56.319  1.00  0.00    -0.508 OA
ATOM     19  H   UNL     1     267.691 -37.605  57.137  1.00  0.00     0.293 HD
ENDBRANCH  15  18
ENDBRANCH   1  12
BRANCH   2  20
ATOM     20  O   UNL     1     268.121 -33.158  52.311  1.00  0.00    -0.502 OA
ATOM     21  H   UNL     1     267.388 -33.278  53.000  1.00  0.00     0.293 HD
ENDBRANCH   2  20
BRANCH   6  22
ATOM     22  O   UNL     1     268.359 -32.375  47.176  1.00  0.00    -0.507 OA
ATOM     23  H   UNL     1     267.814 -31.974  46.422  1.00  0.00     0.293 HD
ENDBRANCH   6  22
BRANCH   8  24
ATOM     24  O   UNL     1     268.439 -36.899  45.500  1.00  0.00    -0.508 OA
ATOM     25  H   UNL     1     269.134 -37.633  45.437  1.00  0.00     0.293 HD
ENDBRANCH   8  24
TORSDOF 5
ENDMDL
MODEL 5
REMARK VINA RESULT:    -6.058      9.749     14.655
REMARK INTER + INTRA:          -7.370
REMARK INTER:                  -7.475
REMARK INTRA:                   0.105
REMARK UNBOUND:                -0.250
REMARK SMILES O=c1c(O)c(-c2ccc(O)cc2)oc2cc(O)cc(O)c12
REMARK SMILES IDX 5 1 3 2 2 3 1 4 21 5 19 6 18 7 16 8 15 9 14 10 13 11 6 12
REMARK SMILES IDX 7 13 8 14 9 15 12 16 11 17 10 18 4 20 20 22 17 24
REMARK H PARENT 10 19 4 21 20 23 17 25
REMARK Flexibility Score: inf
ROOT
ATOM      1  C   UNL     1     261.320 -27.486  55.774  1.00  0.00     0.180 A 
ATOM      2  C   UNL     1     262.564 -27.435  56.431  1.00  0.00     0.208 A 
ATOM      3  C   UNL     1     262.591 -27.432  57.835  1.00  0.00     0.238 A 
ATOM      4  O   UNL     1     263.699 -27.375  58.433  1.00  0.00    -0.285 OA
ATOM      5  C   UNL     1     261.380 -27.500  58.555  1.00  0.00     0.111 A 
ATOM      6  C   UNL     1     261.321 -27.505  59.969  1.00  0.00     0.134 A 
ATOM      7  C   UNL     1     260.076 -27.583  60.612  1.00  0.00     0.093 A 
ATOM      8  C   UNL     1     258.895 -27.658  59.871  1.00  0.00     0.123 A 
ATOM      9  C   UNL     1     258.947 -27.653  58.474  1.00  0.00     0.094 A 
ATOM     10  C   UNL     1     260.178 -27.573  57.814  1.00  0.00     0.146 A 
ATOM     11  O   UNL     1     260.199 -27.564  56.486  1.00  0.00    -0.452 OA
ENDROOT
BRANCH   1  12
ATOM     12  C   UNL     1     261.208 -27.474  54.297  1.00  0.00     0.021 A 
ATOM     13  C   UNL     1     261.994 -26.613  53.510  1.00  0.00     0.016 A 
ATOM     14  C   UNL     1     261.853 -26.603  52.118  1.00  0.00     0.047 A 
ATOM     15  C   UNL     1     260.917 -27.440  51.499  1.00  0.00     0.115 A 
ATOM     16  C   UNL     1     260.257 -28.296  53.670  1.00  0.00     0.016 A 
ATOM     17  C   UNL     1     260.120 -28.284  52.278  1.00  0.00     0.047 A 
BRANCH  15  18
ATOM     18  O   UNL     1     260.769 -27.440  50.113  1.00  0.00    -0.508 OA
ATOM     19  H   UNL     1     259.886 -27.675  49.676  1.00  0.00     0.293 HD
ENDBRANCH  15  18
ENDBRANCH   1  12
BRANCH   2  20
ATOM     20  O   UNL     1     263.751 -27.419  55.694  1.00  0.00    -0.502 OA
ATOM     21  H   UNL     1     263.763 -27.312  54.687  1.00  0.00     0.293 HD
ENDBRANCH   2  20
BRANCH   6  22
ATOM     22  O   UNL     1     262.483 -27.433  60.737  1.00  0.00    -0.507 OA
ATOM     23  H   UNL     1     262.784 -26.567  61.169  1.00  0.00     0.293 HD
ENDBRANCH   6  22
BRANCH   8  24
ATOM     24  O   UNL     1     257.671 -27.736  60.535  1.00  0.00    -0.508 OA
ATOM     25  H   UNL     1     257.319 -28.615  60.895  1.00  0.00     0.293 HD
ENDBRANCH   8  24
TORSDOF 5
ENDMDL
MODEL 6
REMARK VINA RESULT:    -5.977     14.549     16.624
REMARK INTER + INTRA:          -7.275
REMARK INTER:                  -6.983
REMARK INTRA:                  -0.292
REMARK UNBOUND:                -0.250
REMARK SMILES O=c1c(O)c(-c2ccc(O)cc2)oc2cc(O)cc(O)c12
REMARK SMILES IDX 5 1 3 2 2 3 1 4 21 5 19 6 18 7 16 8 15 9 14 10 13 11 6 12
REMARK SMILES IDX 7 13 8 14 9 15 12 16 11 17 10 18 4 20 20 22 17 24
REMARK H PARENT 10 19 4 21 20 23 17 25
REMARK Flexibility Score: inf
ROOT
ATOM      1  C   UNL     1     263.090 -28.156  58.037  1.00  0.00     0.180 A 
ATOM      2  C   UNL     1     263.529 -27.320  59.082  1.00  0.00     0.208 A 
ATOM      3  C   UNL     1     262.603 -26.903  60.051  1.00  0.00     0.238 A 
ATOM      4  O   UNL     1     262.982 -26.146  60.985  1.00  0.00    -0.285 OA
ATOM      5  C   UNL     1     261.266 -27.343  59.972  1.00  0.00     0.111 A 
ATOM      6  C   UNL     1     260.273 -26.973  60.910  1.00  0.00     0.134 A 
ATOM      7  C   UNL     1     258.964 -27.460  60.767  1.00  0.00     0.093 A 
ATOM      8  C   UNL     1     258.632 -28.308  59.709  1.00  0.00     0.123 A 
ATOM      9  C   UNL     1     259.608 -28.678  58.779  1.00  0.00     0.094 A 
ATOM     10  C   UNL     1     260.918 -28.201  58.903  1.00  0.00     0.146 A 
ATOM     11  O   UNL     1     261.825 -28.562  58.003  1.00  0.00    -0.452 OA
ENDROOT
BRANCH   1  12
ATOM     12  C   UNL     1     264.002 -28.622  56.967  1.00  0.00     0.021 A 
ATOM     13  C   UNL     1     264.116 -27.929  55.748  1.00  0.00     0.016 A 
ATOM     14  C   UNL     1     264.966 -28.403  54.743  1.00  0.00     0.047 A 
ATOM     15  C   UNL     1     265.700 -29.580  54.938  1.00  0.00     0.115 A 
ATOM     16  C   UNL     1     264.725 -29.814  57.146  1.00  0.00     0.016 A 
ATOM     17  C   UNL     1     265.575 -30.283  56.139  1.00  0.00     0.047 A 
BRANCH  15  18
ATOM     18  O   UNL     1     266.551 -30.060  53.944  1.00  0.00    -0.508 OA
ATOM     19  H   UNL     1     266.549 -29.666  53.010  1.00  0.00     0.293 HD
ENDBRANCH  15  18
ENDBRANCH   1  12
BRANCH   2  20
ATOM     20  O   UNL     1     264.870 -26.939  59.165  1.00  0.00    -0.502 OA
ATOM     21  H   UNL     1     265.616 -27.484  58.749  1.00  0.00     0.293 HD
ENDBRANCH   2  20
BRANCH   6  22
ATOM     22  O   UNL     1     260.573 -26.128  61.979  1.00  0.00    -0.507 OA
ATOM     23  H   UNL     1     259.847 -25.664  62.513  1.00  0.00     0.293 HD
ENDBRANCH   6  22
BRANCH   8  24
ATOM     24  O   UNL     1     257.325 -28.778  59.590  1.00  0.00    -0.508 OA
ATOM     25  H   UNL     1     257.115 -29.769  59.614  1.00  0.00     0.293 HD
ENDBRANCH   8  24
TORSDOF 5
ENDMDL
MODEL 7
REMARK VINA RESULT:    -5.754      2.039      7.205
REMARK INTER + INTRA:          -7.013
REMARK INTER:                  -6.787
REMARK INTRA:                  -0.226
REMARK UNBOUND:                -0.250
REMARK SMILES O=c1c(O)c(-c2ccc(O)cc2)oc2cc(O)cc(O)c12
REMARK SMILES IDX 5 1 3 2 2 3 1 4 21 5 19 6 18 7 16 8 15 9 14 10 13 11 6 12
REMARK SMILES IDX 7 13 8 14 9 15 12 16 11 17 10 18 4 20 20 22 17 24
REMARK H PARENT 10 19 4 21 20 23 17 25
REMARK Flexibility Score: inf
ROOT
ATOM      1  C   UNL     1     253.111 -24.463  48.553  1.00  0.00     0.180 A 
ATOM      2  C   UNL     1     252.245 -23.427  48.949  1.00  0.00     0.208 A 
ATOM      3  C   UNL     1     251.944 -23.279  50.312  1.00  0.00     0.238 A 
ATOM      4  O   UNL     1     251.160 -22.361  50.678  1.00  0.00    -0.285 OA
ATOM      5  C   UNL     1     252.527 -24.152  51.254  1.00  0.00     0.111 A 
ATOM      6  C   UNL     1     252.279 -24.067  52.645  1.00  0.00     0.134 A 
ATOM      7  C   UNL     1     252.905 -24.969  53.519  1.00  0.00     0.093 A 
ATOM      8  C   UNL     1     253.772 -25.948  53.031  1.00  0.00     0.123 A 
ATOM      9  C   UNL     1     254.021 -26.037  51.658  1.00  0.00     0.094 A 
ATOM     10  C   UNL     1     253.405 -25.150  50.769  1.00  0.00     0.146 A 
ATOM     11  O   UNL     1     253.654 -25.259  49.470  1.00  0.00    -0.452 OA
ENDROOT
BRANCH   1  12
ATOM     12  C   UNL     1     253.462 -24.696  47.132  1.00  0.00     0.021 A 
ATOM     13  C   UNL     1     252.530 -25.234  46.226  1.00  0.00     0.016 A 
ATOM     14  C   UNL     1     252.893 -25.467  44.895  1.00  0.00     0.047 A 
ATOM     15  C   UNL     1     254.192 -25.179  44.458  1.00  0.00     0.115 A 
ATOM     16  C   UNL     1     254.769 -24.430  46.691  1.00  0.00     0.016 A 
ATOM     17  C   UNL     1     255.127 -24.663  45.360  1.00  0.00     0.047 A 
BRANCH  15  18
ATOM     18  O   UNL     1     254.563 -25.406  43.135  1.00  0.00    -0.508 OA
ATOM     19  H   UNL     1     254.668 -24.641  42.477  1.00  0.00     0.293 HD
ENDBRANCH  15  18
ENDBRANCH   1  12
BRANCH   2  20
ATOM     20  O   UNL     1     251.720 -22.545  48.002  1.00  0.00    -0.502 OA
ATOM     21  H   UNL     1     251.775 -21.538  48.108  1.00  0.00     0.293 HD
ENDBRANCH   2  20
BRANCH   6  22
ATOM     22  O   UNL     1     251.419 -23.099  53.164  1.00  0.00    -0.507 OA
ATOM     23  H   UNL     1     250.693 -22.673  52.600  1.00  0.00     0.293 HD
ENDBRANCH   6  22
BRANCH   8  24
ATOM     24  O   UNL     1     254.381 -26.832  53.921  1.00  0.00    -0.508 OA
ATOM     25  H   UNL     1     254.255 -26.745  54.922  1.00  0.00     0.293 HD
ENDBRANCH   8  24
TORSDOF 5
ENDMDL
MODEL 8
REMARK VINA RESULT:    -5.743     12.914     14.143
REMARK INTER + INTRA:          -7.000
REMARK INTER:                  -6.702
REMARK INTRA:                  -0.298
REMARK UNBOUND:                -0.250
REMARK SMILES O=c1c(O)c(-c2ccc(O)cc2)oc2cc(O)cc(O)c12
REMARK SMILES IDX 5 1 3 2 2 3 1 4 21 5 19 6 18 7 16 8 15 9 14 10 13 11 6 12
REMARK SMILES IDX 7 13 8 14 9 15 12 16 11 17 10 18 4 20 20 22 17 24
REMARK H PARENT 10 19 4 21 20 23 17 25
REMARK Flexibility Score: inf
ROOT
ATOM      1  C   UNL     1     262.112 -27.148  56.995  1.00  0.00     0.180 A 
ATOM      2  C   UNL     1     263.052 -28.135  56.641  1.00  0.00     0.208 A 
ATOM      3  C   UNL     1     263.998 -27.844  55.645  1.00  0.00     0.238 A 
ATOM      4  O   UNL     1     264.838 -28.724  55.313  1.00  0.00    -0.285 OA
ATOM      5  C   UNL     1     264.001 -26.572  55.038  1.00  0.00     0.111 A 
ATOM      6  C   UNL     1     264.923 -26.198  54.031  1.00  0.00     0.134 A 
ATOM      7  C   UNL     1     264.867 -24.908  53.481  1.00  0.00     0.093 A 
ATOM      8  C   UNL     1     263.912 -23.988  53.918  1.00  0.00     0.123 A 
ATOM      9  C   UNL     1     262.998 -24.352  54.913  1.00  0.00     0.094 A 
ATOM     10  C   UNL     1     263.036 -25.633  55.472  1.00  0.00     0.146 A 
ATOM     11  O   UNL     1     262.154 -25.955  56.411  1.00  0.00    -0.452 OA
ENDROOT
BRANCH   1  12
ATOM     12  C   UNL     1     261.070 -27.386  58.022  1.00  0.00     0.021 A 
ATOM     13  C   UNL     1     259.840 -27.983  57.693  1.00  0.00     0.016 A 
ATOM     14  C   UNL     1     258.863 -28.174  58.676  1.00  0.00     0.047 A 
ATOM     15  C   UNL     1     259.098 -27.760  59.993  1.00  0.00     0.115 A 
ATOM     16  C   UNL     1     261.290 -26.954  59.341  1.00  0.00     0.016 A 
ATOM     17  C   UNL     1     260.312 -27.149  60.321  1.00  0.00     0.047 A 
BRANCH  15  18
ATOM     18  O   UNL     1     258.133 -27.948  60.981  1.00  0.00    -0.508 OA
ATOM     19  H   UNL     1     257.162 -28.120  60.745  1.00  0.00     0.293 HD
ENDBRANCH  15  18
ENDBRANCH   1  12
BRANCH   2  20
ATOM     20  O   UNL     1     263.059 -29.370  57.294  1.00  0.00    -0.502 OA
ATOM     21  H   UNL     1     262.328 -30.059  57.160  1.00  0.00     0.293 HD
ENDBRANCH   2  20
BRANCH   6  22
ATOM     22  O   UNL     1     265.890 -27.093  53.573  1.00  0.00    -0.507 OA
ATOM     23  H   UNL     1     266.616 -27.451  54.182  1.00  0.00     0.293 HD
ENDBRANCH   6  22
BRANCH   8  24
ATOM     24  O   UNL     1     263.878 -22.713  53.356  1.00  0.00    -0.508 OA
ATOM     25  H   UNL     1     263.781 -22.578  52.357  1.00  0.00     0.293 HD
ENDBRANCH   8  24
TORSDOF 5
ENDMDL
