MODEL 1
REMARK VINA RESULT:    -4.335      0.000      0.000
REMARK INTER + INTRA:          -9.364
REMARK INTER:                  -7.883
REMARK INTRA:                  -1.481
REMARK UNBOUND:                -1.481
REMARK SMILES CCCCCC=CCC=CCCCCCCCC(=O)[O-]
REMARK SMILES IDX 11 1 12 2 13 3 14 4 15 5 16 6 17 7 18 8 19 9 20 10 10 11
REMARK SMILES IDX 9 12 8 13 7 14 6 15 5 16 4 17 3 18 2 19 1 20
REMARK H PARENT
REMARK Flexibility Score: inf
ROOT
ATOM      1  C   UNL     1       2.295  13.923  16.070  1.00  0.00     0.027 C 
ENDROOT
BRANCH   1   2
ATOM      2  C   UNL     1       3.579  13.336  15.467  1.00  0.00     0.004 C 
BRANCH   2   3
ATOM      3  C   UNL     1       3.532  11.805  15.348  1.00  0.00     0.000 C 
BRANCH   3   4
ATOM      4  C   UNL     1       4.830  11.139  15.832  1.00  0.00     0.000 C 
BRANCH   4   5
ATOM      5  C   UNL     1       5.752  12.104  16.601  1.00  0.00     0.000 C 
BRANCH   5   6
ATOM      6  C   UNL     1       6.276  11.574  17.949  1.00  0.00     0.006 C 
BRANCH   6   7
ATOM      7  C   UNL     1       5.159  11.341  18.974  1.00  0.00     0.053 C 
BRANCH   7   8
ATOM      8  C   UNL     1       5.679  10.592  20.161  1.00  0.00     0.041 C 
ATOM      9  O   UNL     1       4.881  10.066  20.979  1.00  0.00    -0.550 OA
ATOM     10  O   UNL     1       7.046  10.453  20.351  1.00  0.00    -0.550 OA
ENDBRANCH   7   8
ENDBRANCH   6   7
ENDBRANCH   5   6
ENDBRANCH   4   5
ENDBRANCH   3   4
ENDBRANCH   2   3
ENDBRANCH   1   2
BRANCH   1  11
ATOM     11  C   UNL     1       2.377  13.928  17.575  1.00  0.00    -0.031 C 
ATOM     12  C   UNL     1       1.673  14.746  18.383  1.00  0.00    -0.027 C 
BRANCH  12  13
ATOM     13  C   UNL     1       0.727  15.822  17.909  1.00  0.00     0.054 C 
BRANCH  13  14
ATOM     14  C   UNL     1      -0.657  15.642  18.477  1.00  0.00    -0.027 C 
ATOM     15  C   UNL     1      -1.302  16.550  19.232  1.00  0.00    -0.031 C 
BRANCH  15  16
ATOM     16  C   UNL     1      -0.763  17.914  19.599  1.00  0.00     0.027 C 
BRANCH  16  17
ATOM     17  C   UNL     1      -1.445  19.020  18.784  1.00  0.00     0.004 C 
BRANCH  17  18
ATOM     18  C   UNL     1      -0.457  19.757  17.866  1.00  0.00     0.000 C 
BRANCH  18  19
ATOM     19  C   UNL     1       1.001  19.588  18.320  1.00  0.00    -0.003 C 
ATOM     20  C   UNL     1       2.000  19.802  17.183  1.00  0.00     0.004 C 
ENDBRANCH  18  19
ENDBRANCH  17  18
ENDBRANCH  16  17
ENDBRANCH  15  16
ENDBRANCH  13  14
ENDBRANCH  12  13
ENDBRANCH   1  11
TORSDOF 14
ENDMDL
MODEL 2
REMARK VINA RESULT:    -4.177      3.668      8.808
REMARK INTER + INTRA:          -9.077
REMARK INTER:                  -7.860
REMARK INTRA:                  -1.217
REMARK UNBOUND:                -1.481
REMARK SMILES CCCCCC=CCC=CCCCCCCCC(=O)[O-]
REMARK SMILES IDX 11 1 12 2 13 3 14 4 15 5 16 6 17 7 18 8 19 9 20 10 10 11
REMARK SMILES IDX 9 12 8 13 7 14 6 15 5 16 4 17 3 18 2 19 1 20
REMARK H PARENT
REMARK Flexibility Score: inf
ROOT
ATOM      1  C   UNL     1       1.501  15.230  17.433  1.00  0.00     0.027 C 
ENDROOT
BRANCH   1   2
ATOM      2  C   UNL     1       0.685  16.117  18.385  1.00  0.00     0.004 C 
BRANCH   2   3
ATOM      3  C   UNL     1      -0.775  15.656  18.518  1.00  0.00     0.000 C 
BRANCH   3   4
ATOM      4  C   UNL     1      -1.738  16.828  18.772  1.00  0.00     0.000 C 
BRANCH   4   5
ATOM      5  C   UNL     1      -1.349  17.673  19.999  1.00  0.00     0.000 C 
BRANCH   5   6
ATOM      6  C   UNL     1      -1.341  19.196  19.769  1.00  0.00     0.006 C 
BRANCH   6   7
ATOM      7  C   UNL     1       0.066  19.758  19.534  1.00  0.00     0.053 C 
BRANCH   7   8
ATOM      8  C   UNL     1       0.377  19.809  18.070  1.00  0.00     0.041 C 
ATOM      9  O   UNL     1      -0.516  20.125  17.242  1.00  0.00    -0.550 OA
ATOM     10  O   UNL     1       1.661  19.533  17.622  1.00  0.00    -0.550 OA
ENDBRANCH   7   8
ENDBRANCH   6   7
ENDBRANCH   5   6
ENDBRANCH   4   5
ENDBRANCH   3   4
ENDBRANCH   2   3
ENDBRANCH   1   2
BRANCH   1  11
ATOM     11  C   UNL     1       2.014  14.013  18.160  1.00  0.00    -0.031 C 
ATOM     12  C   UNL     1       2.806  13.068  17.618  1.00  0.00    -0.027 C 
BRANCH  12  13
ATOM     13  C   UNL     1       3.266  13.049  16.181  1.00  0.00     0.054 C 
BRANCH  13  14
ATOM     14  C   UNL     1       3.813  11.701  15.785  1.00  0.00    -0.027 C 
ATOM     15  C   UNL     1       5.075  11.288  16.009  1.00  0.00    -0.031 C 
BRANCH  15  16
ATOM     16  C   UNL     1       6.135  12.089  16.730  1.00  0.00     0.027 C 
BRANCH  16  17
ATOM     17  C   UNL     1       6.636  11.353  17.979  1.00  0.00     0.004 C 
BRANCH  17  18
ATOM     18  C   UNL     1       5.583  11.333  19.099  1.00  0.00     0.000 C 
BRANCH  18  19
ATOM     19  C   UNL     1       6.130  10.744  20.408  1.00  0.00    -0.003 C 
ATOM     20  C   UNL     1       7.628  10.451  20.342  1.00  0.00     0.004 C 
ENDBRANCH  18  19
ENDBRANCH  17  18
ENDBRANCH  16  17
ENDBRANCH  15  16
ENDBRANCH  13  14
ENDBRANCH  12  13
ENDBRANCH   1  11
TORSDOF 14
ENDMDL
MODEL 3
REMARK VINA RESULT:    -4.109      2.472      3.273
REMARK INTER + INTRA:          -8.953
REMARK INTER:                  -7.446
REMARK INTRA:                  -1.507
REMARK UNBOUND:                -1.481
REMARK SMILES CCCCCC=CCC=CCCCCCCCC(=O)[O-]
REMARK SMILES IDX 11 1 12 2 13 3 14 4 15 5 16 6 17 7 18 8 19 9 20 10 10 11
REMARK SMILES IDX 9 12 8 13 7 14 6 15 5 16 4 17 3 18 2 19 1 20
REMARK H PARENT
REMARK Flexibility Score: inf
ROOT
ATOM      1  C   UNL     1       2.694  13.027  18.752  1.00  0.00     0.027 C 
ENDROOT
BRANCH   1   2
ATOM      2  C   UNL     1       2.815  11.502  18.622  1.00  0.00     0.004 C 
BRANCH   2   3
ATOM      3  C   UNL     1       4.044  10.941  19.354  1.00  0.00     0.000 C 
BRANCH   3   4
ATOM      4  C   UNL     1       5.314  11.764  19.082  1.00  0.00     0.000 C 
BRANCH   4   5
ATOM      5  C   UNL     1       6.052  11.329  17.803  1.00  0.00     0.000 C 
BRANCH   5   6
ATOM      6  C   UNL     1       5.700  12.136  16.538  1.00  0.00     0.006 C 
BRANCH   6   7
ATOM      7  C   UNL     1       4.706  11.410  15.623  1.00  0.00     0.053 C 
BRANCH   7   8
ATOM      8  C   UNL     1       4.287  12.295  14.491  1.00  0.00     0.041 C 
ATOM      9  O   UNL     1       3.067  12.511  14.272  1.00  0.00    -0.550 OA
ATOM     10  O   UNL     1       5.245  12.904  13.693  1.00  0.00    -0.550 OA
ENDBRANCH   7   8
ENDBRANCH   6   7
ENDBRANCH   5   6
ENDBRANCH   4   5
ENDBRANCH   3   4
ENDBRANCH   2   3
ENDBRANCH   1   2
BRANCH   1  11
ATOM     11  C   UNL     1       2.388  13.644  17.411  1.00  0.00    -0.031 C 
ATOM     12  C   UNL     1       1.720  14.800  17.228  1.00  0.00    -0.027 C 
BRANCH  12  13
ATOM     13  C   UNL     1       1.126  15.637  18.335  1.00  0.00     0.054 C 
BRANCH  13  14
ATOM     14  C   UNL     1      -0.381  15.599  18.318  1.00  0.00    -0.027 C 
ATOM     15  C   UNL     1      -1.179  16.563  18.816  1.00  0.00    -0.031 C 
BRANCH  15  16
ATOM     16  C   UNL     1      -0.697  17.856  19.434  1.00  0.00     0.027 C 
BRANCH  16  17
ATOM     17  C   UNL     1      -1.265  19.072  18.692  1.00  0.00     0.004 C 
BRANCH  17  18
ATOM     18  C   UNL     1      -0.164  20.059  18.271  1.00  0.00     0.000 C 
BRANCH  18  19
ATOM     19  C   UNL     1       1.181  19.362  18.015  1.00  0.00    -0.003 C 
ATOM     20  C   UNL     1       1.961  19.993  16.862  1.00  0.00     0.004 C 
ENDBRANCH  18  19
ENDBRANCH  17  18
ENDBRANCH  16  17
ENDBRANCH  15  16
ENDBRANCH  13  14
ENDBRANCH  12  13
ENDBRANCH   1  11
TORSDOF 14
ENDMDL
MODEL 4
REMARK VINA RESULT:    -4.046      3.586      8.610
REMARK INTER + INTRA:          -8.838
REMARK INTER:                  -7.684
REMARK INTRA:                  -1.154
REMARK UNBOUND:                -1.481
REMARK SMILES CCCCCC=CCC=CCCCCCCCC(=O)[O-]
REMARK SMILES IDX 11 1 12 2 13 3 14 4 15 5 16 6 17 7 18 8 19 9 20 10 10 11
REMARK SMILES IDX 9 12 8 13 7 14 6 15 5 16 4 17 3 18 2 19 1 20
REMARK H PARENT
REMARK Flexibility Score: inf
ROOT
ATOM      1  C   UNL     1       2.750  14.055  16.937  1.00  0.00     0.027 C 
ENDROOT
BRANCH   1   2
ATOM      2  C   UNL     1       1.743  14.288  18.073  1.00  0.00     0.004 C 
BRANCH   2   3
ATOM      3  C   UNL     1       0.956  15.597  17.907  1.00  0.00     0.000 C 
BRANCH   3   4
ATOM      4  C   UNL     1      -0.441  15.526  18.546  1.00  0.00     0.000 C 
BRANCH   4   5
ATOM      5  C   UNL     1      -1.184  16.874  18.521  1.00  0.00     0.000 C 
BRANCH   5   6
ATOM      6  C   UNL     1      -1.028  17.730  19.793  1.00  0.00     0.006 C 
BRANCH   6   7
ATOM      7  C   UNL     1      -0.902  19.229  19.493  1.00  0.00     0.053 C 
BRANCH   7   8
ATOM      8  C   UNL     1      -0.009  19.459  18.314  1.00  0.00     0.041 C 
ATOM      9  O   UNL     1       1.198  19.103  18.353  1.00  0.00    -0.550 OA
ATOM     10  O   UNL     1      -0.514  20.043  17.162  1.00  0.00    -0.550 OA
ENDBRANCH   7   8
ENDBRANCH   6   7
ENDBRANCH   5   6
ENDBRANCH   4   5
ENDBRANCH   3   4
ENDBRANCH   2   3
ENDBRANCH   1   2
BRANCH   1  11
ATOM     11  C   UNL     1       2.027  13.731  15.655  1.00  0.00    -0.031 C 
ATOM     12  C   UNL     1       2.590  13.144  14.580  1.00  0.00    -0.027 C 
BRANCH  12  13
ATOM     13  C   UNL     1       4.046  12.763  14.469  1.00  0.00     0.054 C 
BRANCH  13  14
ATOM     14  C   UNL     1       4.307  11.380  15.008  1.00  0.00    -0.027 C 
ATOM     15  C   UNL     1       5.153  11.094  16.015  1.00  0.00    -0.031 C 
BRANCH  15  16
ATOM     16  C   UNL     1       5.947  12.116  16.798  1.00  0.00     0.027 C 
BRANCH  16  17
ATOM     17  C   UNL     1       6.531  11.505  18.078  1.00  0.00     0.004 C 
BRANCH  17  18
ATOM     18  C   UNL     1       5.456  11.271  19.150  1.00  0.00     0.000 C 
BRANCH  18  19
ATOM     19  C   UNL     1       6.030  10.644  20.430  1.00  0.00    -0.003 C 
ATOM     20  C   UNL     1       7.543  10.439  20.358  1.00  0.00     0.004 C 
ENDBRANCH  18  19
ENDBRANCH  17  18
ENDBRANCH  16  17
ENDBRANCH  15  16
ENDBRANCH  13  14
ENDBRANCH  12  13
ENDBRANCH   1  11
TORSDOF 14
ENDMDL
MODEL 5
REMARK VINA RESULT:    -3.883      2.575      4.350
REMARK INTER + INTRA:          -8.542
REMARK INTER:                  -7.238
REMARK INTRA:                  -1.304
REMARK UNBOUND:                -1.481
REMARK SMILES CCCCCC=CCC=CCCCCCCCC(=O)[O-]
REMARK SMILES IDX 11 1 12 2 13 3 14 4 15 5 16 6 17 7 18 8 19 9 20 10 10 11
REMARK SMILES IDX 9 12 8 13 7 14 6 15 5 16 4 17 3 18 2 19 1 20
REMARK H PARENT
REMARK Flexibility Score: inf
ROOT
ATOM      1  C   UNL     1       4.676  11.238  20.142  1.00  0.00     0.027 C 
ENDROOT
BRANCH   1   2
ATOM      2  C   UNL     1       5.842  10.248  20.284  1.00  0.00     0.004 C 
BRANCH   2   3
ATOM      3  C   UNL     1       7.125  10.741  19.599  1.00  0.00     0.000 C 
BRANCH   3   4
ATOM      4  C   UNL     1       6.868  11.933  18.662  1.00  0.00     0.000 C 
BRANCH   4   5
ATOM      5  C   UNL     1       6.946  11.556  17.171  1.00  0.00     0.000 C 
BRANCH   5   6
ATOM      6  C   UNL     1       5.586  11.419  16.459  1.00  0.00     0.006 C 
BRANCH   6   7
ATOM      7  C   UNL     1       5.255  12.621  15.566  1.00  0.00     0.053 C 
BRANCH   7   8
ATOM      8  C   UNL     1       4.268  12.237  14.508  1.00  0.00     0.041 C 
ATOM      9  O   UNL     1       4.411  11.165  13.866  1.00  0.00    -0.550 OA
ATOM     10  O   UNL     1       3.174  13.051  14.250  1.00  0.00    -0.550 OA
ENDBRANCH   7   8
ENDBRANCH   6   7
ENDBRANCH   5   6
ENDBRANCH   4   5
ENDBRANCH   3   4
ENDBRANCH   2   3
ENDBRANCH   1   2
BRANCH   1  11
ATOM     11  C   UNL     1       3.674  10.727  19.139  1.00  0.00    -0.031 C 
ATOM     12  C   UNL     1       2.751  11.487  18.516  1.00  0.00    -0.027 C 
BRANCH  12  13
ATOM     13  C   UNL     1       2.539  12.961  18.761  1.00  0.00     0.054 C 
BRANCH  13  14
ATOM     14  C   UNL     1       2.520  13.746  17.475  1.00  0.00    -0.027 C 
ATOM     15  C   UNL     1       1.709  14.792  17.225  1.00  0.00    -0.031 C 
BRANCH  15  16
ATOM     16  C   UNL     1       0.717  15.374  18.206  1.00  0.00     0.027 C 
BRANCH  16  17
ATOM     17  C   UNL     1       0.903  16.890  18.351  1.00  0.00     0.004 C 
BRANCH  17  18
ATOM     18  C   UNL     1      -0.304  17.559  19.028  1.00  0.00     0.000 C 
BRANCH  18  19
ATOM     19  C   UNL     1      -0.190  19.090  19.049  1.00  0.00    -0.003 C 
ATOM     20  C   UNL     1       0.970  19.607  18.201  1.00  0.00     0.004 C 
ENDBRANCH  18  19
ENDBRANCH  17  18
ENDBRANCH  16  17
ENDBRANCH  15  16
ENDBRANCH  13  14
ENDBRANCH  12  13
ENDBRANCH   1  11
TORSDOF 14
ENDMDL
MODEL 6
REMARK VINA RESULT:    -3.879      3.669      8.164
REMARK INTER + INTRA:          -8.535
REMARK INTER:                  -7.215
REMARK INTRA:                  -1.320
REMARK UNBOUND:                -1.481
REMARK SMILES CCCCCC=CCC=CCCCCCCCC(=O)[O-]
REMARK SMILES IDX 11 1 12 2 13 3 14 4 15 5 16 6 17 7 18 8 19 9 20 10 10 11
REMARK SMILES IDX 9 12 8 13 7 14 6 15 5 16 4 17 3 18 2 19 1 20
REMARK H PARENT
REMARK Flexibility Score: inf
ROOT
ATOM      1  C   UNL     1       2.542  12.985  18.830  1.00  0.00     0.027 C 
ENDROOT
BRANCH   1   2
ATOM      2  C   UNL     1       2.719  13.793  17.536  1.00  0.00     0.004 C 
BRANCH   2   3
ATOM      3  C   UNL     1       1.450  14.563  17.140  1.00  0.00     0.000 C 
BRANCH   3   4
ATOM      4  C   UNL     1       1.065  15.630  18.178  1.00  0.00     0.000 C 
BRANCH   4   5
ATOM      5  C   UNL     1      -0.410  15.545  18.612  1.00  0.00     0.000 C 
BRANCH   5   6
ATOM      6  C   UNL     1      -1.179  16.880  18.586  1.00  0.00     0.006 C 
BRANCH   6   7
ATOM      7  C   UNL     1      -0.483  17.986  19.388  1.00  0.00     0.053 C 
BRANCH   7   8
ATOM      8  C   UNL     1      -0.014  19.081  18.482  1.00  0.00     0.041 C 
ATOM      9  O   UNL     1       1.214  19.229  18.248  1.00  0.00    -0.550 OA
ATOM     10  O   UNL     1      -0.934  19.922  17.874  1.00  0.00    -0.550 OA
ENDBRANCH   7   8
ENDBRANCH   6   7
ENDBRANCH   5   6
ENDBRANCH   4   5
ENDBRANCH   3   4
ENDBRANCH   2   3
ENDBRANCH   1   2
BRANCH   1  11
ATOM     11  C   UNL     1       2.766  11.518  18.565  1.00  0.00    -0.031 C 
ATOM     12  C   UNL     1       3.789  10.792  19.059  1.00  0.00    -0.027 C 
BRANCH  12  13
ATOM     13  C   UNL     1       4.903  11.344  19.916  1.00  0.00     0.054 C 
BRANCH  13  14
ATOM     14  C   UNL     1       6.235  10.734  19.565  1.00  0.00    -0.027 C 
ATOM     15  C   UNL     1       6.966  11.055  18.481  1.00  0.00    -0.031 C 
BRANCH  15  16
ATOM     16  C   UNL     1       6.591  12.108  17.462  1.00  0.00     0.027 C 
BRANCH  16  17
ATOM     17  C   UNL     1       5.702  11.522  16.359  1.00  0.00     0.004 C 
BRANCH  17  18
ATOM     18  C   UNL     1       5.184  12.604  15.398  1.00  0.00     0.000 C 
BRANCH  18  19
ATOM     19  C   UNL     1       4.242  12.035  14.326  1.00  0.00    -0.003 C 
ATOM     20  C   UNL     1       2.855  12.676  14.360  1.00  0.00     0.004 C 
ENDBRANCH  18  19
ENDBRANCH  17  18
ENDBRANCH  16  17
ENDBRANCH  15  16
ENDBRANCH  13  14
ENDBRANCH  12  13
ENDBRANCH   1  11
TORSDOF 14
ENDMDL
MODEL 7
REMARK VINA RESULT:    -3.746      1.396      2.352
REMARK INTER + INTRA:          -8.292
REMARK INTER:                  -6.953
REMARK INTRA:                  -1.339
REMARK UNBOUND:                -1.481
REMARK SMILES CCCCCC=CCC=CCCCCCCCC(=O)[O-]
REMARK SMILES IDX 11 1 12 2 13 3 14 4 15 5 16 6 17 7 18 8 19 9 20 10 10 11
REMARK SMILES IDX 9 12 8 13 7 14 6 15 5 16 4 17 3 18 2 19 1 20
REMARK H PARENT
REMARK Flexibility Score: inf
ROOT
ATOM      1  C   UNL     1       4.312  12.947  14.766  1.00  0.00     0.027 C 
ENDROOT
BRANCH   1   2
ATOM      2  C   UNL     1       4.628  11.577  15.384  1.00  0.00     0.004 C 
BRANCH   2   3
ATOM      3  C   UNL     1       4.752  11.630  16.914  1.00  0.00     0.000 C 
BRANCH   3   4
ATOM      4  C   UNL     1       3.470  11.161  17.622  1.00  0.00     0.000 C 
BRANCH   4   5
ATOM      5  C   UNL     1       3.654  10.970  19.138  1.00  0.00     0.000 C 
BRANCH   5   6
ATOM      6  C   UNL     1       4.976  11.517  19.711  1.00  0.00     0.006 C 
BRANCH   6   7
ATOM      7  C   UNL     1       5.818  10.439  20.406  1.00  0.00     0.053 C 
BRANCH   7   8
ATOM      8  C   UNL     1       7.250  10.529  19.977  1.00  0.00     0.041 C 
ATOM      9  O   UNL     1       7.545  10.997  18.847  1.00  0.00    -0.550 OA
ATOM     10  O   UNL     1       8.259  10.122  20.836  1.00  0.00    -0.550 OA
ENDBRANCH   7   8
ENDBRANCH   6   7
ENDBRANCH   5   6
ENDBRANCH   4   5
ENDBRANCH   3   4
ENDBRANCH   2   3
ENDBRANCH   1   2
BRANCH   1  11
ATOM     11  C   UNL     1       2.823  13.115  14.601  1.00  0.00    -0.031 C 
ATOM     12  C   UNL     1       2.027  13.805  15.441  1.00  0.00    -0.027 C 
BRANCH  12  13
ATOM     13  C   UNL     1       2.491  14.478  16.711  1.00  0.00     0.054 C 
BRANCH  13  14
ATOM     14  C   UNL     1       1.456  14.387  17.803  1.00  0.00    -0.027 C 
ATOM     15  C   UNL     1       0.850  15.444  18.377  1.00  0.00    -0.031 C 
BRANCH  15  16
ATOM     16  C   UNL     1       1.076  16.888  17.992  1.00  0.00     0.027 C 
BRANCH  16  17
ATOM     17  C   UNL     1       0.223  17.832  18.849  1.00  0.00     0.004 C 
BRANCH  17  18
ATOM     18  C   UNL     1       0.661  19.299  18.705  1.00  0.00     0.000 C 
BRANCH  18  19
ATOM     19  C   UNL     1       0.945  19.685  17.246  1.00  0.00    -0.003 C 
ATOM     20  C   UNL     1       2.391  20.123  17.023  1.00  0.00     0.004 C 
ENDBRANCH  18  19
ENDBRANCH  17  18
ENDBRANCH  16  17
ENDBRANCH  15  16
ENDBRANCH  13  14
ENDBRANCH  12  13
ENDBRANCH   1  11
TORSDOF 14
ENDMDL
MODEL 8
REMARK VINA RESULT:    -3.722      1.228      2.524
REMARK INTER + INTRA:          -8.250
REMARK INTER:                  -6.877
REMARK INTRA:                  -1.373
REMARK UNBOUND:                -1.481
REMARK SMILES CCCCCC=CCC=CCCCCCCCC(=O)[O-]
REMARK SMILES IDX 11 1 12 2 13 3 14 4 15 5 16 6 17 7 18 8 19 9 20 10 10 11
REMARK SMILES IDX 9 12 8 13 7 14 6 15 5 16 4 17 3 18 2 19 1 20
REMARK H PARENT
REMARK Flexibility Score: inf
ROOT
ATOM      1  C   UNL     1       4.180  12.568  14.116  1.00  0.00     0.027 C 
ENDROOT
BRANCH   1   2
ATOM      2  C   UNL     1       4.638  11.183  14.596  1.00  0.00     0.004 C 
BRANCH   2   3
ATOM      3  C   UNL     1       4.859  11.126  16.115  1.00  0.00     0.000 C 
BRANCH   3   4
ATOM      4  C   UNL     1       5.876  12.174  16.599  1.00  0.00     0.000 C 
BRANCH   4   5
ATOM      5  C   UNL     1       7.004  11.568  17.454  1.00  0.00     0.000 C 
BRANCH   5   6
ATOM      6  C   UNL     1       6.587  11.126  18.869  1.00  0.00     0.006 C 
BRANCH   6   7
ATOM      7  C   UNL     1       5.269  11.760  19.330  1.00  0.00     0.053 C 
BRANCH   7   8
ATOM      8  C   UNL     1       4.277  10.704  19.707  1.00  0.00     0.041 C 
ATOM      9  O   UNL     1       3.206  10.580  19.059  1.00  0.00    -0.550 OA
ATOM     10  O   UNL     1       4.548   9.839  20.756  1.00  0.00    -0.550 OA
ENDBRANCH   7   8
ENDBRANCH   6   7
ENDBRANCH   5   6
ENDBRANCH   4   5
ENDBRANCH   3   4
ENDBRANCH   2   3
ENDBRANCH   1   2
BRANCH   1  11
ATOM     11  C   UNL     1       2.691  12.717  14.293  1.00  0.00    -0.031 C 
ATOM     12  C   UNL     1       2.099  13.479  15.235  1.00  0.00    -0.027 C 
BRANCH  12  13
ATOM     13  C   UNL     1       2.833  14.263  16.296  1.00  0.00     0.054 C 
BRANCH  13  14
ATOM     14  C   UNL     1       2.426  13.845  17.685  1.00  0.00    -0.027 C 
ATOM     15  C   UNL     1       1.472  14.447  18.421  1.00  0.00    -0.031 C 
BRANCH  15  16
ATOM     16  C   UNL     1       0.627  15.612  17.960  1.00  0.00     0.027 C 
BRANCH  16  17
ATOM     17  C   UNL     1       1.247  16.951  18.381  1.00  0.00     0.004 C 
BRANCH  17  18
ATOM     18  C   UNL     1       0.179  18.002  18.719  1.00  0.00     0.000 C 
BRANCH  18  19
ATOM     19  C   UNL     1       0.730  19.435  18.667  1.00  0.00    -0.003 C 
ATOM     20  C   UNL     1       1.207  19.833  17.271  1.00  0.00     0.004 C 
ENDBRANCH  18  19
ENDBRANCH  17  18
ENDBRANCH  16  17
ENDBRANCH  15  16
ENDBRANCH  13  14
ENDBRANCH  12  13
ENDBRANCH   1  11
TORSDOF 14
ENDMDL
MODEL 9
REMARK VINA RESULT:    -3.532      3.819      8.326
REMARK INTER + INTRA:          -7.903
REMARK INTER:                  -6.527
REMARK INTRA:                  -1.377
REMARK UNBOUND:                -1.481
REMARK SMILES CCCCCC=CCC=CCCCCCCCC(=O)[O-]
REMARK SMILES IDX 11 1 12 2 13 3 14 4 15 5 16 6 17 7 18 8 19 9 20 10 10 11
REMARK SMILES IDX 9 12 8 13 7 14 6 15 5 16 4 17 3 18 2 19 1 20
REMARK H PARENT
REMARK Flexibility Score: inf
ROOT
ATOM      1  C   UNL     1       2.916  12.464  15.469  1.00  0.00     0.027 C 
ENDROOT
BRANCH   1   2
ATOM      2  C   UNL     1       2.327  13.840  15.815  1.00  0.00     0.004 C 
BRANCH   2   3
ATOM      3  C   UNL     1       2.202  14.067  17.329  1.00  0.00     0.000 C 
BRANCH   3   4
ATOM      4  C   UNL     1       1.536  15.412  17.666  1.00  0.00     0.000 C 
BRANCH   4   5
ATOM      5  C   UNL     1       0.147  15.253  18.311  1.00  0.00     0.000 C 
BRANCH   5   6
ATOM      6  C   UNL     1      -0.670  16.553  18.436  1.00  0.00     0.006 C 
BRANCH   6   7
ATOM      7  C   UNL     1       0.193  17.768  18.802  1.00  0.00     0.053 C 
BRANCH   7   8
ATOM      8  C   UNL     1      -0.668  18.949  19.123  1.00  0.00     0.041 C 
ATOM      9  O   UNL     1      -1.517  19.362  18.290  1.00  0.00    -0.550 OA
ATOM     10  O   UNL     1      -0.552  19.579  20.353  1.00  0.00    -0.550 OA
ENDBRANCH   7   8
ENDBRANCH   6   7
ENDBRANCH   5   6
ENDBRANCH   4   5
ENDBRANCH   3   4
ENDBRANCH   2   3
ENDBRANCH   1   2
BRANCH   1  11
ATOM     11  C   UNL     1       4.197  12.624  14.692  1.00  0.00    -0.031 C 
ATOM     12  C   UNL     1       5.432  12.628  15.232  1.00  0.00    -0.027 C 
BRANCH  12  13
ATOM     13  C   UNL     1       5.727  12.525  16.709  1.00  0.00     0.054 C 
BRANCH  13  14
ATOM     14  C   UNL     1       6.811  11.518  16.995  1.00  0.00    -0.027 C 
ATOM     15  C   UNL     1       7.189  11.124  18.226  1.00  0.00    -0.031 C 
BRANCH  15  16
ATOM     16  C   UNL     1       6.562  11.596  19.518  1.00  0.00     0.027 C 
BRANCH  16  17
ATOM     17  C   UNL     1       6.057  10.413  20.355  1.00  0.00     0.004 C 
BRANCH  17  18
ATOM     18  C   UNL     1       4.532  10.251  20.267  1.00  0.00     0.000 C 
BRANCH  18  19
ATOM     19  C   UNL     1       3.888  11.267  19.312  1.00  0.00    -0.003 C 
ATOM     20  C   UNL     1       2.702  10.686  18.544  1.00  0.00     0.004 C 
ENDBRANCH  18  19
ENDBRANCH  17  18
ENDBRANCH  16  17
ENDBRANCH  15  16
ENDBRANCH  13  14
ENDBRANCH  12  13
ENDBRANCH   1  11
TORSDOF 14
ENDMDL
