MODEL 1
REMARK VINA RESULT:    -2.195      0.000      0.000
REMARK INTER + INTRA:          -3.574
REMARK INTER:                  -3.029
REMARK INTRA:                  -0.544
REMARK UNBOUND:                -0.544
REMARK SMILES O=C([O-])[C@@H]1O[C@H](Oc2cc3oc(-c4ccccc4)cc(=O)c3c(O)c2O)[C@H](O)[C@@H](O)[C@@H]1O
REMARK SMILES IDX 7 1 6 2 4 3 31 4 5 5 29 6 27 7 2 8 1 9 3 10 32 11 30 13
REMARK SMILES IDX 28 15 8 17 25 18 9 19 23 20 10 21 22 22 11 23 20 24 12 25
REMARK SMILES IDX 19 26 21 27 26 28 24 30 13 32 14 33 18 34 15 35 17 36 16 37
REMARK H PARENT 32 12 30 14 28 16 26 29 24 31
REMARK Flexibility Score: inf
ROOT
ATOM      1  O   UNL     1     -14.005   6.883   4.664  1.00  0.00    -0.458 OA
ENDROOT
BRANCH   1   2
ATOM      2  C   UNL     1     -14.497   8.102   4.090  1.00  0.00     0.339 C 
ATOM      3  C   UNL     1     -14.488  10.416   4.169  1.00  0.00     0.199 C 
ATOM      4  C   UNL     1     -13.993  10.646   2.713  1.00  0.00     0.180 C 
ATOM      5  O   UNL     1     -13.920   9.237   4.715  1.00  0.00    -0.328 OA
ATOM      6  C   UNL     1     -13.617   9.327   1.988  1.00  0.00     0.181 C 
ATOM      7  C   UNL     1     -14.400   8.114   2.530  1.00  0.00     0.214 C 
BRANCH   3   8
ATOM      8  C   UNL     1     -14.206  11.591   5.063  1.00  0.00     0.073 C 
ATOM      9  O   UNL     1     -15.123  12.125   5.741  1.00  0.00    -0.547 OA
ATOM     10  O   UNL     1     -12.911  12.092   5.152  1.00  0.00    -0.547 OA
ENDBRANCH   3   8
BRANCH   4  11
ATOM     11  O   UNL     1     -12.909  11.543   2.657  1.00  0.00    -0.387 OA
ATOM     12  H   UNL     1     -13.192  12.320   2.102  1.00  0.00     0.211 HD
ENDBRANCH   4  11
BRANCH   6  13
ATOM     13  O   UNL     1     -13.858   9.481   0.612  1.00  0.00    -0.387 OA
ATOM     14  H   UNL     1     -14.682   8.966   0.402  1.00  0.00     0.211 HD
ENDBRANCH   6  13
BRANCH   7  15
ATOM     15  O   UNL     1     -13.820   6.931   2.041  1.00  0.00    -0.384 OA
ATOM     16  H   UNL     1     -13.661   7.074   1.070  1.00  0.00     0.211 HD
ENDBRANCH   7  15
ENDBRANCH   1   2
BRANCH   1  17
ATOM     17  C   UNL     1     -12.867   6.611   5.452  1.00  0.00     0.172 A 
ATOM     18  C   UNL     1     -12.672   5.476   6.270  1.00  0.00     0.201 A 
ATOM     19  C   UNL     1     -11.854   7.568   5.385  1.00  0.00     0.098 A 
ATOM     20  C   UNL     1     -11.450   5.286   6.951  1.00  0.00     0.176 A 
ATOM     21  C   UNL     1     -10.630   7.381   6.020  1.00  0.00     0.146 A 
ATOM     22  C   UNL     1     -10.381   6.210   6.771  1.00  0.00     0.111 A 
ATOM     23  O   UNL     1      -9.699   8.320   5.890  1.00  0.00    -0.456 OA
ATOM     24  C   UNL     1      -9.064   6.034   7.266  1.00  0.00     0.197 A 
ATOM     25  C   UNL     1      -8.474   8.203   6.388  1.00  0.00     0.138 A 
ATOM     26  C   UNL     1      -8.110   7.035   7.067  1.00  0.00     0.100 A 
ATOM     27  O   UNL     1      -8.707   4.982   7.859  1.00  0.00    -0.289 OA
BRANCH  18  28
ATOM     28  O   UNL     1     -13.692   4.543   6.437  1.00  0.00    -0.502 OA
ATOM     29  H   UNL     1     -13.896   4.107   7.329  1.00  0.00     0.293 HD
ENDBRANCH  18  28
BRANCH  20  30
ATOM     30  O   UNL     1     -11.368   4.198   7.827  1.00  0.00    -0.504 OA
ATOM     31  H   UNL     1     -10.533   3.648   7.970  1.00  0.00     0.293 HD
ENDBRANCH  20  30
BRANCH  25  32
ATOM     32  C   UNL     1      -7.533   9.324   6.224  1.00  0.00     0.017 A 
ATOM     33  C   UNL     1      -7.411   9.936   4.965  1.00  0.00     0.012 A 
ATOM     34  C   UNL     1      -6.735   9.780   7.292  1.00  0.00     0.012 A 
ATOM     35  C   UNL     1      -6.521  10.999   4.780  1.00  0.00     0.001 A 
ATOM     36  C   UNL     1      -5.833  10.833   7.097  1.00  0.00     0.001 A 
ATOM     37  C   UNL     1      -5.732  11.446   5.844  1.00  0.00     0.000 A 
ENDBRANCH  25  32
ENDBRANCH   1  17
TORSDOF 9
ENDMDL
MODEL 2
REMARK VINA RESULT:    -0.757      2.405      5.567
REMARK INTER + INTRA:          -1.589
REMARK INTER:                  -0.742
REMARK INTRA:                  -0.847
REMARK UNBOUND:                -0.544
REMARK SMILES O=C([O-])[C@@H]1O[C@H](Oc2cc3oc(-c4ccccc4)cc(=O)c3c(O)c2O)[C@H](O)[C@@H](O)[C@@H]1O
REMARK SMILES IDX 7 1 6 2 4 3 31 4 5 5 29 6 27 7 2 8 1 9 3 10 32 11 30 13
REMARK SMILES IDX 28 15 8 17 25 18 9 19 23 20 10 21 22 22 11 23 20 24 12 25
REMARK SMILES IDX 19 26 21 27 26 28 24 30 13 32 14 33 18 34 15 35 17 36 16 37
REMARK H PARENT 32 12 30 14 28 16 26 29 24 31
REMARK Flexibility Score: inf
ROOT
ATOM      1  O   UNL     1     -13.191   7.220   4.355  1.00  0.00    -0.458 OA
ENDROOT
BRANCH   1   2
ATOM      2  C   UNL     1     -12.868   5.836   4.549  1.00  0.00     0.339 C 
ATOM      3  C   UNL     1     -11.196   4.236   4.638  1.00  0.00     0.199 C 
ATOM      4  C   UNL     1     -11.497   3.738   6.080  1.00  0.00     0.180 C 
ATOM      5  O   UNL     1     -11.466   5.623   4.517  1.00  0.00    -0.328 OA
ATOM      6  C   UNL     1     -12.590   4.577   6.793  1.00  0.00     0.181 C 
ATOM      7  C   UNL     1     -13.578   5.222   5.799  1.00  0.00     0.214 C 
BRANCH   3   8
ATOM      8  C   UNL     1      -9.785   3.942   4.213  1.00  0.00     0.073 C 
ATOM      9  O   UNL     1      -8.852   4.753   4.455  1.00  0.00    -0.547 OA
ATOM     10  O   UNL     1      -9.500   2.752   3.551  1.00  0.00    -0.547 OA
ENDBRANCH   3   8
BRANCH   4  11
ATOM     11  O   UNL     1     -10.338   3.692   6.878  1.00  0.00    -0.387 OA
ATOM     12  H   UNL     1     -10.184   4.608   7.235  1.00  0.00     0.211 HD
ENDBRANCH   4  11
BRANCH   6  13
ATOM     13  O   UNL     1     -13.282   3.751   7.694  1.00  0.00    -0.387 OA
ATOM     14  H   UNL     1     -14.252   3.886   7.525  1.00  0.00     0.211 HD
ENDBRANCH   6  13
BRANCH   7  15
ATOM     15  O   UNL     1     -14.354   6.181   6.473  1.00  0.00    -0.384 OA
ATOM     16  H   UNL     1     -14.041   6.186   7.416  1.00  0.00     0.211 HD
ENDBRANCH   7  15
ENDBRANCH   1   2
BRANCH   1  17
ATOM     17  C   UNL     1     -12.860   8.372   5.099  1.00  0.00     0.172 A 
ATOM     18  C   UNL     1     -13.758   9.169   5.843  1.00  0.00     0.201 A 
ATOM     19  C   UNL     1     -11.510   8.721   5.085  1.00  0.00     0.098 A 
ATOM     20  C   UNL     1     -13.283  10.256   6.609  1.00  0.00     0.176 A 
ATOM     21  C   UNL     1     -11.018   9.766   5.861  1.00  0.00     0.146 A 
ATOM     22  C   UNL     1     -11.886  10.521   6.683  1.00  0.00     0.111 A 
ATOM     23  O   UNL     1      -9.716  10.026   5.823  1.00  0.00    -0.456 OA
ATOM     24  C   UNL     1     -11.284  11.472   7.546  1.00  0.00     0.197 A 
ATOM     25  C   UNL     1      -9.136  10.947   6.583  1.00  0.00     0.138 A 
ATOM     26  C   UNL     1      -9.904  11.679   7.495  1.00  0.00     0.100 A 
ATOM     27  O   UNL     1     -11.952  12.125   8.391  1.00  0.00    -0.289 OA
BRANCH  18  28
ATOM     28  O   UNL     1     -15.125   8.910   5.811  1.00  0.00    -0.502 OA
ATOM     29  H   UNL     1     -15.798   9.448   6.344  1.00  0.00     0.293 HD
ENDBRANCH  18  28
BRANCH  20  30
ATOM     30  O   UNL     1     -14.239  11.066   7.232  1.00  0.00    -0.504 OA
ATOM     31  H   UNL     1     -14.297  11.206   8.230  1.00  0.00     0.293 HD
ENDBRANCH  20  30
BRANCH  25  32
ATOM     32  C   UNL     1      -7.690  11.184   6.428  1.00  0.00     0.017 A 
ATOM     33  C   UNL     1      -6.930  11.541   7.554  1.00  0.00     0.012 A 
ATOM     34  C   UNL     1      -7.057  11.085   5.173  1.00  0.00     0.012 A 
ATOM     35  C   UNL     1      -5.557  11.777   7.434  1.00  0.00     0.001 A 
ATOM     36  C   UNL     1      -5.686  11.339   5.055  1.00  0.00     0.001 A 
ATOM     37  C   UNL     1      -4.935  11.678   6.186  1.00  0.00     0.000 A 
ENDBRANCH  25  32
ENDBRANCH   1  17
TORSDOF 9
ENDMDL
