MODEL 1
REMARK VINA RESULT:    -3.015      0.000      0.000
REMARK INTER + INTRA:          -3.945
REMARK INTER:                  -3.720
REMARK INTRA:                  -0.225
REMARK UNBOUND:                -0.225
REMARK SMILES CCCCCC(=O)[O-]
REMARK SMILES IDX 4 1 5 2 6 3 7 4 8 5 3 6 2 7 1 8
REMARK H PARENT
REMARK Flexibility Score: inf
ROOT
ATOM      1  C   UNL     1      -7.398  -4.800   9.671  1.00  0.00     0.006 C 
ENDROOT
BRANCH   1   2
ATOM      2  C   UNL     1      -7.943  -6.225   9.794  1.00  0.00     0.053 C 
BRANCH   2   3
ATOM      3  C   UNL     1      -8.513  -6.683   8.488  1.00  0.00     0.041 C 
ATOM      4  O   UNL     1      -7.749  -7.067   7.564  1.00  0.00    -0.550 OA
ATOM      5  O   UNL     1      -9.890  -6.733   8.309  1.00  0.00    -0.550 OA
ENDBRANCH   2   3
ENDBRANCH   1   2
BRANCH   1   6
ATOM      6  C   UNL     1      -8.519  -3.765   9.852  1.00  0.00     0.000 C 
BRANCH   6   7
ATOM      7  C   UNL     1      -8.629  -2.800   8.662  1.00  0.00    -0.003 C 
ATOM      8  C   UNL     1      -9.880  -3.041   7.819  1.00  0.00     0.004 C 
ENDBRANCH   6   7
ENDBRANCH   1   6
TORSDOF 4
ENDMDL
MODEL 2
REMARK VINA RESULT:    -2.995      2.449      3.856
REMARK INTER + INTRA:          -3.921
REMARK INTER:                  -3.794
REMARK INTRA:                  -0.127
REMARK UNBOUND:                -0.225
REMARK SMILES CCCCCC(=O)[O-]
REMARK SMILES IDX 4 1 5 2 6 3 7 4 8 5 3 6 2 7 1 8
REMARK H PARENT
REMARK Flexibility Score: inf
ROOT
ATOM      1  C   UNL     1      -7.741  -4.719   9.712  1.00  0.00     0.006 C 
ENDROOT
BRANCH   1   2
ATOM      2  C   UNL     1      -9.016  -4.430   8.915  1.00  0.00     0.053 C 
BRANCH   2   3
ATOM      3  C   UNL     1      -9.075  -2.988   8.525  1.00  0.00     0.041 C 
ATOM      4  O   UNL     1      -9.289  -2.664   7.326  1.00  0.00    -0.550 OA
ATOM      5  O   UNL     1      -8.944  -1.999   9.492  1.00  0.00    -0.550 OA
ENDBRANCH   2   3
ENDBRANCH   1   2
BRANCH   1   6
ATOM      6  C   UNL     1      -7.159  -6.091   9.339  1.00  0.00     0.000 C 
BRANCH   6   7
ATOM      7  C   UNL     1      -7.994  -6.817   8.273  1.00  0.00    -0.003 C 
ATOM      8  C   UNL     1      -8.527  -8.165   8.756  1.00  0.00     0.004 C 
ENDBRANCH   6   7
ENDBRANCH   1   6
TORSDOF 4
ENDMDL
MODEL 3
REMARK VINA RESULT:    -2.820     17.183     18.062
REMARK INTER + INTRA:          -3.705
REMARK INTER:                  -3.460
REMARK INTRA:                  -0.245
REMARK UNBOUND:                -0.225
REMARK SMILES CCCCCC(=O)[O-]
REMARK SMILES IDX 4 1 5 2 6 3 7 4 8 5 3 6 2 7 1 8
REMARK H PARENT
REMARK Flexibility Score: inf
ROOT
ATOM      1  C   UNL     1      -7.085  -7.106  -8.089  1.00  0.00     0.006 C 
ENDROOT
BRANCH   1   2
ATOM      2  C   UNL     1      -6.175  -5.946  -8.499  1.00  0.00     0.053 C 
BRANCH   2   3
ATOM      3  C   UNL     1      -4.741  -6.370  -8.476  1.00  0.00     0.041 C 
ATOM      4  O   UNL     1      -4.352  -7.242  -7.655  1.00  0.00    -0.550 OA
ATOM      5  O   UNL     1      -3.844  -5.839  -9.394  1.00  0.00    -0.550 OA
ENDBRANCH   2   3
ENDBRANCH   1   2
BRANCH   1   6
ATOM      6  C   UNL     1      -7.497  -7.940  -9.312  1.00  0.00     0.000 C 
BRANCH   6   7
ATOM      7  C   UNL     1      -6.936  -9.370  -9.268  1.00  0.00    -0.003 C 
ATOM      8  C   UNL     1      -6.685  -9.864  -7.845  1.00  0.00     0.004 C 
ENDBRANCH   6   7
ENDBRANCH   1   6
TORSDOF 4
ENDMDL
MODEL 4
REMARK VINA RESULT:    -2.650     22.687     23.325
REMARK INTER + INTRA:          -3.495
REMARK INTER:                  -3.433
REMARK INTRA:                  -0.062
REMARK UNBOUND:                -0.225
REMARK SMILES CCCCCC(=O)[O-]
REMARK SMILES IDX 4 1 5 2 6 3 7 4 8 5 3 6 2 7 1 8
REMARK H PARENT
REMARK Flexibility Score: inf
ROOT
ATOM      1  C   UNL     1       9.250  -4.993  -5.249  1.00  0.00     0.006 C 
ENDROOT
BRANCH   1   2
ATOM      2  C   UNL     1      10.065  -5.947  -6.126  1.00  0.00     0.053 C 
BRANCH   2   3
ATOM      3  C   UNL     1       9.754  -5.725  -7.572  1.00  0.00     0.041 C 
ATOM      4  O   UNL     1       9.698  -4.556  -8.036  1.00  0.00    -0.550 OA
ATOM      5  O   UNL     1       9.574  -6.811  -8.419  1.00  0.00    -0.550 OA
ENDBRANCH   2   3
ENDBRANCH   1   2
BRANCH   1   6
ATOM      6  C   UNL     1       9.657  -5.121  -3.772  1.00  0.00     0.000 C 
BRANCH   6   7
ATOM      7  C   UNL     1       9.039  -4.023  -2.892  1.00  0.00    -0.003 C 
ATOM      8  C   UNL     1       9.881  -2.749  -2.858  1.00  0.00     0.004 C 
ENDBRANCH   6   7
ENDBRANCH   1   6
TORSDOF 4
ENDMDL
MODEL 5
REMARK VINA RESULT:    -2.614     10.960     12.145
REMARK INTER + INTRA:          -3.450
REMARK INTER:                  -3.317
REMARK INTRA:                  -0.134
REMARK UNBOUND:                -0.225
REMARK SMILES CCCCCC(=O)[O-]
REMARK SMILES IDX 4 1 5 2 6 3 7 4 8 5 3 6 2 7 1 8
REMARK H PARENT
REMARK Flexibility Score: inf
ROOT
ATOM      1  C   UNL     1      -7.109   5.664   8.571  1.00  0.00     0.006 C 
ENDROOT
BRANCH   1   2
ATOM      2  C   UNL     1      -6.570   6.976   9.147  1.00  0.00     0.053 C 
BRANCH   2   3
ATOM      3  C   UNL     1      -5.146   7.182   8.740  1.00  0.00     0.041 C 
ATOM      4  O   UNL     1      -4.327   6.227   8.795  1.00  0.00    -0.550 OA
ATOM      5  O   UNL     1      -4.734   8.415   8.251  1.00  0.00    -0.550 OA
ENDBRANCH   2   3
ENDBRANCH   1   2
BRANCH   1   6
ATOM      6  C   UNL     1      -7.789   5.898   7.213  1.00  0.00     0.000 C 
BRANCH   6   7
ATOM      7  C   UNL     1      -9.321   5.953   7.321  1.00  0.00    -0.003 C 
ATOM      8  C   UNL     1      -9.884   4.900   8.273  1.00  0.00     0.004 C 
ENDBRANCH   6   7
ENDBRANCH   1   6
TORSDOF 4
ENDMDL
MODEL 6
REMARK VINA RESULT:    -2.600      9.703     10.951
REMARK INTER + INTRA:          -3.433
REMARK INTER:                  -3.389
REMARK INTRA:                  -0.044
REMARK UNBOUND:                -0.225
REMARK SMILES CCCCCC(=O)[O-]
REMARK SMILES IDX 4 1 5 2 6 3 7 4 8 5 3 6 2 7 1 8
REMARK H PARENT
REMARK Flexibility Score: inf
ROOT
ATOM      1  C   UNL     1      -7.839   5.874   7.446  1.00  0.00     0.006 C 
ENDROOT
BRANCH   1   2
ATOM      2  C   UNL     1      -8.381   5.353   8.780  1.00  0.00     0.053 C 
BRANCH   2   3
ATOM      3  C   UNL     1      -7.417   4.388   9.396  1.00  0.00     0.041 C 
ATOM      4  O   UNL     1      -6.275   4.777   9.756  1.00  0.00    -0.550 OA
ATOM      5  O   UNL     1      -7.799   3.071   9.619  1.00  0.00    -0.550 OA
ENDBRANCH   2   3
ENDBRANCH   1   2
BRANCH   1   6
ATOM      6  C   UNL     1      -8.958   5.964   6.396  1.00  0.00     0.000 C 
BRANCH   6   7
ATOM      7  C   UNL     1      -8.742   7.114   5.400  1.00  0.00    -0.003 C 
ATOM      8  C   UNL     1      -9.730   7.081   4.236  1.00  0.00     0.004 C 
ENDBRANCH   6   7
ENDBRANCH   1   6
TORSDOF 4
ENDMDL
MODEL 7
REMARK VINA RESULT:    -2.577     10.354     11.691
REMARK INTER + INTRA:          -3.404
REMARK INTER:                  -3.304
REMARK INTRA:                  -0.100
REMARK UNBOUND:                -0.225
REMARK SMILES CCCCCC(=O)[O-]
REMARK SMILES IDX 4 1 5 2 6 3 7 4 8 5 3 6 2 7 1 8
REMARK H PARENT
REMARK Flexibility Score: inf
ROOT
ATOM      1  C   UNL     1      -9.042   5.893   6.791  1.00  0.00     0.006 C 
ENDROOT
BRANCH   1   2
ATOM      2  C   UNL     1      -7.645   5.937   7.414  1.00  0.00     0.053 C 
BRANCH   2   3
ATOM      3  C   UNL     1      -7.613   5.151   8.687  1.00  0.00     0.041 C 
ATOM      4  O   UNL     1      -8.578   4.401   8.992  1.00  0.00    -0.550 OA
ATOM      5  O   UNL     1      -6.497   5.208   9.512  1.00  0.00    -0.550 OA
ENDBRANCH   2   3
ENDBRANCH   1   2
BRANCH   1   6
ATOM      6  C   UNL     1      -9.350   7.198   6.040  1.00  0.00     0.000 C 
BRANCH   6   7
ATOM      7  C   UNL     1      -9.408   7.003   4.517  1.00  0.00    -0.003 C 
ATOM      8  C   UNL     1      -8.268   7.710   3.786  1.00  0.00     0.004 C 
ENDBRANCH   6   7
ENDBRANCH   1   6
TORSDOF 4
ENDMDL
MODEL 8
REMARK VINA RESULT:    -2.545     22.731     23.367
REMARK INTER + INTRA:          -3.365
REMARK INTER:                  -3.316
REMARK INTRA:                  -0.049
REMARK UNBOUND:                -0.225
REMARK SMILES CCCCCC(=O)[O-]
REMARK SMILES IDX 4 1 5 2 6 3 7 4 8 5 3 6 2 7 1 8
REMARK H PARENT
REMARK Flexibility Score: inf
ROOT
ATOM      1  C   UNL     1       9.372  -5.199  -5.925  1.00  0.00     0.006 C 
ENDROOT
BRANCH   1   2
ATOM      2  C   UNL     1       9.947  -5.463  -4.531  1.00  0.00     0.053 C 
BRANCH   2   3
ATOM      3  C   UNL     1       9.402  -4.479  -3.545  1.00  0.00     0.041 C 
ATOM      4  O   UNL     1       8.613  -4.859  -2.640  1.00  0.00    -0.550 OA
ATOM      5  O   UNL     1       9.803  -3.149  -3.594  1.00  0.00    -0.550 OA
ENDBRANCH   2   3
ENDBRANCH   1   2
BRANCH   1   6
ATOM      6  C   UNL     1      10.125  -6.010  -6.992  1.00  0.00     0.000 C 
BRANCH   6   7
ATOM      7  C   UNL     1       9.851  -5.507  -8.418  1.00  0.00    -0.003 C 
ATOM      8  C   UNL     1       8.858  -6.387  -9.175  1.00  0.00     0.004 C 
ENDBRANCH   6   7
ENDBRANCH   1   6
TORSDOF 4
ENDMDL
MODEL 9
REMARK VINA RESULT:    -2.401     11.150     12.093
REMARK INTER + INTRA:          -3.188
REMARK INTER:                  -3.104
REMARK INTRA:                  -0.084
REMARK UNBOUND:                -0.225
REMARK SMILES CCCCCC(=O)[O-]
REMARK SMILES IDX 4 1 5 2 6 3 7 4 8 5 3 6 2 7 1 8
REMARK H PARENT
REMARK Flexibility Score: inf
ROOT
ATOM      1  C   UNL     1      -7.674   5.956   7.287  1.00  0.00     0.006 C 
ENDROOT
BRANCH   1   2
ATOM      2  C   UNL     1      -9.012   5.960   6.542  1.00  0.00     0.053 C 
BRANCH   2   3
ATOM      3  C   UNL     1      -8.984   6.947   5.418  1.00  0.00     0.041 C 
ATOM      4  O   UNL     1      -8.273   7.983   5.503  1.00  0.00    -0.550 OA
ATOM      5  O   UNL     1      -9.703   6.698   4.256  1.00  0.00    -0.550 OA
ENDBRANCH   2   3
ENDBRANCH   1   2
BRANCH   1   6
ATOM      6  C   UNL     1      -7.786   5.186   8.612  1.00  0.00     0.000 C 
BRANCH   6   7
ATOM      7  C   UNL     1      -6.676   5.560   9.607  1.00  0.00    -0.003 C 
ATOM      8  C   UNL     1      -5.536   6.340   8.955  1.00  0.00     0.004 C 
ENDBRANCH   6   7
ENDBRANCH   1   6
TORSDOF 4
ENDMDL
