MODEL 1
REMARK VINA RESULT:     1.583      0.000      0.000
REMARK INTER + INTRA:           1.671
REMARK INTER:                   2.786
REMARK INTRA:                  -1.115
REMARK UNBOUND:                -1.115
REMARK SMILES CCCCCCC=CCCCCCCCC(=O)[O-]
REMARK SMILES IDX 10 1 11 2 12 3 13 4 14 5 15 6 16 7 17 8 18 9 9 10 8 11 7 12
REMARK SMILES IDX 6 13 5 14 4 15 3 16 2 17 1 18
REMARK H PARENT
REMARK Flexibility Score: inf
ROOT
ATOM      1  C   UNL     1      19.455   2.072  25.334  1.00  0.00     0.004 C 
ENDROOT
BRANCH   1   2
ATOM      2  C   UNL     1      20.671   1.245  25.776  1.00  0.00     0.000 C 
BRANCH   2   3
ATOM      3  C   UNL     1      20.442   0.627  27.161  1.00  0.00     0.000 C 
BRANCH   3   4
ATOM      4  C   UNL     1      19.183   1.208  27.822  1.00  0.00     0.000 C 
BRANCH   4   5
ATOM      5  C   UNL     1      19.499   2.019  29.088  1.00  0.00     0.006 C 
BRANCH   5   6
ATOM      6  C   UNL     1      18.725   3.342  29.150  1.00  0.00     0.053 C 
BRANCH   6   7
ATOM      7  C   UNL     1      18.593   3.803  30.568  1.00  0.00     0.041 C 
ATOM      8  O   UNL     1      19.495   3.543  31.406  1.00  0.00    -0.550 OA
ATOM      9  O   UNL     1      17.448   4.477  30.975  1.00  0.00    -0.550 OA
ENDBRANCH   6   7
ENDBRANCH   5   6
ENDBRANCH   4   5
ENDBRANCH   3   4
ENDBRANCH   2   3
ENDBRANCH   1   2
BRANCH   1  10
ATOM     10  C   UNL     1      18.357   1.199  24.708  1.00  0.00     0.027 C 
BRANCH  10  11
ATOM     11  C   UNL     1      16.983   1.783  24.897  1.00  0.00    -0.031 C 
ATOM     12  C   UNL     1      16.790   2.913  25.591  1.00  0.00    -0.031 C 
BRANCH  12  13
ATOM     13  C   UNL     1      15.413   3.478  25.817  1.00  0.00     0.027 C 
BRANCH  13  14
ATOM     14  C   UNL     1      14.345   2.376  25.818  1.00  0.00     0.004 C 
BRANCH  14  15
ATOM     15  C   UNL     1      13.306   2.578  24.701  1.00  0.00     0.000 C 
BRANCH  15  16
ATOM     16  C   UNL     1      13.902   3.248  23.453  1.00  0.00    -0.000 C 
BRANCH  16  17
ATOM     17  C   UNL     1      12.910   4.194  22.759  1.00  0.00    -0.003 C 
ATOM     18  C   UNL     1      13.250   5.653  23.048  1.00  0.00     0.004 C 
ENDBRANCH  16  17
ENDBRANCH  15  16
ENDBRANCH  14  15
ENDBRANCH  13  14
ENDBRANCH  12  13
ENDBRANCH  10  11
ENDBRANCH   1  10
TORSDOF 13
ENDMDL
MODEL 2
REMARK VINA RESULT:     1.643      3.335      6.563
REMARK INTER + INTRA:           1.777
REMARK INTER:                   3.159
REMARK INTRA:                  -1.382
REMARK UNBOUND:                -1.115
REMARK SMILES CCCCCCC=CCCCCCCCC(=O)[O-]
REMARK SMILES IDX 10 1 11 2 12 3 13 4 14 5 15 6 16 7 17 8 18 9 9 10 8 11 7 12
REMARK SMILES IDX 6 13 5 14 4 15 3 16 2 17 1 18
REMARK H PARENT
REMARK Flexibility Score: inf
ROOT
ATOM      1  C   UNL     1      17.904   1.255  25.271  1.00  0.00     0.004 C 
ENDROOT
BRANCH   1   2
ATOM      2  C   UNL     1      17.336   2.633  24.903  1.00  0.00     0.000 C 
BRANCH   2   3
ATOM      3  C   UNL     1      16.613   3.267  26.097  1.00  0.00     0.000 C 
BRANCH   3   4
ATOM      4  C   UNL     1      15.145   3.567  25.756  1.00  0.00     0.000 C 
BRANCH   4   5
ATOM      5  C   UNL     1      14.332   2.296  25.470  1.00  0.00     0.006 C 
BRANCH   5   6
ATOM      6  C   UNL     1      13.096   2.568  24.603  1.00  0.00     0.053 C 
BRANCH   6   7
ATOM      7  C   UNL     1      13.471   3.372  23.398  1.00  0.00     0.041 C 
ATOM      8  O   UNL     1      14.183   2.864  22.492  1.00  0.00    -0.550 OA
ATOM      9  O   UNL     1      13.075   4.701  23.298  1.00  0.00    -0.550 OA
ENDBRANCH   6   7
ENDBRANCH   5   6
ENDBRANCH   4   5
ENDBRANCH   3   4
ENDBRANCH   2   3
ENDBRANCH   1   2
BRANCH   1  10
ATOM     10  C   UNL     1      19.432   1.281  25.429  1.00  0.00     0.027 C 
BRANCH  10  11
ATOM     11  C   UNL     1      19.857   1.614  26.833  1.00  0.00    -0.031 C 
ATOM     12  C   UNL     1      19.088   1.313  27.890  1.00  0.00    -0.031 C 
BRANCH  12  13
ATOM     13  C   UNL     1      19.492   1.681  29.294  1.00  0.00     0.027 C 
BRANCH  13  14
ATOM     14  C   UNL     1      19.443   3.199  29.514  1.00  0.00     0.004 C 
BRANCH  14  15
ATOM     15  C   UNL     1      18.960   3.563  30.928  1.00  0.00     0.000 C 
BRANCH  15  16
ATOM     16  C   UNL     1      17.577   4.234  30.926  1.00  0.00    -0.000 C 
BRANCH  16  17
ATOM     17  C   UNL     1      17.120   4.644  29.518  1.00  0.00    -0.003 C 
ATOM     18  C   UNL     1      15.632   4.984  29.502  1.00  0.00     0.004 C 
ENDBRANCH  16  17
ENDBRANCH  15  16
ENDBRANCH  14  15
ENDBRANCH  13  14
ENDBRANCH  12  13
ENDBRANCH  10  11
ENDBRANCH   1  10
TORSDOF 13
ENDMDL
MODEL 3
REMARK VINA RESULT:     1.974      3.428      6.937
REMARK INTER + INTRA:           2.360
REMARK INTER:                   3.836
REMARK INTRA:                  -1.476
REMARK UNBOUND:                -1.115
REMARK SMILES CCCCCCC=CCCCCCCCC(=O)[O-]
REMARK SMILES IDX 10 1 11 2 12 3 13 4 14 5 15 6 16 7 17 8 18 9 9 10 8 11 7 12
REMARK SMILES IDX 6 13 5 14 4 15 3 16 2 17 1 18
REMARK H PARENT
REMARK Flexibility Score: inf
ROOT
ATOM      1  C   UNL     1      17.210   2.265  25.009  1.00  0.00     0.004 C 
ENDROOT
BRANCH   1   2
ATOM      2  C   UNL     1      16.794   3.477  25.855  1.00  0.00     0.000 C 
BRANCH   2   3
ATOM      3  C   UNL     1      15.289   3.456  26.145  1.00  0.00     0.000 C 
BRANCH   3   4
ATOM      4  C   UNL     1      14.606   2.283  25.426  1.00  0.00     0.000 C 
BRANCH   4   5
ATOM      5  C   UNL     1      13.480   2.739  24.486  1.00  0.00     0.006 C 
BRANCH   5   6
ATOM      6  C   UNL     1      14.006   3.468  23.243  1.00  0.00     0.053 C 
BRANCH   6   7
ATOM      7  C   UNL     1      13.054   4.545  22.827  1.00  0.00     0.041 C 
ATOM      8  O   UNL     1      11.908   4.247  22.399  1.00  0.00    -0.550 OA
ATOM      9  O   UNL     1      13.450   5.876  22.866  1.00  0.00    -0.550 OA
ENDBRANCH   6   7
ENDBRANCH   5   6
ENDBRANCH   4   5
ENDBRANCH   3   4
ENDBRANCH   2   3
ENDBRANCH   1   2
BRANCH   1  10
ATOM     10  C   UNL     1      18.490   1.600  25.538  1.00  0.00     0.027 C 
BRANCH  10  11
ATOM     11  C   UNL     1      18.835   2.048  26.932  1.00  0.00    -0.031 C 
ATOM     12  C   UNL     1      19.289   1.187  27.854  1.00  0.00    -0.031 C 
BRANCH  12  13
ATOM     13  C   UNL     1      19.596   1.624  29.263  1.00  0.00     0.027 C 
BRANCH  13  14
ATOM     14  C   UNL     1      19.356   3.128  29.450  1.00  0.00     0.004 C 
BRANCH  14  15
ATOM     15  C   UNL     1      18.924   3.469  30.887  1.00  0.00     0.000 C 
BRANCH  15  16
ATOM     16  C   UNL     1      17.632   4.301  30.934  1.00  0.00    -0.000 C 
BRANCH  16  17
ATOM     17  C   UNL     1      17.102   4.651  29.536  1.00  0.00    -0.003 C 
ATOM     18  C   UNL     1      15.609   4.964  29.578  1.00  0.00     0.004 C 
ENDBRANCH  16  17
ENDBRANCH  15  16
ENDBRANCH  14  15
ENDBRANCH  13  14
ENDBRANCH  12  13
ENDBRANCH  10  11
ENDBRANCH   1  10
TORSDOF 13
ENDMDL
MODEL 4
REMARK VINA RESULT:     3.451      0.952      1.408
REMARK INTER + INTRA:           4.959
REMARK INTER:                   5.613
REMARK INTRA:                  -0.654
REMARK UNBOUND:                -1.115
REMARK SMILES CCCCCCC=CCCCCCCCC(=O)[O-]
REMARK SMILES IDX 10 1 11 2 12 3 13 4 14 5 15 6 16 7 17 8 18 9 9 10 8 11 7 12
REMARK SMILES IDX 6 13 5 14 4 15 3 16 2 17 1 18
REMARK H PARENT
REMARK Flexibility Score: inf
ROOT
ATOM      1  C   UNL     1      20.609   0.624  25.689  1.00  0.00     0.004 C 
ENDROOT
BRANCH   1   2
ATOM      2  C   UNL     1      20.369   1.426  26.976  1.00  0.00     0.000 C 
BRANCH   2   3
ATOM      3  C   UNL     1      19.803   0.532  28.085  1.00  0.00     0.000 C 
BRANCH   3   4
ATOM      4  C   UNL     1      19.446   1.357  29.331  1.00  0.00     0.000 C 
BRANCH   4   5
ATOM      5  C   UNL     1      19.012   2.790  28.987  1.00  0.00     0.006 C 
BRANCH   5   6
ATOM      6  C   UNL     1      19.080   3.734  30.195  1.00  0.00     0.053 C 
BRANCH   6   7
ATOM      7  C   UNL     1      17.725   4.287  30.502  1.00  0.00     0.041 C 
ATOM      8  O   UNL     1      17.349   4.417  31.697  1.00  0.00    -0.550 OA
ATOM      9  O   UNL     1      16.856   4.612  29.468  1.00  0.00    -0.550 OA
ENDBRANCH   6   7
ENDBRANCH   5   6
ENDBRANCH   4   5
ENDBRANCH   3   4
ENDBRANCH   2   3
ENDBRANCH   1   2
BRANCH   1  10
ATOM     10  C   UNL     1      19.531   0.896  24.629  1.00  0.00     0.027 C 
BRANCH  10  11
ATOM     11  C   UNL     1      18.225   1.329  25.236  1.00  0.00    -0.031 C 
ATOM     12  C   UNL     1      17.917   2.625  25.388  1.00  0.00    -0.031 C 
BRANCH  12  13
ATOM     13  C   UNL     1      16.628   3.062  26.032  1.00  0.00     0.027 C 
BRANCH  13  14
ATOM     14  C   UNL     1      15.488   3.152  25.008  1.00  0.00     0.004 C 
BRANCH  14  15
ATOM     15  C   UNL     1      14.170   2.580  25.559  1.00  0.00     0.000 C 
BRANCH  15  16
ATOM     16  C   UNL     1      13.083   2.458  24.480  1.00  0.00    -0.000 C 
BRANCH  16  17
ATOM     17  C   UNL     1      13.480   3.136  23.160  1.00  0.00    -0.003 C 
ATOM     18  C   UNL     1      13.023   4.592  23.132  1.00  0.00     0.004 C 
ENDBRANCH  16  17
ENDBRANCH  15  16
ENDBRANCH  14  15
ENDBRANCH  13  14
ENDBRANCH  12  13
ENDBRANCH  10  11
ENDBRANCH   1  10
TORSDOF 13
ENDMDL
MODEL 5
REMARK VINA RESULT:     4.079      2.474      4.073
REMARK INTER + INTRA:           6.065
REMARK INTER:                   7.477
REMARK INTRA:                  -1.412
REMARK UNBOUND:                -1.115
REMARK SMILES CCCCCCC=CCCCCCCCC(=O)[O-]
REMARK SMILES IDX 10 1 11 2 12 3 13 4 14 5 15 6 16 7 17 8 18 9 9 10 8 11 7 12
REMARK SMILES IDX 6 13 5 14 4 15 3 16 2 17 1 18
REMARK H PARENT
REMARK Flexibility Score: inf
ROOT
ATOM      1  C   UNL     1      17.741   4.122  30.620  1.00  0.00     0.004 C 
ENDROOT
BRANCH   1   2
ATOM      2  C   UNL     1      18.826   3.770  29.592  1.00  0.00     0.000 C 
BRANCH   2   3
ATOM      3  C   UNL     1      19.347   2.344  29.807  1.00  0.00     0.000 C 
BRANCH   3   4
ATOM      4  C   UNL     1      19.423   1.580  28.477  1.00  0.00     0.000 C 
BRANCH   4   5
ATOM      5  C   UNL     1      18.736   2.327  27.324  1.00  0.00     0.006 C 
BRANCH   5   6
ATOM      6  C   UNL     1      18.833   1.574  25.991  1.00  0.00     0.053 C 
BRANCH   6   7
ATOM      7  C   UNL     1      20.263   1.281  25.660  1.00  0.00     0.041 C 
ATOM      8  O   UNL     1      20.690   0.097  25.683  1.00  0.00    -0.550 OA
ATOM      9  O   UNL     1      21.137   2.322  25.374  1.00  0.00    -0.550 OA
ENDBRANCH   6   7
ENDBRANCH   5   6
ENDBRANCH   4   5
ENDBRANCH   3   4
ENDBRANCH   2   3
ENDBRANCH   1   2
BRANCH   1  10
ATOM     10  C   UNL     1      16.443   4.599  29.952  1.00  0.00     0.027 C 
BRANCH  10  11
ATOM     11  C   UNL     1      16.575   4.715  28.458  1.00  0.00    -0.031 C 
ATOM     12  C   UNL     1      15.669   4.177  27.629  1.00  0.00    -0.031 C 
BRANCH  12  13
ATOM     13  C   UNL     1      15.820   4.256  26.132  1.00  0.00     0.027 C 
BRANCH  13  14
ATOM     14  C   UNL     1      15.519   2.907  25.465  1.00  0.00     0.004 C 
BRANCH  14  15
ATOM     15  C   UNL     1      14.090   2.422  25.760  1.00  0.00     0.000 C 
BRANCH  15  16
ATOM     16  C   UNL     1      13.191   2.437  24.513  1.00  0.00    -0.000 C 
BRANCH  16  17
ATOM     17  C   UNL     1      13.830   3.184  23.333  1.00  0.00    -0.003 C 
ATOM     18  C   UNL     1      13.070   4.471  23.022  1.00  0.00     0.004 C 
ENDBRANCH  16  17
ENDBRANCH  15  16
ENDBRANCH  14  15
ENDBRANCH  13  14
ENDBRANCH  12  13
ENDBRANCH  10  11
ENDBRANCH   1  10
TORSDOF 13
ENDMDL
MODEL 6
REMARK VINA RESULT:     4.164      3.341      6.353
REMARK INTER + INTRA:           6.213
REMARK INTER:                   7.519
REMARK INTRA:                  -1.306
REMARK UNBOUND:                -1.115
REMARK SMILES CCCCCCC=CCCCCCCCC(=O)[O-]
REMARK SMILES IDX 10 1 11 2 12 3 13 4 14 5 15 6 16 7 17 8 18 9 9 10 8 11 7 12
REMARK SMILES IDX 6 13 5 14 4 15 3 16 2 17 1 18
REMARK H PARENT
REMARK Flexibility Score: inf
ROOT
ATOM      1  C   UNL     1      19.281   1.935  25.846  1.00  0.00     0.004 C 
ENDROOT
BRANCH   1   2
ATOM      2  C   UNL     1      18.187   1.925  24.769  1.00  0.00     0.000 C 
BRANCH   2   3
ATOM      3  C   UNL     1      17.100   2.961  25.079  1.00  0.00     0.000 C 
BRANCH   3   4
ATOM      4  C   UNL     1      15.852   2.290  25.672  1.00  0.00     0.000 C 
BRANCH   4   5
ATOM      5  C   UNL     1      14.610   3.192  25.616  1.00  0.00     0.006 C 
BRANCH   5   6
ATOM      6  C   UNL     1      13.515   2.634  24.698  1.00  0.00     0.053 C 
BRANCH   6   7
ATOM      7  C   UNL     1      13.500   3.372  23.396  1.00  0.00     0.041 C 
ATOM      8  O   UNL     1      13.858   2.794  22.336  1.00  0.00    -0.550 OA
ATOM      9  O   UNL     1      13.138   4.713  23.361  1.00  0.00    -0.550 OA
ENDBRANCH   6   7
ENDBRANCH   5   6
ENDBRANCH   4   5
ENDBRANCH   3   4
ENDBRANCH   2   3
ENDBRANCH   1   2
BRANCH   1  10
ATOM     10  C   UNL     1      19.090   0.812  26.877  1.00  0.00     0.027 C 
BRANCH  10  11
ATOM     11  C   UNL     1      19.536   1.217  28.255  1.00  0.00    -0.031 C 
ATOM     12  C   UNL     1      19.176   2.391  28.793  1.00  0.00    -0.031 C 
BRANCH  12  13
ATOM     13  C   UNL     1      19.654   2.818  30.156  1.00  0.00     0.027 C 
BRANCH  13  14
ATOM     14  C   UNL     1      19.055   4.170  30.565  1.00  0.00     0.004 C 
BRANCH  14  15
ATOM     15  C   UNL     1      17.628   4.025  31.122  1.00  0.00     0.000 C 
BRANCH  15  16
ATOM     16  C   UNL     1      16.611   4.905  30.378  1.00  0.00    -0.000 C 
BRANCH  16  17
ATOM     17  C   UNL     1      16.448   4.506  28.905  1.00  0.00    -0.003 C 
ATOM     18  C   UNL     1      15.680   5.573  28.129  1.00  0.00     0.004 C 
ENDBRANCH  16  17
ENDBRANCH  15  16
ENDBRANCH  14  15
ENDBRANCH  13  14
ENDBRANCH  12  13
ENDBRANCH  10  11
ENDBRANCH   1  10
TORSDOF 13
ENDMDL
