MODEL 1
REMARK VINA RESULT:    -3.226      0.000      0.000
REMARK INTER + INTRA:          -3.868
REMARK INTER:                  -3.792
REMARK INTRA:                  -0.076
REMARK UNBOUND:                -0.076
REMARK SMILES CCCCC(=O)[O-]
REMARK SMILES IDX 4 1 5 2 6 3 7 4 3 5 2 6 1 7
REMARK H PARENT
REMARK Flexibility Score: inf
ROOT
ATOM      1  C   UNL     1      15.672  52.363 158.754  1.00  0.00     0.053 C 
ENDROOT
BRANCH   1   2
ATOM      2  C   UNL     1      14.988  51.450 159.723  1.00  0.00     0.041 C 
ATOM      3  O   UNL     1      15.600  50.458 160.197  1.00  0.00    -0.550 OA
ATOM      4  O   UNL     1      13.659  51.667 160.063  1.00  0.00    -0.550 OA
ENDBRANCH   1   2
BRANCH   1   5
ATOM      5  C   UNL     1      14.953  52.346 157.402  1.00  0.00     0.006 C 
BRANCH   5   6
ATOM      6  C   UNL     1      14.320  53.708 157.100  1.00  0.00    -0.003 C 
ATOM      7  C   UNL     1      12.877  53.554 156.628  1.00  0.00     0.004 C 
ENDBRANCH   5   6
ENDBRANCH   1   5
TORSDOF 3
ENDMDL
MODEL 2
REMARK VINA RESULT:    -3.223      0.882      1.370
REMARK INTER + INTRA:          -3.865
REMARK INTER:                  -3.802
REMARK INTRA:                  -0.063
REMARK UNBOUND:                -0.076
REMARK SMILES CCCCC(=O)[O-]
REMARK SMILES IDX 4 1 5 2 6 3 7 4 3 5 2 6 1 7
REMARK H PARENT
REMARK Flexibility Score: inf
ROOT
ATOM      1  C   UNL     1      15.392  52.257 158.646  1.00  0.00     0.053 C 
ENDROOT
BRANCH   1   2
ATOM      2  C   UNL     1      14.895  51.353 159.730  1.00  0.00     0.041 C 
ATOM      3  O   UNL     1      15.626  50.425 160.164  1.00  0.00    -0.550 OA
ATOM      4  O   UNL     1      13.607  51.504 160.226  1.00  0.00    -0.550 OA
ENDBRANCH   1   2
BRANCH   1   5
ATOM      5  C   UNL     1      14.217  52.921 157.921  1.00  0.00     0.006 C 
BRANCH   5   6
ATOM      6  C   UNL     1      14.274  52.644 156.416  1.00  0.00    -0.003 C 
ATOM      7  C   UNL     1      15.594  51.984 156.026  1.00  0.00     0.004 C 
ENDBRANCH   5   6
ENDBRANCH   1   5
TORSDOF 3
ENDMDL
MODEL 3
REMARK VINA RESULT:    -3.218      2.348      3.823
REMARK INTER + INTRA:          -3.859
REMARK INTER:                  -3.794
REMARK INTRA:                  -0.065
REMARK UNBOUND:                -0.076
REMARK SMILES CCCCC(=O)[O-]
REMARK SMILES IDX 4 1 5 2 6 3 7 4 3 5 2 6 1 7
REMARK H PARENT
REMARK Flexibility Score: inf
ROOT
ATOM      1  C   UNL     1      15.116  52.708 158.381  1.00  0.00     0.053 C 
ENDROOT
BRANCH   1   2
ATOM      2  C   UNL     1      14.239  52.829 157.174  1.00  0.00     0.041 C 
ATOM      3  O   UNL     1      13.181  53.509 157.227  1.00  0.00    -0.550 OA
ATOM      4  O   UNL     1      14.565  52.151 156.007  1.00  0.00    -0.550 OA
ENDBRANCH   1   2
BRANCH   1   5
ATOM      5  C   UNL     1      14.399  51.931 159.489  1.00  0.00     0.006 C 
BRANCH   5   6
ATOM      6  C   UNL     1      15.293  50.817 160.044  1.00  0.00    -0.003 C 
ATOM      7  C   UNL     1      16.542  50.633 159.187  1.00  0.00     0.004 C 
ENDBRANCH   5   6
ENDBRANCH   1   5
TORSDOF 3
ENDMDL
MODEL 4
REMARK VINA RESULT:    -3.161      2.331      3.051
REMARK INTER + INTRA:          -3.791
REMARK INTER:                  -3.747
REMARK INTRA:                  -0.044
REMARK UNBOUND:                -0.076
REMARK SMILES CCCCC(=O)[O-]
REMARK SMILES IDX 4 1 5 2 6 3 7 4 3 5 2 6 1 7
REMARK H PARENT
REMARK Flexibility Score: inf
ROOT
ATOM      1  C   UNL     1      15.569  51.222 159.930  1.00  0.00     0.053 C 
ENDROOT
BRANCH   1   2
ATOM      2  C   UNL     1      14.234  51.826 159.630  1.00  0.00     0.041 C 
ATOM      3  O   UNL     1      13.249  51.587 160.376  1.00  0.00    -0.550 OA
ATOM      4  O   UNL     1      14.065  52.613 158.498  1.00  0.00    -0.550 OA
ENDBRANCH   1   2
BRANCH   1   5
ATOM      5  C   UNL     1      16.570  51.554 158.819  1.00  0.00     0.006 C 
BRANCH   5   6
ATOM      6  C   UNL     1      17.474  52.722 159.227  1.00  0.00    -0.003 C 
ATOM      7  C   UNL     1      18.232  53.278 158.026  1.00  0.00     0.004 C 
ENDBRANCH   5   6
ENDBRANCH   1   5
TORSDOF 3
ENDMDL
MODEL 5
REMARK VINA RESULT:    -3.121      2.743      4.044
REMARK INTER + INTRA:          -3.744
REMARK INTER:                  -3.712
REMARK INTRA:                  -0.032
REMARK UNBOUND:                -0.076
REMARK SMILES CCCCC(=O)[O-]
REMARK SMILES IDX 4 1 5 2 6 3 7 4 3 5 2 6 1 7
REMARK H PARENT
REMARK Flexibility Score: inf
ROOT
ATOM      1  C   UNL     1      14.817  52.554 157.397  1.00  0.00     0.053 C 
ENDROOT
BRANCH   1   2
ATOM      2  C   UNL     1      14.339  53.929 157.048  1.00  0.00     0.041 C 
ATOM      3  O   UNL     1      13.185  54.097 156.575  1.00  0.00    -0.550 OA
ATOM      4  O   UNL     1      15.187  55.019 157.200  1.00  0.00    -0.550 OA
ENDBRANCH   1   2
BRANCH   1   5
ATOM      5  C   UNL     1      14.510  52.236 158.864  1.00  0.00     0.006 C 
BRANCH   5   6
ATOM      6  C   UNL     1      15.790  51.881 159.628  1.00  0.00    -0.003 C 
ATOM      7  C   UNL     1      15.817  50.403 160.002  1.00  0.00     0.004 C 
ENDBRANCH   5   6
ENDBRANCH   1   5
TORSDOF 3
ENDMDL
MODEL 6
REMARK VINA RESULT:    -3.044      0.745      1.739
REMARK INTER + INTRA:          -3.654
REMARK INTER:                  -3.583
REMARK INTRA:                  -0.071
REMARK UNBOUND:                -0.076
REMARK SMILES CCCCC(=O)[O-]
REMARK SMILES IDX 4 1 5 2 6 3 7 4 3 5 2 6 1 7
REMARK H PARENT
REMARK Flexibility Score: inf
ROOT
ATOM      1  C   UNL     1      15.468  52.376 158.475  1.00  0.00     0.053 C 
ENDROOT
BRANCH   1   2
ATOM      2  C   UNL     1      14.827  51.571 159.562  1.00  0.00     0.041 C 
ATOM      3  O   UNL     1      13.684  51.882 159.988  1.00  0.00    -0.550 OA
ATOM      4  O   UNL     1      15.512  50.510 160.138  1.00  0.00    -0.550 OA
ENDBRANCH   1   2
BRANCH   1   5
ATOM      5  C   UNL     1      14.483  52.604 157.324  1.00  0.00     0.006 C 
BRANCH   5   6
ATOM      6  C   UNL     1      14.413  54.088 156.948  1.00  0.00    -0.003 C 
ATOM      7  C   UNL     1      15.661  54.833 157.409  1.00  0.00     0.004 C 
ENDBRANCH   5   6
ENDBRANCH   1   5
TORSDOF 3
ENDMDL
MODEL 7
REMARK VINA RESULT:    -3.036      2.980      3.584
REMARK INTER + INTRA:          -3.645
REMARK INTER:                  -3.594
REMARK INTRA:                  -0.050
REMARK UNBOUND:                -0.076
REMARK SMILES CCCCC(=O)[O-]
REMARK SMILES IDX 4 1 5 2 6 3 7 4 3 5 2 6 1 7
REMARK H PARENT
REMARK Flexibility Score: inf
ROOT
ATOM      1  C   UNL     1      16.234  51.953 157.858  1.00  0.00     0.053 C 
ENDROOT
BRANCH   1   2
ATOM      2  C   UNL     1      17.172  53.112 157.982  1.00  0.00     0.041 C 
ATOM      3  O   UNL     1      18.354  53.017 157.561  1.00  0.00    -0.550 OA
ATOM      4  O   UNL     1      16.755  54.281 158.606  1.00  0.00    -0.550 OA
ENDBRANCH   1   2
BRANCH   1   5
ATOM      5  C   UNL     1      16.528  50.908 158.938  1.00  0.00     0.006 C 
BRANCH   5   6
ATOM      6  C   UNL     1      15.438  50.911 160.015  1.00  0.00    -0.003 C 
ATOM      7  C   UNL     1      14.287  51.836 159.633  1.00  0.00     0.004 C 
ENDBRANCH   5   6
ENDBRANCH   1   5
TORSDOF 3
ENDMDL
MODEL 8
REMARK VINA RESULT:    -3.013      2.586      3.419
REMARK INTER + INTRA:          -3.617
REMARK INTER:                  -3.524
REMARK INTRA:                  -0.093
REMARK UNBOUND:                -0.076
REMARK SMILES CCCCC(=O)[O-]
REMARK SMILES IDX 4 1 5 2 6 3 7 4 3 5 2 6 1 7
REMARK H PARENT
REMARK Flexibility Score: inf
ROOT
ATOM      1  C   UNL     1      16.907  52.369 158.782  1.00  0.00     0.053 C 
ENDROOT
BRANCH   1   2
ATOM      2  C   UNL     1      17.806  53.212 159.630  1.00  0.00     0.041 C 
ATOM      3  O   UNL     1      17.404  53.646 160.741  1.00  0.00    -0.550 OA
ATOM      4  O   UNL     1      19.071  53.559 159.172  1.00  0.00    -0.550 OA
ENDBRANCH   1   2
BRANCH   1   5
ATOM      5  C   UNL     1      16.027  51.473 159.659  1.00  0.00     0.006 C 
BRANCH   5   6
ATOM      6  C   UNL     1      14.548  51.846 159.514  1.00  0.00    -0.003 C 
ATOM      7  C   UNL     1      14.318  52.724 158.287  1.00  0.00     0.004 C 
ENDBRANCH   5   6
ENDBRANCH   1   5
TORSDOF 3
ENDMDL
MODEL 9
REMARK VINA RESULT:    -2.922      2.232      3.232
REMARK INTER + INTRA:          -3.511
REMARK INTER:                  -3.411
REMARK INTRA:                  -0.100
REMARK UNBOUND:                -0.076
REMARK SMILES CCCCC(=O)[O-]
REMARK SMILES IDX 4 1 5 2 6 3 7 4 3 5 2 6 1 7
REMARK H PARENT
REMARK Flexibility Score: inf
ROOT
ATOM      1  C   UNL     1      16.216  52.698 159.082  1.00  0.00     0.053 C 
ENDROOT
BRANCH   1   2
ATOM      2  C   UNL     1      15.796  51.330 159.517  1.00  0.00     0.041 C 
ATOM      3  O   UNL     1      16.558  50.345 159.330  1.00  0.00    -0.550 OA
ATOM      4  O   UNL     1      14.544  51.134 160.085  1.00  0.00    -0.550 OA
ENDBRANCH   1   2
BRANCH   1   5
ATOM      5  C   UNL     1      17.260  53.271 160.045  1.00  0.00     0.006 C 
BRANCH   5   6
ATOM      6  C   UNL     1      18.605  53.473 159.340  1.00  0.00    -0.003 C 
ATOM      7  C   UNL     1      18.452  53.383 157.825  1.00  0.00     0.004 C 
ENDBRANCH   5   6
ENDBRANCH   1   5
TORSDOF 3
ENDMDL
