MODEL 1
REMARK VINA RESULT:    -3.756      0.000      0.000
REMARK INTER + INTRA:         -16.624
REMARK INTER:                  -9.905
REMARK INTRA:                  -6.719
REMARK UNBOUND:                -6.719
REMARK SMILES CCCCCCCCCCCCCCCCCCCCCCCCCCCCCC(=O)[O-]
REMARK SMILES IDX 16 1 17 2 18 3 19 4 20 5 21 6 22 7 23 8 24 9 25 10 26 11
REMARK SMILES IDX 27 12 28 13 29 14 30 15 31 16 32 17 15 18 14 19 13 20 12 21
REMARK SMILES IDX 11 22 10 23 9 24 8 25 7 26 6 27 5 28 4 29 3 30 2 31 1 32
REMARK H PARENT
REMARK Flexibility Score: inf
ROOT
ATOM      1  C   UNL     1       5.959 -33.770  19.842  1.00  0.00     0.000 C 
ENDROOT
BRANCH   1   2
ATOM      2  C   UNL     1       7.384 -33.242  20.083  1.00  0.00     0.000 C 
BRANCH   2   3
ATOM      3  C   UNL     1       8.468 -34.249  19.657  1.00  0.00     0.000 C 
BRANCH   3   4
ATOM      4  C   UNL     1       9.832 -33.623  19.303  1.00  0.00     0.000 C 
BRANCH   4   5
ATOM      5  C   UNL     1      10.394 -34.023  17.925  1.00  0.00     0.000 C 
BRANCH   5   6
ATOM      6  C   UNL     1      10.349 -32.916  16.852  1.00  0.00     0.000 C 
BRANCH   6   7
ATOM      7  C   UNL     1       9.487 -31.692  17.211  1.00  0.00     0.000 C 
BRANCH   7   8
ATOM      8  C   UNL     1       8.270 -31.529  16.284  1.00  0.00     0.000 C 
BRANCH   8   9
ATOM      9  C   UNL     1       8.150 -32.659  15.244  1.00  0.00     0.000 C 
BRANCH   9  10
ATOM     10  C   UNL     1       6.819 -33.432  15.264  1.00  0.00     0.000 C 
BRANCH  10  11
ATOM     11  C   UNL     1       6.810 -34.593  16.269  1.00  0.00     0.000 C 
BRANCH  11  12
ATOM     12  C   UNL     1       7.783 -35.700  15.842  1.00  0.00     0.000 C 
BRANCH  12  13
ATOM     13  C   UNL     1       7.993 -36.715  16.970  1.00  0.00     0.006 C 
BRANCH  13  14
ATOM     14  C   UNL     1       6.754 -36.805  17.868  1.00  0.00     0.053 C 
BRANCH  14  15
ATOM     15  C   UNL     1       6.893 -37.916  18.861  1.00  0.00     0.041 C 
ATOM     16  O   UNL     1       6.932 -37.666  20.096  1.00  0.00    -0.550 OA
ATOM     17  O   UNL     1       6.976 -39.233  18.423  1.00  0.00    -0.550 OA
ENDBRANCH  14  15
ENDBRANCH  13  14
ENDBRANCH  12  13
ENDBRANCH  11  12
ENDBRANCH  10  11
ENDBRANCH   9  10
ENDBRANCH   8   9
ENDBRANCH   7   8
ENDBRANCH   6   7
ENDBRANCH   5   6
ENDBRANCH   4   5
ENDBRANCH   3   4
ENDBRANCH   2   3
ENDBRANCH   1   2
BRANCH   1  18
ATOM     18  C   UNL     1       5.154 -32.900  18.863  1.00  0.00     0.000 C 
BRANCH  18  19
ATOM     19  C   UNL     1       5.533 -31.405  18.845  1.00  0.00     0.000 C 
BRANCH  19  20
ATOM     20  C   UNL     1       4.820 -30.585  17.748  1.00  0.00     0.000 C 
BRANCH  20  21
ATOM     21  C   UNL     1       4.285 -31.470  16.607  1.00  0.00     0.000 C 
BRANCH  21  22
ATOM     22  C   UNL     1       2.792 -31.226  16.316  1.00  0.00     0.000 C 
BRANCH  22  23
ATOM     23  C   UNL     1       1.914 -31.112  17.576  1.00  0.00     0.000 C 
BRANCH  23  24
ATOM     24  C   UNL     1       1.650 -32.477  18.236  1.00  0.00    -0.000 C 
BRANCH  24  25
ATOM     25  C   UNL     1       1.355 -33.588  17.213  1.00  0.00    -0.000 C 
BRANCH  25  26
ATOM     26  C   UNL     1       1.914 -34.976  17.576  1.00  0.00    -0.000 C 
BRANCH  26  27
ATOM     27  C   UNL     1       3.359 -35.183  17.090  1.00  0.00    -0.000 C 
BRANCH  27  28
ATOM     28  C   UNL     1       3.547 -36.511  16.338  1.00  0.00    -0.000 C 
BRANCH  28  29
ATOM     29  C   UNL     1       3.895 -36.303  14.852  1.00  0.00    -0.000 C 
BRANCH  29  30
ATOM     30  C   UNL     1       3.567 -34.886  14.358  1.00  0.00    -0.000 C 
BRANCH  30  31
ATOM     31  C   UNL     1       2.525 -34.881  13.229  1.00  0.00    -0.003 C 
ATOM     32  C   UNL     1       1.112 -34.745  13.787  1.00  0.00     0.004 C 
ENDBRANCH  30  31
ENDBRANCH  29  30
ENDBRANCH  28  29
ENDBRANCH  27  28
ENDBRANCH  26  27
ENDBRANCH  25  26
ENDBRANCH  24  25
ENDBRANCH  23  24
ENDBRANCH  22  23
ENDBRANCH  21  22
ENDBRANCH  20  21
ENDBRANCH  19  20
ENDBRANCH  18  19
ENDBRANCH   1  18
TORSDOF 28
ENDMDL
MODEL 2
REMARK VINA RESULT:    -3.726     14.255     17.588
REMARK INTER + INTRA:         -16.543
REMARK INTER:                 -11.396
REMARK INTRA:                  -5.148
REMARK UNBOUND:                -6.719
REMARK SMILES CCCCCCCCCCCCCCCCCCCCCCCCCCCCCC(=O)[O-]
REMARK SMILES IDX 16 1 17 2 18 3 19 4 20 5 21 6 22 7 23 8 24 9 25 10 26 11
REMARK SMILES IDX 27 12 28 13 29 14 30 15 31 16 32 17 15 18 14 19 13 20 12 21
REMARK SMILES IDX 11 22 10 23 9 24 8 25 7 26 6 27 5 28 4 29 3 30 2 31 1 32
REMARK H PARENT
REMARK Flexibility Score: inf
ROOT
ATOM      1  C   UNL     1      -3.088 -44.482  15.572  1.00  0.00     0.000 C 
ENDROOT
BRANCH   1   2
ATOM      2  C   UNL     1      -4.442 -44.537  16.299  1.00  0.00     0.000 C 
BRANCH   2   3
ATOM      3  C   UNL     1      -5.363 -45.643  15.751  1.00  0.00     0.000 C 
BRANCH   3   4
ATOM      4  C   UNL     1      -6.777 -45.673  16.365  1.00  0.00     0.000 C 
BRANCH   4   5
ATOM      5  C   UNL     1      -7.292 -44.315  16.884  1.00  0.00     0.000 C 
BRANCH   5   6
ATOM      6  C   UNL     1      -8.665 -43.880  16.332  1.00  0.00     0.000 C 
BRANCH   6   7
ATOM      7  C   UNL     1      -8.625 -42.727  15.312  1.00  0.00     0.000 C 
BRANCH   7   8
ATOM      8  C   UNL     1      -7.196 -42.391  14.852  1.00  0.00     0.000 C 
BRANCH   8   9
ATOM      9  C   UNL     1      -6.879 -42.916  13.439  1.00  0.00     0.000 C 
BRANCH   9  10
ATOM     10  C   UNL     1      -7.982 -43.773  12.793  1.00  0.00     0.000 C 
BRANCH  10  11
ATOM     11  C   UNL     1      -7.696 -45.280  12.865  1.00  0.00     0.000 C 
BRANCH  11  12
ATOM     12  C   UNL     1      -8.816 -46.086  12.193  1.00  0.00     0.000 C 
BRANCH  12  13
ATOM     13  C   UNL     1      -8.243 -47.244  11.369  1.00  0.00     0.006 C 
BRANCH  13  14
ATOM     14  C   UNL     1      -6.931 -46.839  10.687  1.00  0.00     0.053 C 
BRANCH  14  15
ATOM     15  C   UNL     1      -6.345 -47.989   9.929  1.00  0.00     0.041 C 
ATOM     16  O   UNL     1      -7.066 -48.971   9.605  1.00  0.00    -0.550 OA
ATOM     17  O   UNL     1      -5.001 -47.977   9.577  1.00  0.00    -0.550 OA
ENDBRANCH  14  15
ENDBRANCH  13  14
ENDBRANCH  12  13
ENDBRANCH  11  12
ENDBRANCH  10  11
ENDBRANCH   9  10
ENDBRANCH   8   9
ENDBRANCH   7   8
ENDBRANCH   6   7
ENDBRANCH   5   6
ENDBRANCH   4   5
ENDBRANCH   3   4
ENDBRANCH   2   3
ENDBRANCH   1   2
BRANCH   1  18
ATOM     18  C   UNL     1      -2.001 -45.322  16.262  1.00  0.00     0.000 C 
BRANCH  18  19
ATOM     19  C   UNL     1      -2.104 -45.400  17.799  1.00  0.00     0.000 C 
BRANCH  19  20
ATOM     20  C   UNL     1      -1.610 -46.734  18.399  1.00  0.00     0.000 C 
BRANCH  20  21
ATOM     21  C   UNL     1      -1.412 -47.823  17.329  1.00  0.00     0.000 C 
BRANCH  21  22
ATOM     22  C   UNL     1      -2.369 -49.017  17.513  1.00  0.00     0.000 C 
BRANCH  22  23
ATOM     23  C   UNL     1      -3.713 -48.868  16.775  1.00  0.00     0.000 C 
BRANCH  23  24
ATOM     24  C   UNL     1      -4.903 -48.740  17.742  1.00  0.00    -0.000 C 
BRANCH  24  25
ATOM     25  C   UNL     1      -4.498 -48.918  19.216  1.00  0.00    -0.000 C 
BRANCH  25  26
ATOM     26  C   UNL     1      -4.582 -47.643  20.076  1.00  0.00    -0.000 C 
BRANCH  26  27
ATOM     27  C   UNL     1      -5.254 -46.470  19.340  1.00  0.00    -0.000 C 
BRANCH  27  28
ATOM     28  C   UNL     1      -5.397 -45.220  20.223  1.00  0.00    -0.000 C 
BRANCH  28  29
ATOM     29  C   UNL     1      -6.865 -44.898  20.559  1.00  0.00    -0.000 C 
BRANCH  29  30
ATOM     30  C   UNL     1      -7.158 -43.390  20.553  1.00  0.00    -0.000 C 
BRANCH  30  31
ATOM     31  C   UNL     1      -6.144 -42.594  19.718  1.00  0.00    -0.003 C 
ATOM     32  C   UNL     1      -6.062 -41.146  20.190  1.00  0.00     0.004 C 
ENDBRANCH  30  31
ENDBRANCH  29  30
ENDBRANCH  28  29
ENDBRANCH  27  28
ENDBRANCH  26  27
ENDBRANCH  25  26
ENDBRANCH  24  25
ENDBRANCH  23  24
ENDBRANCH  22  23
ENDBRANCH  21  22
ENDBRANCH  20  21
ENDBRANCH  19  20
ENDBRANCH  18  19
ENDBRANCH   1  18
TORSDOF 28
ENDMDL
MODEL 3
REMARK VINA RESULT:    -3.689     14.221     18.091
REMARK INTER + INTRA:         -16.448
REMARK INTER:                 -12.290
REMARK INTRA:                  -4.158
REMARK UNBOUND:                -6.719
REMARK SMILES CCCCCCCCCCCCCCCCCCCCCCCCCCCCCC(=O)[O-]
REMARK SMILES IDX 16 1 17 2 18 3 19 4 20 5 21 6 22 7 23 8 24 9 25 10 26 11
REMARK SMILES IDX 27 12 28 13 29 14 30 15 31 16 32 17 15 18 14 19 13 20 12 21
REMARK SMILES IDX 11 22 10 23 9 24 8 25 7 26 6 27 5 28 4 29 3 30 2 31 1 32
REMARK H PARENT
REMARK Flexibility Score: inf
ROOT
ATOM      1  C   UNL     1      -2.558 -44.369  15.343  1.00  0.00     0.000 C 
ENDROOT
BRANCH   1   2
ATOM      2  C   UNL     1      -4.053 -44.439  15.697  1.00  0.00     0.000 C 
BRANCH   2   3
ATOM      3  C   UNL     1      -4.696 -45.778  15.292  1.00  0.00     0.000 C 
BRANCH   3   4
ATOM      4  C   UNL     1      -4.203 -46.355  13.950  1.00  0.00     0.000 C 
BRANCH   4   5
ATOM      5  C   UNL     1      -4.607 -45.543  12.704  1.00  0.00     0.000 C 
BRANCH   5   6
ATOM      6  C   UNL     1      -5.381 -46.332  11.629  1.00  0.00     0.000 C 
BRANCH   6   7
ATOM      7  C   UNL     1      -6.911 -46.354  11.807  1.00  0.00     0.000 C 
BRANCH   7   8
ATOM      8  C   UNL     1      -7.616 -47.261  10.784  1.00  0.00     0.000 C 
BRANCH   8   9
ATOM      9  C   UNL     1      -8.003 -48.634  11.363  1.00  0.00     0.000 C 
BRANCH   9  10
ATOM     10  C   UNL     1      -7.499 -49.850  10.566  1.00  0.00     0.000 C 
BRANCH  10  11
ATOM     11  C   UNL     1      -5.978 -50.039  10.650  1.00  0.00     0.000 C 
BRANCH  11  12
ATOM     12  C   UNL     1      -5.355 -50.120   9.249  1.00  0.00     0.000 C 
BRANCH  12  13
ATOM     13  C   UNL     1      -4.500 -48.882   8.954  1.00  0.00     0.006 C 
BRANCH  13  14
ATOM     14  C   UNL     1      -4.831 -48.300   7.575  1.00  0.00     0.053 C 
BRANCH  14  15
ATOM     15  C   UNL     1      -5.576 -47.009   7.705  1.00  0.00     0.041 C 
ATOM     16  O   UNL     1      -5.023 -46.004   8.228  1.00  0.00    -0.550 OA
ATOM     17  O   UNL     1      -6.885 -46.912   7.246  1.00  0.00    -0.550 OA
ENDBRANCH  14  15
ENDBRANCH  13  14
ENDBRANCH  12  13
ENDBRANCH  11  12
ENDBRANCH  10  11
ENDBRANCH   9  10
ENDBRANCH   8   9
ENDBRANCH   7   8
ENDBRANCH   6   7
ENDBRANCH   5   6
ENDBRANCH   4   5
ENDBRANCH   3   4
ENDBRANCH   2   3
ENDBRANCH   1   2
BRANCH   1  18
ATOM     18  C   UNL     1      -1.692 -45.300  16.208  1.00  0.00     0.000 C 
BRANCH  18  19
ATOM     19  C   UNL     1      -2.086 -45.373  17.696  1.00  0.00     0.000 C 
BRANCH  19  20
ATOM     20  C   UNL     1      -1.641 -46.670  18.406  1.00  0.00     0.000 C 
BRANCH  20  21
ATOM     21  C   UNL     1      -1.411 -47.830  17.421  1.00  0.00     0.000 C 
BRANCH  21  22
ATOM     22  C   UNL     1      -2.370 -49.012  17.661  1.00  0.00     0.000 C 
BRANCH  22  23
ATOM     23  C   UNL     1      -3.689 -48.927  16.869  1.00  0.00     0.000 C 
BRANCH  23  24
ATOM     24  C   UNL     1      -4.886 -48.549  17.759  1.00  0.00    -0.000 C 
BRANCH  24  25
ATOM     25  C   UNL     1      -4.620 -48.793  19.255  1.00  0.00    -0.000 C 
BRANCH  25  26
ATOM     26  C   UNL     1      -4.645 -47.532  20.137  1.00  0.00    -0.000 C 
BRANCH  26  27
ATOM     27  C   UNL     1      -5.269 -46.318  19.426  1.00  0.00    -0.000 C 
BRANCH  27  28
ATOM     28  C   UNL     1      -5.902 -45.317  20.406  1.00  0.00    -0.000 C 
BRANCH  28  29
ATOM     29  C   UNL     1      -6.857 -44.330  19.709  1.00  0.00    -0.000 C 
BRANCH  29  30
ATOM     30  C   UNL     1      -6.485 -44.083  18.239  1.00  0.00    -0.000 C 
BRANCH  30  31
ATOM     31  C   UNL     1      -7.716 -43.925  17.335  1.00  0.00    -0.003 C 
ATOM     32  C   UNL     1      -7.424 -42.986  16.168  1.00  0.00     0.004 C 
ENDBRANCH  30  31
ENDBRANCH  29  30
ENDBRANCH  28  29
ENDBRANCH  27  28
ENDBRANCH  26  27
ENDBRANCH  25  26
ENDBRANCH  24  25
ENDBRANCH  23  24
ENDBRANCH  22  23
ENDBRANCH  21  22
ENDBRANCH  20  21
ENDBRANCH  19  20
ENDBRANCH  18  19
ENDBRANCH   1  18
TORSDOF 28
ENDMDL
MODEL 4
REMARK VINA RESULT:    -3.681     14.516     18.309
REMARK INTER + INTRA:         -16.426
REMARK INTER:                 -11.836
REMARK INTRA:                  -4.590
REMARK UNBOUND:                -6.719
REMARK SMILES CCCCCCCCCCCCCCCCCCCCCCCCCCCCCC(=O)[O-]
REMARK SMILES IDX 16 1 17 2 18 3 19 4 20 5 21 6 22 7 23 8 24 9 25 10 26 11
REMARK SMILES IDX 27 12 28 13 29 14 30 15 31 16 32 17 15 18 14 19 13 20 12 21
REMARK SMILES IDX 11 22 10 23 9 24 8 25 7 26 6 27 5 28 4 29 3 30 2 31 1 32
REMARK H PARENT
REMARK Flexibility Score: inf
ROOT
ATOM      1  C   UNL     1      -3.237 -44.708  14.993  1.00  0.00     0.000 C 
ENDROOT
BRANCH   1   2
ATOM      2  C   UNL     1      -4.288 -45.831  15.010  1.00  0.00     0.000 C 
BRANCH   2   3
ATOM      3  C   UNL     1      -4.213 -46.732  13.764  1.00  0.00     0.000 C 
BRANCH   3   4
ATOM      4  C   UNL     1      -3.112 -47.810  13.809  1.00  0.00     0.000 C 
BRANCH   4   5
ATOM      5  C   UNL     1      -3.603 -49.252  13.577  1.00  0.00     0.000 C 
BRANCH   5   6
ATOM      6  C   UNL     1      -3.126 -49.905  12.263  1.00  0.00     0.000 C 
BRANCH   6   7
ATOM      7  C   UNL     1      -3.598 -49.204  10.976  1.00  0.00     0.000 C 
BRANCH   7   8
ATOM      8  C   UNL     1      -4.540 -50.081  10.133  1.00  0.00     0.000 C 
BRANCH   8   9
ATOM      9  C   UNL     1      -5.977 -50.125  10.685  1.00  0.00     0.000 C 
BRANCH   9  10
ATOM     10  C   UNL     1      -6.630 -48.753  10.930  1.00  0.00     0.000 C 
BRANCH  10  11
ATOM     11  C   UNL     1      -7.504 -48.281   9.759  1.00  0.00     0.000 C 
BRANCH  11  12
ATOM     12  C   UNL     1      -6.672 -47.507   8.728  1.00  0.00     0.000 C 
BRANCH  12  13
ATOM     13  C   UNL     1      -6.455 -48.338   7.459  1.00  0.00     0.006 C 
BRANCH  13  14
ATOM     14  C   UNL     1      -5.692 -47.536   6.399  1.00  0.00     0.053 C 
BRANCH  14  15
ATOM     15  C   UNL     1      -4.237 -47.884   6.410  1.00  0.00     0.041 C 
ATOM     16  O   UNL     1      -3.608 -47.961   7.500  1.00  0.00    -0.550 OA
ATOM     17  O   UNL     1      -3.571 -48.126   5.214  1.00  0.00    -0.550 OA
ENDBRANCH  14  15
ENDBRANCH  13  14
ENDBRANCH  12  13
ENDBRANCH  11  12
ENDBRANCH  10  11
ENDBRANCH   9  10
ENDBRANCH   8   9
ENDBRANCH   7   8
ENDBRANCH   6   7
ENDBRANCH   5   6
ENDBRANCH   4   5
ENDBRANCH   3   4
ENDBRANCH   2   3
ENDBRANCH   1   2
BRANCH   1  18
ATOM     18  C   UNL     1      -2.038 -44.995  15.912  1.00  0.00     0.000 C 
BRANCH  18  19
ATOM     19  C   UNL     1      -2.388 -45.259  17.390  1.00  0.00     0.000 C 
BRANCH  19  20
ATOM     20  C   UNL     1      -1.631 -46.450  18.017  1.00  0.00     0.000 C 
BRANCH  20  21
ATOM     21  C   UNL     1      -1.682 -47.710  17.132  1.00  0.00     0.000 C 
BRANCH  21  22
ATOM     22  C   UNL     1      -2.500 -48.850  17.769  1.00  0.00     0.000 C 
BRANCH  22  23
ATOM     23  C   UNL     1      -3.915 -49.015  17.183  1.00  0.00     0.000 C 
BRANCH  23  24
ATOM     24  C   UNL     1      -4.967 -48.191  17.945  1.00  0.00    -0.000 C 
BRANCH  24  25
ATOM     25  C   UNL     1      -4.622 -48.011  19.434  1.00  0.00    -0.000 C 
BRANCH  25  26
ATOM     26  C   UNL     1      -4.751 -46.571  19.966  1.00  0.00    -0.000 C 
BRANCH  26  27
ATOM     27  C   UNL     1      -6.004 -45.851  19.438  1.00  0.00    -0.000 C 
BRANCH  27  28
ATOM     28  C   UNL     1      -5.663 -44.630  18.567  1.00  0.00    -0.000 C 
BRANCH  28  29
ATOM     29  C   UNL     1      -6.748 -44.335  17.514  1.00  0.00    -0.000 C 
BRANCH  29  30
ATOM     30  C   UNL     1      -7.200 -45.594  16.759  1.00  0.00    -0.000 C 
BRANCH  30  31
ATOM     31  C   UNL     1      -8.351 -45.315  15.781  1.00  0.00    -0.003 C 
ATOM     32  C   UNL     1      -7.821 -45.005  14.384  1.00  0.00     0.004 C 
ENDBRANCH  30  31
ENDBRANCH  29  30
ENDBRANCH  28  29
ENDBRANCH  27  28
ENDBRANCH  26  27
ENDBRANCH  25  26
ENDBRANCH  24  25
ENDBRANCH  23  24
ENDBRANCH  22  23
ENDBRANCH  21  22
ENDBRANCH  20  21
ENDBRANCH  19  20
ENDBRANCH  18  19
ENDBRANCH   1  18
TORSDOF 28
ENDMDL
MODEL 5
REMARK VINA RESULT:    -3.680     13.986     17.376
REMARK INTER + INTRA:         -16.422
REMARK INTER:                 -11.476
REMARK INTRA:                  -4.946
REMARK UNBOUND:                -6.719
REMARK SMILES CCCCCCCCCCCCCCCCCCCCCCCCCCCCCC(=O)[O-]
REMARK SMILES IDX 16 1 17 2 18 3 19 4 20 5 21 6 22 7 23 8 24 9 25 10 26 11
REMARK SMILES IDX 27 12 28 13 29 14 30 15 31 16 32 17 15 18 14 19 13 20 12 21
REMARK SMILES IDX 11 22 10 23 9 24 8 25 7 26 6 27 5 28 4 29 3 30 2 31 1 32
REMARK H PARENT
REMARK Flexibility Score: inf
ROOT
ATOM      1  C   UNL     1      -4.562 -46.449  14.512  1.00  0.00     0.000 C 
ENDROOT
BRANCH   1   2
ATOM      2  C   UNL     1      -4.281 -45.478  15.672  1.00  0.00     0.000 C 
BRANCH   2   3
ATOM      3  C   UNL     1      -3.039 -44.603  15.424  1.00  0.00     0.000 C 
BRANCH   3   4
ATOM      4  C   UNL     1      -1.804 -44.976  16.268  1.00  0.00     0.000 C 
BRANCH   4   5
ATOM      5  C   UNL     1      -2.097 -45.298  17.746  1.00  0.00     0.000 C 
BRANCH   5   6
ATOM      6  C   UNL     1      -1.617 -46.684  18.223  1.00  0.00     0.000 C 
BRANCH   6   7
ATOM      7  C   UNL     1      -1.528 -47.759  17.124  1.00  0.00     0.000 C 
BRANCH   7   8
ATOM      8  C   UNL     1      -2.236 -49.067  17.514  1.00  0.00     0.000 C 
BRANCH   8   9
ATOM      9  C   UNL     1      -3.659 -49.178  16.936  1.00  0.00     0.000 C 
BRANCH   9  10
ATOM     10  C   UNL     1      -4.766 -48.522  17.781  1.00  0.00     0.000 C 
BRANCH  10  11
ATOM     11  C   UNL     1      -4.574 -48.725  19.291  1.00  0.00     0.000 C 
BRANCH  11  12
ATOM     12  C   UNL     1      -4.580 -47.381  20.032  1.00  0.00     0.000 C 
BRANCH  12  13
ATOM     13  C   UNL     1      -5.388 -46.331  19.262  1.00  0.00     0.006 C 
BRANCH  13  14
ATOM     14  C   UNL     1      -6.032 -45.321  20.218  1.00  0.00     0.053 C 
BRANCH  14  15
ATOM     15  C   UNL     1      -6.635 -44.179  19.463  1.00  0.00     0.041 C 
ATOM     16  O   UNL     1      -6.846 -43.076  20.037  1.00  0.00    -0.550 OA
ATOM     17  O   UNL     1      -6.965 -44.329  18.121  1.00  0.00    -0.550 OA
ENDBRANCH  14  15
ENDBRANCH  13  14
ENDBRANCH  12  13
ENDBRANCH  11  12
ENDBRANCH  10  11
ENDBRANCH   9  10
ENDBRANCH   8   9
ENDBRANCH   7   8
ENDBRANCH   6   7
ENDBRANCH   5   6
ENDBRANCH   4   5
ENDBRANCH   3   4
ENDBRANCH   2   3
ENDBRANCH   1   2
BRANCH   1  18
ATOM     18  C   UNL     1      -3.283 -47.073  13.929  1.00  0.00     0.000 C 
BRANCH  18  19
ATOM     19  C   UNL     1      -3.400 -48.554  13.517  1.00  0.00     0.000 C 
BRANCH  19  20
ATOM     20  C   UNL     1      -2.046 -49.288  13.403  1.00  0.00     0.000 C 
BRANCH  20  21
ATOM     21  C   UNL     1      -1.570 -49.421  11.945  1.00  0.00     0.000 C 
BRANCH  21  22
ATOM     22  C   UNL     1      -2.720 -49.276  10.929  1.00  0.00     0.000 C 
BRANCH  22  23
ATOM     23  C   UNL     1      -2.620 -48.025  10.035  1.00  0.00     0.000 C 
BRANCH  23  24
ATOM     24  C   UNL     1      -3.775 -47.037  10.274  1.00  0.00    -0.000 C 
BRANCH  24  25
ATOM     25  C   UNL     1      -5.135 -47.584   9.804  1.00  0.00    -0.000 C 
BRANCH  25  26
ATOM     26  C   UNL     1      -6.069 -48.067  10.929  1.00  0.00    -0.000 C 
BRANCH  26  27
ATOM     27  C   UNL     1      -7.413 -47.317  10.951  1.00  0.00    -0.000 C 
BRANCH  27  28
ATOM     28  C   UNL     1      -7.240 -45.796  11.099  1.00  0.00    -0.000 C 
BRANCH  28  29
ATOM     29  C   UNL     1      -7.270 -45.338  12.569  1.00  0.00    -0.000 C 
BRANCH  29  30
ATOM     30  C   UNL     1      -8.210 -44.145  12.799  1.00  0.00    -0.000 C 
BRANCH  30  31
ATOM     31  C   UNL     1      -8.678 -44.035  14.258  1.00  0.00    -0.003 C 
ATOM     32  C   UNL     1      -8.317 -45.290  15.046  1.00  0.00     0.004 C 
ENDBRANCH  30  31
ENDBRANCH  29  30
ENDBRANCH  28  29
ENDBRANCH  27  28
ENDBRANCH  26  27
ENDBRANCH  25  26
ENDBRANCH  24  25
ENDBRANCH  23  24
ENDBRANCH  22  23
ENDBRANCH  21  22
ENDBRANCH  20  21
ENDBRANCH  19  20
ENDBRANCH  18  19
ENDBRANCH   1  18
TORSDOF 28
ENDMDL
MODEL 6
REMARK VINA RESULT:    -3.676     14.981     18.850
REMARK INTER + INTRA:         -16.413
REMARK INTER:                 -12.376
REMARK INTRA:                  -4.036
REMARK UNBOUND:                -6.719
REMARK SMILES CCCCCCCCCCCCCCCCCCCCCCCCCCCCCC(=O)[O-]
REMARK SMILES IDX 16 1 17 2 18 3 19 4 20 5 21 6 22 7 23 8 24 9 25 10 26 11
REMARK SMILES IDX 27 12 28 13 29 14 30 15 31 16 32 17 15 18 14 19 13 20 12 21
REMARK SMILES IDX 11 22 10 23 9 24 8 25 7 26 6 27 5 28 4 29 3 30 2 31 1 32
REMARK H PARENT
REMARK Flexibility Score: inf
ROOT
ATOM      1  C   UNL     1      -4.179 -45.409  15.633  1.00  0.00     0.000 C 
ENDROOT
BRANCH   1   2
ATOM      2  C   UNL     1      -4.731 -46.312  14.515  1.00  0.00     0.000 C 
BRANCH   2   3
ATOM      3  C   UNL     1      -3.644 -46.750  13.517  1.00  0.00     0.000 C 
BRANCH   3   4
ATOM      4  C   UNL     1      -3.156 -48.202  13.685  1.00  0.00     0.000 C 
BRANCH   4   5
ATOM      5  C   UNL     1      -3.512 -49.148  12.521  1.00  0.00     0.000 C 
BRANCH   5   6
ATOM      6  C   UNL     1      -4.377 -48.522  11.408  1.00  0.00     0.000 C 
BRANCH   6   7
ATOM      7  C   UNL     1      -5.753 -49.181  11.201  1.00  0.00     0.000 C 
BRANCH   7   8
ATOM      8  C   UNL     1      -5.784 -50.125   9.986  1.00  0.00     0.000 C 
BRANCH   8   9
ATOM      9  C   UNL     1      -4.558 -49.965   9.068  1.00  0.00     0.000 C 
BRANCH   9  10
ATOM     10  C   UNL     1      -4.856 -49.409   7.664  1.00  0.00     0.000 C 
BRANCH  10  11
ATOM     11  C   UNL     1      -6.355 -49.213   7.397  1.00  0.00     0.000 C 
BRANCH  11  12
ATOM     12  C   UNL     1      -6.614 -48.900   5.918  1.00  0.00     0.000 C 
BRANCH  12  13
ATOM     13  C   UNL     1      -5.497 -48.028   5.334  1.00  0.00     0.006 C 
BRANCH  13  14
ATOM     14  C   UNL     1      -6.033 -46.656   4.910  1.00  0.00     0.053 C 
BRANCH  14  15
ATOM     15  C   UNL     1      -6.468 -46.672   3.478  1.00  0.00     0.041 C 
ATOM     16  O   UNL     1      -7.689 -46.574   3.182  1.00  0.00    -0.550 OA
ATOM     17  O   UNL     1      -5.523 -46.793   2.466  1.00  0.00    -0.550 OA
ENDBRANCH  14  15
ENDBRANCH  13  14
ENDBRANCH  12  13
ENDBRANCH  11  12
ENDBRANCH  10  11
ENDBRANCH   9  10
ENDBRANCH   8   9
ENDBRANCH   7   8
ENDBRANCH   6   7
ENDBRANCH   5   6
ENDBRANCH   4   5
ENDBRANCH   3   4
ENDBRANCH   2   3
ENDBRANCH   1   2
BRANCH   1  18
ATOM     18  C   UNL     1      -2.838 -44.753  15.267  1.00  0.00     0.000 C 
BRANCH  18  19
ATOM     19  C   UNL     1      -1.669 -45.063  16.223  1.00  0.00     0.000 C 
BRANCH  19  20
ATOM     20  C   UNL     1      -2.101 -45.352  17.677  1.00  0.00     0.000 C 
BRANCH  20  21
ATOM     21  C   UNL     1      -1.602 -46.720  18.177  1.00  0.00     0.000 C 
BRANCH  21  22
ATOM     22  C   UNL     1      -1.598 -47.792  17.070  1.00  0.00     0.000 C 
BRANCH  22  23
ATOM     23  C   UNL     1      -2.421 -49.050  17.406  1.00  0.00     0.000 C 
BRANCH  23  24
ATOM     24  C   UNL     1      -3.836 -49.007  16.802  1.00  0.00    -0.000 C 
BRANCH  24  25
ATOM     25  C   UNL     1      -4.898 -48.520  17.804  1.00  0.00    -0.000 C 
BRANCH  25  26
ATOM     26  C   UNL     1      -4.588 -48.818  19.282  1.00  0.00    -0.000 C 
BRANCH  26  27
ATOM     27  C   UNL     1      -4.582 -47.552  20.157  1.00  0.00    -0.000 C 
BRANCH  27  28
ATOM     28  C   UNL     1      -5.073 -46.307  19.401  1.00  0.00    -0.000 C 
BRANCH  28  29
ATOM     29  C   UNL     1      -5.669 -45.242  20.341  1.00  0.00    -0.000 C 
BRANCH  29  30
ATOM     30  C   UNL     1      -6.852 -44.491  19.711  1.00  0.00    -0.000 C 
BRANCH  30  31
ATOM     31  C   UNL     1      -6.684 -44.285  18.198  1.00  0.00    -0.003 C 
ATOM     32  C   UNL     1      -5.853 -43.040  17.903  1.00  0.00     0.004 C 
ENDBRANCH  30  31
ENDBRANCH  29  30
ENDBRANCH  28  29
ENDBRANCH  27  28
ENDBRANCH  26  27
ENDBRANCH  25  26
ENDBRANCH  24  25
ENDBRANCH  23  24
ENDBRANCH  22  23
ENDBRANCH  21  22
ENDBRANCH  20  21
ENDBRANCH  19  20
ENDBRANCH  18  19
ENDBRANCH   1  18
TORSDOF 28
ENDMDL
MODEL 7
REMARK VINA RESULT:    -3.662     12.814     16.646
REMARK INTER + INTRA:         -16.376
REMARK INTER:                 -10.403
REMARK INTRA:                  -5.973
REMARK UNBOUND:                -6.719
REMARK SMILES CCCCCCCCCCCCCCCCCCCCCCCCCCCCCC(=O)[O-]
REMARK SMILES IDX 16 1 17 2 18 3 19 4 20 5 21 6 22 7 23 8 24 9 25 10 26 11
REMARK SMILES IDX 27 12 28 13 29 14 30 15 31 16 32 17 15 18 14 19 13 20 12 21
REMARK SMILES IDX 11 22 10 23 9 24 8 25 7 26 6 27 5 28 4 29 3 30 2 31 1 32
REMARK H PARENT
REMARK Flexibility Score: inf
ROOT
ATOM      1  C   UNL     1      -3.174 -45.658  16.013  1.00  0.00     0.000 C 
ENDROOT
BRANCH   1   2
ATOM      2  C   UNL     1      -2.298 -45.255  17.212  1.00  0.00     0.000 C 
BRANCH   2   3
ATOM      3  C   UNL     1      -1.647 -46.466  17.904  1.00  0.00     0.000 C 
BRANCH   3   4
ATOM      4  C   UNL     1      -1.341 -47.658  16.974  1.00  0.00     0.000 C 
BRANCH   4   5
ATOM      5  C   UNL     1      -2.046 -48.976  17.351  1.00  0.00     0.000 C 
BRANCH   5   6
ATOM      6  C   UNL     1      -3.228 -49.370  16.442  1.00  0.00     0.000 C 
BRANCH   6   7
ATOM      7  C   UNL     1      -4.621 -48.990  16.979  1.00  0.00     0.000 C 
BRANCH   7   8
ATOM      8  C   UNL     1      -4.621 -48.724  18.494  1.00  0.00     0.000 C 
BRANCH   8   9
ATOM      9  C   UNL     1      -5.303 -47.396  18.873  1.00  0.00     0.000 C 
BRANCH   9  10
ATOM     10  C   UNL     1      -4.602 -46.589  19.980  1.00  0.00     0.000 C 
BRANCH  10  11
ATOM     11  C   UNL     1      -5.009 -45.109  19.999  1.00  0.00     0.000 C 
BRANCH  11  12
ATOM     12  C   UNL     1      -6.527 -44.953  19.837  1.00  0.00     0.000 C 
BRANCH  12  13
ATOM     13  C   UNL     1      -6.862 -43.957  18.721  1.00  0.00     0.006 C 
BRANCH  13  14
ATOM     14  C   UNL     1      -5.960 -42.720  18.798  1.00  0.00     0.053 C 
BRANCH  14  15
ATOM     15  C   UNL     1      -6.374 -41.694  17.790  1.00  0.00     0.041 C 
ATOM     16  O   UNL     1      -6.621 -40.511  18.150  1.00  0.00    -0.550 OA
ATOM     17  O   UNL     1      -6.484 -42.041  16.449  1.00  0.00    -0.550 OA
ENDBRANCH  14  15
ENDBRANCH  13  14
ENDBRANCH  12  13
ENDBRANCH  11  12
ENDBRANCH  10  11
ENDBRANCH   9  10
ENDBRANCH   8   9
ENDBRANCH   7   8
ENDBRANCH   6   7
ENDBRANCH   5   6
ENDBRANCH   4   5
ENDBRANCH   3   4
ENDBRANCH   2   3
ENDBRANCH   1   2
BRANCH   1  18
ATOM     18  C   UNL     1      -4.645 -45.238  16.176  1.00  0.00     0.000 C 
BRANCH  18  19
ATOM     19  C   UNL     1      -5.568 -45.600  14.996  1.00  0.00     0.000 C 
BRANCH  19  20
ATOM     20  C   UNL     1      -7.048 -45.214  15.209  1.00  0.00     0.000 C 
BRANCH  20  21
ATOM     21  C   UNL     1      -7.698 -44.647  13.933  1.00  0.00     0.000 C 
BRANCH  21  22
ATOM     22  C   UNL     1      -8.772 -45.584  13.348  1.00  0.00     0.000 C 
BRANCH  22  23
ATOM     23  C   UNL     1      -8.678 -45.778  11.823  1.00  0.00     0.000 C 
BRANCH  23  24
ATOM     24  C   UNL     1      -7.911 -47.056  11.438  1.00  0.00    -0.000 C 
BRANCH  24  25
ATOM     25  C   UNL     1      -6.555 -46.761  10.771  1.00  0.00    -0.000 C 
BRANCH  25  26
ATOM     26  C   UNL     1      -5.320 -47.146  11.605  1.00  0.00    -0.000 C 
BRANCH  26  27
ATOM     27  C   UNL     1      -4.280 -46.014  11.689  1.00  0.00    -0.000 C 
BRANCH  27  28
ATOM     28  C   UNL     1      -4.882 -44.633  11.381  1.00  0.00    -0.000 C 
BRANCH  28  29
ATOM     29  C   UNL     1      -4.025 -43.479  11.933  1.00  0.00    -0.000 C 
BRANCH  29  30
ATOM     30  C   UNL     1      -4.751 -42.667  13.016  1.00  0.00    -0.000 C 
BRANCH  30  31
ATOM     31  C   UNL     1      -3.834 -42.297  14.192  1.00  0.00    -0.003 C 
ATOM     32  C   UNL     1      -2.377 -42.216  13.746  1.00  0.00     0.004 C 
ENDBRANCH  30  31
ENDBRANCH  29  30
ENDBRANCH  28  29
ENDBRANCH  27  28
ENDBRANCH  26  27
ENDBRANCH  25  26
ENDBRANCH  24  25
ENDBRANCH  23  24
ENDBRANCH  22  23
ENDBRANCH  21  22
ENDBRANCH  20  21
ENDBRANCH  19  20
ENDBRANCH  18  19
ENDBRANCH   1  18
TORSDOF 28
ENDMDL
MODEL 8
REMARK VINA RESULT:    -3.657     11.790     15.766
REMARK INTER + INTRA:         -16.362
REMARK INTER:                 -10.532
REMARK INTRA:                  -5.831
REMARK UNBOUND:                -6.719
REMARK SMILES CCCCCCCCCCCCCCCCCCCCCCCCCCCCCC(=O)[O-]
REMARK SMILES IDX 16 1 17 2 18 3 19 4 20 5 21 6 22 7 23 8 24 9 25 10 26 11
REMARK SMILES IDX 27 12 28 13 29 14 30 15 31 16 32 17 15 18 14 19 13 20 12 21
REMARK SMILES IDX 11 22 10 23 9 24 8 25 7 26 6 27 5 28 4 29 3 30 2 31 1 32
REMARK H PARENT
REMARK Flexibility Score: inf
ROOT
ATOM      1  C   UNL     1      -2.206 -45.290  17.850  1.00  0.00     0.000 C 
ENDROOT
BRANCH   1   2
ATOM      2  C   UNL     1      -2.559 -45.247  16.353  1.00  0.00     0.000 C 
BRANCH   2   3
ATOM      3  C   UNL     1      -4.048 -44.947  16.104  1.00  0.00     0.000 C 
BRANCH   3   4
ATOM      4  C   UNL     1      -4.754 -45.921  15.140  1.00  0.00     0.000 C 
BRANCH   4   5
ATOM      5  C   UNL     1      -3.832 -46.600  14.108  1.00  0.00     0.000 C 
BRANCH   5   6
ATOM      6  C   UNL     1      -4.410 -46.706  12.682  1.00  0.00     0.000 C 
BRANCH   6   7
ATOM      7  C   UNL     1      -5.620 -45.797  12.398  1.00  0.00     0.000 C 
BRANCH   7   8
ATOM      8  C   UNL     1      -5.210 -44.399  11.906  1.00  0.00     0.000 C 
BRANCH   8   9
ATOM      9  C   UNL     1      -5.779 -43.263  12.777  1.00  0.00     0.000 C 
BRANCH   9  10
ATOM     10  C   UNL     1      -5.332 -41.844  12.382  1.00  0.00     0.000 C 
BRANCH  10  11
ATOM     11  C   UNL     1      -4.411 -41.189  13.421  1.00  0.00     0.000 C 
BRANCH  11  12
ATOM     12  C   UNL     1      -3.465 -42.223  14.046  1.00  0.00     0.000 C 
BRANCH  12  13
ATOM     13  C   UNL     1      -2.005 -41.918  13.692  1.00  0.00     0.006 C 
BRANCH  13  14
ATOM     14  C   UNL     1      -1.886 -40.589  12.938  1.00  0.00     0.053 C 
BRANCH  14  15
ATOM     15  C   UNL     1      -1.402 -40.809  11.540  1.00  0.00     0.041 C 
ATOM     16  O   UNL     1      -2.014 -41.598  10.770  1.00  0.00    -0.550 OA
ATOM     17  O   UNL     1      -0.273 -40.139  11.081  1.00  0.00    -0.550 OA
ENDBRANCH  14  15
ENDBRANCH  13  14
ENDBRANCH  12  13
ENDBRANCH  11  12
ENDBRANCH  10  11
ENDBRANCH   9  10
ENDBRANCH   8   9
ENDBRANCH   7   8
ENDBRANCH   6   7
ENDBRANCH   5   6
ENDBRANCH   4   5
ENDBRANCH   3   4
ENDBRANCH   2   3
ENDBRANCH   1   2
BRANCH   1  18
ATOM     18  C   UNL     1      -1.583 -46.628  18.282  1.00  0.00     0.000 C 
BRANCH  18  19
ATOM     19  C   UNL     1      -1.536 -47.716  17.190  1.00  0.00     0.000 C 
BRANCH  19  20
ATOM     20  C   UNL     1      -2.347 -48.985  17.526  1.00  0.00     0.000 C 
BRANCH  20  21
ATOM     21  C   UNL     1      -3.715 -49.013  16.819  1.00  0.00     0.000 C 
BRANCH  21  22
ATOM     22  C   UNL     1      -4.896 -48.960  17.807  1.00  0.00     0.000 C 
BRANCH  22  23
ATOM     23  C   UNL     1      -4.486 -48.690  19.267  1.00  0.00     0.000 C 
BRANCH  23  24
ATOM     24  C   UNL     1      -4.785 -47.245  19.704  1.00  0.00    -0.000 C 
BRANCH  24  25
ATOM     25  C   UNL     1      -5.730 -46.511  18.736  1.00  0.00    -0.000 C 
BRANCH  25  26
ATOM     26  C   UNL     1      -6.262 -45.158  19.242  1.00  0.00    -0.000 C 
BRANCH  26  27
ATOM     27  C   UNL     1      -5.148 -44.242  19.779  1.00  0.00    -0.000 C 
BRANCH  27  28
ATOM     28  C   UNL     1      -5.275 -42.795  19.273  1.00  0.00    -0.000 C 
BRANCH  28  29
ATOM     29  C   UNL     1      -6.561 -42.565  18.459  1.00  0.00    -0.000 C 
BRANCH  29  30
ATOM     30  C   UNL     1      -6.280 -42.236  16.985  1.00  0.00    -0.000 C 
BRANCH  30  31
ATOM     31  C   UNL     1      -7.220 -42.977  16.023  1.00  0.00    -0.003 C 
ATOM     32  C   UNL     1      -8.436 -43.529  16.762  1.00  0.00     0.004 C 
ENDBRANCH  30  31
ENDBRANCH  29  30
ENDBRANCH  28  29
ENDBRANCH  27  28
ENDBRANCH  26  27
ENDBRANCH  25  26
ENDBRANCH  24  25
ENDBRANCH  23  24
ENDBRANCH  22  23
ENDBRANCH  21  22
ENDBRANCH  20  21
ENDBRANCH  19  20
ENDBRANCH  18  19
ENDBRANCH   1  18
TORSDOF 28
ENDMDL
MODEL 9
REMARK VINA RESULT:    -3.639     13.748     16.250
REMARK INTER + INTRA:         -16.315
REMARK INTER:                 -12.764
REMARK INTRA:                  -3.551
REMARK UNBOUND:                -6.719
REMARK SMILES CCCCCCCCCCCCCCCCCCCCCCCCCCCCCC(=O)[O-]
REMARK SMILES IDX 16 1 17 2 18 3 19 4 20 5 21 6 22 7 23 8 24 9 25 10 26 11
REMARK SMILES IDX 27 12 28 13 29 14 30 15 31 16 32 17 15 18 14 19 13 20 12 21
REMARK SMILES IDX 11 22 10 23 9 24 8 25 7 26 6 27 5 28 4 29 3 30 2 31 1 32
REMARK H PARENT
REMARK Flexibility Score: inf
ROOT
ATOM      1  C   UNL     1      -1.543 -49.168  15.030  1.00  0.00     0.000 C 
ENDROOT
BRANCH   1   2
ATOM      2  C   UNL     1      -0.418 -49.985  14.370  1.00  0.00     0.000 C 
BRANCH   2   3
ATOM      3  C   UNL     1      -0.452 -49.906  12.833  1.00  0.00     0.000 C 
BRANCH   3   4
ATOM      4  C   UNL     1      -1.863 -49.822  12.219  1.00  0.00     0.000 C 
BRANCH   4   5
ATOM      5  C   UNL     1      -1.899 -49.516  10.708  1.00  0.00     0.000 C 
BRANCH   5   6
ATOM      6  C   UNL     1      -1.001 -48.348  10.254  1.00  0.00     0.000 C 
BRANCH   6   7
ATOM      7  C   UNL     1       0.360 -48.761   9.662  1.00  0.00     0.000 C 
BRANCH   7   8
ATOM      8  C   UNL     1       1.543 -48.049  10.338  1.00  0.00     0.000 C 
BRANCH   8   9
ATOM      9  C   UNL     1       2.269 -47.064   9.404  1.00  0.00     0.000 C 
BRANCH   9  10
ATOM     10  C   UNL     1       3.156 -46.021  10.107  1.00  0.00     0.000 C 
BRANCH  10  11
ATOM     11  C   UNL     1       4.254 -46.650  10.976  1.00  0.00     0.000 C 
BRANCH  11  12
ATOM     12  C   UNL     1       5.236 -47.461  10.120  1.00  0.00     0.000 C 
BRANCH  12  13
ATOM     13  C   UNL     1       6.217 -46.541   9.385  1.00  0.00     0.006 C 
BRANCH  13  14
ATOM     14  C   UNL     1       7.391 -47.338   8.805  1.00  0.00     0.053 C 
BRANCH  14  15
ATOM     15  C   UNL     1       8.499 -46.427   8.381  1.00  0.00     0.041 C 
ATOM     16  O   UNL     1       8.262 -45.440   7.634  1.00  0.00    -0.550 OA
ATOM     17  O   UNL     1       9.799 -46.664   8.814  1.00  0.00    -0.550 OA
ENDBRANCH  14  15
ENDBRANCH  13  14
ENDBRANCH  12  13
ENDBRANCH  11  12
ENDBRANCH  10  11
ENDBRANCH   9  10
ENDBRANCH   8   9
ENDBRANCH   7   8
ENDBRANCH   6   7
ENDBRANCH   5   6
ENDBRANCH   4   5
ENDBRANCH   3   4
ENDBRANCH   2   3
ENDBRANCH   1   2
BRANCH   1  18
ATOM     18  C   UNL     1      -1.218 -48.759  16.476  1.00  0.00     0.000 C 
BRANCH  18  19
ATOM     19  C   UNL     1      -2.363 -48.956  17.490  1.00  0.00     0.000 C 
BRANCH  19  20
ATOM     20  C   UNL     1      -3.769 -49.004  16.854  1.00  0.00     0.000 C 
BRANCH  20  21
ATOM     21  C   UNL     1      -4.847 -48.386  17.764  1.00  0.00     0.000 C 
BRANCH  21  22
ATOM     22  C   UNL     1      -4.554 -48.599  19.262  1.00  0.00     0.000 C 
BRANCH  22  23
ATOM     23  C   UNL     1      -4.555 -47.305  20.096  1.00  0.00     0.000 C 
BRANCH  23  24
ATOM     24  C   UNL     1      -4.228 -46.060  19.252  1.00  0.00    -0.000 C 
BRANCH  24  25
ATOM     25  C   UNL     1      -2.748 -45.647  19.343  1.00  0.00    -0.000 C 
BRANCH  25  26
ATOM     26  C   UNL     1      -2.052 -45.405  17.991  1.00  0.00    -0.000 C 
BRANCH  26  27
ATOM     27  C   UNL     1      -3.046 -45.290  16.821  1.00  0.00    -0.000 C 
BRANCH  27  28
ATOM     28  C   UNL     1      -2.444 -44.572  15.602  1.00  0.00    -0.000 C 
BRANCH  28  29
ATOM     29  C   UNL     1      -3.401 -44.555  14.395  1.00  0.00    -0.000 C 
BRANCH  29  30
ATOM     30  C   UNL     1      -4.399 -45.722  14.413  1.00  0.00    -0.000 C 
BRANCH  30  31
ATOM     31  C   UNL     1      -3.872 -46.963  13.676  1.00  0.00    -0.003 C 
ATOM     32  C   UNL     1      -4.420 -47.029  12.254  1.00  0.00     0.004 C 
ENDBRANCH  30  31
ENDBRANCH  29  30
ENDBRANCH  28  29
ENDBRANCH  27  28
ENDBRANCH  26  27
ENDBRANCH  25  26
ENDBRANCH  24  25
ENDBRANCH  23  24
ENDBRANCH  22  23
ENDBRANCH  21  22
ENDBRANCH  20  21
ENDBRANCH  19  20
ENDBRANCH  18  19
ENDBRANCH   1  18
TORSDOF 28
ENDMDL
