MODEL 1
REMARK VINA RESULT:    -5.451      0.000      0.000
REMARK INTER + INTRA:          -6.179
REMARK INTER:                  -5.769
REMARK INTRA:                  -0.409
REMARK UNBOUND:                -0.409
REMARK SMILES CC1=CC[C@]23[C@H]([C@@H](C(C)C)CC[C@H]2C)[C@@H]13
REMARK SMILES IDX 14 1 13 2 12 3 11 4 7 5 6 6 5 7 15 8 2 9 3 10 4 11 1 12 8 13
REMARK SMILES IDX 9 14 10 15
REMARK H PARENT
REMARK Flexibility Score: inf
ROOT
ATOM      1  C   UNL     1      10.708   8.368  23.042  1.00  0.00     0.008 C 
ATOM      2  C   UNL     1      12.130   8.793  23.440  1.00  0.00    -0.007 C 
ATOM      3  C   UNL     1      13.139   8.192  22.439  1.00  0.00     0.004 C 
ATOM      4  C   UNL     1      14.621   8.308  22.850  1.00  0.00     0.004 C 
ATOM      5  C   UNL     1      14.896   9.031  24.196  1.00  0.00    -0.004 C 
ATOM      6  C   UNL     1      13.911   8.634  25.329  1.00  0.00     0.007 C 
ATOM      7  C   UNL     1      12.449   8.453  24.922  1.00  0.00    -0.013 C 
ATOM      8  C   UNL     1      13.290   7.231  25.305  1.00  0.00     0.025 C 
ATOM      9  C   UNL     1      12.690   6.786  26.597  1.00  0.00    -0.073 C 
ATOM     10  C   UNL     1      11.686   7.557  26.999  1.00  0.00    -0.027 C 
ATOM     11  C   UNL     1      11.420   8.675  26.048  1.00  0.00     0.035 C 
ATOM     12  C   UNL     1      13.185   5.607  27.374  1.00  0.00     0.039 C 
ENDROOT
BRANCH   5  13
ATOM     13  C   UNL     1      16.378   8.825  24.657  1.00  0.00    -0.014 C 
ATOM     14  C   UNL     1      16.518   8.857  26.191  1.00  0.00     0.007 C 
ATOM     15  C   UNL     1      16.970   7.502  24.135  1.00  0.00     0.007 C 
ENDBRANCH   5  13
TORSDOF 1
ENDMDL
MODEL 2
REMARK VINA RESULT:    -5.429      1.216      3.819
REMARK INTER + INTRA:          -6.155
REMARK INTER:                  -5.746
REMARK INTRA:                  -0.409
REMARK UNBOUND:                -0.409
REMARK SMILES CC1=CC[C@]23[C@H]([C@@H](C(C)C)CC[C@H]2C)[C@@H]13
REMARK SMILES IDX 14 1 13 2 12 3 11 4 7 5 6 6 5 7 15 8 2 9 3 10 4 11 1 12 8 13
REMARK SMILES IDX 9 14 10 15
REMARK H PARENT
REMARK Flexibility Score: inf
ROOT
ATOM      1  C   UNL     1      16.569   8.951  26.212  1.00  0.00     0.008 C 
ATOM      2  C   UNL     1      15.872   8.653  24.875  1.00  0.00    -0.007 C 
ATOM      3  C   UNL     1      15.822   9.942  24.030  1.00  0.00     0.004 C 
ATOM      4  C   UNL     1      14.925   9.873  22.777  1.00  0.00     0.004 C 
ATOM      5  C   UNL     1      14.217   8.515  22.525  1.00  0.00    -0.004 C 
ATOM      6  C   UNL     1      13.632   7.869  23.811  1.00  0.00     0.007 C 
ATOM      7  C   UNL     1      14.482   7.988  25.075  1.00  0.00    -0.013 C 
ATOM      8  C   UNL     1      13.182   8.789  24.955  1.00  0.00     0.025 C 
ATOM      9  C   UNL     1      12.284   8.149  25.960  1.00  0.00    -0.073 C 
ATOM     10  C   UNL     1      12.854   7.129  26.594  1.00  0.00    -0.027 C 
ATOM     11  C   UNL     1      14.250   6.888  26.130  1.00  0.00     0.035 C 
ATOM     12  C   UNL     1      10.876   8.592  26.212  1.00  0.00     0.039 C 
ENDROOT
BRANCH   5  13
ATOM     13  C   UNL     1      13.114   8.647  21.423  1.00  0.00    -0.014 C 
ATOM     14  C   UNL     1      11.967   7.638  21.627  1.00  0.00     0.007 C 
ATOM     15  C   UNL     1      12.518  10.066  21.365  1.00  0.00     0.007 C 
ENDBRANCH   5  13
TORSDOF 1
ENDMDL
MODEL 3
REMARK VINA RESULT:    -5.333      2.807      5.399
REMARK INTER + INTRA:          -6.054
REMARK INTER:                  -5.785
REMARK INTRA:                  -0.268
REMARK UNBOUND:                -0.409
REMARK SMILES CC1=CC[C@]23[C@H]([C@@H](C(C)C)CC[C@H]2C)[C@@H]13
REMARK SMILES IDX 14 1 13 2 12 3 11 4 7 5 6 6 5 7 15 8 2 9 3 10 4 11 1 12 8 13
REMARK SMILES IDX 9 14 10 15
REMARK H PARENT
REMARK Flexibility Score: inf
ROOT
ATOM      1  C   UNL     1      11.722   4.552  29.966  1.00  0.00     0.008 C 
ATOM      2  C   UNL     1      11.392   5.103  28.569  1.00  0.00    -0.007 C 
ATOM      3  C   UNL     1      12.689   5.600  27.899  1.00  0.00     0.004 C 
ATOM      4  C   UNL     1      12.491   6.419  26.607  1.00  0.00     0.004 C 
ATOM      5  C   UNL     1      11.020   6.610  26.146  1.00  0.00    -0.004 C 
ATOM      6  C   UNL     1      10.040   6.932  27.307  1.00  0.00     0.007 C 
ATOM      7  C   UNL     1      10.267   6.174  28.615  1.00  0.00    -0.013 C 
ATOM      8  C   UNL     1      10.579   7.673  28.539  1.00  0.00     0.025 C 
ATOM      9  C   UNL     1       9.535   8.290  29.407  1.00  0.00    -0.073 C 
ATOM     10  C   UNL     1       8.696   7.400  29.929  1.00  0.00    -0.027 C 
ATOM     11  C   UNL     1       9.019   6.008  29.504  1.00  0.00     0.035 C 
ATOM     12  C   UNL     1       9.425   9.763  29.648  1.00  0.00     0.039 C 
ENDROOT
BRANCH   5  13
ATOM     13  C   UNL     1      10.916   7.691  25.019  1.00  0.00    -0.014 C 
ATOM     14  C   UNL     1      11.840   8.896  25.284  1.00  0.00     0.007 C 
ATOM     15  C   UNL     1      11.243   7.115  23.628  1.00  0.00     0.007 C 
ENDBRANCH   5  13
TORSDOF 1
ENDMDL
MODEL 4
REMARK VINA RESULT:    -5.311      9.275     12.204
REMARK INTER + INTRA:          -6.031
REMARK INTER:                  -5.793
REMARK INTRA:                  -0.238
REMARK UNBOUND:                -0.409
REMARK SMILES CC1=CC[C@]23[C@H]([C@@H](C(C)C)CC[C@H]2C)[C@@H]13
REMARK SMILES IDX 14 1 13 2 12 3 11 4 7 5 6 6 5 7 15 8 2 9 3 10 4 11 1 12 8 13
REMARK SMILES IDX 9 14 10 15
REMARK H PARENT
REMARK Flexibility Score: inf
ROOT
ATOM      1  C   UNL     1       2.239   8.627  16.062  1.00  0.00     0.008 C 
ATOM      2  C   UNL     1       3.622   8.481  15.407  1.00  0.00    -0.007 C 
ATOM      3  C   UNL     1       3.698   7.125  14.678  1.00  0.00     0.004 C 
ATOM      4  C   UNL     1       5.104   6.715  14.195  1.00  0.00     0.004 C 
ATOM      5  C   UNL     1       6.242   7.731  14.487  1.00  0.00    -0.004 C 
ATOM      6  C   UNL     1       6.171   8.355  15.907  1.00  0.00     0.007 C 
ATOM      7  C   UNL     1       4.776   8.705  16.423  1.00  0.00    -0.013 C 
ATOM      8  C   UNL     1       5.544   7.532  17.041  1.00  0.00     0.025 C 
ATOM      9  C   UNL     1       5.864   8.011  18.417  1.00  0.00    -0.073 C 
ATOM     10  C   UNL     1       5.427   9.243  18.656  1.00  0.00    -0.027 C 
ATOM     11  C   UNL     1       4.728   9.829  17.477  1.00  0.00     0.035 C 
ATOM     12  C   UNL     1       6.624   7.198  19.419  1.00  0.00     0.039 C 
ENDROOT
BRANCH   5  13
ATOM     13  C   UNL     1       7.649   7.092  14.234  1.00  0.00    -0.014 C 
ATOM     14  C   UNL     1       7.579   5.557  14.129  1.00  0.00     0.007 C 
ATOM     15  C   UNL     1       8.317   7.644  12.960  1.00  0.00     0.007 C 
ENDBRANCH   5  13
TORSDOF 1
ENDMDL
MODEL 5
REMARK VINA RESULT:    -5.278      1.742      5.210
REMARK INTER + INTRA:          -5.996
REMARK INTER:                  -5.775
REMARK INTRA:                  -0.220
REMARK UNBOUND:                -0.409
REMARK SMILES CC1=CC[C@]23[C@H]([C@@H](C(C)C)CC[C@H]2C)[C@@H]13
REMARK SMILES IDX 14 1 13 2 12 3 11 4 7 5 6 6 5 7 15 8 2 9 3 10 4 11 1 12 8 13
REMARK SMILES IDX 9 14 10 15
REMARK H PARENT
REMARK Flexibility Score: inf
ROOT
ATOM      1  C   UNL     1      15.302   7.870  25.897  1.00  0.00     0.008 C 
ATOM      2  C   UNL     1      13.895   7.562  26.434  1.00  0.00    -0.007 C 
ATOM      3  C   UNL     1      13.852   6.105  26.938  1.00  0.00     0.004 C 
ATOM      4  C   UNL     1      12.445   5.563  27.264  1.00  0.00     0.004 C 
ATOM      5  C   UNL     1      11.272   6.560  27.064  1.00  0.00    -0.004 C 
ATOM      6  C   UNL     1      11.387   7.404  25.765  1.00  0.00     0.007 C 
ATOM      7  C   UNL     1      12.787   7.892  25.396  1.00  0.00    -0.013 C 
ATOM      8  C   UNL     1      12.117   6.799  24.558  1.00  0.00     0.025 C 
ATOM      9  C   UNL     1      11.847   7.475  23.256  1.00  0.00    -0.073 C 
ATOM     10  C   UNL     1      12.231   8.748  23.239  1.00  0.00    -0.027 C 
ATOM     11  C   UNL     1      12.833   9.170  24.535  1.00  0.00     0.035 C 
ATOM     12  C   UNL     1      11.187   6.799  22.095  1.00  0.00     0.039 C 
ENDROOT
BRANCH   5  13
ATOM     13  C   UNL     1       9.890   5.829  27.126  1.00  0.00    -0.014 C 
ATOM     14  C   UNL     1      10.044   4.317  27.378  1.00  0.00     0.007 C 
ATOM     15  C   UNL     1       8.970   6.419  28.212  1.00  0.00     0.007 C 
ENDBRANCH   5  13
TORSDOF 1
ENDMDL
MODEL 6
REMARK VINA RESULT:    -5.193      9.598     13.588
REMARK INTER + INTRA:          -5.906
REMARK INTER:                  -5.542
REMARK INTRA:                  -0.364
REMARK UNBOUND:                -0.409
REMARK SMILES CC1=CC[C@]23[C@H]([C@@H](C(C)C)CC[C@H]2C)[C@@H]13
REMARK SMILES IDX 14 1 13 2 12 3 11 4 7 5 6 6 5 7 15 8 2 9 3 10 4 11 1 12 8 13
REMARK SMILES IDX 9 14 10 15
REMARK H PARENT
REMARK Flexibility Score: inf
ROOT
ATOM      1  C   UNL     1       6.173   8.819  19.443  1.00  0.00     0.008 C 
ATOM      2  C   UNL     1       4.790   9.392  19.098  1.00  0.00    -0.007 C 
ATOM      3  C   UNL     1       3.711   8.635  19.898  1.00  0.00     0.004 C 
ATOM      4  C   UNL     1       2.256   8.913  19.469  1.00  0.00     0.004 C 
ATOM      5  C   UNL     1       2.076   9.931  18.310  1.00  0.00    -0.004 C 
ATOM      6  C   UNL     1       3.097   9.749  17.155  1.00  0.00     0.007 C 
ATOM      7  C   UNL     1       4.530   9.408  17.566  1.00  0.00    -0.013 C 
ATOM      8  C   UNL     1       3.659   8.345  16.886  1.00  0.00     0.025 C 
ATOM      9  C   UNL     1       4.302   8.170  15.551  1.00  0.00    -0.073 C 
ATOM     10  C   UNL     1       5.355   8.961  15.372  1.00  0.00    -0.027 C 
ATOM     11  C   UNL     1       5.620   9.824  16.558  1.00  0.00     0.035 C 
ATOM     12  C   UNL     1       3.798   7.221  14.510  1.00  0.00     0.039 C 
ENDROOT
BRANCH   5  13
ATOM     13  C   UNL     1       0.611   9.908  17.759  1.00  0.00    -0.014 C 
ATOM     14  C   UNL     1       0.569   9.938  16.219  1.00  0.00     0.007 C 
ATOM     15  C   UNL     1      -0.175   8.677  18.250  1.00  0.00     0.007 C 
ENDBRANCH   5  13
TORSDOF 1
ENDMDL
MODEL 7
REMARK VINA RESULT:    -5.168      9.768     12.925
REMARK INTER + INTRA:          -5.880
REMARK INTER:                  -5.482
REMARK INTRA:                  -0.398
REMARK UNBOUND:                -0.409
REMARK SMILES CC1=CC[C@]23[C@H]([C@@H](C(C)C)CC[C@H]2C)[C@@H]13
REMARK SMILES IDX 14 1 13 2 12 3 11 4 7 5 6 6 5 7 15 8 2 9 3 10 4 11 1 12 8 13
REMARK SMILES IDX 9 14 10 15
REMARK H PARENT
REMARK Flexibility Score: inf
ROOT
ATOM      1  C   UNL     1       0.516   9.540  16.119  1.00  0.00     0.008 C 
ATOM      2  C   UNL     1       1.260   9.051  17.372  1.00  0.00    -0.007 C 
ATOM      3  C   UNL     1       1.160  10.125  18.474  1.00  0.00     0.004 C 
ATOM      4  C   UNL     1       2.073   9.901  19.697  1.00  0.00     0.004 C 
ATOM      5  C   UNL     1       2.947   8.618  19.662  1.00  0.00    -0.004 C 
ATOM      6  C   UNL     1       3.593   8.341  18.277  1.00  0.00     0.007 C 
ATOM      7  C   UNL     1       2.719   8.621  17.055  1.00  0.00    -0.013 C 
ATOM      8  C   UNL     1       3.912   9.532  17.363  1.00  0.00     0.025 C 
ATOM      9  C   UNL     1       4.870   9.238  16.258  1.00  0.00    -0.073 C 
ATOM     10  C   UNL     1       4.424   8.316  15.412  1.00  0.00    -0.027 C 
ATOM     11  C   UNL     1       3.073   7.810  15.793  1.00  0.00     0.035 C 
ATOM     12  C   UNL     1       6.208   9.896  16.129  1.00  0.00     0.039 C 
ENDROOT
BRANCH   5  13
ATOM     13  C   UNL     1       4.039   8.646  20.784  1.00  0.00    -0.014 C 
ATOM     14  C   UNL     1       5.359   7.998  20.325  1.00  0.00     0.007 C 
ATOM     15  C   UNL     1       4.335  10.078  21.270  1.00  0.00     0.007 C 
ENDBRANCH   5  13
TORSDOF 1
ENDMDL
MODEL 8
REMARK VINA RESULT:    -5.075      1.023      4.072
REMARK INTER + INTRA:          -5.781
REMARK INTER:                  -5.515
REMARK INTRA:                  -0.266
REMARK UNBOUND:                -0.409
REMARK SMILES CC1=CC[C@]23[C@H]([C@@H](C(C)C)CC[C@H]2C)[C@@H]13
REMARK SMILES IDX 14 1 13 2 12 3 11 4 7 5 6 6 5 7 15 8 2 9 3 10 4 11 1 12 8 13
REMARK SMILES IDX 9 14 10 15
REMARK H PARENT
REMARK Flexibility Score: inf
ROOT
ATOM      1  C   UNL     1      12.498  10.125  22.878  1.00  0.00     0.008 C 
ATOM      2  C   UNL     1      12.246   8.948  23.833  1.00  0.00    -0.007 C 
ATOM      3  C   UNL     1      11.449   9.447  25.055  1.00  0.00     0.004 C 
ATOM      4  C   UNL     1      11.344   8.447  26.226  1.00  0.00     0.004 C 
ATOM      5  C   UNL     1      12.032   7.073  26.005  1.00  0.00    -0.004 C 
ATOM      6  C   UNL     1      13.425   7.174  25.327  1.00  0.00     0.007 C 
ATOM      7  C   UNL     1      13.560   8.208  24.209  1.00  0.00    -0.013 C 
ATOM      8  C   UNL     1      14.261   8.443  25.551  1.00  0.00     0.025 C 
ATOM      9  C   UNL     1      15.708   8.309  25.216  1.00  0.00    -0.073 C 
ATOM     10  C   UNL     1      15.924   8.024  23.936  1.00  0.00    -0.027 C 
ATOM     11  C   UNL     1      14.653   7.908  23.164  1.00  0.00     0.035 C 
ATOM     12  C   UNL     1      16.806   8.456  26.223  1.00  0.00     0.039 C 
ENDROOT
BRANCH   5  13
ATOM     13  C   UNL     1      12.128   6.266  27.343  1.00  0.00    -0.014 C 
ATOM     14  C   UNL     1      11.039   5.181  27.446  1.00  0.00     0.007 C 
ATOM     15  C   UNL     1      13.506   5.601  27.523  1.00  0.00     0.007 C 
ENDBRANCH   5  13
TORSDOF 1
ENDMDL
MODEL 9
REMARK VINA RESULT:    -5.005     10.521     13.022
REMARK INTER + INTRA:          -5.706
REMARK INTER:                  -5.299
REMARK INTRA:                  -0.408
REMARK UNBOUND:                -0.409
REMARK SMILES CC1=CC[C@]23[C@H]([C@@H](C(C)C)CC[C@H]2C)[C@@H]13
REMARK SMILES IDX 14 1 13 2 12 3 11 4 7 5 6 6 5 7 15 8 2 9 3 10 4 11 1 12 8 13
REMARK SMILES IDX 9 14 10 15
REMARK H PARENT
REMARK Flexibility Score: inf
ROOT
ATOM      1  C   UNL     1       3.404   9.360  21.013  1.00  0.00     0.008 C 
ATOM      2  C   UNL     1       3.906   8.560  19.800  1.00  0.00    -0.007 C 
ATOM      3  C   UNL     1       5.185   9.222  19.248  1.00  0.00     0.004 C 
ATOM      4  C   UNL     1       5.661   8.695  17.878  1.00  0.00     0.004 C 
ATOM      5  C   UNL     1       4.805   7.558  17.257  1.00  0.00    -0.004 C 
ATOM      6  C   UNL     1       3.275   7.780  17.400  1.00  0.00     0.007 C 
ATOM      7  C   UNL     1       2.797   8.364  18.730  1.00  0.00    -0.013 C 
ATOM      8  C   UNL     1       2.743   9.219  17.459  1.00  0.00     0.025 C 
ATOM      9  C   UNL     1       1.282   9.361  17.197  1.00  0.00    -0.073 C 
ATOM     10  C   UNL     1       0.527   8.720  18.083  1.00  0.00    -0.027 C 
ATOM     11  C   UNL     1       1.345   8.020  19.115  1.00  0.00     0.035 C 
ATOM     12  C   UNL     1       0.721  10.125  16.038  1.00  0.00     0.039 C 
ENDROOT
BRANCH   5  13
ATOM     13  C   UNL     1       5.189   7.315  15.759  1.00  0.00    -0.014 C 
ATOM     14  C   UNL     1       3.986   6.841  14.921  1.00  0.00     0.007 C 
ATOM     15  C   UNL     1       5.784   8.575  15.100  1.00  0.00     0.007 C 
ENDBRANCH   5  13
TORSDOF 1
ENDMDL
