MODEL 1
REMARK VINA RESULT:    -6.287      0.000      0.000
REMARK INTER + INTRA:          -6.287
REMARK INTER:                  -6.287
REMARK INTRA:                   0.000
REMARK UNBOUND:                 0.000
REMARK SMILES CC1=CC(=O)[C@H]2C[C@@H]1C2(C)C
REMARK SMILES IDX 1 1 2 2 3 3 4 4 5 5 6 6 7 7 8 8 9 9 10 10 11 11
REMARK H PARENT
REMARK Flexibility Score: inf
ROOT
ATOM      1  C   UNL     1      30.872  21.142  15.181  1.00  0.00     0.040 C 
ATOM      2  C   UNL     1      31.876  20.461  16.057  1.00  0.00    -0.066 C 
ATOM      3  C   UNL     1      31.715  20.406  17.408  1.00  0.00     0.047 C 
ATOM      4  C   UNL     1      32.805  19.723  18.178  1.00  0.00     0.159 C 
ATOM      5  O   UNL     1      32.791  19.642  19.434  1.00  0.00    -0.295 OA
ATOM      6  C   UNL     1      33.934  19.134  17.332  1.00  0.00     0.067 C 
ATOM      7  C   UNL     1      33.204  18.402  16.185  1.00  0.00     0.021 C 
ATOM      8  C   UNL     1      33.129  19.774  15.475  1.00  0.00     0.022 C 
ATOM      9  C   UNL     1      34.382  20.201  16.293  1.00  0.00    -0.019 C 
ATOM     10  C   UNL     1      34.489  21.683  16.754  1.00  0.00     0.012 C 
ATOM     11  C   UNL     1      35.707  19.817  15.588  1.00  0.00     0.012 C 
ENDROOT
TORSDOF 0
ENDMDL
MODEL 2
REMARK VINA RESULT:    -6.286     10.517     12.400
REMARK INTER + INTRA:          -6.286
REMARK INTER:                  -6.286
REMARK INTRA:                   0.000
REMARK UNBOUND:                 0.000
REMARK SMILES CC1=CC(=O)[C@H]2C[C@@H]1C2(C)C
REMARK SMILES IDX 1 1 2 2 3 3 4 4 5 5 6 6 7 7 8 8 9 9 10 10 11 11
REMARK H PARENT
REMARK Flexibility Score: inf
ROOT
ATOM      1  C   UNL     1      28.939  17.416  29.497  1.00  0.00     0.040 C 
ATOM      2  C   UNL     1      28.524  18.176  28.277  1.00  0.00    -0.066 C 
ATOM      3  C   UNL     1      29.416  18.480  27.294  1.00  0.00     0.047 C 
ATOM      4  C   UNL     1      28.884  19.273  26.138  1.00  0.00     0.159 C 
ATOM      5  O   UNL     1      29.618  19.648  25.187  1.00  0.00    -0.295 OA
ATOM      6  C   UNL     1      27.391  19.594  26.196  1.00  0.00     0.067 C 
ATOM      7  C   UNL     1      26.733  18.257  26.604  1.00  0.00     0.021 C 
ATOM      8  C   UNL     1      27.067  18.638  28.064  1.00  0.00     0.022 C 
ATOM      9  C   UNL     1      27.055  20.129  27.619  1.00  0.00    -0.019 C 
ATOM     10  C   UNL     1      28.057  21.107  28.296  1.00  0.00     0.012 C 
ATOM     11  C   UNL     1      25.640  20.756  27.693  1.00  0.00     0.012 C 
ENDROOT
TORSDOF 0
ENDMDL
MODEL 3
REMARK VINA RESULT:    -6.157     11.537     13.317
REMARK INTER + INTRA:          -6.157
REMARK INTER:                  -6.157
REMARK INTRA:                   0.000
REMARK UNBOUND:                 0.000
REMARK SMILES CC1=CC(=O)[C@H]2C[C@@H]1C2(C)C
REMARK SMILES IDX 1 1 2 2 3 3 4 4 5 5 6 6 7 7 8 8 9 9 10 10 11 11
REMARK H PARENT
REMARK Flexibility Score: inf
ROOT
ATOM      1  C   UNL     1      29.004  17.745  29.502  1.00  0.00     0.040 C 
ATOM      2  C   UNL     1      28.160  18.692  28.709  1.00  0.00    -0.066 C 
ATOM      3  C   UNL     1      28.101  20.017  29.018  1.00  0.00     0.047 C 
ATOM      4  C   UNL     1      27.196  20.857  28.168  1.00  0.00     0.159 C 
ATOM      5  O   UNL     1      27.027  22.086  28.378  1.00  0.00    -0.295 OA
ATOM      6  C   UNL     1      26.493  20.116  27.031  1.00  0.00     0.067 C 
ATOM      7  C   UNL     1      27.609  19.263  26.388  1.00  0.00     0.021 C 
ATOM      8  C   UNL     1      27.330  18.221  27.496  1.00  0.00     0.022 C 
ATOM      9  C   UNL     1      25.889  18.799  27.598  1.00  0.00    -0.019 C 
ATOM     10  C   UNL     1      25.210  18.839  28.996  1.00  0.00     0.012 C 
ATOM     11  C   UNL     1      24.911  18.123  26.604  1.00  0.00     0.012 C 
ENDROOT
TORSDOF 0
ENDMDL
MODEL 4
REMARK VINA RESULT:    -6.155     11.726     13.293
REMARK INTER + INTRA:          -6.155
REMARK INTER:                  -6.155
REMARK INTRA:                   0.000
REMARK UNBOUND:                 0.000
REMARK SMILES CC1=CC(=O)[C@H]2C[C@@H]1C2(C)C
REMARK SMILES IDX 1 1 2 2 3 3 4 4 5 5 6 6 7 7 8 8 9 9 10 10 11 11
REMARK H PARENT
REMARK Flexibility Score: inf
ROOT
ATOM      1  C   UNL     1      25.200  22.491  26.927  1.00  0.00     0.040 C 
ATOM      2  C   UNL     1      25.705  21.247  27.588  1.00  0.00    -0.066 C 
ATOM      3  C   UNL     1      26.754  21.282  28.457  1.00  0.00     0.047 C 
ATOM      4  C   UNL     1      27.186  19.966  29.028  1.00  0.00     0.159 C 
ATOM      5  O   UNL     1      28.166  19.863  29.811  1.00  0.00    -0.295 OA
ATOM      6  C   UNL     1      26.354  18.759  28.594  1.00  0.00     0.067 C 
ATOM      7  C   UNL     1      24.892  19.237  28.735  1.00  0.00     0.021 C 
ATOM      8  C   UNL     1      25.056  19.870  27.334  1.00  0.00     0.022 C 
ATOM      9  C   UNL     1      26.166  18.818  27.050  1.00  0.00    -0.019 C 
ATOM     10  C   UNL     1      27.378  19.245  26.174  1.00  0.00     0.012 C 
ATOM     11  C   UNL     1      25.595  17.497  26.476  1.00  0.00     0.012 C 
ENDROOT
TORSDOF 0
ENDMDL
MODEL 5
REMARK VINA RESULT:    -6.092      1.741      2.805
REMARK INTER + INTRA:          -6.092
REMARK INTER:                  -6.092
REMARK INTRA:                   0.000
REMARK UNBOUND:                 0.000
REMARK SMILES CC1=CC(=O)[C@H]2C[C@@H]1C2(C)C
REMARK SMILES IDX 1 1 2 2 3 3 4 4 5 5 6 6 7 7 8 8 9 9 10 10 11 11
REMARK H PARENT
REMARK Flexibility Score: inf
ROOT
ATOM      1  C   UNL     1      30.129  21.678  15.624  1.00  0.00     0.040 C 
ATOM      2  C   UNL     1      31.197  20.708  16.017  1.00  0.00    -0.066 C 
ATOM      3  C   UNL     1      31.203  19.430  15.545  1.00  0.00     0.047 C 
ATOM      4  C   UNL     1      32.309  18.546  16.037  1.00  0.00     0.159 C 
ATOM      5  O   UNL     1      32.400  17.336  15.704  1.00  0.00    -0.295 OA
ATOM      6  C   UNL     1      33.315  19.216  16.972  1.00  0.00     0.067 C 
ATOM      7  C   UNL     1      33.631  20.563  16.285  1.00  0.00     0.021 C 
ATOM      8  C   UNL     1      32.351  21.108  16.960  1.00  0.00     0.022 C 
ATOM      9  C   UNL     1      32.531  20.015  18.053  1.00  0.00    -0.019 C 
ATOM     10  C   UNL     1      31.255  19.371  18.666  1.00  0.00     0.012 C 
ATOM     11  C   UNL     1      33.442  20.485  19.215  1.00  0.00     0.012 C 
ENDROOT
TORSDOF 0
ENDMDL
MODEL 6
REMARK VINA RESULT:    -6.036      1.780      3.014
REMARK INTER + INTRA:          -6.036
REMARK INTER:                  -6.036
REMARK INTRA:                   0.000
REMARK UNBOUND:                 0.000
REMARK SMILES CC1=CC(=O)[C@H]2C[C@@H]1C2(C)C
REMARK SMILES IDX 1 1 2 2 3 3 4 4 5 5 6 6 7 7 8 8 9 9 10 10 11 11
REMARK H PARENT
REMARK Flexibility Score: inf
ROOT
ATOM      1  C   UNL     1      34.367  17.913  15.374  1.00  0.00     0.040 C 
ATOM      2  C   UNL     1      33.513  18.982  15.980  1.00  0.00    -0.066 C 
ATOM      3  C   UNL     1      32.625  19.690  15.228  1.00  0.00     0.047 C 
ATOM      4  C   UNL     1      31.851  20.755  15.943  1.00  0.00     0.159 C 
ATOM      5  O   UNL     1      31.031  21.502  15.350  1.00  0.00    -0.295 OA
ATOM      6  C   UNL     1      32.130  20.871  17.442  1.00  0.00     0.067 C 
ATOM      7  C   UNL     1      32.109  19.411  17.944  1.00  0.00     0.021 C 
ATOM      8  C   UNL     1      33.582  19.324  17.483  1.00  0.00     0.022 C 
ATOM      9  C   UNL     1      33.670  20.867  17.660  1.00  0.00    -0.019 C 
ATOM     10  C   UNL     1      34.560  21.672  16.670  1.00  0.00     0.012 C 
ATOM     11  C   UNL     1      34.062  21.274  19.103  1.00  0.00     0.012 C 
ENDROOT
TORSDOF 0
ENDMDL
MODEL 7
REMARK VINA RESULT:    -5.932     10.739     12.551
REMARK INTER + INTRA:          -5.932
REMARK INTER:                  -5.932
REMARK INTRA:                   0.000
REMARK UNBOUND:                 0.000
REMARK SMILES CC1=CC(=O)[C@H]2C[C@@H]1C2(C)C
REMARK SMILES IDX 1 1 2 2 3 3 4 4 5 5 6 6 7 7 8 8 9 9 10 10 11 11
REMARK H PARENT
REMARK Flexibility Score: inf
ROOT
ATOM      1  C   UNL     1      29.439  19.624  25.146  1.00  0.00     0.040 C 
ATOM      2  C   UNL     1      28.756  19.444  26.464  1.00  0.00    -0.066 C 
ATOM      3  C   UNL     1      29.157  18.486  27.345  1.00  0.00     0.047 C 
ATOM      4  C   UNL     1      28.373  18.385  28.619  1.00  0.00     0.159 C 
ATOM      5  O   UNL     1      28.622  17.515  29.493  1.00  0.00    -0.295 OA
ATOM      6  C   UNL     1      27.252  19.411  28.779  1.00  0.00     0.067 C 
ATOM      7  C   UNL     1      27.898  20.748  28.357  1.00  0.00     0.021 C 
ATOM      8  C   UNL     1      27.578  20.342  26.899  1.00  0.00     0.022 C 
ATOM      9  C   UNL     1      26.429  19.455  27.459  1.00  0.00    -0.019 C 
ATOM     10  C   UNL     1      26.118  18.113  26.737  1.00  0.00     0.012 C 
ATOM     11  C   UNL     1      25.102  20.239  27.618  1.00  0.00     0.012 C 
ENDROOT
TORSDOF 0
ENDMDL
MODEL 8
REMARK VINA RESULT:    -5.892     10.991     12.730
REMARK INTER + INTRA:          -5.892
REMARK INTER:                  -5.892
REMARK INTRA:                   0.000
REMARK UNBOUND:                 0.000
REMARK SMILES CC1=CC(=O)[C@H]2C[C@@H]1C2(C)C
REMARK SMILES IDX 1 1 2 2 3 3 4 4 5 5 6 6 7 7 8 8 9 9 10 10 11 11
REMARK H PARENT
REMARK Flexibility Score: inf
ROOT
ATOM      1  C   UNL     1      24.937  18.119  26.907  1.00  0.00     0.040 C 
ATOM      2  C   UNL     1      26.173  18.947  27.065  1.00  0.00    -0.066 C 
ATOM      3  C   UNL     1      27.181  18.898  26.150  1.00  0.00     0.047 C 
ATOM      4  C   UNL     1      28.379  19.751  26.438  1.00  0.00     0.159 C 
ATOM      5  O   UNL     1      29.391  19.762  25.689  1.00  0.00    -0.295 OA
ATOM      6  C   UNL     1      28.287  20.604  27.702  1.00  0.00     0.067 C 
ATOM      7  C   UNL     1      26.876  21.227  27.637  1.00  0.00     0.021 C 
ATOM      8  C   UNL     1      26.360  19.908  28.258  1.00  0.00     0.022 C 
ATOM      9  C   UNL     1      27.778  19.708  28.868  1.00  0.00    -0.019 C 
ATOM     10  C   UNL     1      28.331  18.259  28.982  1.00  0.00     0.012 C 
ATOM     11  C   UNL     1      27.929  20.394  30.249  1.00  0.00     0.012 C 
ENDROOT
TORSDOF 0
ENDMDL
MODEL 9
REMARK VINA RESULT:    -5.779     11.110     12.808
REMARK INTER + INTRA:          -5.779
REMARK INTER:                  -5.779
REMARK INTRA:                   0.000
REMARK UNBOUND:                 0.000
REMARK SMILES CC1=CC(=O)[C@H]2C[C@@H]1C2(C)C
REMARK SMILES IDX 1 1 2 2 3 3 4 4 5 5 6 6 7 7 8 8 9 9 10 10 11 11
REMARK H PARENT
REMARK Flexibility Score: inf
ROOT
ATOM      1  C   UNL     1      29.384  19.623  25.564  1.00  0.00     0.040 C 
ATOM      2  C   UNL     1      28.330  19.321  26.582  1.00  0.00    -0.066 C 
ATOM      3  C   UNL     1      27.077  18.936  26.212  1.00  0.00     0.047 C 
ATOM      4  C   UNL     1      26.103  18.693  27.325  1.00  0.00     0.159 C 
ATOM      5  O   UNL     1      24.905  18.371  27.110  1.00  0.00    -0.295 OA
ATOM      6  C   UNL     1      26.665  18.864  28.736  1.00  0.00     0.067 C 
ATOM      7  C   UNL     1      28.017  18.120  28.697  1.00  0.00     0.021 C 
ATOM      8  C   UNL     1      28.613  19.413  28.096  1.00  0.00     0.022 C 
ATOM      9  C   UNL     1      27.464  20.198  28.792  1.00  0.00    -0.019 C 
ATOM     10  C   UNL     1      26.877  21.442  28.065  1.00  0.00     0.012 C 
ATOM     11  C   UNL     1      27.823  20.610  30.242  1.00  0.00     0.012 C 
ENDROOT
TORSDOF 0
ENDMDL
