MODEL 1
REMARK VINA RESULT:    13.765      0.000      0.000
REMARK INTER + INTRA:          23.702
REMARK INTER:                  24.226
REMARK INTRA:                  -0.524
REMARK UNBOUND:                -0.524
REMARK SMILES CCCCCCCCCCCCCCC(=O)[O-]
REMARK SMILES IDX 9 1 10 2 11 3 12 4 13 5 14 6 15 7 16 8 17 9 8 10 7 11 6 12
REMARK SMILES IDX 5 13 4 14 3 15 2 16 1 17
REMARK H PARENT
REMARK Flexibility Score: inf
ROOT
ATOM      1  C   UNL     1      -6.082  11.373 -24.149  1.00  0.00     0.000 C 
ENDROOT
BRANCH   1   2
ATOM      2  C   UNL     1      -6.446  12.577 -25.033  1.00  0.00     0.000 C 
BRANCH   2   3
ATOM      3  C   UNL     1      -5.554  13.802 -24.769  1.00  0.00     0.000 C 
BRANCH   3   4
ATOM      4  C   UNL     1      -5.278  14.611 -26.056  1.00  0.00     0.000 C 
BRANCH   4   5
ATOM      5  C   UNL     1      -4.480  15.905 -25.807  1.00  0.00     0.006 C 
BRANCH   5   6
ATOM      6  C   UNL     1      -5.306  17.189 -25.972  1.00  0.00     0.053 C 
BRANCH   6   7
ATOM      7  C   UNL     1      -5.337  17.997 -24.710  1.00  0.00     0.041 C 
ATOM      8  O   UNL     1      -5.940  19.102 -24.682  1.00  0.00    -0.550 OA
ATOM      9  O   UNL     1      -4.686  17.542 -23.571  1.00  0.00    -0.550 OA
ENDBRANCH   6   7
ENDBRANCH   5   6
ENDBRANCH   4   5
ENDBRANCH   3   4
ENDBRANCH   2   3
ENDBRANCH   1   2
BRANCH   1  10
ATOM     10  C   UNL     1      -5.775  10.108 -24.969  1.00  0.00     0.000 C 
BRANCH  10  11
ATOM     11  C   UNL     1      -4.740   9.199 -24.284  1.00  0.00    -0.000 C 
BRANCH  11  12
ATOM     12  C   UNL     1      -3.424   9.097 -25.075  1.00  0.00    -0.000 C 
BRANCH  12  13
ATOM     13  C   UNL     1      -2.190   9.035 -24.161  1.00  0.00    -0.000 C 
BRANCH  13  14
ATOM     14  C   UNL     1      -0.883   9.332 -24.915  1.00  0.00    -0.000 C 
BRANCH  14  15
ATOM     15  C   UNL     1      -0.081   8.059 -25.231  1.00  0.00    -0.000 C 
BRANCH  15  16
ATOM     16  C   UNL     1       0.871   8.242 -26.422  1.00  0.00    -0.003 C 
ATOM     17  C   UNL     1       0.722   9.630 -27.036  1.00  0.00     0.004 C 
ENDBRANCH  15  16
ENDBRANCH  14  15
ENDBRANCH  13  14
ENDBRANCH  12  13
ENDBRANCH  11  12
ENDBRANCH  10  11
ENDBRANCH   1  10
TORSDOF 13
ENDMDL
MODEL 2
REMARK VINA RESULT:    14.072      0.560      1.037
REMARK INTER + INTRA:          24.243
REMARK INTER:                  24.758
REMARK INTRA:                  -0.515
REMARK UNBOUND:                -0.524
REMARK SMILES CCCCCCCCCCCCCCC(=O)[O-]
REMARK SMILES IDX 9 1 10 2 11 3 12 4 13 5 14 6 15 7 16 8 17 9 8 10 7 11 6 12
REMARK SMILES IDX 5 13 4 14 3 15 2 16 1 17
REMARK H PARENT
REMARK Flexibility Score: inf
ROOT
ATOM      1  C   UNL     1      -6.294  11.772 -24.278  1.00  0.00     0.000 C 
ENDROOT
BRANCH   1   2
ATOM      2  C   UNL     1      -6.456  12.947 -25.255  1.00  0.00     0.000 C 
BRANCH   2   3
ATOM      3  C   UNL     1      -5.230  13.876 -25.278  1.00  0.00     0.000 C 
BRANCH   3   4
ATOM      4  C   UNL     1      -5.369  14.999 -26.330  1.00  0.00     0.000 C 
BRANCH   4   5
ATOM      5  C   UNL     1      -4.629  16.294 -25.946  1.00  0.00     0.006 C 
BRANCH   5   6
ATOM      6  C   UNL     1      -5.539  17.526 -25.840  1.00  0.00     0.053 C 
BRANCH   6   7
ATOM      7  C   UNL     1      -5.466  18.159 -24.484  1.00  0.00     0.041 C 
ATOM      8  O   UNL     1      -4.727  17.663 -23.593  1.00  0.00    -0.550 OA
ATOM      9  O   UNL     1      -6.227  19.284 -24.195  1.00  0.00    -0.550 OA
ENDBRANCH   6   7
ENDBRANCH   5   6
ENDBRANCH   4   5
ENDBRANCH   3   4
ENDBRANCH   2   3
ENDBRANCH   1   2
BRANCH   1  10
ATOM     10  C   UNL     1      -5.950  10.452 -24.991  1.00  0.00     0.000 C 
BRANCH  10  11
ATOM     11  C   UNL     1      -5.025   9.554 -24.152  1.00  0.00    -0.000 C 
BRANCH  11  12
ATOM     12  C   UNL     1      -3.764   9.119 -24.920  1.00  0.00    -0.000 C 
BRANCH  12  13
ATOM     13  C   UNL     1      -2.764   8.364 -24.030  1.00  0.00    -0.000 C 
BRANCH  13  14
ATOM     14  C   UNL     1      -1.371   9.019 -24.024  1.00  0.00    -0.000 C 
BRANCH  14  15
ATOM     15  C   UNL     1      -0.947   9.518 -25.414  1.00  0.00    -0.000 C 
BRANCH  15  16
ATOM     16  C   UNL     1       0.177   8.670 -26.027  1.00  0.00    -0.003 C 
ATOM     17  C   UNL     1       0.996   9.484 -27.024  1.00  0.00     0.004 C 
ENDBRANCH  15  16
ENDBRANCH  14  15
ENDBRANCH  13  14
ENDBRANCH  12  13
ENDBRANCH  11  12
ENDBRANCH  10  11
ENDBRANCH   1  10
TORSDOF 13
ENDMDL
MODEL 3
REMARK VINA RESULT:    14.570      3.907      8.274
REMARK INTER + INTRA:          25.118
REMARK INTER:                  25.686
REMARK INTRA:                  -0.568
REMARK UNBOUND:                -0.524
REMARK SMILES CCCCCCCCCCCCCCC(=O)[O-]
REMARK SMILES IDX 9 1 10 2 11 3 12 4 13 5 14 6 15 7 16 8 17 9 8 10 7 11 6 12
REMARK SMILES IDX 5 13 4 14 3 15 2 16 1 17
REMARK H PARENT
REMARK Flexibility Score: inf
ROOT
ATOM      1  C   UNL     1      -5.317  10.679 -23.958  1.00  0.00     0.000 C 
ENDROOT
BRANCH   1   2
ATOM      2  C   UNL     1      -5.108   9.386 -24.763  1.00  0.00     0.000 C 
BRANCH   2   3
ATOM      3  C   UNL     1      -3.632   9.140 -25.122  1.00  0.00     0.000 C 
BRANCH   3   4
ATOM      4  C   UNL     1      -2.820   8.609 -23.919  1.00  0.00     0.000 C 
BRANCH   4   5
ATOM      5  C   UNL     1      -1.299   8.604 -24.161  1.00  0.00     0.006 C 
BRANCH   5   6
ATOM      6  C   UNL     1      -0.847   9.516 -25.312  1.00  0.00     0.053 C 
BRANCH   6   7
ATOM      7  C   UNL     1       0.267   8.902 -26.104  1.00  0.00     0.041 C 
ATOM      8  O   UNL     1       0.668   7.739 -25.836  1.00  0.00    -0.550 OA
ATOM      9  O   UNL     1       0.877   9.620 -27.125  1.00  0.00    -0.550 OA
ENDBRANCH   6   7
ENDBRANCH   5   6
ENDBRANCH   4   5
ENDBRANCH   3   4
ENDBRANCH   2   3
ENDBRANCH   1   2
BRANCH   1  10
ATOM     10  C   UNL     1      -6.469  11.538 -24.506  1.00  0.00     0.000 C 
BRANCH  10  11
ATOM     11  C   UNL     1      -6.167  13.044 -24.433  1.00  0.00    -0.000 C 
BRANCH  11  12
ATOM     12  C   UNL     1      -6.082  13.702 -25.822  1.00  0.00    -0.000 C 
BRANCH  12  13
ATOM     13  C   UNL     1      -4.774  14.483 -26.025  1.00  0.00    -0.000 C 
BRANCH  13  14
ATOM     14  C   UNL     1      -5.019  15.947 -26.430  1.00  0.00    -0.000 C 
BRANCH  14  15
ATOM     15  C   UNL     1      -4.921  16.913 -25.240  1.00  0.00    -0.000 C 
BRANCH  15  16
ATOM     16  C   UNL     1      -5.674  18.230 -25.485  1.00  0.00    -0.003 C 
ATOM     17  C   UNL     1      -6.011  18.922 -24.169  1.00  0.00     0.004 C 
ENDBRANCH  15  16
ENDBRANCH  14  15
ENDBRANCH  13  14
ENDBRANCH  12  13
ENDBRANCH  11  12
ENDBRANCH  10  11
ENDBRANCH   1  10
TORSDOF 13
ENDMDL
MODEL 4
REMARK VINA RESULT:    14.589      0.730      1.436
REMARK INTER + INTRA:          25.153
REMARK INTER:                  25.833
REMARK INTRA:                  -0.680
REMARK UNBOUND:                -0.524
REMARK SMILES CCCCCCCCCCCCCCC(=O)[O-]
REMARK SMILES IDX 9 1 10 2 11 3 12 4 13 5 14 6 15 7 16 8 17 9 8 10 7 11 6 12
REMARK SMILES IDX 5 13 4 14 3 15 2 16 1 17
REMARK H PARENT
REMARK Flexibility Score: inf
ROOT
ATOM      1  C   UNL     1      -6.531  12.484 -23.929  1.00  0.00     0.000 C 
ENDROOT
BRANCH   1   2
ATOM      2  C   UNL     1      -6.267  12.952 -25.370  1.00  0.00     0.000 C 
BRANCH   2   3
ATOM      3  C   UNL     1      -5.235  14.090 -25.447  1.00  0.00     0.000 C 
BRANCH   3   4
ATOM      4  C   UNL     1      -5.359  14.901 -26.756  1.00  0.00     0.000 C 
BRANCH   4   5
ATOM      5  C   UNL     1      -5.202  16.420 -26.553  1.00  0.00     0.006 C 
BRANCH   5   6
ATOM      6  C   UNL     1      -4.482  16.804 -25.252  1.00  0.00     0.053 C 
BRANCH   6   7
ATOM      7  C   UNL     1      -5.166  17.938 -24.550  1.00  0.00     0.041 C 
ATOM      8  O   UNL     1      -5.233  17.955 -23.293  1.00  0.00    -0.550 OA
ATOM      9  O   UNL     1      -5.747  18.965 -25.282  1.00  0.00    -0.550 OA
ENDBRANCH   6   7
ENDBRANCH   5   6
ENDBRANCH   4   5
ENDBRANCH   3   4
ENDBRANCH   2   3
ENDBRANCH   1   2
BRANCH   1  10
ATOM     10  C   UNL     1      -5.835  11.152 -23.602  1.00  0.00     0.000 C 
BRANCH  10  11
ATOM     11  C   UNL     1      -5.630  10.273 -24.847  1.00  0.00    -0.000 C 
BRANCH  11  12
ATOM     12  C   UNL     1      -4.786   9.020 -24.558  1.00  0.00    -0.000 C 
BRANCH  12  13
ATOM     13  C   UNL     1      -3.321   9.184 -24.992  1.00  0.00    -0.000 C 
BRANCH  13  14
ATOM     14  C   UNL     1      -2.331   8.697 -23.919  1.00  0.00    -0.000 C 
BRANCH  14  15
ATOM     15  C   UNL     1      -0.891   8.595 -24.447  1.00  0.00    -0.000 C 
BRANCH  15  16
ATOM     16  C   UNL     1      -0.653   9.474 -25.684  1.00  0.00    -0.003 C 
ATOM     17  C   UNL     1       0.620   9.059 -26.415  1.00  0.00     0.004 C 
ENDBRANCH  15  16
ENDBRANCH  14  15
ENDBRANCH  13  14
ENDBRANCH  12  13
ENDBRANCH  11  12
ENDBRANCH  10  11
ENDBRANCH   1  10
TORSDOF 13
ENDMDL
MODEL 5
REMARK VINA RESULT:    15.266      1.659      2.655
REMARK INTER + INTRA:          26.344
REMARK INTER:                  27.013
REMARK INTRA:                  -0.669
REMARK UNBOUND:                -0.524
REMARK SMILES CCCCCCCCCCCCCCC(=O)[O-]
REMARK SMILES IDX 9 1 10 2 11 3 12 4 13 5 14 6 15 7 16 8 17 9 8 10 7 11 6 12
REMARK SMILES IDX 5 13 4 14 3 15 2 16 1 17
REMARK H PARENT
REMARK Flexibility Score: inf
ROOT
ATOM      1  C   UNL     1      -6.649  12.165 -24.163  1.00  0.00     0.000 C 
ENDROOT
BRANCH   1   2
ATOM      2  C   UNL     1      -6.266  12.971 -25.414  1.00  0.00     0.000 C 
BRANCH   2   3
ATOM      3  C   UNL     1      -5.431  14.221 -25.086  1.00  0.00     0.000 C 
BRANCH   3   4
ATOM      4  C   UNL     1      -5.209  15.116 -26.325  1.00  0.00     0.000 C 
BRANCH   4   5
ATOM      5  C   UNL     1      -4.526  16.457 -25.998  1.00  0.00     0.006 C 
BRANCH   5   6
ATOM      6  C   UNL     1      -5.500  17.635 -25.854  1.00  0.00     0.053 C 
BRANCH   6   7
ATOM      7  C   UNL     1      -5.458  18.230 -24.479  1.00  0.00     0.041 C 
ATOM      8  O   UNL     1      -6.129  19.262 -24.216  1.00  0.00    -0.550 OA
ATOM      9  O   UNL     1      -4.664  17.657 -23.494  1.00  0.00    -0.550 OA
ENDBRANCH   6   7
ENDBRANCH   5   6
ENDBRANCH   4   5
ENDBRANCH   3   4
ENDBRANCH   2   3
ENDBRANCH   1   2
BRANCH   1  10
ATOM     10  C   UNL     1      -5.637  11.052 -23.842  1.00  0.00     0.000 C 
BRANCH  10  11
ATOM     11  C   UNL     1      -5.702   9.890 -24.848  1.00  0.00    -0.000 C 
BRANCH  11  12
ATOM     12  C   UNL     1      -4.652   8.801 -24.567  1.00  0.00    -0.000 C 
BRANCH  12  13
ATOM     13  C   UNL     1      -3.224   9.259 -24.903  1.00  0.00    -0.000 C 
BRANCH  13  14
ATOM     14  C   UNL     1      -2.174   8.660 -23.951  1.00  0.00    -0.000 C 
BRANCH  14  15
ATOM     15  C   UNL     1      -2.766   7.599 -23.012  1.00  0.00    -0.000 C 
BRANCH  15  16
ATOM     16  C   UNL     1      -2.054   7.552 -21.651  1.00  0.00    -0.003 C 
ATOM     17  C   UNL     1      -3.026   7.180 -20.536  1.00  0.00     0.004 C 
ENDBRANCH  15  16
ENDBRANCH  14  15
ENDBRANCH  13  14
ENDBRANCH  12  13
ENDBRANCH  11  12
ENDBRANCH  10  11
ENDBRANCH   1  10
TORSDOF 13
ENDMDL
MODEL 6
REMARK VINA RESULT:    15.459      3.321      8.051
REMARK INTER + INTRA:          26.683
REMARK INTER:                  27.511
REMARK INTRA:                  -0.829
REMARK UNBOUND:                -0.524
REMARK SMILES CCCCCCCCCCCCCCC(=O)[O-]
REMARK SMILES IDX 9 1 10 2 11 3 12 4 13 5 14 6 15 7 16 8 17 9 8 10 7 11 6 12
REMARK SMILES IDX 5 13 4 14 3 15 2 16 1 17
REMARK H PARENT
REMARK Flexibility Score: inf
ROOT
ATOM      1  C   UNL     1      -6.507  12.130 -23.867  1.00  0.00     0.000 C 
ENDROOT
BRANCH   1   2
ATOM      2  C   UNL     1      -5.696  10.826 -23.800  1.00  0.00     0.000 C 
BRANCH   2   3
ATOM      3  C   UNL     1      -5.773  10.009 -25.102  1.00  0.00     0.000 C 
BRANCH   3   4
ATOM      4  C   UNL     1      -4.537   9.102 -25.294  1.00  0.00     0.000 C 
BRANCH   4   5
ATOM      5  C   UNL     1      -3.712   8.910 -24.008  1.00  0.00     0.006 C 
BRANCH   5   6
ATOM      6  C   UNL     1      -2.305   8.344 -24.248  1.00  0.00     0.053 C 
BRANCH   6   7
ATOM      7  C   UNL     1      -1.320   9.424 -24.582  1.00  0.00     0.041 C 
ATOM      8  O   UNL     1      -0.551   9.294 -25.571  1.00  0.00    -0.550 OA
ATOM      9  O   UNL     1      -1.236  10.563 -23.792  1.00  0.00    -0.550 OA
ENDBRANCH   6   7
ENDBRANCH   5   6
ENDBRANCH   4   5
ENDBRANCH   3   4
ENDBRANCH   2   3
ENDBRANCH   1   2
BRANCH   1  10
ATOM     10  C   UNL     1      -6.353  12.855 -25.216  1.00  0.00     0.000 C 
BRANCH  10  11
ATOM     11  C   UNL     1      -5.578  14.177 -25.088  1.00  0.00    -0.000 C 
BRANCH  11  12
ATOM     12  C   UNL     1      -4.932  14.617 -26.414  1.00  0.00    -0.000 C 
BRANCH  12  13
ATOM     13  C   UNL     1      -5.309  16.054 -26.805  1.00  0.00    -0.000 C 
BRANCH  13  14
ATOM     14  C   UNL     1      -4.822  17.091 -25.777  1.00  0.00    -0.000 C 
BRANCH  14  15
ATOM     15  C   UNL     1      -5.729  18.330 -25.713  1.00  0.00    -0.000 C 
BRANCH  15  16
ATOM     16  C   UNL     1      -6.006  18.784 -24.273  1.00  0.00    -0.003 C 
ATOM     17  C   UNL     1      -5.447  17.785 -23.265  1.00  0.00     0.004 C 
ENDBRANCH  15  16
ENDBRANCH  14  15
ENDBRANCH  13  14
ENDBRANCH  12  13
ENDBRANCH  11  12
ENDBRANCH  10  11
ENDBRANCH   1  10
TORSDOF 13
ENDMDL
MODEL 7
REMARK VINA RESULT:    16.217      4.517      7.969
REMARK INTER + INTRA:          28.017
REMARK INTER:                  28.594
REMARK INTRA:                  -0.577
REMARK UNBOUND:                -0.524
REMARK SMILES CCCCCCCCCCCCCCC(=O)[O-]
REMARK SMILES IDX 9 1 10 2 11 3 12 4 13 5 14 6 15 7 16 8 17 9 8 10 7 11 6 12
REMARK SMILES IDX 5 13 4 14 3 15 2 16 1 17
REMARK H PARENT
REMARK Flexibility Score: inf
ROOT
ATOM      1  C   UNL     1      -6.180  12.479 -23.400  1.00  0.00     0.000 C 
ENDROOT
BRANCH   1   2
ATOM      2  C   UNL     1      -6.368  12.374 -24.922  1.00  0.00     0.000 C 
BRANCH   2   3
ATOM      3  C   UNL     1      -6.454  13.748 -25.608  1.00  0.00     0.000 C 
BRANCH   3   4
ATOM      4  C   UNL     1      -5.078  14.232 -26.118  1.00  0.00     0.000 C 
BRANCH   4   5
ATOM      5  C   UNL     1      -4.981  15.762 -26.259  1.00  0.00     0.006 C 
BRANCH   5   6
ATOM      6  C   UNL     1      -4.715  16.495 -24.936  1.00  0.00     0.053 C 
BRANCH   6   7
ATOM      7  C   UNL     1      -5.286  17.881 -24.942  1.00  0.00     0.041 C 
ATOM      8  O   UNL     1      -5.552  18.460 -23.856  1.00  0.00    -0.550 OA
ATOM      9  O   UNL     1      -5.543  18.526 -26.145  1.00  0.00    -0.550 OA
ENDBRANCH   6   7
ENDBRANCH   5   6
ENDBRANCH   4   5
ENDBRANCH   3   4
ENDBRANCH   2   3
ENDBRANCH   1   2
BRANCH   1  10
ATOM     10  C   UNL     1      -7.486  12.234 -22.623  1.00  0.00     0.000 C 
BRANCH  10  11
ATOM     11  C   UNL     1      -7.958  13.482 -21.858  1.00  0.00    -0.000 C 
BRANCH  11  12
ATOM     12  C   UNL     1      -8.610  13.138 -20.507  1.00  0.00    -0.000 C 
BRANCH  12  13
ATOM     13  C   UNL     1      -9.023  14.390 -19.717  1.00  0.00    -0.000 C 
BRANCH  13  14
ATOM     14  C   UNL     1      -8.893  14.196 -18.196  1.00  0.00    -0.000 C 
BRANCH  14  15
ATOM     15  C   UNL     1      -9.417  15.402 -17.400  1.00  0.00    -0.000 C 
BRANCH  15  16
ATOM     16  C   UNL     1      -9.914  16.537 -18.308  1.00  0.00    -0.003 C 
ATOM     17  C   UNL     1      -9.926  17.869 -17.565  1.00  0.00     0.004 C 
ENDBRANCH  15  16
ENDBRANCH  14  15
ENDBRANCH  13  14
ENDBRANCH  12  13
ENDBRANCH  11  12
ENDBRANCH  10  11
ENDBRANCH   1  10
TORSDOF 13
ENDMDL
