MODEL 1
REMARK VINA RESULT:    -4.675      0.000      0.000
REMARK INTER + INTRA:          -8.056
REMARK INTER:                  -7.134
REMARK INTRA:                  -0.922
REMARK UNBOUND:                -0.922
REMARK SMILES CCCCCCCCCCC(=O)[O-]
REMARK SMILES IDX 7 1 8 2 9 3 10 4 11 5 12 6 13 7 6 8 5 9 4 10 3 11 2 12 1 13
REMARK H PARENT
REMARK Flexibility Score: inf
ROOT
ATOM      1  C   UNL     1      24.574  35.225 147.328  1.00  0.00     0.000 C 
ENDROOT
BRANCH   1   2
ATOM      2  C   UNL     1      23.608  36.398 147.560  1.00  0.00     0.000 C 
BRANCH   2   3
ATOM      3  C   UNL     1      24.332  37.749 147.666  1.00  0.00     0.006 C 
BRANCH   3   4
ATOM      4  C   UNL     1      23.370  38.942 147.603  1.00  0.00     0.053 C 
BRANCH   4   5
ATOM      5  C   UNL     1      24.029  40.174 148.137  1.00  0.00     0.041 C 
ATOM      6  O   UNL     1      24.465  41.052 147.346  1.00  0.00    -0.550 OA
ATOM      7  O   UNL     1      24.207  40.331 149.505  1.00  0.00    -0.550 OA
ENDBRANCH   4   5
ENDBRANCH   3   4
ENDBRANCH   2   3
ENDBRANCH   1   2
BRANCH   1   8
ATOM      8  C   UNL     1      24.240  34.048 148.252  1.00  0.00     0.000 C 
BRANCH   8   9
ATOM      9  C   UNL     1      25.085  34.100 149.535  1.00  0.00    -0.000 C 
BRANCH   9  10
ATOM     10  C   UNL     1      26.590  34.215 149.247  1.00  0.00    -0.000 C 
BRANCH  10  11
ATOM     11  C   UNL     1      27.322  35.101 150.266  1.00  0.00    -0.000 C 
BRANCH  11  12
ATOM     12  C   UNL     1      27.326  36.567 149.812  1.00  0.00    -0.003 C 
ATOM     13  C   UNL     1      27.852  36.700 148.386  1.00  0.00     0.004 C 
ENDBRANCH  11  12
ENDBRANCH  10  11
ENDBRANCH   9  10
ENDBRANCH   8   9
ENDBRANCH   1   8
TORSDOF 9
ENDMDL
MODEL 2
REMARK VINA RESULT:    -4.669      1.263      1.826
REMARK INTER + INTRA:          -8.048
REMARK INTER:                  -7.177
REMARK INTRA:                  -0.872
REMARK UNBOUND:                -0.922
REMARK SMILES CCCCCCCCCCC(=O)[O-]
REMARK SMILES IDX 7 1 8 2 9 3 10 4 11 5 12 6 13 7 6 8 5 9 4 10 3 11 2 12 1 13
REMARK H PARENT
REMARK Flexibility Score: inf
ROOT
ATOM      1  C   UNL     1      24.300  36.296 148.071  1.00  0.00     0.000 C 
ENDROOT
BRANCH   1   2
ATOM      2  C   UNL     1      25.488  37.021 147.418  1.00  0.00     0.000 C 
BRANCH   2   3
ATOM      3  C   UNL     1      25.510  38.524 147.732  1.00  0.00     0.006 C 
BRANCH   3   4
ATOM      4  C   UNL     1      24.106  39.103 147.954  1.00  0.00     0.053 C 
BRANCH   4   5
ATOM      5  C   UNL     1      24.015  39.749 149.300  1.00  0.00     0.041 C 
ATOM      6  O   UNL     1      24.342  40.956 149.446  1.00  0.00    -0.550 OA
ATOM      7  O   UNL     1      23.615  39.007 150.403  1.00  0.00    -0.550 OA
ENDBRANCH   4   5
ENDBRANCH   3   4
ENDBRANCH   2   3
ENDBRANCH   1   2
BRANCH   1   8
ATOM      8  C   UNL     1      24.031  34.953 147.382  1.00  0.00     0.000 C 
BRANCH   8   9
ATOM      9  C   UNL     1      24.019  33.805 148.404  1.00  0.00    -0.000 C 
BRANCH   9  10
ATOM     10  C   UNL     1      25.298  33.755 149.254  1.00  0.00    -0.000 C 
BRANCH  10  11
ATOM     11  C   UNL     1      26.559  33.505 148.413  1.00  0.00    -0.000 C 
BRANCH  11  12
ATOM     12  C   UNL     1      27.795  34.116 149.085  1.00  0.00    -0.003 C 
ATOM     13  C   UNL     1      27.402  34.978 150.281  1.00  0.00     0.004 C 
ENDBRANCH  11  12
ENDBRANCH  10  11
ENDBRANCH   9  10
ENDBRANCH   8   9
ENDBRANCH   1   8
TORSDOF 9
ENDMDL
MODEL 3
REMARK VINA RESULT:    -4.631      1.728      2.947
REMARK INTER + INTRA:          -7.990
REMARK INTER:                  -7.142
REMARK INTRA:                  -0.847
REMARK UNBOUND:                -0.922
REMARK SMILES CCCCCCCCCCC(=O)[O-]
REMARK SMILES IDX 7 1 8 2 9 3 10 4 11 5 12 6 13 7 6 8 5 9 4 10 3 11 2 12 1 13
REMARK H PARENT
REMARK Flexibility Score: inf
ROOT
ATOM      1  C   UNL     1      23.628  37.029 148.845  1.00  0.00     0.000 C 
ENDROOT
BRANCH   1   2
ATOM      2  C   UNL     1      23.240  38.511 148.969  1.00  0.00     0.000 C 
BRANCH   2   3
ATOM      3  C   UNL     1      23.254  39.242 147.618  1.00  0.00     0.006 C 
BRANCH   3   4
ATOM      4  C   UNL     1      23.966  40.600 147.689  1.00  0.00     0.053 C 
BRANCH   4   5
ATOM      5  C   UNL     1      25.424  40.411 147.965  1.00  0.00     0.041 C 
ATOM      6  O   UNL     1      26.011  41.148 148.801  1.00  0.00    -0.550 OA
ATOM      7  O   UNL     1      26.147  39.455 147.263  1.00  0.00    -0.550 OA
ENDBRANCH   4   5
ENDBRANCH   3   4
ENDBRANCH   2   3
ENDBRANCH   1   2
BRANCH   1   8
ATOM      8  C   UNL     1      23.900  36.655 147.383  1.00  0.00     0.000 C 
BRANCH   8   9
ATOM      9  C   UNL     1      23.328  35.266 147.057  1.00  0.00    -0.000 C 
BRANCH   9  10
ATOM     10  C   UNL     1      24.389  34.157 147.129  1.00  0.00    -0.000 C 
BRANCH  10  11
ATOM     11  C   UNL     1      24.037  33.066 148.151  1.00  0.00    -0.000 C 
BRANCH  11  12
ATOM     12  C   UNL     1      24.402  33.510 149.573  1.00  0.00    -0.003 C 
ATOM     13  C   UNL     1      25.789  34.145 149.612  1.00  0.00     0.004 C 
ENDBRANCH  11  12
ENDBRANCH  10  11
ENDBRANCH   9  10
ENDBRANCH   8   9
ENDBRANCH   1   8
TORSDOF 9
ENDMDL
MODEL 4
REMARK VINA RESULT:    -4.623      2.110      4.405
REMARK INTER + INTRA:          -7.977
REMARK INTER:                  -7.110
REMARK INTRA:                  -0.867
REMARK UNBOUND:                -0.922
REMARK SMILES CCCCCCCCCCC(=O)[O-]
REMARK SMILES IDX 7 1 8 2 9 3 10 4 11 5 12 6 13 7 6 8 5 9 4 10 3 11 2 12 1 13
REMARK H PARENT
REMARK Flexibility Score: inf
ROOT
ATOM      1  C   UNL     1      24.001  33.541 148.057  1.00  0.00     0.000 C 
ENDROOT
BRANCH   1   2
ATOM      2  C   UNL     1      24.883  33.557 149.315  1.00  0.00     0.000 C 
BRANCH   2   3
ATOM      3  C   UNL     1      26.357  33.856 149.002  1.00  0.00     0.006 C 
BRANCH   3   4
ATOM      4  C   UNL     1      26.987  34.834 150.003  1.00  0.00     0.053 C 
BRANCH   4   5
ATOM      5  C   UNL     1      27.312  36.131 149.331  1.00  0.00     0.041 C 
ATOM      6  O   UNL     1      27.533  36.164 148.092  1.00  0.00    -0.550 OA
ATOM      7  O   UNL     1      27.419  37.295 150.081  1.00  0.00    -0.550 OA
ENDBRANCH   4   5
ENDBRANCH   3   4
ENDBRANCH   2   3
ENDBRANCH   1   2
BRANCH   1   8
ATOM      8  C   UNL     1      24.344  34.714 147.132  1.00  0.00     0.000 C 
BRANCH   8   9
ATOM      9  C   UNL     1      23.362  35.879 147.334  1.00  0.00    -0.000 C 
BRANCH   9  10
ATOM     10  C   UNL     1      23.858  36.897 148.374  1.00  0.00    -0.000 C 
BRANCH  10  11
ATOM     11  C   UNL     1      23.064  38.211 148.341  1.00  0.00    -0.000 C 
BRANCH  11  12
ATOM     12  C   UNL     1      23.832  39.296 147.576  1.00  0.00    -0.003 C 
ATOM     13  C   UNL     1      25.337  39.054 147.641  1.00  0.00     0.004 C 
ENDBRANCH  11  12
ENDBRANCH  10  11
ENDBRANCH   9  10
ENDBRANCH   8   9
ENDBRANCH   1   8
TORSDOF 9
ENDMDL
MODEL 5
REMARK VINA RESULT:    -4.607      1.985      3.387
REMARK INTER + INTRA:          -7.953
REMARK INTER:                  -7.373
REMARK INTRA:                  -0.581
REMARK UNBOUND:                -0.922
REMARK SMILES CCCCCCCCCCC(=O)[O-]
REMARK SMILES IDX 7 1 8 2 9 3 10 4 11 5 12 6 13 7 6 8 5 9 4 10 3 11 2 12 1 13
REMARK H PARENT
REMARK Flexibility Score: inf
ROOT
ATOM      1  C   UNL     1      23.612  38.618 147.866  1.00  0.00     0.000 C 
ENDROOT
BRANCH   1   2
ATOM      2  C   UNL     1      25.104  38.947 147.697  1.00  0.00     0.000 C 
BRANCH   2   3
ATOM      3  C   UNL     1      25.348  40.425 147.353  1.00  0.00     0.006 C 
BRANCH   3   4
ATOM      4  C   UNL     1      24.063  41.262 147.396  1.00  0.00     0.053 C 
BRANCH   4   5
ATOM      5  C   UNL     1      24.107  42.229 148.537  1.00  0.00     0.041 C 
ATOM      6  O   UNL     1      24.279  41.812 149.713  1.00  0.00    -0.550 OA
ATOM      7  O   UNL     1      23.910  43.584 148.309  1.00  0.00    -0.550 OA
ENDBRANCH   4   5
ENDBRANCH   3   4
ENDBRANCH   2   3
ENDBRANCH   1   2
BRANCH   1   8
ATOM      8  C   UNL     1      23.423  37.202 148.424  1.00  0.00     0.000 C 
BRANCH   8   9
ATOM      9  C   UNL     1      23.439  36.160 147.294  1.00  0.00    -0.000 C 
BRANCH   9  10
ATOM     10  C   UNL     1      24.363  34.970 147.600  1.00  0.00    -0.000 C 
BRANCH  10  11
ATOM     11  C   UNL     1      24.624  34.794 149.103  1.00  0.00    -0.000 C 
BRANCH  11  12
ATOM     12  C   UNL     1      24.289  33.367 149.553  1.00  0.00    -0.003 C 
ATOM     13  C   UNL     1      24.207  32.418 148.361  1.00  0.00     0.004 C 
ENDBRANCH  11  12
ENDBRANCH  10  11
ENDBRANCH   9  10
ENDBRANCH   8   9
ENDBRANCH   1   8
TORSDOF 9
ENDMDL
MODEL 6
REMARK VINA RESULT:    -4.589      3.258      5.336
REMARK INTER + INTRA:          -7.926
REMARK INTER:                  -6.882
REMARK INTRA:                  -1.044
REMARK UNBOUND:                -0.922
REMARK SMILES CCCCCCCCCCC(=O)[O-]
REMARK SMILES IDX 7 1 8 2 9 3 10 4 11 5 12 6 13 7 6 8 5 9 4 10 3 11 2 12 1 13
REMARK H PARENT
REMARK Flexibility Score: inf
ROOT
ATOM      1  C   UNL     1      24.486  36.576 147.393  1.00  0.00     0.000 C 
ENDROOT
BRANCH   1   2
ATOM      2  C   UNL     1      25.894  35.962 147.440  1.00  0.00     0.000 C 
BRANCH   2   3
ATOM      3  C   UNL     1      26.153  35.171 148.731  1.00  0.00     0.006 C 
BRANCH   3   4
ATOM      4  C   UNL     1      26.137  33.653 148.507  1.00  0.00     0.053 C 
BRANCH   4   5
ATOM      5  C   UNL     1      24.777  33.098 148.791  1.00  0.00     0.041 C 
ATOM      6  O   UNL     1      24.159  32.453 147.903  1.00  0.00    -0.550 OA
ATOM      7  O   UNL     1      24.171  33.333 150.017  1.00  0.00    -0.550 OA
ENDBRANCH   4   5
ENDBRANCH   3   4
ENDBRANCH   2   3
ENDBRANCH   1   2
BRANCH   1   8
ATOM      8  C   UNL     1      23.917  36.750 148.806  1.00  0.00     0.000 C 
BRANCH   8   9
ATOM      9  C   UNL     1      23.126  38.063 148.922  1.00  0.00    -0.000 C 
BRANCH   9  10
ATOM     10  C   UNL     1      23.228  38.929 147.656  1.00  0.00    -0.000 C 
BRANCH  10  11
ATOM     11  C   UNL     1      23.992  40.239 147.894  1.00  0.00    -0.000 C 
BRANCH  11  12
ATOM     12  C   UNL     1      25.432  40.134 147.378  1.00  0.00    -0.003 C 
ATOM     13  C   UNL     1      26.397  39.778 148.505  1.00  0.00     0.004 C 
ENDBRANCH  11  12
ENDBRANCH  10  11
ENDBRANCH   9  10
ENDBRANCH   8   9
ENDBRANCH   1   8
TORSDOF 9
ENDMDL
MODEL 7
REMARK VINA RESULT:    -4.562      3.056      5.347
REMARK INTER + INTRA:          -7.885
REMARK INTER:                  -6.893
REMARK INTRA:                  -0.992
REMARK UNBOUND:                -0.922
REMARK SMILES CCCCCCCCCCC(=O)[O-]
REMARK SMILES IDX 7 1 8 2 9 3 10 4 11 5 12 6 13 7 6 8 5 9 4 10 3 11 2 12 1 13
REMARK H PARENT
REMARK Flexibility Score: inf
ROOT
ATOM      1  C   UNL     1      27.212  36.729 149.700  1.00  0.00     0.000 C 
ENDROOT
BRANCH   1   2
ATOM      2  C   UNL     1      27.376  35.294 150.225  1.00  0.00     0.000 C 
BRANCH   2   3
ATOM      3  C   UNL     1      26.679  34.254 149.335  1.00  0.00     0.006 C 
BRANCH   3   4
ATOM      4  C   UNL     1      25.158  34.449 149.277  1.00  0.00     0.053 C 
BRANCH   4   5
ATOM      5  C   UNL     1      24.565  33.604 148.194  1.00  0.00     0.041 C 
ATOM      6  O   UNL     1      24.350  34.094 147.055  1.00  0.00    -0.550 OA
ATOM      7  O   UNL     1      24.203  32.290 148.457  1.00  0.00    -0.550 OA
ENDBRANCH   4   5
ENDBRANCH   3   4
ENDBRANCH   2   3
ENDBRANCH   1   2
BRANCH   1   8
ATOM      8  C   UNL     1      27.903  36.898 148.342  1.00  0.00     0.000 C 
BRANCH   8   9
ATOM      9  C   UNL     1      26.898  37.338 147.265  1.00  0.00    -0.000 C 
BRANCH   9  10
ATOM     10  C   UNL     1      25.726  38.146 147.845  1.00  0.00    -0.000 C 
BRANCH  10  11
ATOM     11  C   UNL     1      24.358  37.602 147.408  1.00  0.00    -0.000 C 
BRANCH  11  12
ATOM     12  C   UNL     1      23.220  38.370 148.092  1.00  0.00    -0.003 C 
ATOM     13  C   UNL     1      23.209  38.115 149.596  1.00  0.00     0.004 C 
ENDBRANCH  11  12
ENDBRANCH  10  11
ENDBRANCH   9  10
ENDBRANCH   8   9
ENDBRANCH   1   8
TORSDOF 9
ENDMDL
MODEL 8
REMARK VINA RESULT:    -4.537      1.211      2.525
REMARK INTER + INTRA:          -7.847
REMARK INTER:                  -6.887
REMARK INTRA:                  -0.960
REMARK UNBOUND:                -0.922
REMARK SMILES CCCCCCCCCCC(=O)[O-]
REMARK SMILES IDX 7 1 8 2 9 3 10 4 11 5 12 6 13 7 6 8 5 9 4 10 3 11 2 12 1 13
REMARK H PARENT
REMARK Flexibility Score: inf
ROOT
ATOM      1  C   UNL     1      25.393  37.158 147.505  1.00  0.00     0.000 C 
ENDROOT
BRANCH   1   2
ATOM      2  C   UNL     1      23.857  37.105 147.503  1.00  0.00     0.000 C 
BRANCH   2   3
ATOM      3  C   UNL     1      23.221  38.331 148.176  1.00  0.00     0.006 C 
BRANCH   3   4
ATOM      4  C   UNL     1      23.869  39.650 147.735  1.00  0.00     0.053 C 
BRANCH   4   5
ATOM      5  C   UNL     1      24.312  40.438 148.927  1.00  0.00     0.041 C 
ATOM      6  O   UNL     1      24.562  41.667 148.816  1.00  0.00    -0.550 OA
ATOM      7  O   UNL     1      24.496  39.806 150.149  1.00  0.00    -0.550 OA
ENDBRANCH   4   5
ENDBRANCH   3   4
ENDBRANCH   2   3
ENDBRANCH   1   2
BRANCH   1   8
ATOM      8  C   UNL     1      25.959  36.602 148.817  1.00  0.00     0.000 C 
BRANCH   8   9
ATOM      9  C   UNL     1      26.998  35.503 148.545  1.00  0.00    -0.000 C 
BRANCH   9  10
ATOM     10  C   UNL     1      26.519  34.112 148.992  1.00  0.00    -0.000 C 
BRANCH  10  11
ATOM     11  C   UNL     1      25.214  34.167 149.801  1.00  0.00    -0.000 C 
BRANCH  11  12
ATOM     12  C   UNL     1      24.213  33.121 149.295  1.00  0.00    -0.003 C 
ATOM     13  C   UNL     1      23.904  33.325 147.815  1.00  0.00     0.004 C 
ENDBRANCH  11  12
ENDBRANCH  10  11
ENDBRANCH   9  10
ENDBRANCH   8   9
ENDBRANCH   1   8
TORSDOF 9
ENDMDL
MODEL 9
REMARK VINA RESULT:    -4.504      3.324      4.961
REMARK INTER + INTRA:          -7.796
REMARK INTER:                  -6.556
REMARK INTRA:                  -1.241
REMARK UNBOUND:                -0.922
REMARK SMILES CCCCCCCCCCC(=O)[O-]
REMARK SMILES IDX 7 1 8 2 9 3 10 4 11 5 12 6 13 7 6 8 5 9 4 10 3 11 2 12 1 13
REMARK H PARENT
REMARK Flexibility Score: inf
ROOT
ATOM      1  C   UNL     1      23.624  37.433 148.675  1.00  0.00     0.000 C 
ENDROOT
BRANCH   1   2
ATOM      2  C   UNL     1      23.447  36.644 147.368  1.00  0.00     0.000 C 
BRANCH   2   3
ATOM      3  C   UNL     1      24.099  35.254 147.423  1.00  0.00     0.006 C 
BRANCH   3   4
ATOM      4  C   UNL     1      24.617  34.898 148.823  1.00  0.00     0.053 C 
BRANCH   4   5
ATOM      5  C   UNL     1      24.303  33.472 149.149  1.00  0.00     0.041 C 
ATOM      6  O   UNL     1      24.327  33.077 150.344  1.00  0.00    -0.550 OA
ATOM      7  O   UNL     1      24.033  32.569 148.131  1.00  0.00    -0.550 OA
ENDBRANCH   4   5
ENDBRANCH   3   4
ENDBRANCH   2   3
ENDBRANCH   1   2
BRANCH   1   8
ATOM      8  C   UNL     1      23.560  38.943 148.417  1.00  0.00     0.000 C 
BRANCH   8   9
ATOM      9  C   UNL     1      24.724  39.397 147.522  1.00  0.00    -0.000 C 
BRANCH   9  10
ATOM     10  C   UNL     1      26.097  39.160 148.170  1.00  0.00    -0.000 C 
BRANCH  10  11
ATOM     11  C   UNL     1      26.956  38.155 147.388  1.00  0.00    -0.000 C 
BRANCH  11  12
ATOM     12  C   UNL     1      27.538  37.089 148.325  1.00  0.00    -0.003 C 
ATOM     13  C   UNL     1      27.276  37.437 149.787  1.00  0.00     0.004 C 
ENDBRANCH  11  12
ENDBRANCH  10  11
ENDBRANCH   9  10
ENDBRANCH   8   9
ENDBRANCH   1   8
TORSDOF 9
ENDMDL
