MODEL 1
REMARK VINA RESULT:    -4.290      0.000      0.000
REMARK INTER + INTRA:          -5.011
REMARK INTER:                  -4.792
REMARK INTRA:                  -0.220
REMARK UNBOUND:                -0.220
REMARK SMILES CC(C)c1ccc(C(=O)[O-])cc1
REMARK SMILES IDX 7 1 6 2 11 3 5 4 12 5 4 6 8 7 9 8 10 9 2 10 1 11 3 12
REMARK H PARENT
REMARK Flexibility Score: inf
ROOT
ATOM      1  C   UNL     1      58.301  27.267  49.982  1.00  0.00    -0.003 A 
ATOM      2  C   UNL     1      57.255  26.331  49.961  1.00  0.00     0.010 A 
ATOM      3  C   UNL     1      58.000  28.618  50.232  1.00  0.00     0.010 A 
ATOM      4  C   UNL     1      55.936  26.733  50.186  1.00  0.00     0.004 A 
ATOM      5  C   UNL     1      56.681  29.020  50.457  1.00  0.00     0.004 A 
ATOM      6  C   UNL     1      55.633  28.082  50.437  1.00  0.00    -0.045 A 
ENDROOT
BRANCH   1   7
ATOM      7  C   UNL     1      59.696  26.837  49.744  1.00  0.00     0.071 C 
ATOM      8  O   UNL     1      60.578  27.673  49.412  1.00  0.00    -0.545 OA
ATOM      9  O   UNL     1      60.054  25.500  49.881  1.00  0.00    -0.545 OA
ENDBRANCH   1   7
BRANCH   6  10
ATOM     10  C   UNL     1      54.197  28.506  50.679  1.00  0.00     0.013 C 
ATOM     11  C   UNL     1      54.054  30.031  50.630  1.00  0.00     0.012 C 
ATOM     12  C   UNL     1      53.245  27.830  49.684  1.00  0.00     0.012 C 
ENDBRANCH   6  10
TORSDOF 2
ENDMDL
MODEL 2
REMARK VINA RESULT:    -4.285      0.255      1.697
REMARK INTER + INTRA:          -5.006
REMARK INTER:                  -4.786
REMARK INTRA:                  -0.220
REMARK UNBOUND:                -0.220
REMARK SMILES CC(C)c1ccc(C(=O)[O-])cc1
REMARK SMILES IDX 7 1 6 2 11 3 5 4 12 5 4 6 8 7 9 8 10 9 2 10 1 11 3 12
REMARK H PARENT
REMARK Flexibility Score: inf
ROOT
ATOM      1  C   UNL     1      58.443  27.292  49.975  1.00  0.00    -0.003 A 
ATOM      2  C   UNL     1      58.039  28.617  50.199  1.00  0.00     0.010 A 
ATOM      3  C   UNL     1      57.471  26.277  49.965  1.00  0.00     0.010 A 
ATOM      4  C   UNL     1      56.691  28.924  50.408  1.00  0.00     0.004 A 
ATOM      5  C   UNL     1      56.124  26.582  50.173  1.00  0.00     0.004 A 
ATOM      6  C   UNL     1      55.718  27.911  50.398  1.00  0.00    -0.045 A 
ENDROOT
BRANCH   1   7
ATOM      7  C   UNL     1      59.870  26.972  49.754  1.00  0.00     0.071 C 
ATOM      8  O   UNL     1      60.303  25.804  49.944  1.00  0.00    -0.545 OA
ATOM      9  O   UNL     1      60.756  27.958  49.333  1.00  0.00    -0.545 OA
ENDBRANCH   1   7
BRANCH   6  10
ATOM     10  C   UNL     1      54.259  28.257  50.626  1.00  0.00     0.013 C 
ATOM     11  C   UNL     1      54.027  29.769  50.526  1.00  0.00     0.012 C 
ATOM     12  C   UNL     1      53.350  27.493  49.654  1.00  0.00     0.012 C 
ENDBRANCH   6  10
TORSDOF 2
ENDMDL
MODEL 3
REMARK VINA RESULT:    -4.178      1.132      1.390
REMARK INTER + INTRA:          -4.887
REMARK INTER:                  -4.666
REMARK INTRA:                  -0.221
REMARK UNBOUND:                -0.220
REMARK SMILES CC(C)c1ccc(C(=O)[O-])cc1
REMARK SMILES IDX 7 1 6 2 11 3 5 4 12 5 4 6 8 7 9 8 10 9 2 10 1 11 3 12
REMARK H PARENT
REMARK Flexibility Score: inf
ROOT
ATOM      1  C   UNL     1      58.685  27.816  50.118  1.00  0.00    -0.003 A 
ATOM      2  C   UNL     1      58.205  26.505  49.967  1.00  0.00     0.010 A 
ATOM      3  C   UNL     1      57.763  28.862  50.299  1.00  0.00     0.010 A 
ATOM      4  C   UNL     1      56.832  26.243  49.999  1.00  0.00     0.004 A 
ATOM      5  C   UNL     1      56.392  28.600  50.331  1.00  0.00     0.004 A 
ATOM      6  C   UNL     1      55.910  27.286  50.181  1.00  0.00    -0.045 A 
ENDROOT
BRANCH   1   7
ATOM      7  C   UNL     1      60.139  28.089  50.084  1.00  0.00     0.071 C 
ATOM      8  O   UNL     1      60.569  29.272  50.026  1.00  0.00    -0.545 OA
ATOM      9  O   UNL     1      61.053  27.041  50.113  1.00  0.00    -0.545 OA
ENDBRANCH   1   7
BRANCH   6  10
ATOM     10  C   UNL     1      54.423  26.988  50.214  1.00  0.00     0.013 C 
ATOM     11  C   UNL     1      53.600  28.243  49.903  1.00  0.00     0.012 C 
ATOM     12  C   UNL     1      54.067  25.843  49.257  1.00  0.00     0.012 C 
ENDBRANCH   6  10
TORSDOF 2
ENDMDL
MODEL 4
REMARK VINA RESULT:    -4.169      3.254      4.574
REMARK INTER + INTRA:          -4.876
REMARK INTER:                  -4.673
REMARK INTRA:                  -0.203
REMARK UNBOUND:                -0.220
REMARK SMILES CC(C)c1ccc(C(=O)[O-])cc1
REMARK SMILES IDX 7 1 6 2 11 3 5 4 12 5 4 6 8 7 9 8 10 9 2 10 1 11 3 12
REMARK H PARENT
REMARK Flexibility Score: inf
ROOT
ATOM      1  C   UNL     1      54.643  26.734  49.842  1.00  0.00    -0.003 A 
ATOM      2  C   UNL     1      55.984  26.333  49.957  1.00  0.00     0.010 A 
ATOM      3  C   UNL     1      54.315  28.083  50.062  1.00  0.00     0.010 A 
ATOM      4  C   UNL     1      56.977  27.260  50.285  1.00  0.00     0.004 A 
ATOM      5  C   UNL     1      55.307  29.010  50.388  1.00  0.00     0.004 A 
ATOM      6  C   UNL     1      56.651  28.609  50.504  1.00  0.00    -0.045 A 
ENDROOT
BRANCH   1   7
ATOM      7  C   UNL     1      53.595  25.749  49.495  1.00  0.00     0.071 C 
ATOM      8  O   UNL     1      52.949  25.852  48.418  1.00  0.00    -0.545 OA
ATOM      9  O   UNL     1      53.307  24.695  50.355  1.00  0.00    -0.545 OA
ENDBRANCH   1   7
BRANCH   6  10
ATOM     10  C   UNL     1      57.739  29.605  50.859  1.00  0.00     0.013 C 
ATOM     11  C   UNL     1      58.416  29.237  52.184  1.00  0.00     0.012 C 
ATOM     12  C   UNL     1      58.768  29.727  49.728  1.00  0.00     0.012 C 
ENDBRANCH   6  10
TORSDOF 2
ENDMDL
MODEL 5
REMARK VINA RESULT:    -4.164      1.160      1.937
REMARK INTER + INTRA:          -4.871
REMARK INTER:                  -4.649
REMARK INTRA:                  -0.221
REMARK UNBOUND:                -0.220
REMARK SMILES CC(C)c1ccc(C(=O)[O-])cc1
REMARK SMILES IDX 7 1 6 2 11 3 5 4 12 5 4 6 8 7 9 8 10 9 2 10 1 11 3 12
REMARK H PARENT
REMARK Flexibility Score: inf
ROOT
ATOM      1  C   UNL     1      58.642  27.901  50.175  1.00  0.00    -0.003 A 
ATOM      2  C   UNL     1      57.696  28.920  50.369  1.00  0.00     0.010 A 
ATOM      3  C   UNL     1      58.194  26.582  49.991  1.00  0.00     0.010 A 
ATOM      4  C   UNL     1      56.329  28.628  50.379  1.00  0.00     0.004 A 
ATOM      5  C   UNL     1      56.828  26.289  49.999  1.00  0.00     0.004 A 
ATOM      6  C   UNL     1      55.879  27.310  50.194  1.00  0.00    -0.045 A 
ENDROOT
BRANCH   1   7
ATOM      7  C   UNL     1      60.088  28.215  50.165  1.00  0.00     0.071 C 
ATOM      8  O   UNL     1      60.487  29.405  50.283  1.00  0.00    -0.545 OA
ATOM      9  O   UNL     1      61.028  27.200  50.025  1.00  0.00    -0.545 OA
ENDBRANCH   1   7
BRANCH   6  10
ATOM     10  C   UNL     1      54.392  27.006  50.207  1.00  0.00     0.013 C 
ATOM     11  C   UNL     1      53.569  28.262  49.898  1.00  0.00     0.012 C 
ATOM     12  C   UNL     1      54.052  25.869  49.235  1.00  0.00     0.012 C 
ENDBRANCH   6  10
TORSDOF 2
ENDMDL
MODEL 6
REMARK VINA RESULT:    -3.960     13.513     14.788
REMARK INTER + INTRA:          -4.642
REMARK INTER:                  -4.437
REMARK INTRA:                  -0.205
REMARK UNBOUND:                -0.220
REMARK SMILES CC(C)c1ccc(C(=O)[O-])cc1
REMARK SMILES IDX 7 1 6 2 11 3 5 4 12 5 4 6 8 7 9 8 10 9 2 10 1 11 3 12
REMARK H PARENT
REMARK Flexibility Score: inf
ROOT
ATOM      1  C   UNL     1      61.342  35.633  59.329  1.00  0.00    -0.003 A 
ATOM      2  C   UNL     1      62.420  34.735  59.287  1.00  0.00     0.010 A 
ATOM      3  C   UNL     1      61.324  36.628  60.322  1.00  0.00     0.010 A 
ATOM      4  C   UNL     1      63.461  34.829  60.216  1.00  0.00     0.004 A 
ATOM      5  C   UNL     1      62.363  36.723  61.250  1.00  0.00     0.004 A 
ATOM      6  C   UNL     1      63.444  35.824  61.208  1.00  0.00    -0.045 A 
ENDROOT
BRANCH   1   7
ATOM      7  C   UNL     1      60.244  35.530  58.344  1.00  0.00     0.071 C 
ATOM      8  O   UNL     1      60.185  36.319  57.363  1.00  0.00    -0.545 OA
ATOM      9  O   UNL     1      59.258  34.559  58.486  1.00  0.00    -0.545 OA
ENDBRANCH   1   7
BRANCH   6  10
ATOM     10  C   UNL     1      64.579  35.915  62.211  1.00  0.00     0.013 C 
ATOM     11  C   UNL     1      65.874  36.386  61.539  1.00  0.00     0.012 C 
ATOM     12  C   UNL     1      64.206  36.824  63.389  1.00  0.00     0.012 C 
ENDBRANCH   6  10
TORSDOF 2
ENDMDL
MODEL 7
REMARK VINA RESULT:    -3.660      2.684      5.257
REMARK INTER + INTRA:          -4.307
REMARK INTER:                  -4.086
REMARK INTRA:                  -0.221
REMARK UNBOUND:                -0.220
REMARK SMILES CC(C)c1ccc(C(=O)[O-])cc1
REMARK SMILES IDX 7 1 6 2 11 3 5 4 12 5 4 6 8 7 9 8 10 9 2 10 1 11 3 12
REMARK H PARENT
REMARK Flexibility Score: inf
ROOT
ATOM      1  C   UNL     1      57.541  27.791  50.041  1.00  0.00    -0.003 A 
ATOM      2  C   UNL     1      58.333  26.638  49.927  1.00  0.00     0.010 A 
ATOM      3  C   UNL     1      58.155  29.052  49.939  1.00  0.00     0.010 A 
ATOM      4  C   UNL     1      59.711  26.740  49.714  1.00  0.00     0.004 A 
ATOM      5  C   UNL     1      59.532  29.154  49.725  1.00  0.00     0.004 A 
ATOM      6  C   UNL     1      60.327  27.999  49.610  1.00  0.00    -0.045 A 
ENDROOT
BRANCH   1   7
ATOM      7  C   UNL     1      56.083  27.678  50.267  1.00  0.00     0.071 C 
ATOM      8  O   UNL     1      55.403  28.690  50.585  1.00  0.00    -0.545 OA
ATOM      9  O   UNL     1      55.443  26.451  50.132  1.00  0.00    -0.545 OA
ENDBRANCH   1   7
BRANCH   6  10
ATOM     10  C   UNL     1      61.823  28.095  49.378  1.00  0.00     0.013 C 
ATOM     11  C   UNL     1      62.380  29.420  49.911  1.00  0.00     0.012 C 
ATOM     12  C   UNL     1      62.557  26.899  49.996  1.00  0.00     0.012 C 
ENDBRANCH   6  10
TORSDOF 2
ENDMDL
MODEL 8
REMARK VINA RESULT:    -3.658      1.519      2.604
REMARK INTER + INTRA:          -4.305
REMARK INTER:                  -4.084
REMARK INTRA:                  -0.221
REMARK UNBOUND:                -0.220
REMARK SMILES CC(C)c1ccc(C(=O)[O-])cc1
REMARK SMILES IDX 7 1 6 2 11 3 5 4 12 5 4 6 8 7 9 8 10 9 2 10 1 11 3 12
REMARK H PARENT
REMARK Flexibility Score: inf
ROOT
ATOM      1  C   UNL     1      60.201  27.605  49.803  1.00  0.00    -0.003 A 
ATOM      2  C   UNL     1      59.551  28.833  49.603  1.00  0.00     0.010 A 
ATOM      3  C   UNL     1      59.440  26.484  50.173  1.00  0.00     0.010 A 
ATOM      4  C   UNL     1      58.167  28.939  49.769  1.00  0.00     0.004 A 
ATOM      5  C   UNL     1      58.056  26.589  50.338  1.00  0.00     0.004 A 
ATOM      6  C   UNL     1      57.403  27.819  50.138  1.00  0.00    -0.045 A 
ENDROOT
BRANCH   1   7
ATOM      7  C   UNL     1      61.666  27.498  49.627  1.00  0.00     0.071 C 
ATOM      8  O   UNL     1      62.323  28.448  49.123  1.00  0.00    -0.545 OA
ATOM      9  O   UNL     1      62.340  26.345  50.014  1.00  0.00    -0.545 OA
ENDBRANCH   1   7
BRANCH   6  10
ATOM     10  C   UNL     1      55.902  27.948  50.314  1.00  0.00     0.013 C 
ATOM     11  C   UNL     1      55.362  26.869  51.259  1.00  0.00     0.012 C 
ATOM     12  C   UNL     1      55.520  29.351  50.801  1.00  0.00     0.012 C 
ENDBRANCH   6  10
TORSDOF 2
ENDMDL
