MODEL 1
REMARK VINA RESULT:    -4.691      0.000      0.000
REMARK INTER + INTRA:         -10.685
REMARK INTER:                  -8.804
REMARK INTRA:                  -1.881
REMARK UNBOUND:                -1.881
REMARK SMILES O=C([O-])CCCCCCCCCCCCCCC(=O)[O-]
REMARK SMILES IDX 10 1 9 2 8 3 7 4 6 5 5 6 4 7 2 8 1 9 3 10 11 11 12 12 13 13
REMARK SMILES IDX 14 14 15 15 16 16 17 17 18 18 19 19 20 20
REMARK H PARENT
REMARK Flexibility Score: inf
ROOT
ATOM      1  C   UNL     1      63.460 -26.640  -2.053  1.00  0.00     0.000 C 
ENDROOT
BRANCH   1   2
ATOM      2  C   UNL     1      63.169 -28.149  -2.099  1.00  0.00     0.000 C 
BRANCH   2   3
ATOM      3  C   UNL     1      63.250 -28.813  -0.717  1.00  0.00     0.000 C 
BRANCH   3   4
ATOM      4  C   UNL     1      61.846 -29.047  -0.138  1.00  0.00     0.000 C 
BRANCH   4   5
ATOM      5  C   UNL     1      60.742 -28.949  -1.202  1.00  0.00     0.000 C 
BRANCH   5   6
ATOM      6  C   UNL     1      59.335 -29.172  -0.618  1.00  0.00     0.006 C 
BRANCH   6   7
ATOM      7  C   UNL     1      59.380 -29.570   0.863  1.00  0.00     0.053 C 
BRANCH   7   8
ATOM      8  C   UNL     1      58.063 -29.342   1.537  1.00  0.00     0.041 C 
ATOM      9  O   UNL     1      57.006 -29.818   1.045  1.00  0.00    -0.550 OA
ATOM     10  O   UNL     1      57.998 -28.574   2.693  1.00  0.00    -0.550 OA
ENDBRANCH   7   8
ENDBRANCH   6   7
ENDBRANCH   5   6
ENDBRANCH   4   5
ENDBRANCH   3   4
ENDBRANCH   2   3
ENDBRANCH   1   2
BRANCH   1  11
ATOM     11  C   UNL     1      62.956 -25.902  -3.305  1.00  0.00     0.000 C 
BRANCH  11  12
ATOM     12  C   UNL     1      61.457 -26.134  -3.563  1.00  0.00     0.000 C 
BRANCH  12  13
ATOM     13  C   UNL     1      60.565 -25.453  -2.510  1.00  0.00     0.000 C 
BRANCH  13  14
ATOM     14  C   UNL     1      59.103 -25.920  -2.585  1.00  0.00     0.000 C 
BRANCH  14  15
ATOM     15  C   UNL     1      58.806 -26.746  -3.846  1.00  0.00     0.000 C 
BRANCH  15  16
ATOM     16  C   UNL     1      57.956 -25.942  -4.841  1.00  0.00     0.006 C 
BRANCH  16  17
ATOM     17  C   UNL     1      58.746 -25.553  -6.098  1.00  0.00     0.053 C 
BRANCH  17  18
ATOM     18  C   UNL     1      59.501 -24.274  -5.905  1.00  0.00     0.041 C 
ATOM     19  O   UNL     1      59.029 -23.362  -5.177  1.00  0.00    -0.550 OA
ATOM     20  O   UNL     1      60.712 -24.077  -6.557  1.00  0.00    -0.550 OA
ENDBRANCH  17  18
ENDBRANCH  16  17
ENDBRANCH  15  16
ENDBRANCH  14  15
ENDBRANCH  13  14
ENDBRANCH  12  13
ENDBRANCH  11  12
ENDBRANCH   1  11
TORSDOF 15
ENDMDL
MODEL 2
REMARK VINA RESULT:    -4.662      2.383      3.757
REMARK INTER + INTRA:         -10.631
REMARK INTER:                  -8.842
REMARK INTRA:                  -1.789
REMARK UNBOUND:                -1.881
REMARK SMILES O=C([O-])CCCCCCCCCCCCCCC(=O)[O-]
REMARK SMILES IDX 10 1 9 2 8 3 7 4 6 5 5 6 4 7 2 8 1 9 3 10 11 11 12 12 13 13
REMARK SMILES IDX 14 14 15 15 16 16 17 17 18 18 19 19 20 20
REMARK H PARENT
REMARK Flexibility Score: inf
ROOT
ATOM      1  C   UNL     1      62.125 -29.015  -0.027  1.00  0.00     0.000 C 
ENDROOT
BRANCH   1   2
ATOM      2  C   UNL     1      60.845 -29.223  -0.853  1.00  0.00     0.000 C 
BRANCH   2   3
ATOM      3  C   UNL     1      59.645 -29.647   0.008  1.00  0.00     0.000 C 
BRANCH   3   4
ATOM      4  C   UNL     1      58.535 -28.584  -0.038  1.00  0.00     0.000 C 
BRANCH   4   5
ATOM      5  C   UNL     1      58.332 -28.000  -1.444  1.00  0.00     0.000 C 
BRANCH   5   6
ATOM      6  C   UNL     1      57.061 -27.138  -1.549  1.00  0.00     0.006 C 
BRANCH   6   7
ATOM      7  C   UNL     1      57.304 -25.692  -1.096  1.00  0.00     0.053 C 
BRANCH   7   8
ATOM      8  C   UNL     1      56.652 -24.707  -2.016  1.00  0.00     0.041 C 
ATOM      9  O   UNL     1      55.870 -23.831  -1.560  1.00  0.00    -0.550 OA
ATOM     10  O   UNL     1      56.884 -24.776  -3.384  1.00  0.00    -0.550 OA
ENDBRANCH   7   8
ENDBRANCH   6   7
ENDBRANCH   5   6
ENDBRANCH   4   5
ENDBRANCH   3   4
ENDBRANCH   2   3
ENDBRANCH   1   2
BRANCH   1  11
ATOM     11  C   UNL     1      63.332 -28.623  -0.897  1.00  0.00     0.000 C 
BRANCH  11  12
ATOM     12  C   UNL     1      62.913 -28.008  -2.244  1.00  0.00     0.000 C 
BRANCH  12  13
ATOM     13  C   UNL     1      63.535 -26.620  -2.477  1.00  0.00     0.000 C 
BRANCH  13  14
ATOM     14  C   UNL     1      62.535 -25.619  -3.076  1.00  0.00     0.000 C 
BRANCH  14  15
ATOM     15  C   UNL     1      61.086 -25.898  -2.649  1.00  0.00     0.000 C 
BRANCH  15  16
ATOM     16  C   UNL     1      60.176 -26.069  -3.875  1.00  0.00     0.006 C 
BRANCH  16  17
ATOM     17  C   UNL     1      60.716 -25.329  -5.107  1.00  0.00     0.053 C 
BRANCH  17  18
ATOM     18  C   UNL     1      59.753 -24.292  -5.598  1.00  0.00     0.041 C 
ATOM     19  O   UNL     1      59.514 -23.270  -4.903  1.00  0.00    -0.550 OA
ATOM     20  O   UNL     1      59.095 -24.472  -6.808  1.00  0.00    -0.550 OA
ENDBRANCH  17  18
ENDBRANCH  16  17
ENDBRANCH  15  16
ENDBRANCH  14  15
ENDBRANCH  13  14
ENDBRANCH  12  13
ENDBRANCH  11  12
ENDBRANCH   1  11
TORSDOF 15
ENDMDL
MODEL 3
REMARK VINA RESULT:    -4.617      2.048      3.079
REMARK INTER + INTRA:         -10.547
REMARK INTER:                  -8.853
REMARK INTRA:                  -1.694
REMARK UNBOUND:                -1.881
REMARK SMILES O=C([O-])CCCCCCCCCCCCCCC(=O)[O-]
REMARK SMILES IDX 10 1 9 2 8 3 7 4 6 5 5 6 4 7 2 8 1 9 3 10 11 11 12 12 13 13
REMARK SMILES IDX 14 14 15 15 16 16 17 17 18 18 19 19 20 20
REMARK H PARENT
REMARK Flexibility Score: inf
ROOT
ATOM      1  C   UNL     1      61.158 -25.990  -2.762  1.00  0.00     0.000 C 
ENDROOT
BRANCH   1   2
ATOM      2  C   UNL     1      62.694 -25.988  -2.691  1.00  0.00     0.000 C 
BRANCH   2   3
ATOM      3  C   UNL     1      63.294 -27.401  -2.751  1.00  0.00     0.000 C 
BRANCH   3   4
ATOM      4  C   UNL     1      63.642 -27.909  -1.343  1.00  0.00     0.000 C 
BRANCH   4   5
ATOM      5  C   UNL     1      62.886 -29.193  -0.972  1.00  0.00     0.000 C 
BRANCH   5   6
ATOM      6  C   UNL     1      61.715 -28.933  -0.007  1.00  0.00     0.006 C 
BRANCH   6   7
ATOM      7  C   UNL     1      60.354 -29.181  -0.669  1.00  0.00     0.053 C 
BRANCH   7   8
ATOM      8  C   UNL     1      59.408 -29.884   0.256  1.00  0.00     0.041 C 
ATOM      9  O   UNL     1      58.300 -30.307  -0.169  1.00  0.00    -0.550 OA
ATOM     10  O   UNL     1      59.737 -30.042   1.596  1.00  0.00    -0.550 OA
ENDBRANCH   7   8
ENDBRANCH   6   7
ENDBRANCH   5   6
ENDBRANCH   4   5
ENDBRANCH   3   4
ENDBRANCH   2   3
ENDBRANCH   1   2
BRANCH   1  11
ATOM     11  C   UNL     1      60.610 -24.906  -3.707  1.00  0.00     0.000 C 
BRANCH  11  12
ATOM     12  C   UNL     1      60.383 -25.429  -5.136  1.00  0.00     0.000 C 
BRANCH  12  13
ATOM     13  C   UNL     1      59.291 -24.644  -5.884  1.00  0.00     0.000 C 
BRANCH  13  14
ATOM     14  C   UNL     1      58.620 -23.580  -5.001  1.00  0.00     0.000 C 
BRANCH  14  15
ATOM     15  C   UNL     1      57.106 -23.793  -4.857  1.00  0.00     0.000 C 
BRANCH  15  16
ATOM     16  C   UNL     1      56.768 -24.434  -3.503  1.00  0.00     0.006 C 
BRANCH  16  17
ATOM     17  C   UNL     1      56.562 -25.951  -3.613  1.00  0.00     0.053 C 
BRANCH  17  18
ATOM     18  C   UNL     1      57.552 -26.708  -2.783  1.00  0.00     0.041 C 
ATOM     19  O   UNL     1      57.788 -26.354  -1.597  1.00  0.00    -0.550 OA
ATOM     20  O   UNL     1      58.240 -27.784  -3.329  1.00  0.00    -0.550 OA
ENDBRANCH  17  18
ENDBRANCH  16  17
ENDBRANCH  15  16
ENDBRANCH  14  15
ENDBRANCH  13  14
ENDBRANCH  12  13
ENDBRANCH  11  12
ENDBRANCH   1  11
TORSDOF 15
ENDMDL
MODEL 4
REMARK VINA RESULT:    -4.601      1.344      6.292
REMARK INTER + INTRA:         -10.517
REMARK INTER:                  -8.825
REMARK INTRA:                  -1.692
REMARK UNBOUND:                -1.881
REMARK SMILES O=C([O-])CCCCCCCCCCCCCCC(=O)[O-]
REMARK SMILES IDX 10 1 9 2 8 3 7 4 6 5 5 6 4 7 2 8 1 9 3 10 11 11 12 12 13 13
REMARK SMILES IDX 14 14 15 15 16 16 17 17 18 18 19 19 20 20
REMARK H PARENT
REMARK Flexibility Score: inf
ROOT
ATOM      1  C   UNL     1      62.658 -26.220  -2.817  1.00  0.00     0.000 C 
ENDROOT
BRANCH   1   2
ATOM      2  C   UNL     1      61.275 -25.615  -3.107  1.00  0.00     0.000 C 
BRANCH   2   3
ATOM      3  C   UNL     1      60.135 -26.377  -2.414  1.00  0.00     0.000 C 
BRANCH   3   4
ATOM      4  C   UNL     1      59.245 -27.088  -3.446  1.00  0.00     0.000 C 
BRANCH   4   5
ATOM      5  C   UNL     1      58.144 -26.175  -4.008  1.00  0.00     0.000 C 
BRANCH   5   6
ATOM      6  C   UNL     1      58.157 -26.111  -5.546  1.00  0.00     0.006 C 
BRANCH   6   7
ATOM      7  C   UNL     1      59.024 -24.959  -6.070  1.00  0.00     0.053 C 
BRANCH   7   8
ATOM      8  C   UNL     1      58.659 -23.655  -5.430  1.00  0.00     0.041 C 
ATOM      9  O   UNL     1      59.488 -23.053  -4.697  1.00  0.00    -0.550 OA
ATOM     10  O   UNL     1      57.390 -23.121  -5.616  1.00  0.00    -0.550 OA
ENDBRANCH   7   8
ENDBRANCH   6   7
ENDBRANCH   5   6
ENDBRANCH   4   5
ENDBRANCH   3   4
ENDBRANCH   2   3
ENDBRANCH   1   2
BRANCH   1  11
ATOM     11  C   UNL     1      62.583 -27.709  -2.432  1.00  0.00     0.000 C 
BRANCH  11  12
ATOM     12  C   UNL     1      63.547 -28.072  -1.290  1.00  0.00     0.000 C 
BRANCH  12  13
ATOM     13  C   UNL     1      62.890 -28.968  -0.226  1.00  0.00     0.000 C 
BRANCH  13  14
ATOM     14  C   UNL     1      61.354 -28.916  -0.279  1.00  0.00     0.000 C 
BRANCH  14  15
ATOM     15  C   UNL     1      60.700 -29.267   1.065  1.00  0.00     0.000 C 
BRANCH  15  16
ATOM     16  C   UNL     1      59.173 -29.119   0.988  1.00  0.00     0.006 C 
BRANCH  16  17
ATOM     17  C   UNL     1      58.641 -29.318  -0.438  1.00  0.00     0.053 C 
BRANCH  17  18
ATOM     18  C   UNL     1      57.427 -28.481  -0.700  1.00  0.00     0.041 C 
ATOM     19  O   UNL     1      56.438 -28.971  -1.305  1.00  0.00    -0.550 OA
ATOM     20  O   UNL     1      57.402 -27.150  -0.305  1.00  0.00    -0.550 OA
ENDBRANCH  17  18
ENDBRANCH  16  17
ENDBRANCH  15  16
ENDBRANCH  14  15
ENDBRANCH  13  14
ENDBRANCH  12  13
ENDBRANCH  11  12
ENDBRANCH   1  11
TORSDOF 15
ENDMDL
MODEL 5
REMARK VINA RESULT:    -4.579      1.435      6.645
REMARK INTER + INTRA:         -10.475
REMARK INTER:                  -8.911
REMARK INTRA:                  -1.564
REMARK UNBOUND:                -1.881
REMARK SMILES O=C([O-])CCCCCCCCCCCCCCC(=O)[O-]
REMARK SMILES IDX 10 1 9 2 8 3 7 4 6 5 5 6 4 7 2 8 1 9 3 10 11 11 12 12 13 13
REMARK SMILES IDX 14 14 15 15 16 16 17 17 18 18 19 19 20 20
REMARK H PARENT
REMARK Flexibility Score: inf
ROOT
ATOM      1  C   UNL     1      63.620 -27.731  -1.320  1.00  0.00     0.000 C 
ENDROOT
BRANCH   1   2
ATOM      2  C   UNL     1      63.613 -27.109  -2.726  1.00  0.00     0.000 C 
BRANCH   2   3
ATOM      3  C   UNL     1      62.758 -25.835  -2.809  1.00  0.00     0.000 C 
BRANCH   3   4
ATOM      4  C   UNL     1      61.356 -26.151  -3.352  1.00  0.00     0.000 C 
BRANCH   4   5
ATOM      5  C   UNL     1      60.253 -25.343  -2.652  1.00  0.00     0.000 C 
BRANCH   5   6
ATOM      6  C   UNL     1      58.839 -25.795  -3.060  1.00  0.00     0.006 C 
BRANCH   6   7
ATOM      7  C   UNL     1      58.502 -25.405  -4.505  1.00  0.00     0.053 C 
BRANCH   7   8
ATOM      8  C   UNL     1      57.849 -24.059  -4.577  1.00  0.00     0.041 C 
ATOM      9  O   UNL     1      58.479 -23.072  -5.040  1.00  0.00    -0.550 OA
ATOM     10  O   UNL     1      56.554 -23.889  -4.102  1.00  0.00    -0.550 OA
ENDBRANCH   7   8
ENDBRANCH   6   7
ENDBRANCH   5   6
ENDBRANCH   4   5
ENDBRANCH   3   4
ENDBRANCH   2   3
ENDBRANCH   1   2
BRANCH   1  11
ATOM     11  C   UNL     1      62.887 -29.083  -1.269  1.00  0.00     0.000 C 
BRANCH  11  12
ATOM     12  C   UNL     1      61.552 -29.002  -0.509  1.00  0.00     0.000 C 
BRANCH  12  13
ATOM     13  C   UNL     1      60.343 -28.890  -1.454  1.00  0.00     0.000 C 
BRANCH  13  14
ATOM     14  C   UNL     1      59.023 -28.662  -0.699  1.00  0.00     0.000 C 
BRANCH  14  15
ATOM     15  C   UNL     1      58.479 -29.945  -0.053  1.00  0.00     0.000 C 
BRANCH  15  16
ATOM     16  C   UNL     1      57.712 -29.626   1.239  1.00  0.00     0.006 C 
BRANCH  16  17
ATOM     17  C   UNL     1      58.353 -28.475   2.026  1.00  0.00     0.053 C 
BRANCH  17  18
ATOM     18  C   UNL     1      59.256 -28.979   3.110  1.00  0.00     0.041 C 
ATOM     19  O   UNL     1      58.803 -29.189   4.266  1.00  0.00    -0.550 OA
ATOM     20  O   UNL     1      60.605 -29.186   2.851  1.00  0.00    -0.550 OA
ENDBRANCH  17  18
ENDBRANCH  16  17
ENDBRANCH  15  16
ENDBRANCH  14  15
ENDBRANCH  13  14
ENDBRANCH  12  13
ENDBRANCH  11  12
ENDBRANCH   1  11
TORSDOF 15
ENDMDL
MODEL 6
REMARK VINA RESULT:    -4.563      2.428      5.116
REMARK INTER + INTRA:         -10.446
REMARK INTER:                  -8.564
REMARK INTRA:                  -1.882
REMARK UNBOUND:                -1.881
REMARK SMILES O=C([O-])CCCCCCCCCCCCCCC(=O)[O-]
REMARK SMILES IDX 10 1 9 2 8 3 7 4 6 5 5 6 4 7 2 8 1 9 3 10 11 11 12 12 13 13
REMARK SMILES IDX 14 14 15 15 16 16 17 17 18 18 19 19 20 20
REMARK H PARENT
REMARK Flexibility Score: inf
ROOT
ATOM      1  C   UNL     1      62.645 -29.158  -0.479  1.00  0.00     0.000 C 
ENDROOT
BRANCH   1   2
ATOM      2  C   UNL     1      63.564 -28.648  -1.601  1.00  0.00     0.000 C 
BRANCH   2   3
ATOM      3  C   UNL     1      63.633 -27.114  -1.663  1.00  0.00     0.000 C 
BRANCH   3   4
ATOM      4  C   UNL     1      63.608 -26.623  -3.118  1.00  0.00     0.000 C 
BRANCH   4   5
ATOM      5  C   UNL     1      62.540 -25.546  -3.363  1.00  0.00     0.000 C 
BRANCH   5   6
ATOM      6  C   UNL     1      61.182 -25.907  -2.736  1.00  0.00     0.006 C 
BRANCH   6   7
ATOM      7  C   UNL     1      60.142 -26.299  -3.793  1.00  0.00     0.053 C 
BRANCH   7   8
ATOM      8  C   UNL     1      59.955 -25.218  -4.813  1.00  0.00     0.041 C 
ATOM      9  O   UNL     1      59.548 -24.078  -4.464  1.00  0.00    -0.550 OA
ATOM     10  O   UNL     1      60.198 -25.480  -6.155  1.00  0.00    -0.550 OA
ENDBRANCH   7   8
ENDBRANCH   6   7
ENDBRANCH   5   6
ENDBRANCH   4   5
ENDBRANCH   3   4
ENDBRANCH   2   3
ENDBRANCH   1   2
BRANCH   1  11
ATOM     11  C   UNL     1      61.159 -28.868  -0.754  1.00  0.00     0.000 C 
BRANCH  11  12
ATOM     12  C   UNL     1      60.271 -29.122   0.476  1.00  0.00     0.000 C 
BRANCH  12  13
ATOM     13  C   UNL     1      58.773 -29.149   0.126  1.00  0.00     0.000 C 
BRANCH  13  14
ATOM     14  C   UNL     1      58.489 -28.623  -1.290  1.00  0.00     0.000 C 
BRANCH  14  15
ATOM     15  C   UNL     1      57.023 -28.213  -1.491  1.00  0.00     0.000 C 
BRANCH  15  16
ATOM     16  C   UNL     1      56.727 -26.875  -0.798  1.00  0.00     0.006 C 
BRANCH  16  17
ATOM     17  C   UNL     1      57.481 -25.706  -1.446  1.00  0.00     0.053 C 
BRANCH  17  18
ATOM     18  C   UNL     1      56.654 -25.024  -2.492  1.00  0.00     0.041 C 
ATOM     19  O   UNL     1      56.034 -23.962  -2.218  1.00  0.00    -0.550 OA
ATOM     20  O   UNL     1      56.543 -25.578  -3.761  1.00  0.00    -0.550 OA
ENDBRANCH  17  18
ENDBRANCH  16  17
ENDBRANCH  15  16
ENDBRANCH  14  15
ENDBRANCH  13  14
ENDBRANCH  12  13
ENDBRANCH  11  12
ENDBRANCH   1  11
TORSDOF 15
ENDMDL
MODEL 7
REMARK VINA RESULT:    -4.548      2.259      3.058
REMARK INTER + INTRA:         -10.417
REMARK INTER:                  -8.645
REMARK INTRA:                  -1.772
REMARK UNBOUND:                -1.881
REMARK SMILES O=C([O-])CCCCCCCCCCCCCCC(=O)[O-]
REMARK SMILES IDX 10 1 9 2 8 3 7 4 6 5 5 6 4 7 2 8 1 9 3 10 11 11 12 12 13 13
REMARK SMILES IDX 14 14 15 15 16 16 17 17 18 18 19 19 20 20
REMARK H PARENT
REMARK Flexibility Score: inf
ROOT
ATOM      1  C   UNL     1      63.617 -26.523  -3.120  1.00  0.00     0.000 C 
ENDROOT
BRANCH   1   2
ATOM      2  C   UNL     1      62.777 -27.547  -2.339  1.00  0.00     0.000 C 
BRANCH   2   3
ATOM      3  C   UNL     1      63.577 -28.257  -1.237  1.00  0.00     0.000 C 
BRANCH   3   4
ATOM      4  C   UNL     1      62.692 -29.253  -0.472  1.00  0.00     0.000 C 
BRANCH   4   5
ATOM      5  C   UNL     1      61.192 -28.983  -0.665  1.00  0.00     0.000 C 
BRANCH   5   6
ATOM      6  C   UNL     1      60.372 -29.264   0.607  1.00  0.00     0.006 C 
BRANCH   6   7
ATOM      7  C   UNL     1      59.075 -30.025   0.302  1.00  0.00     0.053 C 
BRANCH   7   8
ATOM      8  C   UNL     1      57.888 -29.374   0.943  1.00  0.00     0.041 C 
ATOM      9  O   UNL     1      58.034 -28.644   1.958  1.00  0.00    -0.550 OA
ATOM     10  O   UNL     1      56.614 -29.600   0.437  1.00  0.00    -0.550 OA
ENDBRANCH   7   8
ENDBRANCH   6   7
ENDBRANCH   5   6
ENDBRANCH   4   5
ENDBRANCH   3   4
ENDBRANCH   2   3
ENDBRANCH   1   2
BRANCH   1  11
ATOM     11  C   UNL     1      62.750 -25.518  -3.899  1.00  0.00     0.000 C 
BRANCH  11  12
ATOM     12  C   UNL     1      61.286 -25.513  -3.428  1.00  0.00     0.000 C 
BRANCH  12  13
ATOM     13  C   UNL     1      60.289 -25.539  -4.600  1.00  0.00     0.000 C 
BRANCH  13  14
ATOM     14  C   UNL     1      58.997 -26.297  -4.258  1.00  0.00     0.000 C 
BRANCH  14  15
ATOM     15  C   UNL     1      59.187 -27.318  -3.127  1.00  0.00     0.000 C 
BRANCH  15  16
ATOM     16  C   UNL     1      58.181 -27.074  -1.993  1.00  0.00     0.006 C 
BRANCH  16  17
ATOM     17  C   UNL     1      58.027 -25.583  -1.663  1.00  0.00     0.053 C 
BRANCH  17  18
ATOM     18  C   UNL     1      56.843 -25.328  -0.781  1.00  0.00     0.041 C 
ATOM     19  O   UNL     1      56.450 -26.214   0.023  1.00  0.00    -0.550 OA
ATOM     20  O   UNL     1      56.155 -24.126  -0.871  1.00  0.00    -0.550 OA
ENDBRANCH  17  18
ENDBRANCH  16  17
ENDBRANCH  15  16
ENDBRANCH  14  15
ENDBRANCH  13  14
ENDBRANCH  12  13
ENDBRANCH  11  12
ENDBRANCH   1  11
TORSDOF 15
ENDMDL
MODEL 8
REMARK VINA RESULT:    -4.533      2.318      5.890
REMARK INTER + INTRA:         -10.389
REMARK INTER:                  -8.657
REMARK INTRA:                  -1.732
REMARK UNBOUND:                -1.881
REMARK SMILES O=C([O-])CCCCCCCCCCCCCCC(=O)[O-]
REMARK SMILES IDX 10 1 9 2 8 3 7 4 6 5 5 6 4 7 2 8 1 9 3 10 11 11 12 12 13 13
REMARK SMILES IDX 14 14 15 15 16 16 17 17 18 18 19 19 20 20
REMARK H PARENT
REMARK Flexibility Score: inf
ROOT
ATOM      1  C   UNL     1      63.779 -26.854  -2.086  1.00  0.00     0.000 C 
ENDROOT
BRANCH   1   2
ATOM      2  C   UNL     1      62.950 -26.100  -3.138  1.00  0.00     0.000 C 
BRANCH   2   3
ATOM      3  C   UNL     1      61.493 -25.882  -2.703  1.00  0.00     0.000 C 
BRANCH   3   4
ATOM      4  C   UNL     1      60.570 -25.750  -3.925  1.00  0.00     0.000 C 
BRANCH   4   5
ATOM      5  C   UNL     1      59.253 -26.525  -3.759  1.00  0.00     0.000 C 
BRANCH   5   6
ATOM      6  C   UNL     1      58.101 -25.635  -3.260  1.00  0.00     0.006 C 
BRANCH   6   7
ATOM      7  C   UNL     1      57.014 -26.445  -2.542  1.00  0.00     0.053 C 
BRANCH   7   8
ATOM      8  C   UNL     1      56.897 -26.059  -1.100  1.00  0.00     0.041 C 
ATOM      9  O   UNL     1      56.434 -26.874  -0.259  1.00  0.00    -0.550 OA
ATOM     10  O   UNL     1      57.269 -24.785  -0.689  1.00  0.00    -0.550 OA
ENDBRANCH   7   8
ENDBRANCH   6   7
ENDBRANCH   5   6
ENDBRANCH   4   5
ENDBRANCH   3   4
ENDBRANCH   2   3
ENDBRANCH   1   2
BRANCH   1  11
ATOM     11  C   UNL     1      63.364 -28.330  -1.952  1.00  0.00     0.000 C 
BRANCH  11  12
ATOM     12  C   UNL     1      63.288 -28.791  -0.487  1.00  0.00     0.000 C 
BRANCH  12  13
ATOM     13  C   UNL     1      61.852 -29.129  -0.049  1.00  0.00     0.000 C 
BRANCH  13  14
ATOM     14  C   UNL     1      60.840 -29.001  -1.199  1.00  0.00     0.000 C 
BRANCH  14  15
ATOM     15  C   UNL     1      59.397 -28.821  -0.704  1.00  0.00     0.000 C 
BRANCH  15  16
ATOM     16  C   UNL     1      59.061 -29.844   0.391  1.00  0.00     0.006 C 
BRANCH  16  17
ATOM     17  C   UNL     1      58.461 -29.184   1.639  1.00  0.00     0.053 C 
BRANCH  17  18
ATOM     18  C   UNL     1      59.446 -29.130   2.767  1.00  0.00     0.041 C 
ATOM     19  O   UNL     1      60.213 -30.105   2.986  1.00  0.00    -0.550 OA
ATOM     20  O   UNL     1      59.494 -28.017   3.596  1.00  0.00    -0.550 OA
ENDBRANCH  17  18
ENDBRANCH  16  17
ENDBRANCH  15  16
ENDBRANCH  14  15
ENDBRANCH  13  14
ENDBRANCH  12  13
ENDBRANCH  11  12
ENDBRANCH   1  11
TORSDOF 15
ENDMDL
MODEL 9
REMARK VINA RESULT:    -4.510      1.544      7.211
REMARK INTER + INTRA:         -10.346
REMARK INTER:                  -8.699
REMARK INTRA:                  -1.647
REMARK UNBOUND:                -1.881
REMARK SMILES O=C([O-])CCCCCCCCCCCCCCC(=O)[O-]
REMARK SMILES IDX 10 1 9 2 8 3 7 4 6 5 5 6 4 7 2 8 1 9 3 10 11 11 12 12 13 13
REMARK SMILES IDX 14 14 15 15 16 16 17 17 18 18 19 19 20 20
REMARK H PARENT
REMARK Flexibility Score: inf
ROOT
ATOM      1  C   UNL     1      61.142 -26.099  -3.379  1.00  0.00     0.000 C 
ENDROOT
BRANCH   1   2
ATOM      2  C   UNL     1      59.987 -25.302  -2.750  1.00  0.00     0.000 C 
BRANCH   2   3
ATOM      3  C   UNL     1      58.606 -25.847  -3.141  1.00  0.00     0.000 C 
BRANCH   3   4
ATOM      4  C   UNL     1      58.008 -25.043  -4.306  1.00  0.00     0.000 C 
BRANCH   4   5
ATOM      5  C   UNL     1      58.277 -25.690  -5.673  1.00  0.00     0.000 C 
BRANCH   5   6
ATOM      6  C   UNL     1      58.905 -24.709  -6.679  1.00  0.00     0.006 C 
BRANCH   6   7
ATOM      7  C   UNL     1      60.375 -25.041  -6.970  1.00  0.00     0.053 C 
BRANCH   7   8
ATOM      8  C   UNL     1      60.530 -25.775  -8.266  1.00  0.00     0.041 C 
ATOM      9  O   UNL     1      59.519 -26.059  -8.961  1.00  0.00    -0.550 OA
ATOM     10  O   UNL     1      61.791 -26.176  -8.691  1.00  0.00    -0.550 OA
ENDBRANCH   7   8
ENDBRANCH   6   7
ENDBRANCH   5   6
ENDBRANCH   4   5
ENDBRANCH   3   4
ENDBRANCH   2   3
ENDBRANCH   1   2
BRANCH   1  11
ATOM     11  C   UNL     1      62.509 -25.740  -2.769  1.00  0.00     0.000 C 
BRANCH  11  12
ATOM     12  C   UNL     1      63.502 -26.914  -2.815  1.00  0.00     0.000 C 
BRANCH  12  13
ATOM     13  C   UNL     1      63.628 -27.633  -1.460  1.00  0.00     0.000 C 
BRANCH  13  14
ATOM     14  C   UNL     1      62.853 -28.960  -1.423  1.00  0.00     0.000 C 
BRANCH  14  15
ATOM     15  C   UNL     1      61.639 -28.915  -0.483  1.00  0.00     0.000 C 
BRANCH  15  16
ATOM     16  C   UNL     1      60.326 -28.967  -1.279  1.00  0.00     0.006 C 
BRANCH  16  17
ATOM     17  C   UNL     1      59.152 -28.355  -0.504  1.00  0.00     0.053 C 
BRANCH  17  18
ATOM     18  C   UNL     1      58.376 -29.397   0.242  1.00  0.00     0.041 C 
ATOM     19  O   UNL     1      57.519 -29.056   1.099  1.00  0.00    -0.550 OA
ATOM     20  O   UNL     1      58.623 -30.744   0.014  1.00  0.00    -0.550 OA
ENDBRANCH  17  18
ENDBRANCH  16  17
ENDBRANCH  15  16
ENDBRANCH  14  15
ENDBRANCH  13  14
ENDBRANCH  12  13
ENDBRANCH  11  12
ENDBRANCH   1  11
TORSDOF 15
ENDMDL
