MODEL 1
REMARK VINA RESULT:    -2.816      0.000      0.000
REMARK INTER + INTRA:          -3.176
REMARK INTER:                  -3.145
REMARK INTRA:                  -0.031
REMARK UNBOUND:                -0.031
REMARK SMILES CCCC(=O)[O-]
REMARK SMILES IDX 3 1 4 2 5 3 6 4 2 5 1 6
REMARK H PARENT
REMARK Flexibility Score: inf
ROOT
ATOM      1  C   UNL     1      14.666  10.231 -14.908  1.00  0.00     0.052 C 
ENDROOT
BRANCH   1   2
ATOM      2  C   UNL     1      15.384   9.020 -14.402  1.00  0.00     0.041 C 
ATOM      3  O   UNL     1      14.758   7.942 -14.222  1.00  0.00    -0.550 OA
ATOM      4  O   UNL     1      16.754   9.067 -14.177  1.00  0.00    -0.550 OA
ENDBRANCH   1   2
BRANCH   1   5
ATOM      5  C   UNL     1      14.438  11.231 -13.772  1.00  0.00     0.003 C 
ATOM      6  C   UNL     1      15.509  12.318 -13.772  1.00  0.00     0.004 C 
ENDBRANCH   1   5
TORSDOF 2
ENDMDL
MODEL 2
REMARK VINA RESULT:    -2.782      2.371      3.391
REMARK INTER + INTRA:          -3.138
REMARK INTER:                  -3.098
REMARK INTRA:                  -0.041
REMARK UNBOUND:                -0.031
REMARK SMILES CCCC(=O)[O-]
REMARK SMILES IDX 3 1 4 2 5 3 6 4 2 5 1 6
REMARK H PARENT
REMARK Flexibility Score: inf
ROOT
ATOM      1  C   UNL     1      14.498  11.257 -14.064  1.00  0.00     0.052 C 
ENDROOT
BRANCH   1   2
ATOM      2  C   UNL     1      15.550  12.204 -14.548  1.00  0.00     0.041 C 
ATOM      3  O   UNL     1      16.656  12.280 -13.952  1.00  0.00    -0.550 OA
ATOM      4  O   UNL     1      15.327  12.966 -15.687  1.00  0.00    -0.550 OA
ENDBRANCH   1   2
BRANCH   1   5
ATOM      5  C   UNL     1      14.491   9.983 -14.914  1.00  0.00     0.003 C 
ATOM      6  C   UNL     1      15.301   8.873 -14.248  1.00  0.00     0.004 C 
ENDBRANCH   1   5
TORSDOF 2
ENDMDL
MODEL 3
REMARK VINA RESULT:    -2.749      2.373      3.266
REMARK INTER + INTRA:          -3.101
REMARK INTER:                  -3.060
REMARK INTRA:                  -0.041
REMARK UNBOUND:                -0.031
REMARK SMILES CCCC(=O)[O-]
REMARK SMILES IDX 3 1 4 2 5 3 6 4 2 5 1 6
REMARK H PARENT
REMARK Flexibility Score: inf
ROOT
ATOM      1  C   UNL     1      14.484  11.191 -14.180  1.00  0.00     0.052 C 
ENDROOT
BRANCH   1   2
ATOM      2  C   UNL     1      15.523  12.143 -14.683  1.00  0.00     0.041 C 
ATOM      3  O   UNL     1      15.274  12.890 -15.665  1.00  0.00    -0.550 OA
ATOM      4  O   UNL     1      16.748  12.240 -14.036  1.00  0.00    -0.550 OA
ENDBRANCH   1   2
BRANCH   1   5
ATOM      5  C   UNL     1      14.523   9.886 -14.978  1.00  0.00     0.003 C 
ATOM      6  C   UNL     1      15.341   8.821 -14.252  1.00  0.00     0.004 C 
ENDBRANCH   1   5
TORSDOF 2
ENDMDL
MODEL 4
REMARK VINA RESULT:    -2.631      8.440      9.186
REMARK INTER + INTRA:          -2.970
REMARK INTER:                  -2.954
REMARK INTRA:                  -0.015
REMARK UNBOUND:                -0.031
REMARK SMILES CCCC(=O)[O-]
REMARK SMILES IDX 3 1 4 2 5 3 6 4 2 5 1 6
REMARK H PARENT
REMARK Flexibility Score: inf
ROOT
ATOM      1  C   UNL     1       5.805   9.894 -13.003  1.00  0.00     0.052 C 
ENDROOT
BRANCH   1   2
ATOM      2  C   UNL     1       6.470   8.930 -12.073  1.00  0.00     0.041 C 
ATOM      3  O   UNL     1       7.602   8.457 -12.354  1.00  0.00    -0.550 OA
ATOM      4  O   UNL     1       5.861   8.591 -10.871  1.00  0.00    -0.550 OA
ENDBRANCH   1   2
BRANCH   1   5
ATOM      5  C   UNL     1       6.774  10.327 -14.107  1.00  0.00     0.003 C 
ATOM      6  C   UNL     1       6.019  10.846 -15.329  1.00  0.00     0.004 C 
ENDBRANCH   1   5
TORSDOF 2
ENDMDL
MODEL 5
REMARK VINA RESULT:    -2.617      3.092      3.886
REMARK INTER + INTRA:          -2.954
REMARK INTER:                  -2.948
REMARK INTRA:                  -0.005
REMARK UNBOUND:                -0.031
REMARK SMILES CCCC(=O)[O-]
REMARK SMILES IDX 3 1 4 2 5 3 6 4 2 5 1 6
REMARK H PARENT
REMARK Flexibility Score: inf
ROOT
ATOM      1  C   UNL     1      17.860  12.317 -14.515  1.00  0.00     0.052 C 
ENDROOT
BRANCH   1   2
ATOM      2  C   UNL     1      16.521  11.751 -14.164  1.00  0.00     0.041 C 
ATOM      3  O   UNL     1      15.731  12.403 -13.431  1.00  0.00    -0.550 OA
ATOM      4  O   UNL     1      16.125  10.526 -14.684  1.00  0.00    -0.550 OA
ENDBRANCH   1   2
BRANCH   1   5
ATOM      5  C   UNL     1      18.929  11.803 -13.548  1.00  0.00     0.003 C 
ATOM      6  C   UNL     1      20.217  12.613 -13.670  1.00  0.00     0.004 C 
ENDBRANCH   1   5
TORSDOF 2
ENDMDL
MODEL 6
REMARK VINA RESULT:    -2.607      2.232      2.450
REMARK INTER + INTRA:          -2.943
REMARK INTER:                  -2.925
REMARK INTRA:                  -0.018
REMARK UNBOUND:                -0.031
REMARK SMILES CCCC(=O)[O-]
REMARK SMILES IDX 3 1 4 2 5 3 6 4 2 5 1 6
REMARK H PARENT
REMARK Flexibility Score: inf
ROOT
ATOM      1  C   UNL     1      16.591  10.759 -14.822  1.00  0.00     0.052 C 
ENDROOT
BRANCH   1   2
ATOM      2  C   UNL     1      15.272  10.363 -14.237  1.00  0.00     0.041 C 
ATOM      3  O   UNL     1      14.919   9.155 -14.233  1.00  0.00    -0.550 OA
ATOM      4  O   UNL     1      14.455  11.322 -13.653  1.00  0.00    -0.550 OA
ENDBRANCH   1   2
BRANCH   1   5
ATOM      5  C   UNL     1      17.189  11.935 -14.046  1.00  0.00     0.003 C 
ATOM      6  C   UNL     1      18.543  11.566 -13.444  1.00  0.00     0.004 C 
ENDBRANCH   1   5
TORSDOF 2
ENDMDL
MODEL 7
REMARK VINA RESULT:    -2.594      3.623      4.412
REMARK INTER + INTRA:          -2.929
REMARK INTER:                  -2.924
REMARK INTRA:                  -0.005
REMARK UNBOUND:                -0.031
REMARK SMILES CCCC(=O)[O-]
REMARK SMILES IDX 3 1 4 2 5 3 6 4 2 5 1 6
REMARK H PARENT
REMARK Flexibility Score: inf
ROOT
ATOM      1  C   UNL     1      18.936  11.647 -13.403  1.00  0.00     0.052 C 
ENDROOT
BRANCH   1   2
ATOM      2  C   UNL     1      17.631  11.334 -14.064  1.00  0.00     0.041 C 
ATOM      3  O   UNL     1      17.472  10.237 -14.662  1.00  0.00    -0.550 OA
ATOM      4  O   UNL     1      16.574  12.231 -13.977  1.00  0.00    -0.550 OA
ENDBRANCH   1   2
BRANCH   1   5
ATOM      5  C   UNL     1      19.683  12.732 -14.182  1.00  0.00     0.003 C 
ATOM      6  C   UNL     1      21.010  13.077 -13.510  1.00  0.00     0.004 C 
ENDBRANCH   1   5
TORSDOF 2
ENDMDL
MODEL 8
REMARK VINA RESULT:    -2.557      1.956      3.070
REMARK INTER + INTRA:          -2.887
REMARK INTER:                  -2.846
REMARK INTRA:                  -0.042
REMARK UNBOUND:                -0.031
REMARK SMILES CCCC(=O)[O-]
REMARK SMILES IDX 3 1 4 2 5 3 6 4 2 5 1 6
REMARK H PARENT
REMARK Flexibility Score: inf
ROOT
ATOM      1  C   UNL     1      16.764  12.184 -14.579  1.00  0.00     0.052 C 
ENDROOT
BRANCH   1   2
ATOM      2  C   UNL     1      17.796  11.280 -13.984  1.00  0.00     0.041 C 
ATOM      3  O   UNL     1      18.666  11.742 -13.199  1.00  0.00    -0.550 OA
ATOM      4  O   UNL     1      17.768   9.918 -14.256  1.00  0.00    -0.550 OA
ENDBRANCH   1   2
BRANCH   1   5
ATOM      5  C   UNL     1      15.568  12.327 -13.634  1.00  0.00     0.003 C 
ATOM      6  C   UNL     1      14.498  11.281 -13.939  1.00  0.00     0.004 C 
ENDBRANCH   1   5
TORSDOF 2
ENDMDL
MODEL 9
REMARK VINA RESULT:    -2.498      9.013      9.812
REMARK INTER + INTRA:          -2.821
REMARK INTER:                  -2.806
REMARK INTRA:                  -0.015
REMARK UNBOUND:                -0.031
REMARK SMILES CCCC(=O)[O-]
REMARK SMILES IDX 3 1 4 2 5 3 6 4 2 5 1 6
REMARK H PARENT
REMARK Flexibility Score: inf
ROOT
ATOM      1  C   UNL     1       5.598  10.616 -13.561  1.00  0.00     0.052 C 
ENDROOT
BRANCH   1   2
ATOM      2  C   UNL     1       5.395  10.997 -14.994  1.00  0.00     0.041 C 
ATOM      3  O   UNL     1       6.387  11.211 -15.738  1.00  0.00    -0.550 OA
ATOM      4  O   UNL     1       4.111  11.067 -15.520  1.00  0.00    -0.550 OA
ENDBRANCH   1   2
BRANCH   1   5
ATOM      5  C   UNL     1       7.031  10.127 -13.335  1.00  0.00     0.003 C 
ATOM      6  C   UNL     1       7.070   8.991 -12.317  1.00  0.00     0.004 C 
ENDBRANCH   1   5
TORSDOF 2
ENDMDL
