MODEL 1
REMARK VINA RESULT:    -3.015      0.000      0.000
REMARK INTER + INTRA:          -3.928
REMARK INTER:                  -3.544
REMARK INTRA:                  -0.384
REMARK UNBOUND:                -0.384
REMARK SMILES [NH3+][C@@H](CO)C(=O)[O-]
REMARK SMILES IDX 3 1 2 2 1 3 5 7 6 8 7 9 4 10
REMARK H PARENT 1 4 1 5 1 6 4 11
REMARK Flexibility Score: inf
ROOT
ATOM      1  C   UNL     1       3.591  15.589 -10.065  1.00  0.00     0.227 C 
ENDROOT
BRANCH   1   2
ATOM      2  C   UNL     1       2.756  15.012  -8.907  1.00  0.00     0.253 C 
BRANCH   2   3
ATOM      3  N   UNL     1       3.130  15.645  -7.637  1.00  0.00    -0.348 N 
ATOM      4  H   UNL     1       2.372  15.495  -6.930  1.00  0.00     0.345 HD
ATOM      5  H   UNL     1       3.249  16.675  -7.775  1.00  0.00     0.345 HD
ATOM      6  H   UNL     1       4.024  15.243  -7.271  1.00  0.00     0.345 HD
ENDBRANCH   2   3
BRANCH   2   7
ATOM      7  C   UNL     1       2.935  13.520  -8.820  1.00  0.00     0.102 C 
ATOM      8  O   UNL     1       2.040  12.749  -9.257  1.00  0.00    -0.544 OA
ATOM      9  O   UNL     1       4.092  12.983  -8.268  1.00  0.00    -0.544 OA
ENDBRANCH   2   7
ENDBRANCH   1   2
BRANCH   1  10
ATOM     10  O   UNL     1       4.151  14.560 -10.836  1.00  0.00    -0.390 OA
ATOM     11  H   UNL     1       3.469  14.310 -11.513  1.00  0.00     0.210 HD
ENDBRANCH   1  10
TORSDOF 4
ENDMDL
MODEL 2
REMARK VINA RESULT:    -3.003      1.247      2.309
REMARK INTER + INTRA:          -3.914
REMARK INTER:                  -3.527
REMARK INTRA:                  -0.387
REMARK UNBOUND:                -0.384
REMARK SMILES [NH3+][C@@H](CO)C(=O)[O-]
REMARK SMILES IDX 3 1 2 2 1 3 5 7 6 8 7 9 4 10
REMARK H PARENT 1 4 1 5 1 6 4 11
REMARK Flexibility Score: inf
ROOT
ATOM      1  C   UNL     1       1.250  13.852  -8.721  1.00  0.00     0.227 C 
ENDROOT
BRANCH   1   2
ATOM      2  C   UNL     1       2.533  14.696  -8.831  1.00  0.00     0.253 C 
BRANCH   2   3
ATOM      3  N   UNL     1       2.353  15.785  -9.798  1.00  0.00    -0.348 N 
ATOM      4  H   UNL     1       2.903  16.622  -9.495  1.00  0.00     0.345 HD
ATOM      5  H   UNL     1       1.343  16.056  -9.842  1.00  0.00     0.345 HD
ATOM      6  H   UNL     1       2.671  15.492 -10.751  1.00  0.00     0.345 HD
ENDBRANCH   2   3
BRANCH   2   7
ATOM      7  C   UNL     1       3.701  13.833  -9.229  1.00  0.00     0.102 C 
ATOM      8  O   UNL     1       4.107  13.827 -10.421  1.00  0.00    -0.544 OA
ATOM      9  O   UNL     1       4.345  13.044  -8.282  1.00  0.00    -0.544 OA
ENDBRANCH   2   7
ENDBRANCH   1   2
BRANCH   1  10
ATOM     10  O   UNL     1       1.461  12.558  -9.221  1.00  0.00    -0.390 OA
ATOM     11  H   UNL     1       0.739  11.988  -8.846  1.00  0.00     0.210 HD
ENDBRANCH   1  10
TORSDOF 4
ENDMDL
MODEL 3
REMARK VINA RESULT:    -2.828      1.717      2.979
REMARK INTER + INTRA:          -3.708
REMARK INTER:                  -3.702
REMARK INTRA:                  -0.005
REMARK UNBOUND:                -0.384
REMARK SMILES [NH3+][C@@H](CO)C(=O)[O-]
REMARK SMILES IDX 3 1 2 2 1 3 5 7 6 8 7 9 4 10
REMARK H PARENT 1 4 1 5 1 6 4 11
REMARK Flexibility Score: inf
ROOT
ATOM      1  C   UNL     1       1.744  13.636  -8.902  1.00  0.00     0.227 C 
ENDROOT
BRANCH   1   2
ATOM      2  C   UNL     1       3.214  13.654  -9.359  1.00  0.00     0.253 C 
BRANCH   2   3
ATOM      3  N   UNL     1       4.101  13.268  -8.256  1.00  0.00    -0.348 N 
ATOM      4  H   UNL     1       3.530  12.941  -7.441  1.00  0.00     0.345 HD
ATOM      5  H   UNL     1       4.666  14.093  -7.949  1.00  0.00     0.345 HD
ATOM      6  H   UNL     1       4.748  12.501  -8.551  1.00  0.00     0.345 HD
ENDBRANCH   2   3
BRANCH   2   7
ATOM      7  C   UNL     1       3.589  15.016  -9.878  1.00  0.00     0.102 C 
ATOM      8  O   UNL     1       4.081  15.142 -11.030  1.00  0.00    -0.544 OA
ATOM      9  O   UNL     1       3.385  16.147  -9.094  1.00  0.00    -0.544 OA
ENDBRANCH   2   7
ENDBRANCH   1   2
BRANCH   1  10
ATOM     10  O   UNL     1       1.139  12.411  -9.219  1.00  0.00    -0.390 OA
ATOM     11  H   UNL     1       0.276  12.626  -9.662  1.00  0.00     0.210 HD
ENDBRANCH   1  10
TORSDOF 4
ENDMDL
MODEL 4
REMARK VINA RESULT:    -2.737      2.682      3.435
REMARK INTER + INTRA:          -3.602
REMARK INTER:                  -3.212
REMARK INTRA:                  -0.390
REMARK UNBOUND:                -0.384
REMARK SMILES [NH3+][C@@H](CO)C(=O)[O-]
REMARK SMILES IDX 3 1 2 2 1 3 5 7 6 8 7 9 4 10
REMARK H PARENT 1 4 1 5 1 6 4 11
REMARK Flexibility Score: inf
ROOT
ATOM      1  C   UNL     1       2.050  13.721  -8.131  1.00  0.00     0.227 C 
ENDROOT
BRANCH   1   2
ATOM      2  C   UNL     1       0.579  13.620  -7.686  1.00  0.00     0.253 C 
BRANCH   2   3
ATOM      3  N   UNL     1       0.487  13.056  -6.334  1.00  0.00    -0.348 N 
ATOM      4  H   UNL     1      -0.426  12.557  -6.221  1.00  0.00     0.345 HD
ATOM      5  H   UNL     1       0.529  13.825  -5.626  1.00  0.00     0.345 HD
ATOM      6  H   UNL     1       1.270  12.385  -6.158  1.00  0.00     0.345 HD
ENDBRANCH   2   3
BRANCH   2   7
ATOM      7  C   UNL     1      -0.209  12.782  -8.656  1.00  0.00     0.102 C 
ATOM      8  O   UNL     1      -0.825  13.328  -9.609  1.00  0.00    -0.544 OA
ATOM      9  O   UNL     1      -0.254  11.399  -8.514  1.00  0.00    -0.544 OA
ENDBRANCH   2   7
ENDBRANCH   1   2
BRANCH   1  10
ATOM     10  O   UNL     1       2.298  12.879  -9.225  1.00  0.00    -0.390 OA
ATOM     11  H   UNL     1       3.261  12.639  -9.186  1.00  0.00     0.210 HD
ENDBRANCH   1  10
TORSDOF 4
ENDMDL
MODEL 5
REMARK VINA RESULT:    -2.661      2.532      3.640
REMARK INTER + INTRA:          -3.511
REMARK INTER:                  -3.170
REMARK INTRA:                  -0.342
REMARK UNBOUND:                -0.384
REMARK SMILES [NH3+][C@@H](CO)C(=O)[O-]
REMARK SMILES IDX 3 1 2 2 1 3 5 7 6 8 7 9 4 10
REMARK H PARENT 1 4 1 5 1 6 4 11
REMARK Flexibility Score: inf
ROOT
ATOM      1  C   UNL     1      -0.379  12.277  -7.750  1.00  0.00     0.227 C 
ENDROOT
BRANCH   1   2
ATOM      2  C   UNL     1       0.711  13.323  -7.452  1.00  0.00     0.253 C 
BRANCH   2   3
ATOM      3  N   UNL     1       0.125  14.517  -6.833  1.00  0.00    -0.348 N 
ATOM      4  H   UNL     1      -0.781  14.267  -6.371  1.00  0.00     0.345 HD
ATOM      5  H   UNL     1      -0.071  15.236  -7.567  1.00  0.00     0.345 HD
ATOM      6  H   UNL     1       0.774  14.922  -6.120  1.00  0.00     0.345 HD
ENDBRANCH   2   3
BRANCH   2   7
ATOM      7  C   UNL     1       1.444  13.694  -8.714  1.00  0.00     0.102 C 
ATOM      8  O   UNL     1       1.094  14.708  -9.374  1.00  0.00    -0.544 OA
ATOM      9  O   UNL     1       2.519  12.929  -9.152  1.00  0.00    -0.544 OA
ENDBRANCH   2   7
ENDBRANCH   1   2
BRANCH   1  10
ATOM     10  O   UNL     1      -0.184  11.700  -9.014  1.00  0.00    -0.390 OA
ATOM     11  H   UNL     1      -0.509  10.764  -8.952  1.00  0.00     0.210 HD
ENDBRANCH   1  10
TORSDOF 4
ENDMDL
MODEL 6
REMARK VINA RESULT:    -2.579      9.901     10.720
REMARK INTER + INTRA:          -3.415
REMARK INTER:                  -3.048
REMARK INTRA:                  -0.367
REMARK UNBOUND:                -0.384
REMARK SMILES [NH3+][C@@H](CO)C(=O)[O-]
REMARK SMILES IDX 3 1 2 2 1 3 5 7 6 8 7 9 4 10
REMARK H PARENT 1 4 1 5 1 6 4 11
REMARK Flexibility Score: inf
ROOT
ATOM      1  C   UNL     1       2.057   2.658 -11.419  1.00  0.00     0.227 C 
ENDROOT
BRANCH   1   2
ATOM      2  C   UNL     1       1.213   3.646 -10.593  1.00  0.00     0.253 C 
BRANCH   2   3
ATOM      3  N   UNL     1       0.366   4.460 -11.472  1.00  0.00    -0.348 N 
ATOM      4  H   UNL     1       0.730   5.442 -11.502  1.00  0.00     0.345 HD
ATOM      5  H   UNL     1      -0.611   4.485 -11.098  1.00  0.00     0.345 HD
ATOM      6  H   UNL     1       0.353   4.069 -12.442  1.00  0.00     0.345 HD
ENDBRANCH   2   3
BRANCH   2   7
ATOM      7  C   UNL     1       2.102   4.529  -9.759  1.00  0.00     0.102 C 
ATOM      8  O   UNL     1       2.295   4.266  -8.542  1.00  0.00    -0.544 OA
ATOM      9  O   UNL     1       2.725   5.635 -10.327  1.00  0.00    -0.544 OA
ENDBRANCH   2   7
ENDBRANCH   1   2
BRANCH   1  10
ATOM     10  O   UNL     1       3.426   2.923 -11.267  1.00  0.00    -0.390 OA
ATOM     11  H   UNL     1       3.502   3.873 -10.987  1.00  0.00     0.210 HD
ENDBRANCH   1  10
TORSDOF 4
ENDMDL
MODEL 7
REMARK VINA RESULT:    -2.569      3.909      4.742
REMARK INTER + INTRA:          -3.404
REMARK INTER:                  -3.004
REMARK INTRA:                  -0.400
REMARK UNBOUND:                -0.384
REMARK SMILES [NH3+][C@@H](CO)C(=O)[O-]
REMARK SMILES IDX 3 1 2 2 1 3 5 7 6 8 7 9 4 10
REMARK H PARENT 1 4 1 5 1 6 4 11
REMARK Flexibility Score: inf
ROOT
ATOM      1  C   UNL     1      -1.561  14.484  -8.468  1.00  0.00     0.227 C 
ENDROOT
BRANCH   1   2
ATOM      2  C   UNL     1      -0.854  13.627  -9.535  1.00  0.00     0.253 C 
BRANCH   2   3
ATOM      3  N   UNL     1      -1.835  12.880 -10.329  1.00  0.00    -0.348 N 
ATOM      4  H   UNL     1      -1.349  12.374 -11.107  1.00  0.00     0.345 HD
ATOM      5  H   UNL     1      -2.527  13.541 -10.751  1.00  0.00     0.345 HD
ATOM      6  H   UNL     1      -2.343  12.185  -9.734  1.00  0.00     0.345 HD
ENDBRANCH   2   3
BRANCH   2   7
ATOM      7  C   UNL     1       0.124  12.683  -8.889  1.00  0.00     0.102 C 
ATOM      8  O   UNL     1       1.327  13.023  -8.736  1.00  0.00    -0.544 OA
ATOM      9  O   UNL     1      -0.294  11.433  -8.446  1.00  0.00    -0.544 OA
ENDBRANCH   2   7
ENDBRANCH   1   2
BRANCH   1  10
ATOM     10  O   UNL     1      -1.098  14.163  -7.184  1.00  0.00    -0.390 OA
ATOM     11  H   UNL     1      -1.870  13.779  -6.691  1.00  0.00     0.210 HD
ENDBRANCH   1  10
TORSDOF 4
ENDMDL
MODEL 8
REMARK VINA RESULT:    -2.488      9.729     10.574
REMARK INTER + INTRA:          -3.308
REMARK INTER:                  -3.299
REMARK INTRA:                  -0.009
REMARK UNBOUND:                -0.384
REMARK SMILES [NH3+][C@@H](CO)C(=O)[O-]
REMARK SMILES IDX 3 1 2 2 1 3 5 7 6 8 7 9 4 10
REMARK H PARENT 1 4 1 5 1 6 4 11
REMARK Flexibility Score: inf
ROOT
ATOM      1  C   UNL     1       2.349   4.755  -9.594  1.00  0.00     0.227 C 
ENDROOT
BRANCH   1   2
ATOM      2  C   UNL     1       1.208   3.906 -10.183  1.00  0.00     0.253 C 
BRANCH   2   3
ATOM      3  N   UNL     1       0.503   4.648 -11.234  1.00  0.00    -0.348 N 
ATOM      4  H   UNL     1       0.280   5.614 -10.897  1.00  0.00     0.345 HD
ATOM      5  H   UNL     1      -0.397   4.167 -11.465  1.00  0.00     0.345 HD
ATOM      6  H   UNL     1       1.088   4.712 -12.099  1.00  0.00     0.345 HD
ENDBRANCH   2   3
BRANCH   2   7
ATOM      7  C   UNL     1       0.246   3.492  -9.101  1.00  0.00     0.102 C 
ATOM      8  O   UNL     1       0.352   2.360  -8.560  1.00  0.00    -0.544 OA
ATOM      9  O   UNL     1      -0.757   4.359  -8.685  1.00  0.00    -0.544 OA
ENDBRANCH   2   7
ENDBRANCH   1   2
BRANCH   1  10
ATOM     10  O   UNL     1       2.622   5.860 -10.414  1.00  0.00    -0.390 OA
ATOM     11  H   UNL     1       3.585   6.070 -10.297  1.00  0.00     0.210 HD
ENDBRANCH   1  10
TORSDOF 4
ENDMDL
MODEL 9
REMARK VINA RESULT:    -2.474      9.915     10.448
REMARK INTER + INTRA:          -3.292
REMARK INTER:                  -2.958
REMARK INTRA:                  -0.334
REMARK UNBOUND:                -0.384
REMARK SMILES [NH3+][C@@H](CO)C(=O)[O-]
REMARK SMILES IDX 3 1 2 2 1 3 5 7 6 8 7 9 4 10
REMARK H PARENT 1 4 1 5 1 6 4 11
REMARK Flexibility Score: inf
ROOT
ATOM      1  C   UNL     1       0.338   3.983  -9.393  1.00  0.00     0.227 C 
ENDROOT
BRANCH   1   2
ATOM      2  C   UNL     1       1.757   3.555  -8.974  1.00  0.00     0.253 C 
BRANCH   2   3
ATOM      3  N   UNL     1       2.074   4.061  -7.635  1.00  0.00    -0.348 N 
ATOM      4  H   UNL     1       1.761   3.371  -6.912  1.00  0.00     0.345 HD
ATOM      5  H   UNL     1       1.568   4.961  -7.467  1.00  0.00     0.345 HD
ATOM      6  H   UNL     1       3.103   4.222  -7.532  1.00  0.00     0.345 HD
ENDBRANCH   2   3
BRANCH   2   7
ATOM      7  C   UNL     1       2.772   4.046  -9.972  1.00  0.00     0.102 C 
ATOM      8  O   UNL     1       3.113   3.315 -10.940  1.00  0.00    -0.544 OA
ATOM      9  O   UNL     1       3.332   5.311  -9.839  1.00  0.00    -0.544 OA
ENDBRANCH   2   7
ENDBRANCH   1   2
BRANCH   1  10
ATOM     10  O   UNL     1       0.388   5.054 -10.298  1.00  0.00    -0.390 OA
ATOM     11  H   UNL     1       1.311   5.074 -10.664  1.00  0.00     0.210 HD
ENDBRANCH   1  10
TORSDOF 4
ENDMDL
