MODEL 1
REMARK VINA RESULT:    -5.499      0.000      0.000
REMARK INTER + INTRA:          -9.196
REMARK INTER:                  -8.713
REMARK INTRA:                  -0.483
REMARK UNBOUND:                -0.483
REMARK SMILES CCCCCCCCCCCC(=O)[O-]
REMARK SMILES IDX 7 1 8 2 9 3 10 4 11 5 12 6 13 7 14 8 6 9 5 10 4 11 3 12 2 13
REMARK SMILES IDX 1 14
REMARK H PARENT
REMARK Flexibility Score: inf
ROOT
ATOM      1  C   UNL     1     -11.691  -0.275  -9.979  1.00  0.00     0.000 C 
ENDROOT
BRANCH   1   2
ATOM      2  C   UNL     1     -10.707  -1.433 -10.206  1.00  0.00     0.000 C 
BRANCH   2   3
ATOM      3  C   UNL     1     -11.030  -2.614  -9.279  1.00  0.00     0.000 C 
BRANCH   3   4
ATOM      4  C   UNL     1     -10.331  -3.914  -9.709  1.00  0.00     0.006 C 
BRANCH   4   5
ATOM      5  C   UNL     1      -9.413  -4.479  -8.617  1.00  0.00     0.053 C 
BRANCH   5   6
ATOM      6  C   UNL     1     -10.202  -5.296  -7.643  1.00  0.00     0.041 C 
ATOM      7  O   UNL     1     -10.398  -6.521  -7.857  1.00  0.00    -0.550 OA
ATOM      8  O   UNL     1     -10.680  -4.715  -6.475  1.00  0.00    -0.550 OA
ENDBRANCH   5   6
ENDBRANCH   4   5
ENDBRANCH   3   4
ENDBRANCH   2   3
ENDBRANCH   1   2
BRANCH   1   9
ATOM      9  C   UNL     1     -13.136  -0.636 -10.363  1.00  0.00     0.000 C 
BRANCH   9  10
ATOM     10  C   UNL     1     -14.145   0.449  -9.948  1.00  0.00    -0.000 C 
BRANCH  10  11
ATOM     11  C   UNL     1     -13.465   1.779  -9.586  1.00  0.00    -0.000 C 
BRANCH  11  12
ATOM     12  C   UNL     1     -14.429   2.777  -8.918  1.00  0.00    -0.000 C 
BRANCH  12  13
ATOM     13  C   UNL     1     -13.693   3.953  -8.258  1.00  0.00    -0.003 C 
ATOM     14  C   UNL     1     -12.180   3.899  -8.476  1.00  0.00     0.004 C 
ENDBRANCH  12  13
ENDBRANCH  11  12
ENDBRANCH  10  11
ENDBRANCH   9  10
ENDBRANCH   1   9
TORSDOF 10
ENDMDL
MODEL 2
REMARK VINA RESULT:    -5.463      1.032      1.632
REMARK INTER + INTRA:          -9.140
REMARK INTER:                  -8.577
REMARK INTRA:                  -0.563
REMARK UNBOUND:                -0.483
REMARK SMILES CCCCCCCCCCCC(=O)[O-]
REMARK SMILES IDX 7 1 8 2 9 3 10 4 11 5 12 6 13 7 14 8 6 9 5 10 4 11 3 12 2 13
REMARK SMILES IDX 1 14
REMARK H PARENT
REMARK Flexibility Score: inf
ROOT
ATOM      1  C   UNL     1     -13.174  -1.315 -10.384  1.00  0.00     0.000 C 
ENDROOT
BRANCH   1   2
ATOM      2  C   UNL     1     -12.027  -0.346 -10.057  1.00  0.00     0.000 C 
BRANCH   2   3
ATOM      3  C   UNL     1     -10.674  -1.070 -10.085  1.00  0.00     0.000 C 
BRANCH   3   4
ATOM      4  C   UNL     1     -10.780  -2.544  -9.662  1.00  0.00     0.006 C 
BRANCH   4   5
ATOM      5  C   UNL     1     -10.349  -2.773  -8.208  1.00  0.00     0.053 C 
BRANCH   5   6
ATOM      6  C   UNL     1     -10.691  -4.165  -7.776  1.00  0.00     0.041 C 
ATOM      7  O   UNL     1     -10.791  -4.441  -6.552  1.00  0.00    -0.550 OA
ATOM      8  O   UNL     1     -10.946  -5.145  -8.726  1.00  0.00    -0.550 OA
ENDBRANCH   5   6
ENDBRANCH   4   5
ENDBRANCH   3   4
ENDBRANCH   2   3
ENDBRANCH   1   2
BRANCH   1   9
ATOM      9  C   UNL     1     -14.479  -0.590 -10.753  1.00  0.00     0.000 C 
BRANCH   9  10
ATOM     10  C   UNL     1     -15.018   0.278  -9.602  1.00  0.00    -0.000 C 
BRANCH  10  11
ATOM     11  C   UNL     1     -15.075   1.770  -9.968  1.00  0.00    -0.000 C 
BRANCH  11  12
ATOM     12  C   UNL     1     -14.341   2.660  -8.949  1.00  0.00    -0.000 C 
BRANCH  12  13
ATOM     13  C   UNL     1     -12.851   2.832  -9.283  1.00  0.00    -0.003 C 
ATOM     14  C   UNL     1     -12.172   3.895  -8.418  1.00  0.00     0.004 C 
ENDBRANCH  12  13
ENDBRANCH  11  12
ENDBRANCH  10  11
ENDBRANCH   9  10
ENDBRANCH   1   9
TORSDOF 10
ENDMDL
MODEL 3
REMARK VINA RESULT:    -5.366      1.173      1.430
REMARK INTER + INTRA:          -8.987
REMARK INTER:                  -8.436
REMARK INTRA:                  -0.551
REMARK UNBOUND:                -0.483
REMARK SMILES CCCCCCCCCCCC(=O)[O-]
REMARK SMILES IDX 7 1 8 2 9 3 10 4 11 5 12 6 13 7 14 8 6 9 5 10 4 11 3 12 2 13
REMARK SMILES IDX 1 14
REMARK H PARENT
REMARK Flexibility Score: inf
ROOT
ATOM      1  C   UNL     1     -11.006  -0.717  -9.292  1.00  0.00     0.000 C 
ENDROOT
BRANCH   1   2
ATOM      2  C   UNL     1     -10.524  -2.108  -8.851  1.00  0.00     0.000 C 
BRANCH   2   3
ATOM      3  C   UNL     1     -11.447  -3.206  -9.401  1.00  0.00     0.000 C 
BRANCH   3   4
ATOM      4  C   UNL     1     -11.163  -4.584  -8.782  1.00  0.00     0.006 C 
BRANCH   4   5
ATOM      5  C   UNL     1     -10.656  -4.490  -7.338  1.00  0.00     0.053 C 
BRANCH   5   6
ATOM      6  C   UNL     1     -11.411  -5.435  -6.457  1.00  0.00     0.041 C 
ATOM      7  O   UNL     1     -11.032  -5.637  -5.274  1.00  0.00    -0.550 OA
ATOM      8  O   UNL     1     -12.561  -6.056  -6.927  1.00  0.00    -0.550 OA
ENDBRANCH   5   6
ENDBRANCH   4   5
ENDBRANCH   3   4
ENDBRANCH   2   3
ENDBRANCH   1   2
BRANCH   1   9
ATOM      9  C   UNL     1     -12.059  -0.778 -10.411  1.00  0.00     0.000 C 
BRANCH   9  10
ATOM     10  C   UNL     1     -13.274   0.123 -10.127  1.00  0.00    -0.000 C 
BRANCH  10  11
ATOM     11  C   UNL     1     -12.894   1.400  -9.360  1.00  0.00    -0.000 C 
BRANCH  11  12
ATOM     12  C   UNL     1     -14.040   2.426  -9.311  1.00  0.00    -0.000 C 
BRANCH  12  13
ATOM     13  C   UNL     1     -13.662   3.694  -8.529  1.00  0.00    -0.003 C 
ATOM     14  C   UNL     1     -12.149   3.869  -8.388  1.00  0.00     0.004 C 
ENDBRANCH  12  13
ENDBRANCH  11  12
ENDBRANCH  10  11
ENDBRANCH   9  10
ENDBRANCH   1   9
TORSDOF 10
ENDMDL
MODEL 4
REMARK VINA RESULT:    -5.318      3.676      7.153
REMARK INTER + INTRA:          -8.910
REMARK INTER:                  -8.371
REMARK INTRA:                  -0.539
REMARK UNBOUND:                -0.483
REMARK SMILES CCCCCCCCCCCC(=O)[O-]
REMARK SMILES IDX 7 1 8 2 9 3 10 4 11 5 12 6 13 7 14 8 6 9 5 10 4 11 3 12 2 13
REMARK SMILES IDX 1 14
REMARK H PARENT
REMARK Flexibility Score: inf
ROOT
ATOM      1  C   UNL     1     -12.271  -0.174 -10.040  1.00  0.00     0.000 C 
ENDROOT
BRANCH   1   2
ATOM      2  C   UNL     1     -13.544  -0.938 -10.440  1.00  0.00     0.000 C 
BRANCH   2   3
ATOM      3  C   UNL     1     -14.742   0.016 -10.548  1.00  0.00     0.000 C 
BRANCH   3   4
ATOM      4  C   UNL     1     -14.918   0.893  -9.299  1.00  0.00     0.006 C 
BRANCH   4   5
ATOM      5  C   UNL     1     -14.942   2.391  -9.628  1.00  0.00     0.053 C 
BRANCH   5   6
ATOM      6  C   UNL     1     -13.866   3.109  -8.875  1.00  0.00     0.041 C 
ATOM      7  O   UNL     1     -12.688   3.129  -9.319  1.00  0.00    -0.550 OA
ATOM      8  O   UNL     1     -14.174   3.796  -7.708  1.00  0.00    -0.550 OA
ENDBRANCH   5   6
ENDBRANCH   4   5
ENDBRANCH   3   4
ENDBRANCH   2   3
ENDBRANCH   1   2
BRANCH   1   9
ATOM      9  C   UNL     1     -10.989  -0.991 -10.270  1.00  0.00     0.000 C 
BRANCH   9  10
ATOM     10  C   UNL     1     -10.700  -1.973  -9.121  1.00  0.00    -0.000 C 
BRANCH  10  11
ATOM     11  C   UNL     1     -10.575  -3.426  -9.606  1.00  0.00    -0.000 C 
BRANCH  11  12
ATOM     12  C   UNL     1     -11.215  -4.434  -8.634  1.00  0.00    -0.000 C 
BRANCH  12  13
ATOM     13  C   UNL     1     -10.702  -4.270  -7.194  1.00  0.00    -0.003 C 
ATOM     14  C   UNL     1     -11.245  -5.343  -6.250  1.00  0.00     0.004 C 
ENDBRANCH  12  13
ENDBRANCH  11  12
ENDBRANCH  10  11
ENDBRANCH   9  10
ENDBRANCH   1   9
TORSDOF 10
ENDMDL
MODEL 5
REMARK VINA RESULT:    -5.283      3.724      7.403
REMARK INTER + INTRA:          -8.854
REMARK INTER:                  -8.402
REMARK INTRA:                  -0.452
REMARK UNBOUND:                -0.483
REMARK SMILES CCCCCCCCCCCC(=O)[O-]
REMARK SMILES IDX 7 1 8 2 9 3 10 4 11 5 12 6 13 7 14 8 6 9 5 10 4 11 3 12 2 13
REMARK SMILES IDX 1 14
REMARK H PARENT
REMARK Flexibility Score: inf
ROOT
ATOM      1  C   UNL     1     -11.050  -0.774  -9.902  1.00  0.00     0.000 C 
ENDROOT
BRANCH   1   2
ATOM      2  C   UNL     1     -12.499  -0.912 -10.394  1.00  0.00     0.000 C 
BRANCH   2   3
ATOM      3  C   UNL     1     -13.335   0.310  -9.984  1.00  0.00     0.000 C 
BRANCH   3   4
ATOM      4  C   UNL     1     -12.499   1.392  -9.283  1.00  0.00     0.006 C 
BRANCH   4   5
ATOM      5  C   UNL     1     -13.169   2.772  -9.321  1.00  0.00     0.053 C 
BRANCH   5   6
ATOM      6  C   UNL     1     -12.614   3.651  -8.244  1.00  0.00     0.041 C 
ATOM      7  O   UNL     1     -13.388   4.223  -7.433  1.00  0.00    -0.550 OA
ATOM      8  O   UNL     1     -11.240   3.799  -8.106  1.00  0.00    -0.550 OA
ENDBRANCH   5   6
ENDBRANCH   4   5
ENDBRANCH   3   4
ENDBRANCH   2   3
ENDBRANCH   1   2
BRANCH   1   9
ATOM      9  C   UNL     1     -10.639  -1.897  -8.936  1.00  0.00     0.000 C 
BRANCH   9  10
ATOM     10  C   UNL     1     -10.125  -3.148  -9.669  1.00  0.00    -0.000 C 
BRANCH  10  11
ATOM     11  C   UNL     1     -10.727  -4.447  -9.111  1.00  0.00    -0.000 C 
BRANCH  11  12
ATOM     12  C   UNL     1     -10.873  -4.424  -7.579  1.00  0.00    -0.000 C 
BRANCH  12  13
ATOM     13  C   UNL     1     -10.807  -5.830  -6.960  1.00  0.00    -0.003 C 
ATOM     14  C   UNL     1     -11.314  -5.863  -5.518  1.00  0.00     0.004 C 
ENDBRANCH  12  13
ENDBRANCH  11  12
ENDBRANCH  10  11
ENDBRANCH   9  10
ENDBRANCH   1   9
TORSDOF 10
ENDMDL
MODEL 6
REMARK VINA RESULT:    -5.066      1.857      3.570
REMARK INTER + INTRA:          -8.511
REMARK INTER:                  -7.975
REMARK INTRA:                  -0.535
REMARK UNBOUND:                -0.483
REMARK SMILES CCCCCCCCCCCC(=O)[O-]
REMARK SMILES IDX 7 1 8 2 9 3 10 4 11 5 12 6 13 7 14 8 6 9 5 10 4 11 3 12 2 13
REMARK SMILES IDX 1 14
REMARK H PARENT
REMARK Flexibility Score: inf
ROOT
ATOM      1  C   UNL     1      -9.942  -3.413  -9.598  1.00  0.00     0.000 C 
ENDROOT
BRANCH   1   2
ATOM      2  C   UNL     1     -10.128  -4.747  -8.860  1.00  0.00     0.000 C 
BRANCH   2   3
ATOM      3  C   UNL     1     -11.212  -4.628  -7.778  1.00  0.00     0.000 C 
BRANCH   3   4
ATOM      4  C   UNL     1     -10.742  -5.140  -6.407  1.00  0.00     0.006 C 
BRANCH   4   5
ATOM      5  C   UNL     1     -11.887  -5.725  -5.572  1.00  0.00     0.053 C 
BRANCH   5   6
ATOM      6  C   UNL     1     -11.840  -7.221  -5.598  1.00  0.00     0.041 C 
ATOM      7  O   UNL     1     -12.803  -7.893  -5.144  1.00  0.00    -0.550 OA
ATOM      8  O   UNL     1     -10.754  -7.873  -6.168  1.00  0.00    -0.550 OA
ENDBRANCH   5   6
ENDBRANCH   4   5
ENDBRANCH   3   4
ENDBRANCH   2   3
ENDBRANCH   1   2
BRANCH   1   9
ATOM      9  C   UNL     1     -11.223  -2.562  -9.623  1.00  0.00     0.000 C 
BRANCH   9  10
ATOM     10  C   UNL     1     -10.932  -1.055  -9.515  1.00  0.00    -0.000 C 
BRANCH  10  11
ATOM     11  C   UNL     1     -12.055  -0.194 -10.117  1.00  0.00    -0.000 C 
BRANCH  11  12
ATOM     12  C   UNL     1     -13.342  -0.996 -10.380  1.00  0.00    -0.000 C 
BRANCH  12  13
ATOM     13  C   UNL     1     -14.585  -0.097 -10.483  1.00  0.00    -0.003 C 
ATOM     14  C   UNL     1     -14.484   1.150  -9.604  1.00  0.00     0.004 C 
ENDBRANCH  12  13
ENDBRANCH  11  12
ENDBRANCH  10  11
ENDBRANCH   9  10
ENDBRANCH   1   9
TORSDOF 10
ENDMDL
MODEL 7
REMARK VINA RESULT:    -4.951      3.439      7.387
REMARK INTER + INTRA:          -8.328
REMARK INTER:                  -7.615
REMARK INTRA:                  -0.713
REMARK UNBOUND:                -0.483
REMARK SMILES CCCCCCCCCCCC(=O)[O-]
REMARK SMILES IDX 7 1 8 2 9 3 10 4 11 5 12 6 13 7 14 8 6 9 5 10 4 11 3 12 2 13
REMARK SMILES IDX 1 14
REMARK H PARENT
REMARK Flexibility Score: inf
ROOT
ATOM      1  C   UNL     1     -10.286  -3.806  -7.761  1.00  0.00     0.000 C 
ENDROOT
BRANCH   1   2
ATOM      2  C   UNL     1     -10.271  -2.344  -8.235  1.00  0.00     0.000 C 
BRANCH   2   3
ATOM      3  C   UNL     1     -10.883  -2.217  -9.638  1.00  0.00     0.000 C 
BRANCH   3   4
ATOM      4  C   UNL     1     -11.277  -0.772  -9.985  1.00  0.00     0.006 C 
BRANCH   4   5
ATOM      5  C   UNL     1     -12.750  -0.643 -10.393  1.00  0.00     0.053 C 
BRANCH   5   6
ATOM      6  C   UNL     1     -13.336   0.618  -9.839  1.00  0.00     0.041 C 
ATOM      7  O   UNL     1     -14.584   0.785  -9.829  1.00  0.00    -0.550 OA
ATOM      8  O   UNL     1     -12.507   1.587  -9.289  1.00  0.00    -0.550 OA
ENDBRANCH   5   6
ENDBRANCH   4   5
ENDBRANCH   3   4
ENDBRANCH   2   3
ENDBRANCH   1   2
BRANCH   1   9
ATOM      9  C   UNL     1     -10.204  -4.810  -8.923  1.00  0.00     0.000 C 
BRANCH   9  10
ATOM     10  C   UNL     1     -11.315  -5.872  -8.865  1.00  0.00    -0.000 C 
BRANCH  10  11
ATOM     11  C   UNL     1     -10.783  -7.259  -8.471  1.00  0.00    -0.000 C 
BRANCH  11  12
ATOM     12  C   UNL     1     -10.789  -7.488  -6.949  1.00  0.00    -0.000 C 
BRANCH  12  13
ATOM     13  C   UNL     1     -12.057  -6.936  -6.276  1.00  0.00    -0.003 C 
ATOM     14  C   UNL     1     -11.744  -5.987  -5.118  1.00  0.00     0.004 C 
ENDBRANCH  12  13
ENDBRANCH  11  12
ENDBRANCH  10  11
ENDBRANCH   9  10
ENDBRANCH   1   9
TORSDOF 10
ENDMDL
MODEL 8
REMARK VINA RESULT:    -4.891      3.458      7.487
REMARK INTER + INTRA:          -8.233
REMARK INTER:                  -7.504
REMARK INTRA:                  -0.729
REMARK UNBOUND:                -0.483
REMARK SMILES CCCCCCCCCCCC(=O)[O-]
REMARK SMILES IDX 7 1 8 2 9 3 10 4 11 5 12 6 13 7 14 8 6 9 5 10 4 11 3 12 2 13
REMARK SMILES IDX 1 14
REMARK H PARENT
REMARK Flexibility Score: inf
ROOT
ATOM      1  C   UNL     1     -10.308  -4.331  -9.326  1.00  0.00     0.000 C 
ENDROOT
BRANCH   1   2
ATOM      2  C   UNL     1     -10.094  -2.978 -10.022  1.00  0.00     0.000 C 
BRANCH   2   3
ATOM      3  C   UNL     1     -10.747  -1.841  -9.222  1.00  0.00     0.000 C 
BRANCH   3   4
ATOM      4  C   UNL     1     -11.187  -0.667 -10.110  1.00  0.00     0.006 C 
BRANCH   4   5
ATOM      5  C   UNL     1     -12.690  -0.689 -10.416  1.00  0.00     0.053 C 
BRANCH   5   6
ATOM      6  C   UNL     1     -13.354   0.531  -9.858  1.00  0.00     0.041 C 
ATOM      7  O   UNL     1     -14.610   0.605  -9.816  1.00  0.00    -0.550 OA
ATOM      8  O   UNL     1     -12.585   1.566  -9.340  1.00  0.00    -0.550 OA
ENDBRANCH   5   6
ENDBRANCH   4   5
ENDBRANCH   3   4
ENDBRANCH   2   3
ENDBRANCH   1   2
BRANCH   1   9
ATOM      9  C   UNL     1     -11.306  -4.249  -8.158  1.00  0.00     0.000 C 
BRANCH   9  10
ATOM     10  C   UNL     1     -10.640  -4.502  -6.794  1.00  0.00    -0.000 C 
BRANCH  10  11
ATOM     11  C   UNL     1     -11.300  -5.655  -6.022  1.00  0.00    -0.000 C 
BRANCH  11  12
ATOM     12  C   UNL     1     -10.590  -7.003  -6.244  1.00  0.00    -0.000 C 
BRANCH  12  13
ATOM     13  C   UNL     1     -11.451  -7.999  -7.037  1.00  0.00    -0.003 C 
ATOM     14  C   UNL     1     -11.128  -7.999  -8.531  1.00  0.00     0.004 C 
ENDBRANCH  12  13
ENDBRANCH  11  12
ENDBRANCH  10  11
ENDBRANCH   9  10
ENDBRANCH   1   9
TORSDOF 10
ENDMDL
MODEL 9
REMARK VINA RESULT:    -4.868      3.452      7.532
REMARK INTER + INTRA:          -8.197
REMARK INTER:                  -7.347
REMARK INTRA:                  -0.850
REMARK UNBOUND:                -0.483
REMARK SMILES CCCCCCCCCCCC(=O)[O-]
REMARK SMILES IDX 7 1 8 2 9 3 10 4 11 5 12 6 13 7 14 8 6 9 5 10 4 11 3 12 2 13
REMARK SMILES IDX 1 14
REMARK H PARENT
REMARK Flexibility Score: inf
ROOT
ATOM      1  C   UNL     1     -11.111  -4.864  -8.834  1.00  0.00     0.000 C 
ENDROOT
BRANCH   1   2
ATOM      2  C   UNL     1     -10.325  -3.948  -7.882  1.00  0.00     0.000 C 
BRANCH   2   3
ATOM      3  C   UNL     1     -10.320  -2.501  -8.396  1.00  0.00     0.000 C 
BRANCH   3   4
ATOM      4  C   UNL     1     -11.248  -2.296  -9.603  1.00  0.00     0.006 C 
BRANCH   4   5
ATOM      5  C   UNL     1     -11.100  -0.905 -10.232  1.00  0.00     0.053 C 
BRANCH   5   6
ATOM      6  C   UNL     1     -12.342  -0.099 -10.013  1.00  0.00     0.041 C 
ATOM      7  O   UNL     1     -12.304   0.943  -9.308  1.00  0.00    -0.550 OA
ATOM      8  O   UNL     1     -13.531  -0.472 -10.628  1.00  0.00    -0.550 OA
ENDBRANCH   5   6
ENDBRANCH   4   5
ENDBRANCH   3   4
ENDBRANCH   2   3
ENDBRANCH   1   2
BRANCH   1   9
ATOM      9  C   UNL     1     -10.596  -6.313  -8.826  1.00  0.00     0.000 C 
BRANCH   9  10
ATOM     10  C   UNL     1     -11.715  -7.338  -9.084  1.00  0.00    -0.000 C 
BRANCH  10  11
ATOM     11  C   UNL     1     -12.103  -8.117  -7.817  1.00  0.00    -0.000 C 
BRANCH  11  12
ATOM     12  C   UNL     1     -11.069  -7.967  -6.687  1.00  0.00    -0.000 C 
BRANCH  12  13
ATOM     13  C   UNL     1     -11.702  -7.493  -5.369  1.00  0.00    -0.003 C 
ATOM     14  C   UNL     1     -12.238  -6.064  -5.454  1.00  0.00     0.004 C 
ENDBRANCH  12  13
ENDBRANCH  11  12
ENDBRANCH  10  11
ENDBRANCH   9  10
ENDBRANCH   1   9
TORSDOF 10
ENDMDL
