MODEL 1
REMARK VINA RESULT:    -5.502      0.000      0.000
REMARK INTER + INTRA:          -5.921
REMARK INTER:                  -5.824
REMARK INTRA:                  -0.097
REMARK UNBOUND:                -0.097
REMARK SMILES C=C(C)[C@H]1CC=C(C)C(=O)C1
REMARK SMILES IDX 8 1 7 2 6 3 5 4 4 5 11 6 9 7 10 8 2 9 1 10 3 11
REMARK H PARENT
REMARK Flexibility Score: inf
ROOT
ATOM      1  C   UNL     1      15.218 -33.339  21.564  1.00  0.00     0.048 C 
ATOM      2  C   UNL     1      14.315 -32.243  22.062  1.00  0.00    -0.012 C 
ATOM      3  C   UNL     1      14.432 -31.792  23.324  1.00  0.00    -0.019 C 
ATOM      4  C   UNL     1      13.499 -30.755  23.891  1.00  0.00     0.036 C 
ATOM      5  C   UNL     1      12.995 -29.798  22.793  1.00  0.00     0.025 C 
ATOM      6  C   UNL     1      12.350 -30.598  21.645  1.00  0.00     0.089 C 
ATOM      7  C   UNL     1      13.279 -31.679  21.163  1.00  0.00     0.158 C 
ATOM      8  O   UNL     1      13.137 -32.135  19.997  1.00  0.00    -0.295 OA
ENDROOT
BRANCH   5   9
ATOM      9  C   UNL     1      12.041 -28.752  23.353  1.00  0.00    -0.077 C 
ATOM     10  C   UNL     1      10.875 -28.472  22.747  1.00  0.00     0.008 C 
ATOM     11  C   UNL     1      12.396 -28.006  24.614  1.00  0.00     0.039 C 
ENDBRANCH   5   9
TORSDOF 1
ENDMDL
MODEL 2
REMARK VINA RESULT:    -5.353      1.633      2.316
REMARK INTER + INTRA:          -5.763
REMARK INTER:                  -5.668
REMARK INTRA:                  -0.095
REMARK UNBOUND:                -0.097
REMARK SMILES C=C(C)[C@H]1CC=C(C)C(=O)C1
REMARK SMILES IDX 8 1 7 2 6 3 5 4 4 5 11 6 9 7 10 8 2 9 1 10 3 11
REMARK H PARENT
REMARK Flexibility Score: inf
ROOT
ATOM      1  C   UNL     1      13.846 -32.481  20.514  1.00  0.00     0.048 C 
ATOM      2  C   UNL     1      13.400 -31.269  21.285  1.00  0.00    -0.012 C 
ATOM      3  C   UNL     1      12.090 -31.030  21.470  1.00  0.00    -0.019 C 
ATOM      4  C   UNL     1      11.594 -29.789  22.165  1.00  0.00     0.036 C 
ATOM      5  C   UNL     1      12.606 -29.299  23.219  1.00  0.00     0.025 C 
ATOM      6  C   UNL     1      13.990 -29.094  22.576  1.00  0.00     0.089 C 
ATOM      7  C   UNL     1      14.412 -30.325  21.820  1.00  0.00     0.158 C 
ATOM      8  O   UNL     1      15.638 -30.523  21.606  1.00  0.00    -0.295 OA
ENDROOT
BRANCH   5   9
ATOM      9  C   UNL     1      12.120 -28.037  23.920  1.00  0.00    -0.077 C 
ATOM     10  C   UNL     1      12.723 -27.578  25.030  1.00  0.00     0.008 C 
ATOM     11  C   UNL     1      10.941 -27.275  23.372  1.00  0.00     0.039 C 
ENDBRANCH   5   9
TORSDOF 1
ENDMDL
MODEL 3
REMARK VINA RESULT:    -5.279      0.517      1.166
REMARK INTER + INTRA:          -5.685
REMARK INTER:                  -5.591
REMARK INTRA:                  -0.094
REMARK UNBOUND:                -0.097
REMARK SMILES C=C(C)[C@H]1CC=C(C)C(=O)C1
REMARK SMILES IDX 8 1 7 2 6 3 5 4 4 5 11 6 9 7 10 8 2 9 1 10 3 11
REMARK H PARENT
REMARK Flexibility Score: inf
ROOT
ATOM      1  C   UNL     1      15.632 -33.658  21.763  1.00  0.00     0.048 C 
ATOM      2  C   UNL     1      14.655 -32.583  22.157  1.00  0.00    -0.012 C 
ATOM      3  C   UNL     1      14.643 -32.109  23.415  1.00  0.00    -0.019 C 
ATOM      4  C   UNL     1      13.632 -31.092  23.876  1.00  0.00     0.036 C 
ATOM      5  C   UNL     1      13.201 -30.170  22.719  1.00  0.00     0.025 C 
ATOM      6  C   UNL     1      12.688 -31.008  21.533  1.00  0.00     0.089 C 
ATOM      7  C   UNL     1      13.688 -32.067  21.157  1.00  0.00     0.158 C 
ATOM      8  O   UNL     1      13.666 -32.546  19.992  1.00  0.00    -0.295 OA
ENDROOT
BRANCH   5   9
ATOM      9  C   UNL     1      12.170 -29.146  23.171  1.00  0.00    -0.077 C 
ATOM     10  C   UNL     1      12.385 -28.362  24.241  1.00  0.00     0.008 C 
ATOM     11  C   UNL     1      10.875 -28.994  22.414  1.00  0.00     0.039 C 
ENDBRANCH   5   9
TORSDOF 1
ENDMDL
MODEL 4
REMARK VINA RESULT:    -5.245      1.635      2.456
REMARK INTER + INTRA:          -5.649
REMARK INTER:                  -5.552
REMARK INTRA:                  -0.097
REMARK UNBOUND:                -0.097
REMARK SMILES C=C(C)[C@H]1CC=C(C)C(=O)C1
REMARK SMILES IDX 8 1 7 2 6 3 5 4 4 5 11 6 9 7 10 8 2 9 1 10 3 11
REMARK H PARENT
REMARK Flexibility Score: inf
ROOT
ATOM      1  C   UNL     1      15.338 -34.153  21.357  1.00  0.00     0.048 C 
ATOM      2  C   UNL     1      14.613 -32.905  21.784  1.00  0.00    -0.012 C 
ATOM      3  C   UNL     1      13.876 -32.215  20.897  1.00  0.00    -0.019 C 
ATOM      4  C   UNL     1      13.198 -30.919  21.257  1.00  0.00     0.036 C 
ATOM      5  C   UNL     1      12.807 -30.890  22.747  1.00  0.00     0.025 C 
ATOM      6  C   UNL     1      14.039 -31.170  23.628  1.00  0.00     0.089 C 
ATOM      7  C   UNL     1      14.736 -32.426  23.183  1.00  0.00     0.158 C 
ATOM      8  O   UNL     1      15.467 -33.045  24.002  1.00  0.00    -0.295 OA
ENDROOT
BRANCH   5   9
ATOM      9  C   UNL     1      12.132 -29.579  23.126  1.00  0.00    -0.077 C 
ATOM     10  C   UNL     1      12.631 -28.788  24.092  1.00  0.00     0.008 C 
ATOM     11  C   UNL     1      10.878 -29.142  22.412  1.00  0.00     0.039 C 
ENDBRANCH   5   9
TORSDOF 1
ENDMDL
MODEL 5
REMARK VINA RESULT:    -5.175      2.226      4.890
REMARK INTER + INTRA:          -5.574
REMARK INTER:                  -5.478
REMARK INTRA:                  -0.096
REMARK UNBOUND:                -0.097
REMARK SMILES C=C(C)[C@H]1CC=C(C)C(=O)C1
REMARK SMILES IDX 8 1 7 2 6 3 5 4 4 5 11 6 9 7 10 8 2 9 1 10 3 11
REMARK H PARENT
REMARK Flexibility Score: inf
ROOT
ATOM      1  C   UNL     1      10.875 -26.922  23.396  1.00  0.00     0.048 C 
ATOM      2  C   UNL     1      11.588 -28.244  23.301  1.00  0.00    -0.012 C 
ATOM      3  C   UNL     1      11.207 -29.153  22.387  1.00  0.00    -0.019 C 
ATOM      4  C   UNL     1      11.836 -30.519  22.308  1.00  0.00     0.036 C 
ATOM      5  C   UNL     1      13.307 -30.482  22.767  1.00  0.00     0.025 C 
ATOM      6  C   UNL     1      13.410 -29.872  24.178  1.00  0.00     0.089 C 
ATOM      7  C   UNL     1      12.697 -28.549  24.239  1.00  0.00     0.158 C 
ATOM      8  O   UNL     1      13.021 -27.717  25.127  1.00  0.00    -0.295 OA
ENDROOT
BRANCH   5   9
ATOM      9  C   UNL     1      13.951 -31.860  22.703  1.00  0.00    -0.077 C 
ATOM     10  C   UNL     1      14.260 -32.541  23.820  1.00  0.00     0.008 C 
ATOM     11  C   UNL     1      14.254 -32.490  21.368  1.00  0.00     0.039 C 
ENDBRANCH   5   9
TORSDOF 1
ENDMDL
MODEL 6
REMARK VINA RESULT:    -5.078      1.339      4.221
REMARK INTER + INTRA:          -5.472
REMARK INTER:                  -5.376
REMARK INTRA:                  -0.096
REMARK UNBOUND:                -0.097
REMARK SMILES C=C(C)[C@H]1CC=C(C)C(=O)C1
REMARK SMILES IDX 8 1 7 2 6 3 5 4 4 5 11 6 9 7 10 8 2 9 1 10 3 11
REMARK H PARENT
REMARK Flexibility Score: inf
ROOT
ATOM      1  C   UNL     1      10.875 -28.251  22.838  1.00  0.00     0.048 C 
ATOM      2  C   UNL     1      12.042 -29.200  22.814  1.00  0.00    -0.012 C 
ATOM      3  C   UNL     1      13.137 -28.944  23.550  1.00  0.00    -0.019 C 
ATOM      4  C   UNL     1      14.360 -29.822  23.496  1.00  0.00     0.036 C 
ATOM      5  C   UNL     1      13.983 -31.284  23.189  1.00  0.00     0.025 C 
ATOM      6  C   UNL     1      13.152 -31.360  21.894  1.00  0.00     0.089 C 
ATOM      7  C   UNL     1      11.989 -30.408  21.953  1.00  0.00     0.158 C 
ATOM      8  O   UNL     1      10.983 -30.622  21.225  1.00  0.00    -0.295 OA
ENDROOT
BRANCH   5   9
ATOM      9  C   UNL     1      15.214 -32.179  23.119  1.00  0.00    -0.077 C 
ATOM     10  C   UNL     1      16.440 -31.706  23.402  1.00  0.00     0.008 C 
ATOM     11  C   UNL     1      15.072 -33.627  22.728  1.00  0.00     0.039 C 
ENDBRANCH   5   9
TORSDOF 1
ENDMDL
MODEL 7
REMARK VINA RESULT:    -4.986      1.359      4.303
REMARK INTER + INTRA:          -5.375
REMARK INTER:                  -5.277
REMARK INTRA:                  -0.098
REMARK UNBOUND:                -0.097
REMARK SMILES C=C(C)[C@H]1CC=C(C)C(=O)C1
REMARK SMILES IDX 8 1 7 2 6 3 5 4 4 5 11 6 9 7 10 8 2 9 1 10 3 11
REMARK H PARENT
REMARK Flexibility Score: inf
ROOT
ATOM      1  C   UNL     1      11.714 -28.684  23.857  1.00  0.00     0.048 C 
ATOM      2  C   UNL     1      12.611 -29.632  23.109  1.00  0.00    -0.012 C 
ATOM      3  C   UNL     1      13.893 -29.786  23.482  1.00  0.00    -0.019 C 
ATOM      4  C   UNL     1      14.850 -30.662  22.716  1.00  0.00     0.036 C 
ATOM      5  C   UNL     1      14.113 -31.839  22.047  1.00  0.00     0.025 C 
ATOM      6  C   UNL     1      12.964 -31.317  21.165  1.00  0.00     0.089 C 
ATOM      7  C   UNL     1      12.080 -30.379  21.942  1.00  0.00     0.158 C 
ATOM      8  O   UNL     1      10.893 -30.198  21.562  1.00  0.00    -0.295 OA
ENDROOT
BRANCH   5   9
ATOM      9  C   UNL     1      15.068 -32.726  21.259  1.00  0.00    -0.077 C 
ATOM     10  C   UNL     1      14.613 -33.691  20.442  1.00  0.00     0.008 C 
ATOM     11  C   UNL     1      16.557 -32.530  21.386  1.00  0.00     0.039 C 
ENDBRANCH   5   9
TORSDOF 1
ENDMDL
MODEL 8
REMARK VINA RESULT:    -4.961      1.691      2.174
REMARK INTER + INTRA:          -5.348
REMARK INTER:                  -5.252
REMARK INTRA:                  -0.096
REMARK UNBOUND:                -0.097
REMARK SMILES C=C(C)[C@H]1CC=C(C)C(=O)C1
REMARK SMILES IDX 8 1 7 2 6 3 5 4 4 5 11 6 9 7 10 8 2 9 1 10 3 11
REMARK H PARENT
REMARK Flexibility Score: inf
ROOT
ATOM      1  C   UNL     1      15.924 -32.731  21.294  1.00  0.00     0.048 C 
ATOM      2  C   UNL     1      14.959 -31.671  21.750  1.00  0.00    -0.012 C 
ATOM      3  C   UNL     1      13.688 -31.680  21.313  1.00  0.00    -0.019 C 
ATOM      4  C   UNL     1      12.709 -30.595  21.678  1.00  0.00     0.036 C 
ATOM      5  C   UNL     1      13.024 -30.005  23.067  1.00  0.00     0.025 C 
ATOM      6  C   UNL     1      14.483 -29.517  23.121  1.00  0.00     0.089 C 
ATOM      7  C   UNL     1      15.424 -30.600  22.667  1.00  0.00     0.158 C 
ATOM      8  O   UNL     1      16.627 -30.564  23.039  1.00  0.00    -0.295 OA
ENDROOT
BRANCH   5   9
ATOM      9  C   UNL     1      12.047 -28.899  23.442  1.00  0.00    -0.077 C 
ATOM     10  C   UNL     1      10.898 -28.722  22.769  1.00  0.00     0.008 C 
ATOM     11  C   UNL     1      12.360 -27.974  24.591  1.00  0.00     0.039 C 
ENDBRANCH   5   9
TORSDOF 1
ENDMDL
MODEL 9
REMARK VINA RESULT:    -4.912      1.758      2.011
REMARK INTER + INTRA:          -5.296
REMARK INTER:                  -5.206
REMARK INTRA:                  -0.090
REMARK UNBOUND:                -0.097
REMARK SMILES C=C(C)[C@H]1CC=C(C)C(=O)C1
REMARK SMILES IDX 8 1 7 2 6 3 5 4 4 5 11 6 9 7 10 8 2 9 1 10 3 11
REMARK H PARENT
REMARK Flexibility Score: inf
ROOT
ATOM      1  C   UNL     1      16.927 -31.379  21.311  1.00  0.00     0.048 C 
ATOM      2  C   UNL     1      15.743 -30.697  21.940  1.00  0.00    -0.012 C 
ATOM      3  C   UNL     1      15.689 -29.355  22.000  1.00  0.00    -0.019 C 
ATOM      4  C   UNL     1      14.563 -28.631  22.691  1.00  0.00     0.036 C 
ATOM      5  C   UNL     1      13.251 -29.436  22.613  1.00  0.00     0.025 C 
ATOM      6  C   UNL     1      13.463 -30.856  23.172  1.00  0.00     0.089 C 
ATOM      7  C   UNL     1      14.647 -31.514  22.518  1.00  0.00     0.158 C 
ATOM      8  O   UNL     1      14.721 -32.772  22.506  1.00  0.00    -0.295 OA
ENDROOT
BRANCH   5   9
ATOM      9  C   UNL     1      12.109 -28.719  23.319  1.00  0.00    -0.077 C 
ATOM     10  C   UNL     1      10.876 -28.671  22.785  1.00  0.00     0.008 C 
ATOM     11  C   UNL     1      12.347 -28.044  24.646  1.00  0.00     0.039 C 
ENDBRANCH   5   9
TORSDOF 1
ENDMDL
