MODEL 1
REMARK VINA RESULT:    -3.886      0.000      0.000
REMARK INTER + INTRA:         -12.327
REMARK INTER:                  -8.428
REMARK INTRA:                  -3.898
REMARK UNBOUND:                -3.898
REMARK SMILES CCCCCCCCCCCCCCCCCCCCCC(=O)[O-]
REMARK SMILES IDX 12 1 11 2 10 3 9 4 8 5 7 6 6 7 5 8 4 9 3 10 2 11 1 12 13 13
REMARK SMILES IDX 14 14 15 15 16 16 17 17 18 18 19 19 20 20 21 21 22 22 23 23
REMARK SMILES IDX 24 24
REMARK H PARENT
REMARK Flexibility Score: inf
ROOT
ATOM      1  C   UNL     1      10.224  -8.592  34.515  1.00  0.00     0.000 C 
ENDROOT
BRANCH   1   2
ATOM      2  C   UNL     1      10.771  -7.351  35.241  1.00  0.00     0.000 C 
BRANCH   2   3
ATOM      3  C   UNL     1      10.931  -7.580  36.755  1.00  0.00     0.000 C 
BRANCH   3   4
ATOM      4  C   UNL     1      10.440  -8.966  37.211  1.00  0.00    -0.000 C 
BRANCH   4   5
ATOM      5  C   UNL     1       9.091  -8.978  37.952  1.00  0.00    -0.000 C 
BRANCH   5   6
ATOM      6  C   UNL     1       8.391  -7.610  37.950  1.00  0.00    -0.000 C 
BRANCH   6   7
ATOM      7  C   UNL     1       7.008  -7.648  37.275  1.00  0.00    -0.000 C 
BRANCH   7   8
ATOM      8  C   UNL     1       6.757  -8.927  36.449  1.00  0.00    -0.000 C 
BRANCH   8   9
ATOM      9  C   UNL     1       5.772  -8.685  35.294  1.00  0.00    -0.000 C 
BRANCH   9  10
ATOM     10  C   UNL     1       5.138  -7.292  35.394  1.00  0.00    -0.000 C 
BRANCH  10  11
ATOM     11  C   UNL     1       3.607  -7.382  35.368  1.00  0.00    -0.003 C 
ATOM     12  C   UNL     1       3.031  -7.388  36.780  1.00  0.00     0.004 C 
ENDBRANCH  10  11
ENDBRANCH   9  10
ENDBRANCH   8   9
ENDBRANCH   7   8
ENDBRANCH   6   7
ENDBRANCH   5   6
ENDBRANCH   4   5
ENDBRANCH   3   4
ENDBRANCH   2   3
ENDBRANCH   1   2
BRANCH   1  13
ATOM     13  C   UNL     1       9.439  -8.227  33.243  1.00  0.00     0.000 C 
BRANCH  13  14
ATOM     14  C   UNL     1       8.411  -7.109  33.482  1.00  0.00     0.000 C 
BRANCH  14  15
ATOM     15  C   UNL     1       8.746  -5.818  32.719  1.00  0.00     0.000 C 
BRANCH  15  16
ATOM     16  C   UNL     1       8.587  -4.588  33.626  1.00  0.00     0.000 C 
BRANCH  16  17
ATOM     17  C   UNL     1       7.919  -4.924  34.969  1.00  0.00     0.000 C 
BRANCH  17  18
ATOM     18  C   UNL     1       7.429  -3.669  35.713  1.00  0.00     0.000 C 
BRANCH  18  19
ATOM     19  C   UNL     1       8.140  -3.456  37.061  1.00  0.00     0.000 C 
BRANCH  19  20
ATOM     20  C   UNL     1       9.464  -4.226  37.239  1.00  0.00     0.006 C 
BRANCH  20  21
ATOM     21  C   UNL     1      10.715  -3.329  37.248  1.00  0.00     0.053 C 
BRANCH  21  22
ATOM     22  C   UNL     1      11.802  -3.854  36.358  1.00  0.00     0.041 C 
ATOM     23  O   UNL     1      11.651  -3.859  35.108  1.00  0.00    -0.550 OA
ATOM     24  O   UNL     1      12.964  -4.377  36.912  1.00  0.00    -0.550 OA
ENDBRANCH  21  22
ENDBRANCH  20  21
ENDBRANCH  19  20
ENDBRANCH  18  19
ENDBRANCH  17  18
ENDBRANCH  16  17
ENDBRANCH  15  16
ENDBRANCH  14  15
ENDBRANCH  13  14
ENDBRANCH   1  13
TORSDOF 20
ENDMDL
MODEL 2
REMARK VINA RESULT:    -3.882      1.256      2.677
REMARK INTER + INTRA:         -12.319
REMARK INTER:                  -8.121
REMARK INTRA:                  -4.198
REMARK UNBOUND:                -3.898
REMARK SMILES CCCCCCCCCCCCCCCCCCCCCC(=O)[O-]
REMARK SMILES IDX 12 1 11 2 10 3 9 4 8 5 7 6 6 7 5 8 4 9 3 10 2 11 1 12 13 13
REMARK SMILES IDX 14 14 15 15 16 16 17 17 18 18 19 19 20 20 21 21 22 22 23 23
REMARK SMILES IDX 24 24
REMARK H PARENT
REMARK Flexibility Score: inf
ROOT
ATOM      1  C   UNL     1       8.997  -6.076  32.980  1.00  0.00     0.000 C 
ENDROOT
BRANCH   1   2
ATOM      2  C   UNL     1       8.479  -7.392  33.584  1.00  0.00     0.000 C 
BRANCH   2   3
ATOM      3  C   UNL     1       9.619  -8.352  33.969  1.00  0.00     0.000 C 
BRANCH   3   4
ATOM      4  C   UNL     1       9.328  -9.150  35.253  1.00  0.00    -0.000 C 
BRANCH   4   5
ATOM      5  C   UNL     1       7.996  -8.818  35.948  1.00  0.00    -0.000 C 
BRANCH   5   6
ATOM      6  C   UNL     1       8.167  -8.429  37.425  1.00  0.00    -0.000 C 
BRANCH   6   7
ATOM      7  C   UNL     1       6.825  -8.200  38.141  1.00  0.00    -0.000 C 
BRANCH   7   8
ATOM      8  C   UNL     1       5.909  -7.181  37.431  1.00  0.00    -0.000 C 
BRANCH   8   9
ATOM      9  C   UNL     1       4.502  -7.745  37.176  1.00  0.00    -0.000 C 
BRANCH   9  10
ATOM     10  C   UNL     1       3.925  -7.208  35.860  1.00  0.00    -0.000 C 
BRANCH  10  11
ATOM     11  C   UNL     1       4.562  -7.909  34.655  1.00  0.00    -0.003 C 
ATOM     12  C   UNL     1       4.525  -9.426  34.817  1.00  0.00     0.004 C 
ENDBRANCH  10  11
ENDBRANCH   9  10
ENDBRANCH   8   9
ENDBRANCH   7   8
ENDBRANCH   6   7
ENDBRANCH   5   6
ENDBRANCH   4   5
ENDBRANCH   3   4
ENDBRANCH   2   3
ENDBRANCH   1   2
BRANCH   1  13
ATOM     13  C   UNL     1       8.400  -4.839  33.673  1.00  0.00     0.000 C 
BRANCH  13  14
ATOM     14  C   UNL     1       7.629  -5.193  34.955  1.00  0.00     0.000 C 
BRANCH  14  15
ATOM     15  C   UNL     1       7.145  -3.952  35.722  1.00  0.00     0.000 C 
BRANCH  15  16
ATOM     16  C   UNL     1       8.124  -3.589  36.849  1.00  0.00     0.000 C 
BRANCH  16  17
ATOM     17  C   UNL     1       8.680  -4.825  37.574  1.00  0.00     0.000 C 
BRANCH  17  18
ATOM     18  C   UNL     1      10.218  -4.864  37.578  1.00  0.00     0.000 C 
BRANCH  18  19
ATOM     19  C   UNL     1      10.793  -5.917  36.614  1.00  0.00     0.000 C 
BRANCH  19  20
ATOM     20  C   UNL     1      11.603  -5.356  35.429  1.00  0.00     0.006 C 
BRANCH  20  21
ATOM     21  C   UNL     1      11.570  -3.820  35.317  1.00  0.00     0.053 C 
BRANCH  21  22
ATOM     22  C   UNL     1      12.830  -3.183  35.819  1.00  0.00     0.041 C 
ATOM     23  O   UNL     1      13.915  -3.822  35.802  1.00  0.00    -0.550 OA
ATOM     24  O   UNL     1      12.799  -1.897  36.346  1.00  0.00    -0.550 OA
ENDBRANCH  21  22
ENDBRANCH  20  21
ENDBRANCH  19  20
ENDBRANCH  18  19
ENDBRANCH  17  18
ENDBRANCH  16  17
ENDBRANCH  15  16
ENDBRANCH  14  15
ENDBRANCH  13  14
ENDBRANCH   1  13
TORSDOF 20
ENDMDL
MODEL 3
REMARK VINA RESULT:    -3.815      1.089      1.565
REMARK INTER + INTRA:         -12.174
REMARK INTER:                  -8.368
REMARK INTRA:                  -3.806
REMARK UNBOUND:                -3.898
REMARK SMILES CCCCCCCCCCCCCCCCCCCCCC(=O)[O-]
REMARK SMILES IDX 12 1 11 2 10 3 9 4 8 5 7 6 6 7 5 8 4 9 3 10 2 11 1 12 13 13
REMARK SMILES IDX 14 14 15 15 16 16 17 17 18 18 19 19 20 20 21 21 22 22 23 23
REMARK SMILES IDX 24 24
REMARK H PARENT
REMARK Flexibility Score: inf
ROOT
ATOM      1  C   UNL     1      10.403  -8.524  33.961  1.00  0.00     0.000 C 
ENDROOT
BRANCH   1   2
ATOM      2  C   UNL     1      10.612  -7.649  35.209  1.00  0.00     0.000 C 
BRANCH   2   3
ATOM      3  C   UNL     1      10.573  -8.466  36.513  1.00  0.00     0.000 C 
BRANCH   3   4
ATOM      4  C   UNL     1      10.231  -9.950  36.284  1.00  0.00    -0.000 C 
BRANCH   4   5
ATOM      5  C   UNL     1       8.990 -10.464  37.035  1.00  0.00    -0.000 C 
BRANCH   5   6
ATOM      6  C   UNL     1       7.685  -9.801  36.568  1.00  0.00    -0.000 C 
BRANCH   6   7
ATOM      7  C   UNL     1       7.099  -8.835  37.613  1.00  0.00    -0.000 C 
BRANCH   7   8
ATOM      8  C   UNL     1       6.891  -7.400  37.085  1.00  0.00    -0.000 C 
BRANCH   8   9
ATOM      9  C   UNL     1       5.404  -7.066  36.886  1.00  0.00    -0.000 C 
BRANCH   9  10
ATOM     10  C   UNL     1       5.030  -7.084  35.399  1.00  0.00    -0.000 C 
BRANCH  10  11
ATOM     11  C   UNL     1       4.529  -8.470  34.976  1.00  0.00    -0.003 C 
ATOM     12  C   UNL     1       5.165  -8.909  33.661  1.00  0.00     0.004 C 
ENDBRANCH  10  11
ENDBRANCH   9  10
ENDBRANCH   8   9
ENDBRANCH   7   8
ENDBRANCH   6   7
ENDBRANCH   5   6
ENDBRANCH   4   5
ENDBRANCH   3   4
ENDBRANCH   2   3
ENDBRANCH   1   2
BRANCH   1  13
ATOM     13  C   UNL     1       9.139  -8.133  33.177  1.00  0.00     0.000 C 
BRANCH  13  14
ATOM     14  C   UNL     1       8.394  -6.944  33.809  1.00  0.00     0.000 C 
BRANCH  14  15
ATOM     15  C   UNL     1       8.658  -5.620  33.077  1.00  0.00     0.000 C 
BRANCH  15  16
ATOM     16  C   UNL     1       8.765  -4.455  34.074  1.00  0.00     0.000 C 
BRANCH  16  17
ATOM     17  C   UNL     1       7.638  -4.463  35.119  1.00  0.00     0.000 C 
BRANCH  17  18
ATOM     18  C   UNL     1       7.992  -3.645  36.373  1.00  0.00     0.000 C 
BRANCH  18  19
ATOM     19  C   UNL     1       9.002  -4.358  37.288  1.00  0.00     0.000 C 
BRANCH  19  20
ATOM     20  C   UNL     1      10.374  -3.669  37.423  1.00  0.00     0.006 C 
BRANCH  20  21
ATOM     21  C   UNL     1      11.544  -4.477  36.830  1.00  0.00     0.053 C 
BRANCH  21  22
ATOM     22  C   UNL     1      12.238  -3.746  35.721  1.00  0.00     0.041 C 
ATOM     23  O   UNL     1      12.643  -2.566  35.894  1.00  0.00    -0.550 OA
ATOM     24  O   UNL     1      12.401  -4.353  34.481  1.00  0.00    -0.550 OA
ENDBRANCH  21  22
ENDBRANCH  20  21
ENDBRANCH  19  20
ENDBRANCH  18  19
ENDBRANCH  17  18
ENDBRANCH  16  17
ENDBRANCH  15  16
ENDBRANCH  14  15
ENDBRANCH  13  14
ENDBRANCH   1  13
TORSDOF 20
ENDMDL
MODEL 4
REMARK VINA RESULT:    -3.795      3.159      6.451
REMARK INTER + INTRA:         -12.129
REMARK INTER:                  -8.443
REMARK INTRA:                  -3.686
REMARK UNBOUND:                -3.898
REMARK SMILES CCCCCCCCCCCCCCCCCCCCCC(=O)[O-]
REMARK SMILES IDX 12 1 11 2 10 3 9 4 8 5 7 6 6 7 5 8 4 9 3 10 2 11 1 12 13 13
REMARK SMILES IDX 14 14 15 15 16 16 17 17 18 18 19 19 20 20 21 21 22 22 23 23
REMARK SMILES IDX 24 24
REMARK H PARENT
REMARK Flexibility Score: inf
ROOT
ATOM      1  C   UNL     1       9.564  -8.214  33.098  1.00  0.00     0.000 C 
ENDROOT
BRANCH   1   2
ATOM      2  C   UNL     1       8.516  -7.150  33.463  1.00  0.00     0.000 C 
BRANCH   2   3
ATOM      3  C   UNL     1       8.713  -5.839  32.681  1.00  0.00     0.000 C 
BRANCH   3   4
ATOM      4  C   UNL     1       8.529  -4.583  33.552  1.00  0.00    -0.000 C 
BRANCH   4   5
ATOM      5  C   UNL     1       7.871  -4.822  34.923  1.00  0.00    -0.000 C 
BRANCH   5   6
ATOM      6  C   UNL     1       7.776  -3.548  35.777  1.00  0.00    -0.000 C 
BRANCH   6   7
ATOM      7  C   UNL     1       8.208  -3.775  37.236  1.00  0.00    -0.000 C 
BRANCH   7   8
ATOM      8  C   UNL     1       9.549  -4.524  37.377  1.00  0.00    -0.000 C 
BRANCH   8   9
ATOM      9  C   UNL     1      10.756  -3.597  37.160  1.00  0.00    -0.000 C 
BRANCH   9  10
ATOM     10  C   UNL     1      12.051  -4.407  37.015  1.00  0.00    -0.000 C 
BRANCH  10  11
ATOM     11  C   UNL     1      12.764  -4.072  35.700  1.00  0.00    -0.003 C 
ATOM     12  C   UNL     1      11.810  -4.179  34.513  1.00  0.00     0.004 C 
ENDBRANCH  10  11
ENDBRANCH   9  10
ENDBRANCH   8   9
ENDBRANCH   7   8
ENDBRANCH   6   7
ENDBRANCH   5   6
ENDBRANCH   4   5
ENDBRANCH   3   4
ENDBRANCH   2   3
ENDBRANCH   1   2
BRANCH   1  13
ATOM     13  C   UNL     1      10.651  -8.361  34.177  1.00  0.00     0.000 C 
BRANCH  13  14
ATOM     14  C   UNL     1      10.393  -7.468  35.402  1.00  0.00     0.000 C 
BRANCH  14  15
ATOM     15  C   UNL     1      10.776  -8.147  36.725  1.00  0.00     0.000 C 
BRANCH  15  16
ATOM     16  C   UNL     1       9.567  -8.228  37.670  1.00  0.00     0.000 C 
BRANCH  16  17
ATOM     17  C   UNL     1       8.225  -8.164  36.922  1.00  0.00     0.000 C 
BRANCH  17  18
ATOM     18  C   UNL     1       7.176  -7.319  37.667  1.00  0.00     0.000 C 
BRANCH  18  19
ATOM     19  C   UNL     1       5.742  -7.572  37.170  1.00  0.00     0.000 C 
BRANCH  19  20
ATOM     20  C   UNL     1       5.540  -7.454  35.646  1.00  0.00     0.006 C 
BRANCH  20  21
ATOM     21  C   UNL     1       4.084  -7.179  35.226  1.00  0.00     0.053 C 
BRANCH  21  22
ATOM     22  C   UNL     1       3.103  -8.035  35.968  1.00  0.00     0.041 C 
ATOM     23  O   UNL     1       2.289  -7.514  36.776  1.00  0.00    -0.550 OA
ATOM     24  O   UNL     1       3.115  -9.415  35.802  1.00  0.00    -0.550 OA
ENDBRANCH  21  22
ENDBRANCH  20  21
ENDBRANCH  19  20
ENDBRANCH  18  19
ENDBRANCH  17  18
ENDBRANCH  16  17
ENDBRANCH  15  16
ENDBRANCH  14  15
ENDBRANCH  13  14
ENDBRANCH   1  13
TORSDOF 20
ENDMDL
MODEL 5
REMARK VINA RESULT:    -3.768      1.802      4.411
REMARK INTER + INTRA:         -12.071
REMARK INTER:                  -8.107
REMARK INTRA:                  -3.963
REMARK UNBOUND:                -3.898
REMARK SMILES CCCCCCCCCCCCCCCCCCCCCC(=O)[O-]
REMARK SMILES IDX 12 1 11 2 10 3 9 4 8 5 7 6 6 7 5 8 4 9 3 10 2 11 1 12 13 13
REMARK SMILES IDX 14 14 15 15 16 16 17 17 18 18 19 19 20 20 21 21 22 22 23 23
REMARK SMILES IDX 24 24
REMARK H PARENT
REMARK Flexibility Score: inf
ROOT
ATOM      1  C   UNL     1      10.177  -7.268  34.611  1.00  0.00     0.000 C 
ENDROOT
BRANCH   1   2
ATOM      2  C   UNL     1      10.055  -5.749  34.403  1.00  0.00     0.000 C 
BRANCH   2   3
ATOM      3  C   UNL     1       8.665  -5.337  33.885  1.00  0.00     0.000 C 
BRANCH   3   4
ATOM      4  C   UNL     1       7.938  -4.358  34.825  1.00  0.00    -0.000 C 
BRANCH   4   5
ATOM      5  C   UNL     1       8.773  -3.836  36.008  1.00  0.00    -0.000 C 
BRANCH   5   6
ATOM      6  C   UNL     1       8.191  -4.225  37.376  1.00  0.00    -0.000 C 
BRANCH   6   7
ATOM      7  C   UNL     1       8.905  -5.433  38.006  1.00  0.00    -0.000 C 
BRANCH   7   8
ATOM      8  C   UNL     1       7.943  -6.516  38.537  1.00  0.00    -0.000 C 
BRANCH   8   9
ATOM      9  C   UNL     1       7.455  -7.455  37.422  1.00  0.00    -0.000 C 
BRANCH   9  10
ATOM     10  C   UNL     1       5.978  -7.198  37.095  1.00  0.00    -0.000 C 
BRANCH  10  11
ATOM     11  C   UNL     1       5.760  -7.108  35.580  1.00  0.00    -0.003 C 
ATOM     12  C   UNL     1       6.534  -8.198  34.845  1.00  0.00     0.004 C 
ENDBRANCH  10  11
ENDBRANCH   9  10
ENDBRANCH   8   9
ENDBRANCH   7   8
ENDBRANCH   6   7
ENDBRANCH   5   6
ENDBRANCH   4   5
ENDBRANCH   3   4
ENDBRANCH   2   3
ENDBRANCH   1   2
BRANCH   1  13
ATOM     13  C   UNL     1      10.871  -7.624  35.937  1.00  0.00     0.000 C 
BRANCH  13  14
ATOM     14  C   UNL     1      10.516  -9.037  36.430  1.00  0.00     0.000 C 
BRANCH  14  15
ATOM     15  C   UNL     1      11.143  -9.367  37.793  1.00  0.00     0.000 C 
BRANCH  15  16
ATOM     16  C   UNL     1      11.917  -8.160  38.347  1.00  0.00     0.000 C 
BRANCH  16  17
ATOM     17  C   UNL     1      13.345  -8.520  38.784  1.00  0.00     0.000 C 
BRANCH  17  18
ATOM     18  C   UNL     1      14.261  -7.288  38.880  1.00  0.00     0.000 C 
BRANCH  18  19
ATOM     19  C   UNL     1      13.479  -5.969  39.011  1.00  0.00     0.000 C 
BRANCH  19  20
ATOM     20  C   UNL     1      13.699  -4.954  37.872  1.00  0.00     0.006 C 
BRANCH  20  21
ATOM     21  C   UNL     1      12.400  -4.478  37.196  1.00  0.00     0.053 C 
BRANCH  21  22
ATOM     22  C   UNL     1      12.660  -3.564  36.037  1.00  0.00     0.041 C 
ATOM     23  O   UNL     1      12.950  -4.038  34.907  1.00  0.00    -0.550 OA
ATOM     24  O   UNL     1      12.625  -2.186  36.214  1.00  0.00    -0.550 OA
ENDBRANCH  21  22
ENDBRANCH  20  21
ENDBRANCH  19  20
ENDBRANCH  18  19
ENDBRANCH  17  18
ENDBRANCH  16  17
ENDBRANCH  15  16
ENDBRANCH  14  15
ENDBRANCH  13  14
ENDBRANCH   1  13
TORSDOF 20
ENDMDL
MODEL 6
REMARK VINA RESULT:    -3.759      2.022      5.099
REMARK INTER + INTRA:         -12.052
REMARK INTER:                  -8.219
REMARK INTRA:                  -3.833
REMARK UNBOUND:                -3.898
REMARK SMILES CCCCCCCCCCCCCCCCCCCCCC(=O)[O-]
REMARK SMILES IDX 12 1 11 2 10 3 9 4 8 5 7 6 6 7 5 8 4 9 3 10 2 11 1 12 13 13
REMARK SMILES IDX 14 14 15 15 16 16 17 17 18 18 19 19 20 20 21 21 22 22 23 23
REMARK SMILES IDX 24 24
REMARK H PARENT
REMARK Flexibility Score: inf
ROOT
ATOM      1  C   UNL     1       8.749  -7.051  33.295  1.00  0.00     0.000 C 
ENDROOT
BRANCH   1   2
ATOM      2  C   UNL     1       9.322  -8.470  33.442  1.00  0.00     0.000 C 
BRANCH   2   3
ATOM      3  C   UNL     1      10.781  -8.466  33.935  1.00  0.00     0.000 C 
BRANCH   3   4
ATOM      4  C   UNL     1      10.933  -8.995  35.374  1.00  0.00    -0.000 C 
BRANCH   4   5
ATOM      5  C   UNL     1       9.980 -10.140  35.759  1.00  0.00    -0.000 C 
BRANCH   5   6
ATOM      6  C   UNL     1      10.478 -10.961  36.958  1.00  0.00    -0.000 C 
BRANCH   6   7
ATOM      7  C   UNL     1      11.313 -10.128  37.946  1.00  0.00    -0.000 C 
BRANCH   7   8
ATOM      8  C   UNL     1      12.669 -10.770  38.308  1.00  0.00    -0.000 C 
BRANCH   8   9
ATOM      9  C   UNL     1      13.723  -9.720  38.693  1.00  0.00    -0.000 C 
BRANCH   9  10
ATOM     10  C   UNL     1      13.151  -8.300  38.582  1.00  0.00    -0.000 C 
BRANCH  10  11
ATOM     11  C   UNL     1      14.222  -7.251  38.897  1.00  0.00    -0.003 C 
ATOM     12  C   UNL     1      13.676  -5.836  38.726  1.00  0.00     0.004 C 
ENDBRANCH  10  11
ENDBRANCH   9  10
ENDBRANCH   8   9
ENDBRANCH   7   8
ENDBRANCH   6   7
ENDBRANCH   5   6
ENDBRANCH   4   5
ENDBRANCH   3   4
ENDBRANCH   2   3
ENDBRANCH   1   2
BRANCH   1  13
ATOM     13  C   UNL     1       7.660  -6.747  34.339  1.00  0.00     0.000 C 
BRANCH  13  14
ATOM     14  C   UNL     1       7.010  -8.022  34.903  1.00  0.00     0.000 C 
BRANCH  14  15
ATOM     15  C   UNL     1       7.041  -8.077  36.437  1.00  0.00     0.000 C 
BRANCH  15  16
ATOM     16  C   UNL     1       7.717  -6.825  37.017  1.00  0.00     0.000 C 
BRANCH  16  17
ATOM     17  C   UNL     1       8.973  -7.154  37.838  1.00  0.00     0.000 C 
BRANCH  17  18
ATOM     18  C   UNL     1       9.886  -5.931  38.035  1.00  0.00     0.000 C 
BRANCH  18  19
ATOM     19  C   UNL     1       9.984  -5.049  36.778  1.00  0.00     0.000 C 
BRANCH  19  20
ATOM     20  C   UNL     1      11.260  -5.240  35.934  1.00  0.00     0.006 C 
BRANCH  20  21
ATOM     21  C   UNL     1      11.685  -3.987  35.146  1.00  0.00     0.053 C 
BRANCH  21  22
ATOM     22  C   UNL     1      12.784  -3.229  35.827  1.00  0.00     0.041 C 
ATOM     23  O   UNL     1      13.953  -3.696  35.858  1.00  0.00    -0.550 OA
ATOM     24  O   UNL     1      12.509  -2.025  36.465  1.00  0.00    -0.550 OA
ENDBRANCH  21  22
ENDBRANCH  20  21
ENDBRANCH  19  20
ENDBRANCH  18  19
ENDBRANCH  17  18
ENDBRANCH  16  17
ENDBRANCH  15  16
ENDBRANCH  14  15
ENDBRANCH  13  14
ENDBRANCH   1  13
TORSDOF 20
ENDMDL
MODEL 7
REMARK VINA RESULT:    -3.726      1.244      3.401
REMARK INTER + INTRA:         -11.980
REMARK INTER:                  -8.017
REMARK INTRA:                  -3.964
REMARK UNBOUND:                -3.898
REMARK SMILES CCCCCCCCCCCCCCCCCCCCCC(=O)[O-]
REMARK SMILES IDX 12 1 11 2 10 3 9 4 8 5 7 6 6 7 5 8 4 9 3 10 2 11 1 12 13 13
REMARK SMILES IDX 14 14 15 15 16 16 17 17 18 18 19 19 20 20 21 21 22 22 23 23
REMARK SMILES IDX 24 24
REMARK H PARENT
REMARK Flexibility Score: inf
ROOT
ATOM      1  C   UNL     1       8.648  -5.787  33.084  1.00  0.00     0.000 C 
ENDROOT
BRANCH   1   2
ATOM      2  C   UNL     1       8.699  -4.613  34.077  1.00  0.00     0.000 C 
BRANCH   2   3
ATOM      3  C   UNL     1       7.516  -4.626  35.062  1.00  0.00     0.000 C 
BRANCH   3   4
ATOM      4  C   UNL     1       7.927  -4.268  36.502  1.00  0.00    -0.000 C 
BRANCH   4   5
ATOM      5  C   UNL     1       7.841  -5.420  37.519  1.00  0.00    -0.000 C 
BRANCH   5   6
ATOM      6  C   UNL     1       7.121  -6.660  36.965  1.00  0.00    -0.000 C 
BRANCH   6   7
ATOM      7  C   UNL     1       6.165  -7.300  37.986  1.00  0.00    -0.000 C 
BRANCH   7   8
ATOM      8  C   UNL     1       4.672  -7.108  37.643  1.00  0.00    -0.000 C 
BRANCH   8   9
ATOM      9  C   UNL     1       4.470  -6.543  36.228  1.00  0.00    -0.000 C 
BRANCH   9  10
ATOM     10  C   UNL     1       3.861  -7.599  35.297  1.00  0.00    -0.000 C 
BRANCH  10  11
ATOM     11  C   UNL     1       4.946  -8.276  34.451  1.00  0.00    -0.003 C 
ATOM     12  C   UNL     1       5.215  -9.698  34.935  1.00  0.00     0.004 C 
ENDBRANCH  10  11
ENDBRANCH   9  10
ENDBRANCH   8   9
ENDBRANCH   7   8
ENDBRANCH   6   7
ENDBRANCH   5   6
ENDBRANCH   4   5
ENDBRANCH   3   4
ENDBRANCH   2   3
ENDBRANCH   1   2
BRANCH   1  13
ATOM     13  C   UNL     1       8.625  -7.153  33.792  1.00  0.00     0.000 C 
BRANCH  13  14
ATOM     14  C   UNL     1       9.711  -8.108  33.269  1.00  0.00     0.000 C 
BRANCH  14  15
ATOM     15  C   UNL     1      10.144  -9.146  34.315  1.00  0.00     0.000 C 
BRANCH  15  16
ATOM     16  C   UNL     1       9.066  -9.315  35.398  1.00  0.00     0.000 C 
BRANCH  16  17
ATOM     17  C   UNL     1       9.631  -9.193  36.822  1.00  0.00     0.000 C 
BRANCH  17  18
ATOM     18  C   UNL     1      11.017  -8.525  36.851  1.00  0.00     0.000 C 
BRANCH  18  19
ATOM     19  C   UNL     1      10.965  -7.059  37.316  1.00  0.00     0.000 C 
BRANCH  19  20
ATOM     20  C   UNL     1      11.234  -6.008  36.221  1.00  0.00     0.006 C 
BRANCH  20  21
ATOM     21  C   UNL     1      11.670  -4.634  36.763  1.00  0.00     0.053 C 
BRANCH  21  22
ATOM     22  C   UNL     1      12.239  -3.751  35.694  1.00  0.00     0.041 C 
ATOM     23  O   UNL     1      12.343  -4.172  34.511  1.00  0.00    -0.550 OA
ATOM     24  O   UNL     1      12.695  -2.477  36.010  1.00  0.00    -0.550 OA
ENDBRANCH  21  22
ENDBRANCH  20  21
ENDBRANCH  19  20
ENDBRANCH  18  19
ENDBRANCH  17  18
ENDBRANCH  16  17
ENDBRANCH  15  16
ENDBRANCH  14  15
ENDBRANCH  13  14
ENDBRANCH   1  13
TORSDOF 20
ENDMDL
MODEL 8
REMARK VINA RESULT:    -3.697      2.843      6.251
REMARK INTER + INTRA:         -11.919
REMARK INTER:                  -9.130
REMARK INTRA:                  -2.789
REMARK UNBOUND:                -3.898
REMARK SMILES CCCCCCCCCCCCCCCCCCCCCC(=O)[O-]
REMARK SMILES IDX 12 1 11 2 10 3 9 4 8 5 7 6 6 7 5 8 4 9 3 10 2 11 1 12 13 13
REMARK SMILES IDX 14 14 15 15 16 16 17 17 18 18 19 19 20 20 21 21 22 22 23 23
REMARK SMILES IDX 24 24
REMARK H PARENT
REMARK Flexibility Score: inf
ROOT
ATOM      1  C   UNL     1      13.291 -11.410  38.484  1.00  0.00     0.000 C 
ENDROOT
BRANCH   1   2
ATOM      2  C   UNL     1      14.789 -11.313  38.147  1.00  0.00     0.000 C 
BRANCH   2   3
ATOM      3  C   UNL     1      15.335  -9.883  38.309  1.00  0.00     0.000 C 
BRANCH   3   4
ATOM      4  C   UNL     1      14.259  -8.871  38.743  1.00  0.00    -0.000 C 
BRANCH   4   5
ATOM      5  C   UNL     1      14.713  -7.402  38.787  1.00  0.00    -0.000 C 
BRANCH   5   6
ATOM      6  C   UNL     1      13.543  -6.412  38.901  1.00  0.00    -0.000 C 
BRANCH   6   7
ATOM      7  C   UNL     1      12.183  -7.057  38.583  1.00  0.00    -0.000 C 
BRANCH   7   8
ATOM      8  C   UNL     1      11.520  -6.506  37.303  1.00  0.00    -0.000 C 
BRANCH   8   9
ATOM      9  C   UNL     1      11.500  -4.970  37.276  1.00  0.00    -0.000 C 
BRANCH   9  10
ATOM     10  C   UNL     1      11.780  -4.441  35.863  1.00  0.00    -0.000 C 
BRANCH  10  11
ATOM     11  C   UNL     1      12.801  -3.298  35.897  1.00  0.00    -0.003 C 
ATOM     12  C   UNL     1      14.110  -3.748  36.539  1.00  0.00     0.004 C 
ENDBRANCH  10  11
ENDBRANCH   9  10
ENDBRANCH   8   9
ENDBRANCH   7   8
ENDBRANCH   6   7
ENDBRANCH   5   6
ENDBRANCH   4   5
ENDBRANCH   3   4
ENDBRANCH   2   3
ENDBRANCH   1   2
BRANCH   1  13
ATOM     13  C   UNL     1      12.541 -12.371  37.545  1.00  0.00     0.000 C 
BRANCH  13  14
ATOM     14  C   UNL     1      11.193 -11.803  37.071  1.00  0.00     0.000 C 
BRANCH  14  15
ATOM     15  C   UNL     1      11.132 -10.270  37.152  1.00  0.00     0.000 C 
BRANCH  15  16
ATOM     16  C   UNL     1      10.063  -9.714  36.198  1.00  0.00     0.000 C 
BRANCH  16  17
ATOM     17  C   UNL     1      10.393  -9.974  34.720  1.00  0.00     0.000 C 
BRANCH  17  18
ATOM     18  C   UNL     1      10.596  -8.672  33.924  1.00  0.00     0.000 C 
BRANCH  18  19
ATOM     19  C   UNL     1       9.281  -7.915  33.670  1.00  0.00     0.000 C 
BRANCH  19  20
ATOM     20  C   UNL     1       9.320  -6.403  33.967  1.00  0.00     0.006 C 
BRANCH  20  21
ATOM     21  C   UNL     1       8.279  -5.939  35.003  1.00  0.00     0.053 C 
BRANCH  21  22
ATOM     22  C   UNL     1       8.138  -4.447  35.044  1.00  0.00     0.041 C 
ATOM     23  O   UNL     1       8.121  -3.782  33.975  1.00  0.00    -0.550 OA
ATOM     24  O   UNL     1       8.070  -3.787  36.265  1.00  0.00    -0.550 OA
ENDBRANCH  21  22
ENDBRANCH  20  21
ENDBRANCH  19  20
ENDBRANCH  18  19
ENDBRANCH  17  18
ENDBRANCH  16  17
ENDBRANCH  15  16
ENDBRANCH  14  15
ENDBRANCH  13  14
ENDBRANCH   1  13
TORSDOF 20
ENDMDL
MODEL 9
REMARK VINA RESULT:    -3.670      3.563      6.374
REMARK INTER + INTRA:         -11.859
REMARK INTER:                  -9.127
REMARK INTRA:                  -2.732
REMARK UNBOUND:                -3.898
REMARK SMILES CCCCCCCCCCCCCCCCCCCCCC(=O)[O-]
REMARK SMILES IDX 12 1 11 2 10 3 9 4 8 5 7 6 6 7 5 8 4 9 3 10 2 11 1 12 13 13
REMARK SMILES IDX 14 14 15 15 16 16 17 17 18 18 19 19 20 20 21 21 22 22 23 23
REMARK SMILES IDX 24 24
REMARK H PARENT
REMARK Flexibility Score: inf
ROOT
ATOM      1  C   UNL     1      12.683  -7.048  38.654  1.00  0.00     0.000 C 
ENDROOT
BRANCH   1   2
ATOM      2  C   UNL     1      14.213  -7.150  38.777  1.00  0.00     0.000 C 
BRANCH   2   3
ATOM      3  C   UNL     1      14.709  -8.607  38.738  1.00  0.00     0.000 C 
BRANCH   3   4
ATOM      4  C   UNL     1      16.114  -8.749  38.124  1.00  0.00    -0.000 C 
BRANCH   4   5
ATOM      5  C   UNL     1      16.732 -10.156  38.207  1.00  0.00    -0.000 C 
BRANCH   5   6
ATOM      6  C   UNL     1      15.733 -11.226  38.671  1.00  0.00    -0.000 C 
BRANCH   6   7
ATOM      7  C   UNL     1      15.352 -12.212  37.553  1.00  0.00    -0.000 C 
BRANCH   7   8
ATOM      8  C   UNL     1      13.979 -12.886  37.761  1.00  0.00    -0.000 C 
BRANCH   8   9
ATOM      9  C   UNL     1      12.982 -11.962  38.478  1.00  0.00    -0.000 C 
BRANCH   9  10
ATOM     10  C   UNL     1      11.587 -12.065  37.848  1.00  0.00    -0.000 C 
BRANCH  10  11
ATOM     11  C   UNL     1      11.672 -12.028  36.317  1.00  0.00    -0.003 C 
ATOM     12  C   UNL     1      10.292 -12.180  35.685  1.00  0.00     0.004 C 
ENDBRANCH  10  11
ENDBRANCH   9  10
ENDBRANCH   8   9
ENDBRANCH   7   8
ENDBRANCH   6   7
ENDBRANCH   5   6
ENDBRANCH   4   5
ENDBRANCH   3   4
ENDBRANCH   2   3
ENDBRANCH   1   2
BRANCH   1  13
ATOM     13  C   UNL     1      11.997  -8.424  38.726  1.00  0.00     0.000 C 
BRANCH  13  14
ATOM     14  C   UNL     1      10.680  -8.470  37.933  1.00  0.00     0.000 C 
BRANCH  14  15
ATOM     15  C   UNL     1      10.822  -7.908  36.510  1.00  0.00     0.000 C 
BRANCH  15  16
ATOM     16  C   UNL     1       9.753  -8.500  35.578  1.00  0.00     0.000 C 
BRANCH  16  17
ATOM     17  C   UNL     1      10.317  -8.896  34.204  1.00  0.00     0.000 C 
BRANCH  17  18
ATOM     18  C   UNL     1       9.689  -8.089  33.054  1.00  0.00     0.000 C 
BRANCH  18  19
ATOM     19  C   UNL     1       8.636  -7.077  33.539  1.00  0.00     0.000 C 
BRANCH  19  20
ATOM     20  C   UNL     1       8.866  -5.619  33.092  1.00  0.00     0.006 C 
BRANCH  20  21
ATOM     21  C   UNL     1       9.417  -4.703  34.201  1.00  0.00     0.053 C 
BRANCH  21  22
ATOM     22  C   UNL     1       8.522  -4.658  35.403  1.00  0.00     0.041 C 
ATOM     23  O   UNL     1       8.970  -4.967  36.539  1.00  0.00    -0.550 OA
ATOM     24  O   UNL     1       7.183  -4.316  35.263  1.00  0.00    -0.550 OA
ENDBRANCH  21  22
ENDBRANCH  20  21
ENDBRANCH  19  20
ENDBRANCH  18  19
ENDBRANCH  17  18
ENDBRANCH  16  17
ENDBRANCH  15  16
ENDBRANCH  14  15
ENDBRANCH  13  14
ENDBRANCH   1  13
TORSDOF 20
ENDMDL
