MODEL 1
REMARK VINA RESULT:    -3.131      0.000      0.000
REMARK INTER + INTRA:          -8.051
REMARK INTER:                  -6.791
REMARK INTRA:                  -1.260
REMARK UNBOUND:                -1.260
REMARK SMILES CCCCCCCCCCCCCCCCCCCCCC(=O)[O-]
REMARK SMILES IDX 12 1 11 2 10 3 9 4 8 5 7 6 6 7 5 8 4 9 3 10 2 11 1 12 13 13
REMARK SMILES IDX 14 14 15 15 16 16 17 17 18 18 19 19 20 20 21 21 22 22 23 23
REMARK SMILES IDX 24 24
REMARK H PARENT
REMARK Flexibility Score: inf
ROOT
ATOM      1  C   UNL     1      -2.562  19.986  16.279  1.00  0.00     0.000 C 
ENDROOT
BRANCH   1   2
ATOM      2  C   UNL     1      -1.396  20.742  16.932  1.00  0.00     0.000 C 
BRANCH   2   3
ATOM      3  C   UNL     1      -0.133  19.876  17.090  1.00  0.00     0.000 C 
BRANCH   3   4
ATOM      4  C   UNL     1       0.959  20.110  16.026  1.00  0.00    -0.000 C 
BRANCH   4   5
ATOM      5  C   UNL     1       2.071  21.092  16.435  1.00  0.00    -0.000 C 
BRANCH   5   6
ATOM      6  C   UNL     1       3.378  20.388  16.829  1.00  0.00    -0.000 C 
BRANCH   6   7
ATOM      7  C   UNL     1       4.268  20.159  15.599  1.00  0.00    -0.000 C 
BRANCH   7   8
ATOM      8  C   UNL     1       5.454  21.138  15.526  1.00  0.00    -0.000 C 
BRANCH   8   9
ATOM      9  C   UNL     1       6.581  20.868  16.540  1.00  0.00    -0.000 C 
BRANCH   9  10
ATOM     10  C   UNL     1       7.954  20.692  15.877  1.00  0.00    -0.000 C 
BRANCH  10  11
ATOM     11  C   UNL     1       7.826  20.656  14.350  1.00  0.00    -0.003 C 
ATOM     12  C   UNL     1       8.910  21.501  13.685  1.00  0.00     0.004 C 
ENDBRANCH  10  11
ENDBRANCH   9  10
ENDBRANCH   8   9
ENDBRANCH   7   8
ENDBRANCH   6   7
ENDBRANCH   5   6
ENDBRANCH   4   5
ENDBRANCH   3   4
ENDBRANCH   2   3
ENDBRANCH   1   2
BRANCH   1  13
ATOM     13  C   UNL     1      -3.818  20.052  17.163  1.00  0.00     0.000 C 
BRANCH  13  14
ATOM     14  C   UNL     1      -5.119  19.954  16.352  1.00  0.00     0.000 C 
BRANCH  14  15
ATOM     15  C   UNL     1      -5.163  20.950  15.182  1.00  0.00     0.000 C 
BRANCH  15  16
ATOM     16  C   UNL     1      -6.563  21.077  14.553  1.00  0.00     0.000 C 
BRANCH  16  17
ATOM     17  C   UNL     1      -7.651  20.190  15.186  1.00  0.00     0.000 C 
BRANCH  17  18
ATOM     18  C   UNL     1      -8.699  20.995  15.973  1.00  0.00     0.000 C 
BRANCH  18  19
ATOM     19  C   UNL     1      -8.077  21.831  17.104  1.00  0.00     0.000 C 
BRANCH  19  20
ATOM     20  C   UNL     1      -8.303  21.211  18.494  1.00  0.00     0.006 C 
BRANCH  20  21
ATOM     21  C   UNL     1      -7.193  21.589  19.484  1.00  0.00     0.053 C 
BRANCH  21  22
ATOM     22  C   UNL     1      -7.748  22.193  20.737  1.00  0.00     0.041 C 
ATOM     23  O   UNL     1      -8.151  23.387  20.742  1.00  0.00    -0.550 OA
ATOM     24  O   UNL     1      -7.808  21.442  21.904  1.00  0.00    -0.550 OA
ENDBRANCH  21  22
ENDBRANCH  20  21
ENDBRANCH  19  20
ENDBRANCH  18  19
ENDBRANCH  17  18
ENDBRANCH  16  17
ENDBRANCH  15  16
ENDBRANCH  14  15
ENDBRANCH  13  14
ENDBRANCH   1  13
TORSDOF 20
ENDMDL
MODEL 2
REMARK VINA RESULT:    -2.997      5.838     13.346
REMARK INTER + INTRA:          -7.761
REMARK INTER:                  -6.907
REMARK INTRA:                  -0.854
REMARK UNBOUND:                -1.260
REMARK SMILES CCCCCCCCCCCCCCCCCCCCCC(=O)[O-]
REMARK SMILES IDX 12 1 11 2 10 3 9 4 8 5 7 6 6 7 5 8 4 9 3 10 2 11 1 12 13 13
REMARK SMILES IDX 14 14 15 15 16 16 17 17 18 18 19 19 20 20 21 21 22 22 23 23
REMARK SMILES IDX 24 24
REMARK H PARENT
REMARK Flexibility Score: inf
ROOT
ATOM      1  C   UNL     1      -0.187  20.491  16.349  1.00  0.00     0.000 C 
ENDROOT
BRANCH   1   2
ATOM      2  C   UNL     1      -0.962  19.876  17.522  1.00  0.00     0.000 C 
BRANCH   2   3
ATOM      3  C   UNL     1      -2.451  20.267  17.529  1.00  0.00     0.000 C 
BRANCH   3   4
ATOM      4  C   UNL     1      -3.211  19.977  16.217  1.00  0.00    -0.000 C 
BRANCH   4   5
ATOM      5  C   UNL     1      -4.697  20.374  16.221  1.00  0.00    -0.000 C 
BRANCH   5   6
ATOM      6  C   UNL     1      -5.204  20.811  14.839  1.00  0.00    -0.000 C 
BRANCH   6   7
ATOM      7  C   UNL     1      -6.481  21.654  14.966  1.00  0.00    -0.000 C 
BRANCH   7   8
ATOM      8  C   UNL     1      -7.720  20.816  15.327  1.00  0.00    -0.000 C 
BRANCH   8   9
ATOM      9  C   UNL     1      -7.979  20.659  16.836  1.00  0.00    -0.000 C 
BRANCH   9  10
ATOM     10  C   UNL     1      -8.972  21.693  17.385  1.00  0.00    -0.000 C 
BRANCH  10  11
ATOM     11  C   UNL     1      -8.484  22.268  18.720  1.00  0.00    -0.003 C 
ATOM     12  C   UNL     1      -7.226  21.552  19.202  1.00  0.00     0.004 C 
ENDBRANCH  10  11
ENDBRANCH   9  10
ENDBRANCH   8   9
ENDBRANCH   7   8
ENDBRANCH   6   7
ENDBRANCH   5   6
ENDBRANCH   4   5
ENDBRANCH   3   4
ENDBRANCH   2   3
ENDBRANCH   1   2
BRANCH   1  13
ATOM     13  C   UNL     1       1.240  19.922  16.280  1.00  0.00     0.000 C 
BRANCH  13  14
ATOM     14  C   UNL     1       2.303  21.012  16.075  1.00  0.00     0.000 C 
BRANCH  14  15
ATOM     15  C   UNL     1       3.592  20.735  16.867  1.00  0.00     0.000 C 
BRANCH  15  16
ATOM     16  C   UNL     1       4.674  20.032  16.026  1.00  0.00     0.000 C 
BRANCH  16  17
ATOM     17  C   UNL     1       5.226  20.853  14.846  1.00  0.00     0.000 C 
BRANCH  17  18
ATOM     18  C   UNL     1       6.566  20.315  14.315  1.00  0.00     0.000 C 
BRANCH  18  19
ATOM     19  C   UNL     1       7.738  20.603  15.268  1.00  0.00     0.000 C 
BRANCH  19  20
ATOM     20  C   UNL     1       9.109  20.331  14.623  1.00  0.00     0.006 C 
BRANCH  20  21
ATOM     21  C   UNL     1       9.279  21.075  13.292  1.00  0.00     0.053 C 
BRANCH  21  22
ATOM     22  C   UNL     1      10.061  22.341  13.459  1.00  0.00     0.041 C 
ATOM     23  O   UNL     1       9.976  23.258  12.599  1.00  0.00    -0.550 OA
ATOM     24  O   UNL     1      10.896  22.504  14.557  1.00  0.00    -0.550 OA
ENDBRANCH  21  22
ENDBRANCH  20  21
ENDBRANCH  19  20
ENDBRANCH  18  19
ENDBRANCH  17  18
ENDBRANCH  16  17
ENDBRANCH  15  16
ENDBRANCH  14  15
ENDBRANCH  13  14
ENDBRANCH   1  13
TORSDOF 20
ENDMDL
MODEL 3
REMARK VINA RESULT:    -2.878      1.424      3.231
REMARK INTER + INTRA:          -7.502
REMARK INTER:                  -6.615
REMARK INTRA:                  -0.888
REMARK UNBOUND:                -1.260
REMARK SMILES CCCCCCCCCCCCCCCCCCCCCC(=O)[O-]
REMARK SMILES IDX 12 1 11 2 10 3 9 4 8 5 7 6 6 7 5 8 4 9 3 10 2 11 1 12 13 13
REMARK SMILES IDX 14 14 15 15 16 16 17 17 18 18 19 19 20 20 21 21 22 22 23 23
REMARK SMILES IDX 24 24
REMARK H PARENT
REMARK Flexibility Score: inf
ROOT
ATOM      1  C   UNL     1       0.659  20.516  15.880  1.00  0.00     0.000 C 
ENDROOT
BRANCH   1   2
ATOM      2  C   UNL     1       1.947  20.992  16.565  1.00  0.00     0.000 C 
BRANCH   2   3
ATOM      3  C   UNL     1       3.084  19.956  16.491  1.00  0.00     0.000 C 
BRANCH   3   4
ATOM      4  C   UNL     1       4.494  20.545  16.273  1.00  0.00    -0.000 C 
BRANCH   4   5
ATOM      5  C   UNL     1       5.147  20.194  14.925  1.00  0.00    -0.000 C 
BRANCH   5   6
ATOM      6  C   UNL     1       6.410  21.021  14.639  1.00  0.00    -0.000 C 
BRANCH   6   7
ATOM      7  C   UNL     1       7.650  20.355  15.251  1.00  0.00    -0.000 C 
BRANCH   7   8
ATOM      8  C   UNL     1       8.778  20.131  14.228  1.00  0.00    -0.000 C 
BRANCH   8   9
ATOM      9  C   UNL     1      10.191  20.472  14.735  1.00  0.00    -0.000 C 
BRANCH   9  10
ATOM     10  C   UNL     1      10.782  21.722  14.067  1.00  0.00    -0.000 C 
BRANCH  10  11
ATOM     11  C   UNL     1       9.847  22.257  12.977  1.00  0.00    -0.003 C 
ATOM     12  C   UNL     1      10.433  23.495  12.305  1.00  0.00     0.004 C 
ENDBRANCH  10  11
ENDBRANCH   9  10
ENDBRANCH   8   9
ENDBRANCH   7   8
ENDBRANCH   6   7
ENDBRANCH   5   6
ENDBRANCH   4   5
ENDBRANCH   3   4
ENDBRANCH   2   3
ENDBRANCH   1   2
BRANCH   1  13
ATOM     13  C   UNL     1      -0.296  19.875  16.899  1.00  0.00     0.000 C 
BRANCH  13  14
ATOM     14  C   UNL     1      -1.612  20.655  17.051  1.00  0.00     0.000 C 
BRANCH  14  15
ATOM     15  C   UNL     1      -2.804  19.933  16.401  1.00  0.00     0.000 C 
BRANCH  15  16
ATOM     16  C   UNL     1      -3.743  20.888  15.641  1.00  0.00     0.000 C 
BRANCH  16  17
ATOM     17  C   UNL     1      -5.197  20.402  15.494  1.00  0.00     0.000 C 
BRANCH  17  18
ATOM     18  C   UNL     1      -6.085  21.391  14.721  1.00  0.00     0.000 C 
BRANCH  18  19
ATOM     19  C   UNL     1      -7.565  20.977  14.713  1.00  0.00     0.000 C 
BRANCH  19  20
ATOM     20  C   UNL     1      -7.986  20.248  16.001  1.00  0.00     0.006 C 
BRANCH  20  21
ATOM     21  C   UNL     1      -8.744  21.169  16.966  1.00  0.00     0.053 C 
BRANCH  21  22
ATOM     22  C   UNL     1      -8.095  21.215  18.315  1.00  0.00     0.041 C 
ATOM     23  O   UNL     1      -8.787  21.433  19.345  1.00  0.00    -0.550 OA
ATOM     24  O   UNL     1      -6.723  21.031  18.435  1.00  0.00    -0.550 OA
ENDBRANCH  21  22
ENDBRANCH  20  21
ENDBRANCH  19  20
ENDBRANCH  18  19
ENDBRANCH  17  18
ENDBRANCH  16  17
ENDBRANCH  15  16
ENDBRANCH  14  15
ENDBRANCH  13  14
ENDBRANCH   1  13
TORSDOF 20
ENDMDL
MODEL 4
REMARK VINA RESULT:    -2.807      5.614     13.286
REMARK INTER + INTRA:          -7.349
REMARK INTER:                  -6.590
REMARK INTRA:                  -0.759
REMARK UNBOUND:                -1.260
REMARK SMILES CCCCCCCCCCCCCCCCCCCCCC(=O)[O-]
REMARK SMILES IDX 12 1 11 2 10 3 9 4 8 5 7 6 6 7 5 8 4 9 3 10 2 11 1 12 13 13
REMARK SMILES IDX 14 14 15 15 16 16 17 17 18 18 19 19 20 20 21 21 22 22 23 23
REMARK SMILES IDX 24 24
REMARK H PARENT
REMARK Flexibility Score: inf
ROOT
ATOM      1  C   UNL     1      -1.280  20.857  16.194  1.00  0.00     0.000 C 
ENDROOT
BRANCH   1   2
ATOM      2  C   UNL     1      -2.547  19.991  16.238  1.00  0.00     0.000 C 
BRANCH   2   3
ATOM      3  C   UNL     1      -3.750  20.653  15.542  1.00  0.00     0.000 C 
BRANCH   3   4
ATOM      4  C   UNL     1      -5.127  20.316  16.153  1.00  0.00    -0.000 C 
BRANCH   4   5
ATOM      5  C   UNL     1      -6.318  21.070  15.536  1.00  0.00    -0.000 C 
BRANCH   5   6
ATOM      6  C   UNL     1      -7.536  20.167  15.290  1.00  0.00    -0.000 C 
BRANCH   6   7
ATOM      7  C   UNL     1      -8.555  20.301  16.430  1.00  0.00    -0.000 C 
BRANCH   7   8
ATOM      8  C   UNL     1      -8.444  21.640  17.180  1.00  0.00    -0.000 C 
BRANCH   8   9
ATOM      9  C   UNL     1      -8.795  21.575  18.678  1.00  0.00    -0.000 C 
BRANCH   9  10
ATOM     10  C   UNL     1      -7.629  21.990  19.586  1.00  0.00    -0.000 C 
BRANCH  10  11
ATOM     11  C   UNL     1      -8.135  22.742  20.821  1.00  0.00    -0.003 C 
ATOM     12  C   UNL     1      -7.302  23.993  21.085  1.00  0.00     0.004 C 
ENDBRANCH  10  11
ENDBRANCH   9  10
ENDBRANCH   8   9
ENDBRANCH   7   8
ENDBRANCH   6   7
ENDBRANCH   5   6
ENDBRANCH   4   5
ENDBRANCH   3   4
ENDBRANCH   2   3
ENDBRANCH   1   2
BRANCH   1  13
ATOM     13  C   UNL     1      -0.051  20.048  16.640  1.00  0.00     0.000 C 
BRANCH  13  14
ATOM     14  C   UNL     1       1.267  20.808  16.431  1.00  0.00     0.000 C 
BRANCH  14  15
ATOM     15  C   UNL     1       2.502  19.912  16.622  1.00  0.00     0.000 C 
BRANCH  15  16
ATOM     16  C   UNL     1       3.580  20.137  15.544  1.00  0.00     0.000 C 
BRANCH  16  17
ATOM     17  C   UNL     1       5.028  19.876  15.999  1.00  0.00     0.000 C 
BRANCH  17  18
ATOM     18  C   UNL     1       5.865  21.162  16.104  1.00  0.00     0.000 C 
BRANCH  18  19
ATOM     19  C   UNL     1       7.344  20.882  16.418  1.00  0.00     0.000 C 
BRANCH  19  20
ATOM     20  C   UNL     1       8.037  20.052  15.323  1.00  0.00     0.006 C 
BRANCH  20  21
ATOM     21  C   UNL     1       9.364  20.678  14.875  1.00  0.00     0.053 C 
BRANCH  21  22
ATOM     22  C   UNL     1       9.276  21.235  13.488  1.00  0.00     0.041 C 
ATOM     23  O   UNL     1       8.942  20.492  12.526  1.00  0.00    -0.550 OA
ATOM     24  O   UNL     1       9.575  22.571  13.253  1.00  0.00    -0.550 OA
ENDBRANCH  21  22
ENDBRANCH  20  21
ENDBRANCH  19  20
ENDBRANCH  18  19
ENDBRANCH  17  18
ENDBRANCH  16  17
ENDBRANCH  15  16
ENDBRANCH  14  15
ENDBRANCH  13  14
ENDBRANCH   1  13
TORSDOF 20
ENDMDL
MODEL 5
REMARK VINA RESULT:    -2.661      6.290     14.259
REMARK INTER + INTRA:          -7.032
REMARK INTER:                  -6.482
REMARK INTRA:                  -0.550
REMARK UNBOUND:                -1.260
REMARK SMILES CCCCCCCCCCCCCCCCCCCCCC(=O)[O-]
REMARK SMILES IDX 12 1 11 2 10 3 9 4 8 5 7 6 6 7 5 8 4 9 3 10 2 11 1 12 13 13
REMARK SMILES IDX 14 14 15 15 16 16 17 17 18 18 19 19 20 20 21 21 22 22 23 23
REMARK SMILES IDX 24 24
REMARK H PARENT
REMARK Flexibility Score: inf
ROOT
ATOM      1  C   UNL     1       2.012  20.991  16.366  1.00  0.00     0.000 C 
ENDROOT
BRANCH   1   2
ATOM      2  C   UNL     1       0.910  19.929  16.243  1.00  0.00     0.000 C 
BRANCH   2   3
ATOM      3  C   UNL     1      -0.345  20.267  17.070  1.00  0.00     0.000 C 
BRANCH   3   4
ATOM      4  C   UNL     1      -1.609  20.581  16.243  1.00  0.00    -0.000 C 
BRANCH   4   5
ATOM      5  C   UNL     1      -2.912  19.964  16.781  1.00  0.00    -0.000 C 
BRANCH   5   6
ATOM      6  C   UNL     1      -4.115  20.205  15.857  1.00  0.00    -0.000 C 
BRANCH   6   7
ATOM      7  C   UNL     1      -5.379  20.508  16.673  1.00  0.00    -0.000 C 
BRANCH   7   8
ATOM      8  C   UNL     1      -6.582  20.899  15.795  1.00  0.00    -0.000 C 
BRANCH   8   9
ATOM      9  C   UNL     1      -7.932  20.954  16.532  1.00  0.00    -0.000 C 
BRANCH   9  10
ATOM     10  C   UNL     1      -8.154  22.276  17.281  1.00  0.00    -0.000 C 
BRANCH  10  11
ATOM     11  C   UNL     1      -8.190  22.049  18.796  1.00  0.00    -0.003 C 
ATOM     12  C   UNL     1      -8.782  23.255  19.520  1.00  0.00     0.004 C 
ENDBRANCH  10  11
ENDBRANCH   9  10
ENDBRANCH   8   9
ENDBRANCH   7   8
ENDBRANCH   6   7
ENDBRANCH   5   6
ENDBRANCH   4   5
ENDBRANCH   3   4
ENDBRANCH   2   3
ENDBRANCH   1   2
BRANCH   1  13
ATOM     13  C   UNL     1       3.317  20.365  16.881  1.00  0.00     0.000 C 
BRANCH  13  14
ATOM     14  C   UNL     1       4.550  21.232  16.580  1.00  0.00     0.000 C 
BRANCH  14  15
ATOM     15  C   UNL     1       5.462  20.610  15.509  1.00  0.00     0.000 C 
BRANCH  15  16
ATOM     16  C   UNL     1       6.833  20.182  16.064  1.00  0.00     0.000 C 
BRANCH  16  17
ATOM     17  C   UNL     1       8.042  20.945  15.489  1.00  0.00     0.000 C 
BRANCH  17  18
ATOM     18  C   UNL     1       8.354  20.563  14.032  1.00  0.00     0.000 C 
BRANCH  18  19
ATOM     19  C   UNL     1       9.735  21.058  13.573  1.00  0.00     0.000 C 
BRANCH  19  20
ATOM     20  C   UNL     1       9.677  22.442  12.901  1.00  0.00     0.006 C 
BRANCH  20  21
ATOM     21  C   UNL     1      10.858  22.672  11.949  1.00  0.00     0.053 C 
BRANCH  21  22
ATOM     22  C   UNL     1      10.822  24.041  11.341  1.00  0.00     0.041 C 
ATOM     23  O   UNL     1      11.124  24.205  10.129  1.00  0.00    -0.550 OA
ATOM     24  O   UNL     1      10.470  25.138  12.117  1.00  0.00    -0.550 OA
ENDBRANCH  21  22
ENDBRANCH  20  21
ENDBRANCH  19  20
ENDBRANCH  18  19
ENDBRANCH  17  18
ENDBRANCH  16  17
ENDBRANCH  15  16
ENDBRANCH  14  15
ENDBRANCH  13  14
ENDBRANCH   1  13
TORSDOF 20
ENDMDL
MODEL 6
REMARK VINA RESULT:    -2.368      1.987      3.611
REMARK INTER + INTRA:          -6.396
REMARK INTER:                  -5.910
REMARK INTRA:                  -0.486
REMARK UNBOUND:                -1.260
REMARK SMILES CCCCCCCCCCCCCCCCCCCCCC(=O)[O-]
REMARK SMILES IDX 12 1 11 2 10 3 9 4 8 5 7 6 6 7 5 8 4 9 3 10 2 11 1 12 13 13
REMARK SMILES IDX 14 14 15 15 16 16 17 17 18 18 19 19 20 20 21 21 22 22 23 23
REMARK SMILES IDX 24 24
REMARK H PARENT
REMARK Flexibility Score: inf
ROOT
ATOM      1  C   UNL     1       1.034  21.095  15.913  1.00  0.00     0.000 C 
ENDROOT
BRANCH   1   2
ATOM      2  C   UNL     1       2.396  21.083  16.622  1.00  0.00     0.000 C 
BRANCH   2   3
ATOM      3  C   UNL     1       3.317  19.951  16.132  1.00  0.00     0.000 C 
BRANCH   3   4
ATOM      4  C   UNL     1       4.650  20.415  15.508  1.00  0.00    -0.000 C 
BRANCH   4   5
ATOM      5  C   UNL     1       5.770  20.727  16.516  1.00  0.00    -0.000 C 
BRANCH   5   6
ATOM      6  C   UNL     1       7.173  20.452  15.955  1.00  0.00    -0.000 C 
BRANCH   6   7
ATOM      7  C   UNL     1       7.202  20.646  14.433  1.00  0.00    -0.000 C 
BRANCH   7   8
ATOM      8  C   UNL     1       8.532  20.203  13.796  1.00  0.00    -0.000 C 
BRANCH   8   9
ATOM      9  C   UNL     1       9.609  21.300  13.715  1.00  0.00    -0.000 C 
BRANCH   9  10
ATOM     10  C   UNL     1      10.060  21.592  12.277  1.00  0.00    -0.000 C 
BRANCH  10  11
ATOM     11  C   UNL     1      10.147  20.300  11.456  1.00  0.00    -0.003 C 
ATOM     12  C   UNL     1       9.348  20.415  10.161  1.00  0.00     0.004 C 
ENDBRANCH  10  11
ENDBRANCH   9  10
ENDBRANCH   8   9
ENDBRANCH   7   8
ENDBRANCH   6   7
ENDBRANCH   5   6
ENDBRANCH   4   5
ENDBRANCH   3   4
ENDBRANCH   2   3
ENDBRANCH   1   2
BRANCH   1  13
ATOM     13  C   UNL     1       0.076  20.080  16.556  1.00  0.00     0.000 C 
BRANCH  13  14
ATOM     14  C   UNL     1      -1.401  20.471  16.389  1.00  0.00     0.000 C 
BRANCH  14  15
ATOM     15  C   UNL     1      -2.111  20.683  17.737  1.00  0.00     0.000 C 
BRANCH  15  16
ATOM     16  C   UNL     1      -3.417  19.875  17.861  1.00  0.00     0.000 C 
BRANCH  16  17
ATOM     17  C   UNL     1      -4.277  20.202  19.096  1.00  0.00     0.000 C 
BRANCH  17  18
ATOM     18  C   UNL     1      -5.782  20.251  18.783  1.00  0.00     0.000 C 
BRANCH  18  19
ATOM     19  C   UNL     1      -6.563  21.135  19.769  1.00  0.00     0.000 C 
BRANCH  19  20
ATOM     20  C   UNL     1      -7.941  20.550  20.127  1.00  0.00     0.006 C 
BRANCH  20  21
ATOM     21  C   UNL     1      -8.873  21.602  20.741  1.00  0.00     0.053 C 
BRANCH  21  22
ATOM     22  C   UNL     1      -8.125  22.574  21.602  1.00  0.00     0.041 C 
ATOM     23  O   UNL     1      -8.005  22.365  22.839  1.00  0.00    -0.550 OA
ATOM     24  O   UNL     1      -7.571  23.717  21.041  1.00  0.00    -0.550 OA
ENDBRANCH  21  22
ENDBRANCH  20  21
ENDBRANCH  19  20
ENDBRANCH  18  19
ENDBRANCH  17  18
ENDBRANCH  16  17
ENDBRANCH  15  16
ENDBRANCH  14  15
ENDBRANCH  13  14
ENDBRANCH   1  13
TORSDOF 20
ENDMDL
MODEL 7
REMARK VINA RESULT:    -2.257      6.045     13.497
REMARK INTER + INTRA:          -6.156
REMARK INTER:                  -5.099
REMARK INTRA:                  -1.057
REMARK UNBOUND:                -1.260
REMARK SMILES CCCCCCCCCCCCCCCCCCCCCC(=O)[O-]
REMARK SMILES IDX 12 1 11 2 10 3 9 4 8 5 7 6 6 7 5 8 4 9 3 10 2 11 1 12 13 13
REMARK SMILES IDX 14 14 15 15 16 16 17 17 18 18 19 19 20 20 21 21 22 22 23 23
REMARK SMILES IDX 24 24
REMARK H PARENT
REMARK Flexibility Score: inf
ROOT
ATOM      1  C   UNL     1       0.793  20.931  16.559  1.00  0.00     0.000 C 
ENDROOT
BRANCH   1   2
ATOM      2  C   UNL     1      -0.314  19.882  16.740  1.00  0.00     0.000 C 
BRANCH   2   3
ATOM      3  C   UNL     1      -1.095  20.055  18.055  1.00  0.00     0.000 C 
BRANCH   3   4
ATOM      4  C   UNL     1      -2.513  20.645  17.902  1.00  0.00    -0.000 C 
BRANCH   4   5
ATOM      5  C   UNL     1      -3.176  20.407  16.534  1.00  0.00    -0.000 C 
BRANCH   5   6
ATOM      6  C   UNL     1      -4.676  20.096  16.642  1.00  0.00    -0.000 C 
BRANCH   6   7
ATOM      7  C   UNL     1      -5.090  19.898  18.107  1.00  0.00    -0.000 C 
BRANCH   7   8
ATOM      8  C   UNL     1      -6.418  20.594  18.455  1.00  0.00    -0.000 C 
BRANCH   8   9
ATOM      9  C   UNL     1      -7.529  20.435  17.403  1.00  0.00    -0.000 C 
BRANCH   9  10
ATOM     10  C   UNL     1      -7.805  21.727  16.621  1.00  0.00    -0.000 C 
BRANCH  10  11
ATOM     11  C   UNL     1      -7.569  21.523  15.121  1.00  0.00    -0.003 C 
ATOM     12  C   UNL     1      -7.549  20.039  14.762  1.00  0.00     0.004 C 
ENDBRANCH  10  11
ENDBRANCH   9  10
ENDBRANCH   8   9
ENDBRANCH   7   8
ENDBRANCH   6   7
ENDBRANCH   5   6
ENDBRANCH   4   5
ENDBRANCH   3   4
ENDBRANCH   2   3
ENDBRANCH   1   2
BRANCH   1  13
ATOM     13  C   UNL     1       2.080  20.279  16.030  1.00  0.00     0.000 C 
BRANCH  13  14
ATOM     14  C   UNL     1       3.335  20.749  16.782  1.00  0.00     0.000 C 
BRANCH  14  15
ATOM     15  C   UNL     1       4.612  20.043  16.297  1.00  0.00     0.000 C 
BRANCH  15  16
ATOM     16  C   UNL     1       5.099  20.555  14.928  1.00  0.00     0.000 C 
BRANCH  16  17
ATOM     17  C   UNL     1       6.590  20.315  14.628  1.00  0.00     0.000 C 
BRANCH  17  18
ATOM     18  C   UNL     1       7.517  20.836  15.740  1.00  0.00     0.000 C 
BRANCH  18  19
ATOM     19  C   UNL     1       8.906  21.233  15.215  1.00  0.00     0.000 C 
BRANCH  19  20
ATOM     20  C   UNL     1       9.125  20.829  13.746  1.00  0.00     0.006 C 
BRANCH  20  21
ATOM     21  C   UNL     1      10.520  21.216  13.241  1.00  0.00     0.053 C 
BRANCH  21  22
ATOM     22  C   UNL     1      10.483  22.454  12.399  1.00  0.00     0.041 C 
ATOM     23  O   UNL     1      10.479  22.367  11.142  1.00  0.00    -0.550 OA
ATOM     24  O   UNL     1      10.466  23.706  13.001  1.00  0.00    -0.550 OA
ENDBRANCH  21  22
ENDBRANCH  20  21
ENDBRANCH  19  20
ENDBRANCH  18  19
ENDBRANCH  17  18
ENDBRANCH  16  17
ENDBRANCH  15  16
ENDBRANCH  14  15
ENDBRANCH  13  14
ENDBRANCH   1  13
TORSDOF 20
ENDMDL
MODEL 8
REMARK VINA RESULT:    -0.919      1.204      2.130
REMARK INTER + INTRA:          -3.253
REMARK INTER:                  -2.353
REMARK INTRA:                  -0.901
REMARK UNBOUND:                -1.260
REMARK SMILES CCCCCCCCCCCCCCCCCCCCCC(=O)[O-]
REMARK SMILES IDX 12 1 11 2 10 3 9 4 8 5 7 6 6 7 5 8 4 9 3 10 2 11 1 12 13 13
REMARK SMILES IDX 14 14 15 15 16 16 17 17 18 18 19 19 20 20 21 21 22 22 23 23
REMARK SMILES IDX 24 24
REMARK H PARENT
REMARK Flexibility Score: inf
ROOT
ATOM      1  C   UNL     1      -3.371  21.089  15.591  1.00  0.00     0.000 C 
ENDROOT
BRANCH   1   2
ATOM      2  C   UNL     1      -2.964  20.005  16.599  1.00  0.00     0.000 C 
BRANCH   2   3
ATOM      3  C   UNL     1      -1.771  20.422  17.479  1.00  0.00     0.000 C 
BRANCH   3   4
ATOM      4  C   UNL     1      -0.401  19.875  17.027  1.00  0.00    -0.000 C 
BRANCH   4   5
ATOM      5  C   UNL     1       0.410  20.813  16.117  1.00  0.00    -0.000 C 
BRANCH   5   6
ATOM      6  C   UNL     1       1.752  20.209  15.678  1.00  0.00    -0.000 C 
BRANCH   6   7
ATOM      7  C   UNL     1       2.866  20.571  16.671  1.00  0.00    -0.000 C 
BRANCH   7   8
ATOM      8  C   UNL     1       4.226  19.953  16.299  1.00  0.00    -0.000 C 
BRANCH   8   9
ATOM      9  C   UNL     1       5.061  20.777  15.303  1.00  0.00    -0.000 C 
BRANCH   9  10
ATOM     10  C   UNL     1       5.708  19.918  14.207  1.00  0.00    -0.000 C 
BRANCH  10  11
ATOM     11  C   UNL     1       7.236  19.938  14.324  1.00  0.00    -0.003 C 
ATOM     12  C   UNL     1       7.677  20.296  15.741  1.00  0.00     0.004 C 
ENDBRANCH  10  11
ENDBRANCH   9  10
ENDBRANCH   8   9
ENDBRANCH   7   8
ENDBRANCH   6   7
ENDBRANCH   5   6
ENDBRANCH   4   5
ENDBRANCH   3   4
ENDBRANCH   2   3
ENDBRANCH   1   2
BRANCH   1  13
ATOM     13  C   UNL     1      -4.674  20.702  14.872  1.00  0.00     0.000 C 
BRANCH  13  14
ATOM     14  C   UNL     1      -5.926  21.217  15.598  1.00  0.00     0.000 C 
BRANCH  14  15
ATOM     15  C   UNL     1      -6.808  20.078  16.135  1.00  0.00     0.000 C 
BRANCH  15  16
ATOM     16  C   UNL     1      -8.305  20.285  15.837  1.00  0.00     0.000 C 
BRANCH  16  17
ATOM     17  C   UNL     1      -9.101  21.008  16.940  1.00  0.00     0.000 C 
BRANCH  17  18
ATOM     18  C   UNL     1      -8.459  20.872  18.331  1.00  0.00     0.000 C 
BRANCH  18  19
ATOM     19  C   UNL     1      -8.628  22.137  19.188  1.00  0.00     0.000 C 
BRANCH  19  20
ATOM     20  C   UNL     1      -7.610  22.216  20.339  1.00  0.00     0.006 C 
BRANCH  20  21
ATOM     21  C   UNL     1      -8.049  23.199  21.432  1.00  0.00     0.053 C 
BRANCH  21  22
ATOM     22  C   UNL     1      -8.242  22.513  22.750  1.00  0.00     0.041 C 
ATOM     23  O   UNL     1      -7.756  23.011  23.801  1.00  0.00    -0.550 OA
ATOM     24  O   UNL     1      -8.945  21.317  22.817  1.00  0.00    -0.550 OA
ENDBRANCH  21  22
ENDBRANCH  20  21
ENDBRANCH  19  20
ENDBRANCH  18  19
ENDBRANCH  17  18
ENDBRANCH  16  17
ENDBRANCH  15  16
ENDBRANCH  14  15
ENDBRANCH  13  14
ENDBRANCH   1  13
TORSDOF 20
ENDMDL
