MODEL 1
REMARK VINA RESULT:    -4.266      0.000      0.000
REMARK INTER + INTRA:          -6.313
REMARK INTER:                  -6.011
REMARK INTRA:                  -0.302
REMARK UNBOUND:                -0.302
REMARK SMILES CCCCCCCCC(=O)[O-]
REMARK SMILES IDX 6 1 7 2 8 3 9 4 10 5 11 6 5 7 4 8 3 9 2 10 1 11
REMARK H PARENT
REMARK Flexibility Score: inf
ROOT
ATOM      1  C   UNL     1     191.372 196.766 191.137  1.00  0.00     0.000 C 
ENDROOT
BRANCH   1   2
ATOM      2  C   UNL     1     191.272 198.110 191.876  1.00  0.00     0.006 C 
BRANCH   2   3
ATOM      3  C   UNL     1     192.138 199.203 191.238  1.00  0.00     0.053 C 
BRANCH   3   4
ATOM      4  C   UNL     1     193.089 199.770 192.244  1.00  0.00     0.041 C 
ATOM      5  O   UNL     1     193.599 200.907 192.063  1.00  0.00    -0.550 OA
ATOM      6  O   UNL     1     193.451 199.023 193.357  1.00  0.00    -0.550 OA
ENDBRANCH   3   4
ENDBRANCH   2   3
ENDBRANCH   1   2
BRANCH   1   7
ATOM      7  C   UNL     1     191.672 195.593 192.081  1.00  0.00     0.000 C 
BRANCH   7   8
ATOM      8  C   UNL     1     191.280 194.257 191.438  1.00  0.00    -0.000 C 
BRANCH   8   9
ATOM      9  C   UNL     1     192.491 193.321 191.331  1.00  0.00    -0.000 C 
BRANCH   9  10
ATOM     10  C   UNL     1     193.707 194.060 190.759  1.00  0.00    -0.003 C 
ATOM     11  C   UNL     1     194.951 193.810 191.606  1.00  0.00     0.004 C 
ENDBRANCH   9  10
ENDBRANCH   8   9
ENDBRANCH   7   8
ENDBRANCH   1   7
TORSDOF 7
ENDMDL
MODEL 2
REMARK VINA RESULT:    -4.136      1.431      1.957
REMARK INTER + INTRA:          -6.130
REMARK INTER:                  -5.795
REMARK INTRA:                  -0.335
REMARK UNBOUND:                -0.302
REMARK SMILES CCCCCCCCC(=O)[O-]
REMARK SMILES IDX 6 1 7 2 8 3 9 4 10 5 11 6 5 7 4 8 3 9 2 10 1 11
REMARK H PARENT
REMARK Flexibility Score: inf
ROOT
ATOM      1  C   UNL     1     191.490 196.521 190.948  1.00  0.00     0.000 C 
ENDROOT
BRANCH   1   2
ATOM      2  C   UNL     1     191.304 198.047 190.899  1.00  0.00     0.006 C 
BRANCH   2   3
ATOM      3  C   UNL     1     191.910 198.756 192.117  1.00  0.00     0.053 C 
BRANCH   3   4
ATOM      4  C   UNL     1     192.823 199.856 191.679  1.00  0.00     0.041 C 
ATOM      5  O   UNL     1     193.373 200.602 192.533  1.00  0.00    -0.550 OA
ATOM      6  O   UNL     1     193.030 200.092 190.325  1.00  0.00    -0.550 OA
ENDBRANCH   3   4
ENDBRANCH   2   3
ENDBRANCH   1   2
BRANCH   1   7
ATOM      7  C   UNL     1     191.713 195.999 192.375  1.00  0.00     0.000 C 
BRANCH   7   8
ATOM      8  C   UNL     1     190.754 194.845 192.693  1.00  0.00    -0.000 C 
BRANCH   8   9
ATOM      9  C   UNL     1     190.737 193.815 191.556  1.00  0.00    -0.000 C 
BRANCH   9  10
ATOM     10  C   UNL     1     191.945 192.875 191.649  1.00  0.00    -0.003 C 
ATOM     11  C   UNL     1     191.502 191.416 191.730  1.00  0.00     0.004 C 
ENDBRANCH   9  10
ENDBRANCH   8   9
ENDBRANCH   7   8
ENDBRANCH   1   7
TORSDOF 7
ENDMDL
MODEL 3
REMARK VINA RESULT:    -4.061      4.053      6.075
REMARK INTER + INTRA:          -6.024
REMARK INTER:                  -5.693
REMARK INTRA:                  -0.331
REMARK UNBOUND:                -0.302
REMARK SMILES CCCCCCCCC(=O)[O-]
REMARK SMILES IDX 6 1 7 2 8 3 9 4 10 5 11 6 5 7 4 8 3 9 2 10 1 11
REMARK H PARENT
REMARK Flexibility Score: inf
ROOT
ATOM      1  C   UNL     1     191.777 195.833 191.509  1.00  0.00     0.000 C 
ENDROOT
BRANCH   1   2
ATOM      2  C   UNL     1     191.174 194.433 191.702  1.00  0.00     0.006 C 
BRANCH   2   3
ATOM      3  C   UNL     1     192.100 193.316 191.204  1.00  0.00     0.053 C 
BRANCH   3   4
ATOM      4  C   UNL     1     191.374 192.009 191.175  1.00  0.00     0.041 C 
ATOM      5  O   UNL     1     191.672 191.099 191.993  1.00  0.00    -0.550 OA
ATOM      6  O   UNL     1     190.400 191.776 190.212  1.00  0.00    -0.550 OA
ENDBRANCH   3   4
ENDBRANCH   2   3
ENDBRANCH   1   2
BRANCH   1   7
ATOM      7  C   UNL     1     191.312 196.829 192.582  1.00  0.00     0.000 C 
BRANCH   7   8
ATOM      8  C   UNL     1     191.112 198.227 191.983  1.00  0.00    -0.000 C 
BRANCH   8   9
ATOM      9  C   UNL     1     191.570 198.269 190.519  1.00  0.00    -0.000 C 
BRANCH   9  10
ATOM     10  C   UNL     1     192.601 199.382 190.298  1.00  0.00    -0.003 C 
ATOM     11  C   UNL     1     192.714 200.280 191.527  1.00  0.00     0.004 C 
ENDBRANCH   9  10
ENDBRANCH   8   9
ENDBRANCH   7   8
ENDBRANCH   1   7
TORSDOF 7
ENDMDL
MODEL 4
REMARK VINA RESULT:    -4.013      1.200      1.882
REMARK INTER + INTRA:          -5.957
REMARK INTER:                  -5.636
REMARK INTRA:                  -0.321
REMARK UNBOUND:                -0.302
REMARK SMILES CCCCCCCCC(=O)[O-]
REMARK SMILES IDX 6 1 7 2 8 3 9 4 10 5 11 6 5 7 4 8 3 9 2 10 1 11
REMARK H PARENT
REMARK Flexibility Score: inf
ROOT
ATOM      1  C   UNL     1     191.151 196.106 192.766  1.00  0.00     0.000 C 
ENDROOT
BRANCH   1   2
ATOM      2  C   UNL     1     191.137 197.636 192.905  1.00  0.00     0.006 C 
BRANCH   2   3
ATOM      3  C   UNL     1     191.474 198.352 191.591  1.00  0.00     0.053 C 
BRANCH   3   4
ATOM      4  C   UNL     1     192.586 199.331 191.800  1.00  0.00     0.041 C 
ATOM      5  O   UNL     1     192.905 200.134 190.884  1.00  0.00    -0.550 OA
ATOM      6  O   UNL     1     193.304 199.324 192.989  1.00  0.00    -0.550 OA
ENDBRANCH   3   4
ENDBRANCH   2   3
ENDBRANCH   1   2
BRANCH   1   7
ATOM      7  C   UNL     1     191.494 195.644 191.342  1.00  0.00     0.000 C 
BRANCH   7   8
ATOM      8  C   UNL     1     192.750 194.764 191.339  1.00  0.00    -0.000 C 
BRANCH   8   9
ATOM      9  C   UNL     1     192.446 193.372 190.772  1.00  0.00    -0.000 C 
BRANCH   9  10
ATOM     10  C   UNL     1     191.214 192.761 191.448  1.00  0.00    -0.003 C 
ATOM     11  C   UNL     1     191.492 191.334 191.914  1.00  0.00     0.004 C 
ENDBRANCH   9  10
ENDBRANCH   8   9
ENDBRANCH   7   8
ENDBRANCH   1   7
TORSDOF 7
ENDMDL
MODEL 5
REMARK VINA RESULT:    -3.992      5.223      7.032
REMARK INTER + INTRA:          -5.927
REMARK INTER:                  -5.370
REMARK INTRA:                  -0.557
REMARK UNBOUND:                -0.302
REMARK SMILES CCCCCCCCC(=O)[O-]
REMARK SMILES IDX 6 1 7 2 8 3 9 4 10 5 11 6 5 7 4 8 3 9 2 10 1 11
REMARK H PARENT
REMARK Flexibility Score: inf
ROOT
ATOM      1  C   UNL     1     189.978 191.586 192.681  1.00  0.00     0.000 C 
ENDROOT
BRANCH   1   2
ATOM      2  C   UNL     1     188.746 190.744 192.312  1.00  0.00     0.006 C 
BRANCH   2   3
ATOM      3  C   UNL     1     187.614 191.584 191.708  1.00  0.00     0.053 C 
BRANCH   3   4
ATOM      4  C   UNL     1     187.621 191.474 190.216  1.00  0.00     0.041 C 
ATOM      5  O   UNL     1     188.464 192.117 189.537  1.00  0.00    -0.550 OA
ATOM      6  O   UNL     1     186.666 190.698 189.572  1.00  0.00    -0.550 OA
ENDBRANCH   3   4
ENDBRANCH   2   3
ENDBRANCH   1   2
BRANCH   1   7
ATOM      7  C   UNL     1     191.234 191.168 191.903  1.00  0.00     0.000 C 
BRANCH   7   8
ATOM      8  C   UNL     1     191.701 192.293 190.970  1.00  0.00    -0.000 C 
BRANCH   8   9
ATOM      9  C   UNL     1     191.269 193.665 191.503  1.00  0.00    -0.000 C 
BRANCH   9  10
ATOM     10  C   UNL     1     192.279 194.749 191.109  1.00  0.00    -0.003 C 
ATOM     11  C   UNL     1     193.654 194.146 190.831  1.00  0.00     0.004 C 
ENDBRANCH   9  10
ENDBRANCH   8   9
ENDBRANCH   7   8
ENDBRANCH   1   7
TORSDOF 7
ENDMDL
MODEL 6
REMARK VINA RESULT:    -3.974      3.657      5.982
REMARK INTER + INTRA:          -5.902
REMARK INTER:                  -5.394
REMARK INTRA:                  -0.508
REMARK UNBOUND:                -0.302
REMARK SMILES CCCCCCCCC(=O)[O-]
REMARK SMILES IDX 6 1 7 2 8 3 9 4 10 5 11 6 5 7 4 8 3 9 2 10 1 11
REMARK H PARENT
REMARK Flexibility Score: inf
ROOT
ATOM      1  C   UNL     1     191.901 192.748 190.862  1.00  0.00     0.000 C 
ENDROOT
BRANCH   1   2
ATOM      2  C   UNL     1     191.800 191.670 191.953  1.00  0.00     0.006 C 
BRANCH   2   3
ATOM      3  C   UNL     1     190.348 191.315 192.301  1.00  0.00     0.053 C 
BRANCH   3   4
ATOM      4  C   UNL     1     189.625 192.520 192.815  1.00  0.00     0.041 C 
ATOM      5  O   UNL     1     189.987 193.065 193.891  1.00  0.00    -0.550 OA
ATOM      6  O   UNL     1     188.519 193.011 192.132  1.00  0.00    -0.550 OA
ENDBRANCH   3   4
ENDBRANCH   2   3
ENDBRANCH   1   2
BRANCH   1   7
ATOM      7  C   UNL     1     192.564 194.039 191.367  1.00  0.00     0.000 C 
BRANCH   7   8
ATOM      8  C   UNL     1     191.641 195.246 191.159  1.00  0.00    -0.000 C 
BRANCH   8   9
ATOM      9  C   UNL     1     191.468 196.038 192.461  1.00  0.00    -0.000 C 
BRANCH   9  10
ATOM     10  C   UNL     1     191.580 197.545 192.206  1.00  0.00    -0.003 C 
ATOM     11  C   UNL     1     191.290 197.879 190.745  1.00  0.00     0.004 C 
ENDBRANCH   9  10
ENDBRANCH   8   9
ENDBRANCH   7   8
ENDBRANCH   1   7
TORSDOF 7
ENDMDL
MODEL 7
REMARK VINA RESULT:    -3.969      3.024      5.054
REMARK INTER + INTRA:          -5.896
REMARK INTER:                  -5.195
REMARK INTRA:                  -0.701
REMARK UNBOUND:                -0.302
REMARK SMILES CCCCCCCCC(=O)[O-]
REMARK SMILES IDX 6 1 7 2 8 3 9 4 10 5 11 6 5 7 4 8 3 9 2 10 1 11
REMARK H PARENT
REMARK Flexibility Score: inf
ROOT
ATOM      1  C   UNL     1     191.576 192.205 190.886  1.00  0.00     0.000 C 
ENDROOT
BRANCH   1   2
ATOM      2  C   UNL     1     192.163 193.536 191.383  1.00  0.00     0.006 C 
BRANCH   2   3
ATOM      3  C   UNL     1     191.154 194.689 191.318  1.00  0.00     0.053 C 
BRANCH   3   4
ATOM      4  C   UNL     1     191.140 195.444 192.609  1.00  0.00     0.041 C 
ATOM      5  O   UNL     1     190.339 195.120 193.525  1.00  0.00    -0.550 OA
ATOM      6  O   UNL     1     191.979 196.538 192.783  1.00  0.00    -0.550 OA
ENDBRANCH   3   4
ENDBRANCH   2   3
ENDBRANCH   1   2
BRANCH   1   7
ATOM      7  C   UNL     1     191.471 191.153 192.000  1.00  0.00     0.000 C 
BRANCH   7   8
ATOM      8  C   UNL     1     190.263 191.430 192.904  1.00  0.00    -0.000 C 
BRANCH   8   9
ATOM      9  C   UNL     1     188.952 191.062 192.198  1.00  0.00    -0.000 C 
BRANCH   9  10
ATOM     10  C   UNL     1     188.112 192.313 191.913  1.00  0.00    -0.003 C 
ATOM     11  C   UNL     1     187.814 192.448 190.423  1.00  0.00     0.004 C 
ENDBRANCH   9  10
ENDBRANCH   8   9
ENDBRANCH   7   8
ENDBRANCH   1   7
TORSDOF 7
ENDMDL
MODEL 8
REMARK VINA RESULT:    -3.965      2.200      3.687
REMARK INTER + INTRA:          -5.889
REMARK INTER:                  -5.346
REMARK INTRA:                  -0.544
REMARK UNBOUND:                -0.302
REMARK SMILES CCCCCCCCC(=O)[O-]
REMARK SMILES IDX 6 1 7 2 8 3 9 4 10 5 11 6 5 7 4 8 3 9 2 10 1 11
REMARK H PARENT
REMARK Flexibility Score: inf
ROOT
ATOM      1  C   UNL     1     192.579 194.503 191.128  1.00  0.00     0.000 C 
ENDROOT
BRANCH   1   2
ATOM      2  C   UNL     1     191.159 194.958 191.503  1.00  0.00     0.006 C 
BRANCH   2   3
ATOM      3  C   UNL     1     191.143 195.923 192.695  1.00  0.00     0.053 C 
BRANCH   3   4
ATOM      4  C   UNL     1     191.503 197.306 192.254  1.00  0.00     0.041 C 
ATOM      5  O   UNL     1     192.119 198.080 193.032  1.00  0.00    -0.550 OA
ATOM      6  O   UNL     1     191.114 197.758 190.999  1.00  0.00    -0.550 OA
ENDBRANCH   3   4
ENDBRANCH   2   3
ENDBRANCH   1   2
BRANCH   1   7
ATOM      7  C   UNL     1     192.805 193.005 191.378  1.00  0.00     0.000 C 
BRANCH   7   8
ATOM      8  C   UNL     1     191.509 192.212 191.170  1.00  0.00    -0.000 C 
BRANCH   8   9
ATOM      9  C   UNL     1     191.352 191.123 192.238  1.00  0.00    -0.000 C 
BRANCH   9  10
ATOM     10  C   UNL     1     189.878 190.938 192.621  1.00  0.00    -0.003 C 
ATOM     11  C   UNL     1     188.993 191.956 191.908  1.00  0.00     0.004 C 
ENDBRANCH   9  10
ENDBRANCH   8   9
ENDBRANCH   7   8
ENDBRANCH   1   7
TORSDOF 7
ENDMDL
MODEL 9
REMARK VINA RESULT:    -3.961      5.387      7.225
REMARK INTER + INTRA:          -5.884
REMARK INTER:                  -5.203
REMARK INTRA:                  -0.680
REMARK UNBOUND:                -0.302
REMARK SMILES CCCCCCCCC(=O)[O-]
REMARK SMILES IDX 6 1 7 2 8 3 9 4 10 5 11 6 5 7 4 8 3 9 2 10 1 11
REMARK H PARENT
REMARK Flexibility Score: inf
ROOT
ATOM      1  C   UNL     1     191.571 191.469 191.928  1.00  0.00     0.000 C 
ENDROOT
BRANCH   1   2
ATOM      2  C   UNL     1     190.283 191.620 192.753  1.00  0.00     0.006 C 
BRANCH   2   3
ATOM      3  C   UNL     1     189.036 191.789 191.877  1.00  0.00     0.053 C 
BRANCH   3   4
ATOM      4  C   UNL     1     188.128 190.610 192.028  1.00  0.00     0.041 C 
ATOM      5  O   UNL     1     188.477 189.628 192.735  1.00  0.00    -0.550 OA
ATOM      6  O   UNL     1     186.916 190.574 191.349  1.00  0.00    -0.550 OA
ENDBRANCH   3   4
ENDBRANCH   2   3
ENDBRANCH   1   2
BRANCH   1   7
ATOM      7  C   UNL     1     191.697 192.533 190.828  1.00  0.00     0.000 C 
BRANCH   7   8
ATOM      8  C   UNL     1     192.382 193.796 191.364  1.00  0.00    -0.000 C 
BRANCH   8   9
ATOM      9  C   UNL     1     191.430 194.998 191.324  1.00  0.00    -0.000 C 
BRANCH   9  10
ATOM     10  C   UNL     1     191.401 195.721 192.676  1.00  0.00    -0.003 C 
ATOM     11  C   UNL     1     190.233 195.238 193.532  1.00  0.00     0.004 C 
ENDBRANCH   9  10
ENDBRANCH   8   9
ENDBRANCH   7   8
ENDBRANCH   1   7
TORSDOF 7
ENDMDL
