MODEL 1
REMARK VINA RESULT:    -3.638      0.000      0.000
REMARK INTER + INTRA:         -10.848
REMARK INTER:                  -7.892
REMARK INTRA:                  -2.957
REMARK UNBOUND:                -2.957
REMARK SMILES CCCCCCCCCCCCCCCCCCCCCC(=O)[O-]
REMARK SMILES IDX 12 1 11 2 10 3 9 4 8 5 7 6 6 7 5 8 4 9 3 10 2 11 1 12 13 13
REMARK SMILES IDX 14 14 15 15 16 16 17 17 18 18 19 19 20 20 21 21 22 22 23 23
REMARK SMILES IDX 24 24
REMARK H PARENT
REMARK Flexibility Score: inf
ROOT
ATOM      1  C   UNL     1       6.568  -3.011  -7.279  1.00  0.00     0.000 C 
ENDROOT
BRANCH   1   2
ATOM      2  C   UNL     1       6.154  -2.980  -8.763  1.00  0.00     0.000 C 
BRANCH   2   3
ATOM      3  C   UNL     1       4.837  -2.232  -9.055  1.00  0.00     0.000 C 
BRANCH   3   4
ATOM      4  C   UNL     1       3.939  -2.884 -10.125  1.00  0.00    -0.000 C 
BRANCH   4   5
ATOM      5  C   UNL     1       2.894  -3.878  -9.583  1.00  0.00    -0.000 C 
BRANCH   5   6
ATOM      6  C   UNL     1       3.467  -5.225  -9.103  1.00  0.00    -0.000 C 
BRANCH   6   7
ATOM      7  C   UNL     1       3.407  -5.417  -7.572  1.00  0.00    -0.000 C 
BRANCH   7   8
ATOM      8  C   UNL     1       2.614  -4.305  -6.870  1.00  0.00    -0.000 C 
BRANCH   8   9
ATOM      9  C   UNL     1       3.478  -3.591  -5.823  1.00  0.00    -0.000 C 
BRANCH   9  10
ATOM     10  C   UNL     1       2.669  -2.521  -5.079  1.00  0.00    -0.000 C 
BRANCH  10  11
ATOM     11  C   UNL     1       1.964  -3.116  -3.854  1.00  0.00    -0.003 C 
ATOM     12  C   UNL     1       2.554  -2.566  -2.559  1.00  0.00     0.004 C 
ENDBRANCH  10  11
ENDBRANCH   9  10
ENDBRANCH   8   9
ENDBRANCH   7   8
ENDBRANCH   6   7
ENDBRANCH   5   6
ENDBRANCH   4   5
ENDBRANCH   3   4
ENDBRANCH   2   3
ENDBRANCH   1   2
BRANCH   1  13
ATOM     13  C   UNL     1       8.057  -2.713  -7.011  1.00  0.00     0.000 C 
BRANCH  13  14
ATOM     14  C   UNL     1       8.925  -3.948  -6.710  1.00  0.00     0.000 C 
BRANCH  14  15
ATOM     15  C   UNL     1      10.122  -4.084  -7.663  1.00  0.00     0.000 C 
BRANCH  15  16
ATOM     16  C   UNL     1       9.670  -3.981  -9.128  1.00  0.00     0.000 C 
BRANCH  16  17
ATOM     17  C   UNL     1       8.994  -5.266  -9.637  1.00  0.00     0.000 C 
BRANCH  17  18
ATOM     18  C   UNL     1       9.198  -6.505  -8.745  1.00  0.00     0.000 C 
BRANCH  18  19
ATOM     19  C   UNL     1       8.052  -7.536  -8.785  1.00  0.00     0.000 C 
BRANCH  19  20
ATOM     20  C   UNL     1       6.704  -7.035  -8.229  1.00  0.00     0.006 C 
BRANCH  20  21
ATOM     21  C   UNL     1       6.746  -6.604  -6.755  1.00  0.00     0.053 C 
BRANCH  21  22
ATOM     22  C   UNL     1       7.178  -7.722  -5.857  1.00  0.00     0.041 C 
ATOM     23  O   UNL     1       6.495  -8.776  -5.782  1.00  0.00    -0.550 OA
ATOM     24  O   UNL     1       8.353  -7.609  -5.124  1.00  0.00    -0.550 OA
ENDBRANCH  21  22
ENDBRANCH  20  21
ENDBRANCH  19  20
ENDBRANCH  18  19
ENDBRANCH  17  18
ENDBRANCH  16  17
ENDBRANCH  15  16
ENDBRANCH  14  15
ENDBRANCH  13  14
ENDBRANCH   1  13
TORSDOF 20
ENDMDL
MODEL 2
REMARK VINA RESULT:    -3.615      1.414      3.464
REMARK INTER + INTRA:         -10.799
REMARK INTER:                  -7.701
REMARK INTRA:                  -3.098
REMARK UNBOUND:                -2.957
REMARK SMILES CCCCCCCCCCCCCCCCCCCCCC(=O)[O-]
REMARK SMILES IDX 12 1 11 2 10 3 9 4 8 5 7 6 6 7 5 8 4 9 3 10 2 11 1 12 13 13
REMARK SMILES IDX 14 14 15 15 16 16 17 17 18 18 19 19 20 20 21 21 22 22 23 23
REMARK SMILES IDX 24 24
REMARK H PARENT
REMARK Flexibility Score: inf
ROOT
ATOM      1  C   UNL     1       3.373  -4.912  -9.560  1.00  0.00     0.000 C 
ENDROOT
BRANCH   1   2
ATOM      2  C   UNL     1       4.179  -6.172  -9.929  1.00  0.00     0.000 C 
BRANCH   2   3
ATOM      3  C   UNL     1       4.348  -7.193  -8.787  1.00  0.00     0.000 C 
BRANCH   3   4
ATOM      4  C   UNL     1       5.782  -7.322  -8.233  1.00  0.00    -0.000 C 
BRANCH   4   5
ATOM      5  C   UNL     1       6.007  -6.684  -6.849  1.00  0.00    -0.000 C 
BRANCH   5   6
ATOM      6  C   UNL     1       6.003  -5.144  -6.836  1.00  0.00    -0.000 C 
BRANCH   6   7
ATOM      7  C   UNL     1       5.090  -4.532  -5.751  1.00  0.00    -0.000 C 
BRANCH   7   8
ATOM      8  C   UNL     1       4.211  -3.395  -6.293  1.00  0.00    -0.000 C 
BRANCH   8   9
ATOM      9  C   UNL     1       2.787  -3.486  -5.733  1.00  0.00    -0.000 C 
BRANCH   9  10
ATOM     10  C   UNL     1       2.558  -2.435  -4.640  1.00  0.00    -0.000 C 
BRANCH  10  11
ATOM     11  C   UNL     1       1.943  -3.069  -3.387  1.00  0.00    -0.003 C 
ATOM     12  C   UNL     1       2.433  -2.373  -2.121  1.00  0.00     0.004 C 
ENDBRANCH  10  11
ENDBRANCH   9  10
ENDBRANCH   8   9
ENDBRANCH   7   8
ENDBRANCH   6   7
ENDBRANCH   5   6
ENDBRANCH   4   5
ENDBRANCH   3   4
ENDBRANCH   2   3
ENDBRANCH   1   2
BRANCH   1  13
ATOM     13  C   UNL     1       4.009  -3.578  -9.997  1.00  0.00     0.000 C 
BRANCH  13  14
ATOM     14  C   UNL     1       5.549  -3.559  -9.997  1.00  0.00     0.000 C 
BRANCH  14  15
ATOM     15  C   UNL     1       6.133  -2.368  -9.225  1.00  0.00     0.000 C 
BRANCH  15  16
ATOM     16  C   UNL     1       7.583  -2.095  -9.652  1.00  0.00     0.000 C 
BRANCH  16  17
ATOM     17  C   UNL     1       8.532  -1.900  -8.457  1.00  0.00     0.000 C 
BRANCH  17  18
ATOM     18  C   UNL     1       8.941  -3.197  -7.734  1.00  0.00     0.000 C 
BRANCH  18  19
ATOM     19  C   UNL     1       9.236  -4.396  -8.657  1.00  0.00     0.000 C 
BRANCH  19  20
ATOM     20  C   UNL     1       9.925  -5.593  -7.972  1.00  0.00     0.006 C 
BRANCH  20  21
ATOM     21  C   UNL     1       9.584  -5.755  -6.483  1.00  0.00     0.053 C 
BRANCH  21  22
ATOM     22  C   UNL     1       9.537  -7.195  -6.072  1.00  0.00     0.041 C 
ATOM     23  O   UNL     1       9.367  -8.095  -6.934  1.00  0.00    -0.550 OA
ATOM     24  O   UNL     1       9.710  -7.543  -4.738  1.00  0.00    -0.550 OA
ENDBRANCH  21  22
ENDBRANCH  20  21
ENDBRANCH  19  20
ENDBRANCH  18  19
ENDBRANCH  17  18
ENDBRANCH  16  17
ENDBRANCH  15  16
ENDBRANCH  14  15
ENDBRANCH  13  14
ENDBRANCH   1  13
TORSDOF 20
ENDMDL
MODEL 3
REMARK VINA RESULT:    -3.502      1.254      2.591
REMARK INTER + INTRA:         -10.552
REMARK INTER:                  -7.775
REMARK INTRA:                  -2.777
REMARK UNBOUND:                -2.957
REMARK SMILES CCCCCCCCCCCCCCCCCCCCCC(=O)[O-]
REMARK SMILES IDX 12 1 11 2 10 3 9 4 8 5 7 6 6 7 5 8 4 9 3 10 2 11 1 12 13 13
REMARK SMILES IDX 14 14 15 15 16 16 17 17 18 18 19 19 20 20 21 21 22 22 23 23
REMARK SMILES IDX 24 24
REMARK H PARENT
REMARK Flexibility Score: inf
ROOT
ATOM      1  C   UNL     1       4.119  -2.274  -9.839  1.00  0.00     0.000 C 
ENDROOT
BRANCH   1   2
ATOM      2  C   UNL     1       3.495  -3.654 -10.125  1.00  0.00     0.000 C 
BRANCH   2   3
ATOM      3  C   UNL     1       4.469  -4.844 -10.010  1.00  0.00     0.000 C 
BRANCH   3   4
ATOM      4  C   UNL     1       3.873  -6.118  -9.379  1.00  0.00    -0.000 C 
BRANCH   4   5
ATOM      5  C   UNL     1       4.227  -6.339  -7.896  1.00  0.00    -0.000 C 
BRANCH   5   6
ATOM      6  C   UNL     1       5.445  -5.541  -7.393  1.00  0.00    -0.000 C 
BRANCH   6   7
ATOM      7  C   UNL     1       5.095  -4.474  -6.333  1.00  0.00    -0.000 C 
BRANCH   7   8
ATOM      8  C   UNL     1       3.587  -4.189  -6.260  1.00  0.00    -0.000 C 
BRANCH   8   9
ATOM      9  C   UNL     1       3.312  -2.863  -5.540  1.00  0.00    -0.000 C 
BRANCH   9  10
ATOM     10  C   UNL     1       2.209  -3.028  -4.487  1.00  0.00    -0.000 C 
BRANCH  10  11
ATOM     11  C   UNL     1       2.618  -2.388  -3.156  1.00  0.00    -0.003 C 
ATOM     12  C   UNL     1       1.868  -3.020  -1.987  1.00  0.00     0.004 C 
ENDBRANCH  10  11
ENDBRANCH   9  10
ENDBRANCH   8   9
ENDBRANCH   7   8
ENDBRANCH   6   7
ENDBRANCH   5   6
ENDBRANCH   4   5
ENDBRANCH   3   4
ENDBRANCH   2   3
ENDBRANCH   1   2
BRANCH   1  13
ATOM     13  C   UNL     1       5.432  -2.306  -9.033  1.00  0.00     0.000 C 
BRANCH  13  14
ATOM     14  C   UNL     1       6.718  -2.263  -9.879  1.00  0.00     0.000 C 
BRANCH  14  15
ATOM     15  C   UNL     1       7.899  -2.978  -9.207  1.00  0.00     0.000 C 
BRANCH  15  16
ATOM     16  C   UNL     1       7.888  -2.747  -7.689  1.00  0.00     0.000 C 
BRANCH  16  17
ATOM     17  C   UNL     1       9.142  -3.303  -6.991  1.00  0.00     0.000 C 
BRANCH  17  18
ATOM     18  C   UNL     1       9.859  -4.437  -7.748  1.00  0.00     0.000 C 
BRANCH  18  19
ATOM     19  C   UNL     1      10.124  -5.710  -6.921  1.00  0.00     0.000 C 
BRANCH  19  20
ATOM     20  C   UNL     1       9.007  -6.771  -6.981  1.00  0.00     0.006 C 
BRANCH  20  21
ATOM     21  C   UNL     1       8.122  -6.833  -5.727  1.00  0.00     0.053 C 
BRANCH  21  22
ATOM     22  C   UNL     1       7.537  -8.196  -5.520  1.00  0.00     0.041 C 
ATOM     23  O   UNL     1       8.272  -9.155  -5.170  1.00  0.00    -0.550 OA
ATOM     24  O   UNL     1       6.173  -8.400  -5.687  1.00  0.00    -0.550 OA
ENDBRANCH  21  22
ENDBRANCH  20  21
ENDBRANCH  19  20
ENDBRANCH  18  19
ENDBRANCH  17  18
ENDBRANCH  16  17
ENDBRANCH  15  16
ENDBRANCH  14  15
ENDBRANCH  13  14
ENDBRANCH   1  13
TORSDOF 20
ENDMDL
MODEL 4
REMARK VINA RESULT:    -3.466      2.849      4.400
REMARK INTER + INTRA:         -10.476
REMARK INTER:                  -7.783
REMARK INTRA:                  -2.693
REMARK UNBOUND:                -2.957
REMARK SMILES CCCCCCCCCCCCCCCCCCCCCC(=O)[O-]
REMARK SMILES IDX 12 1 11 2 10 3 9 4 8 5 7 6 6 7 5 8 4 9 3 10 2 11 1 12 13 13
REMARK SMILES IDX 14 14 15 15 16 16 17 17 18 18 19 19 20 20 21 21 22 22 23 23
REMARK SMILES IDX 24 24
REMARK H PARENT
REMARK Flexibility Score: inf
ROOT
ATOM      1  C   UNL     1       6.328  -7.520  -6.008  1.00  0.00     0.000 C 
ENDROOT
BRANCH   1   2
ATOM      2  C   UNL     1       6.236  -6.315  -6.965  1.00  0.00     0.000 C 
BRANCH   2   3
ATOM      3  C   UNL     1       6.469  -6.647  -8.452  1.00  0.00     0.000 C 
BRANCH   3   4
ATOM      4  C   UNL     1       5.531  -5.923  -9.438  1.00  0.00    -0.000 C 
BRANCH   4   5
ATOM      5  C   UNL     1       4.311  -5.237  -8.794  1.00  0.00    -0.000 C 
BRANCH   5   6
ATOM      6  C   UNL     1       4.411  -3.703  -8.686  1.00  0.00    -0.000 C 
BRANCH   6   7
ATOM      7  C   UNL     1       4.448  -3.183  -7.232  1.00  0.00    -0.000 C 
BRANCH   7   8
ATOM      8  C   UNL     1       3.173  -3.530  -6.450  1.00  0.00    -0.000 C 
BRANCH   8   9
ATOM      9  C   UNL     1       3.398  -3.390  -4.940  1.00  0.00    -0.000 C 
BRANCH   9  10
ATOM     10  C   UNL     1       2.200  -2.710  -4.266  1.00  0.00    -0.000 C 
BRANCH  10  11
ATOM     11  C   UNL     1       2.173  -3.006  -2.762  1.00  0.00    -0.003 C 
ATOM     12  C   UNL     1       2.679  -1.813  -1.957  1.00  0.00     0.004 C 
ENDBRANCH  10  11
ENDBRANCH   9  10
ENDBRANCH   8   9
ENDBRANCH   7   8
ENDBRANCH   6   7
ENDBRANCH   5   6
ENDBRANCH   4   5
ENDBRANCH   3   4
ENDBRANCH   2   3
ENDBRANCH   1   2
BRANCH   1  13
ATOM     13  C   UNL     1       7.603  -8.374  -6.156  1.00  0.00     0.000 C 
BRANCH  13  14
ATOM     14  C   UNL     1       8.684  -8.121  -5.089  1.00  0.00     0.000 C 
BRANCH  14  15
ATOM     15  C   UNL     1       9.763  -7.132  -5.554  1.00  0.00     0.000 C 
BRANCH  15  16
ATOM     16  C   UNL     1       9.915  -7.166  -7.082  1.00  0.00     0.000 C 
BRANCH  16  17
ATOM     17  C   UNL     1       9.989  -5.761  -7.707  1.00  0.00     0.000 C 
BRANCH  17  18
ATOM     18  C   UNL     1       9.536  -4.615  -6.782  1.00  0.00     0.000 C 
BRANCH  18  19
ATOM     19  C   UNL     1       9.291  -3.265  -7.486  1.00  0.00     0.000 C 
BRANCH  19  20
ATOM     20  C   UNL     1       8.231  -3.298  -8.606  1.00  0.00     0.006 C 
BRANCH  20  21
ATOM     21  C   UNL     1       8.562  -2.415  -9.819  1.00  0.00     0.053 C 
BRANCH  21  22
ATOM     22  C   UNL     1       7.659  -1.223  -9.907  1.00  0.00     0.041 C 
ATOM     23  O   UNL     1       6.428  -1.373 -10.119  1.00  0.00    -0.550 OA
ATOM     24  O   UNL     1       8.175   0.055  -9.725  1.00  0.00    -0.550 OA
ENDBRANCH  21  22
ENDBRANCH  20  21
ENDBRANCH  19  20
ENDBRANCH  18  19
ENDBRANCH  17  18
ENDBRANCH  16  17
ENDBRANCH  15  16
ENDBRANCH  14  15
ENDBRANCH  13  14
ENDBRANCH   1  13
TORSDOF 20
ENDMDL
MODEL 5
REMARK VINA RESULT:    -3.108      2.407      5.907
REMARK INTER + INTRA:          -9.699
REMARK INTER:                  -6.393
REMARK INTRA:                  -3.306
REMARK UNBOUND:                -2.957
REMARK SMILES CCCCCCCCCCCCCCCCCCCCCC(=O)[O-]
REMARK SMILES IDX 12 1 11 2 10 3 9 4 8 5 7 6 6 7 5 8 4 9 3 10 2 11 1 12 13 13
REMARK SMILES IDX 14 14 15 15 16 16 17 17 18 18 19 19 20 20 21 21 22 22 23 23
REMARK SMILES IDX 24 24
REMARK H PARENT
REMARK Flexibility Score: inf
ROOT
ATOM      1  C   UNL     1       7.003  -3.749  -6.183  1.00  0.00     0.000 C 
ENDROOT
BRANCH   1   2
ATOM      2  C   UNL     1       6.950  -5.183  -6.746  1.00  0.00     0.000 C 
BRANCH   2   3
ATOM      3  C   UNL     1       7.331  -6.289  -5.742  1.00  0.00     0.000 C 
BRANCH   3   4
ATOM      4  C   UNL     1       8.768  -6.830  -5.880  1.00  0.00    -0.000 C 
BRANCH   4   5
ATOM      5  C   UNL     1       8.987  -8.252  -5.329  1.00  0.00    -0.000 C 
BRANCH   5   6
ATOM      6  C   UNL     1       9.224  -9.334  -6.399  1.00  0.00    -0.000 C 
BRANCH   6   7
ATOM      7  C   UNL     1       7.924  -9.953  -6.957  1.00  0.00    -0.000 C 
BRANCH   7   8
ATOM      8  C   UNL     1       7.834  -9.854  -8.487  1.00  0.00    -0.000 C 
BRANCH   8   9
ATOM      9  C   UNL     1       6.388  -9.613  -8.939  1.00  0.00    -0.000 C 
BRANCH   9  10
ATOM     10  C   UNL     1       5.905  -8.219  -8.517  1.00  0.00    -0.000 C 
BRANCH  10  11
ATOM     11  C   UNL     1       5.976  -7.234  -9.689  1.00  0.00    -0.003 C 
ATOM     12  C   UNL     1       7.422  -6.888 -10.031  1.00  0.00     0.004 C 
ENDBRANCH  10  11
ENDBRANCH   9  10
ENDBRANCH   8   9
ENDBRANCH   7   8
ENDBRANCH   6   7
ENDBRANCH   5   6
ENDBRANCH   4   5
ENDBRANCH   3   4
ENDBRANCH   2   3
ENDBRANCH   1   2
BRANCH   1  13
ATOM     13  C   UNL     1       8.011  -2.812  -6.879  1.00  0.00     0.000 C 
BRANCH  13  14
ATOM     14  C   UNL     1       8.982  -3.507  -7.852  1.00  0.00     0.000 C 
BRANCH  14  15
ATOM     15  C   UNL     1       8.546  -3.386  -9.319  1.00  0.00     0.000 C 
BRANCH  15  16
ATOM     16  C   UNL     1       8.093  -1.954  -9.640  1.00  0.00     0.000 C 
BRANCH  16  17
ATOM     17  C   UNL     1       6.614  -1.875 -10.059  1.00  0.00     0.000 C 
BRANCH  17  18
ATOM     18  C   UNL     1       5.828  -3.193  -9.921  1.00  0.00     0.000 C 
BRANCH  18  19
ATOM     19  C   UNL     1       4.641  -3.147  -8.939  1.00  0.00     0.000 C 
BRANCH  19  20
ATOM     20  C   UNL     1       3.593  -4.262  -9.129  1.00  0.00     0.006 C 
BRANCH  20  21
ATOM     21  C   UNL     1       3.424  -5.188  -7.915  1.00  0.00     0.053 C 
BRANCH  21  22
ATOM     22  C   UNL     1       2.888  -4.456  -6.723  1.00  0.00     0.041 C 
ATOM     23  O   UNL     1       1.655  -4.466  -6.473  1.00  0.00    -0.550 OA
ATOM     24  O   UNL     1       3.758  -3.786  -5.870  1.00  0.00    -0.550 OA
ENDBRANCH  21  22
ENDBRANCH  20  21
ENDBRANCH  19  20
ENDBRANCH  18  19
ENDBRANCH  17  18
ENDBRANCH  16  17
ENDBRANCH  15  16
ENDBRANCH  14  15
ENDBRANCH  13  14
ENDBRANCH   1  13
TORSDOF 20
ENDMDL
MODEL 6
REMARK VINA RESULT:    -3.038      2.140      5.432
REMARK INTER + INTRA:          -9.546
REMARK INTER:                  -6.142
REMARK INTRA:                  -3.404
REMARK UNBOUND:                -2.957
REMARK SMILES CCCCCCCCCCCCCCCCCCCCCC(=O)[O-]
REMARK SMILES IDX 12 1 11 2 10 3 9 4 8 5 7 6 6 7 5 8 4 9 3 10 2 11 1 12 13 13
REMARK SMILES IDX 14 14 15 15 16 16 17 17 18 18 19 19 20 20 21 21 22 22 23 23
REMARK SMILES IDX 24 24
REMARK H PARENT
REMARK Flexibility Score: inf
ROOT
ATOM      1  C   UNL     1       7.900  -3.512  -7.114  1.00  0.00     0.000 C 
ENDROOT
BRANCH   1   2
ATOM      2  C   UNL     1       9.436  -3.640  -7.076  1.00  0.00     0.000 C 
BRANCH   2   3
ATOM      3  C   UNL     1      10.010  -4.823  -7.880  1.00  0.00     0.000 C 
BRANCH   3   4
ATOM      4  C   UNL     1       9.045  -5.440  -8.913  1.00  0.00    -0.000 C 
BRANCH   4   5
ATOM      5  C   UNL     1       9.598  -6.660  -9.675  1.00  0.00    -0.000 C 
BRANCH   5   6
ATOM      6  C   UNL     1       8.797  -7.961  -9.484  1.00  0.00    -0.000 C 
BRANCH   6   7
ATOM      7  C   UNL     1       7.373  -7.741  -8.928  1.00  0.00    -0.000 C 
BRANCH   7   8
ATOM      8  C   UNL     1       6.834  -8.972  -8.185  1.00  0.00    -0.000 C 
BRANCH   8   9
ATOM      9  C   UNL     1       7.678  -9.278  -6.942  1.00  0.00    -0.000 C 
BRANCH   9  10
ATOM     10  C   UNL     1       7.225  -8.431  -5.747  1.00  0.00    -0.000 C 
BRANCH  10  11
ATOM     11  C   UNL     1       8.052  -7.146  -5.637  1.00  0.00    -0.003 C 
ATOM     12  C   UNL     1       9.532  -7.459  -5.436  1.00  0.00     0.004 C 
ENDBRANCH  10  11
ENDBRANCH   9  10
ENDBRANCH   8   9
ENDBRANCH   7   8
ENDBRANCH   6   7
ENDBRANCH   5   6
ENDBRANCH   4   5
ENDBRANCH   3   4
ENDBRANCH   2   3
ENDBRANCH   1   2
BRANCH   1  13
ATOM     13  C   UNL     1       7.368  -2.246  -7.815  1.00  0.00     0.000 C 
BRANCH  13  14
ATOM     14  C   UNL     1       7.579  -2.207  -9.339  1.00  0.00     0.000 C 
BRANCH  14  15
ATOM     15  C   UNL     1       6.260  -2.173 -10.125  1.00  0.00     0.000 C 
BRANCH  15  16
ATOM     16  C   UNL     1       5.055  -2.242  -9.175  1.00  0.00     0.000 C 
BRANCH  16  17
ATOM     17  C   UNL     1       3.925  -3.141  -9.708  1.00  0.00     0.000 C 
BRANCH  17  18
ATOM     18  C   UNL     1       4.363  -4.560 -10.119  1.00  0.00     0.000 C 
BRANCH  18  19
ATOM     19  C   UNL     1       3.481  -5.701  -9.574  1.00  0.00     0.000 C 
BRANCH  19  20
ATOM     20  C   UNL     1       3.977  -6.338  -8.260  1.00  0.00     0.006 C 
BRANCH  20  21
ATOM     21  C   UNL     1       5.122  -5.575  -7.576  1.00  0.00     0.053 C 
BRANCH  21  22
ATOM     22  C   UNL     1       4.668  -4.890  -6.324  1.00  0.00     0.041 C 
ATOM     23  O   UNL     1       5.231  -5.138  -5.226  1.00  0.00    -0.550 OA
ATOM     24  O   UNL     1       3.643  -3.954  -6.376  1.00  0.00    -0.550 OA
ENDBRANCH  21  22
ENDBRANCH  20  21
ENDBRANCH  19  20
ENDBRANCH  18  19
ENDBRANCH  17  18
ENDBRANCH  16  17
ENDBRANCH  15  16
ENDBRANCH  14  15
ENDBRANCH  13  14
ENDBRANCH   1  13
TORSDOF 20
ENDMDL
MODEL 7
REMARK VINA RESULT:    -3.037      2.500      5.975
REMARK INTER + INTRA:          -9.544
REMARK INTER:                  -6.510
REMARK INTRA:                  -3.034
REMARK UNBOUND:                -2.957
REMARK SMILES CCCCCCCCCCCCCCCCCCCCCC(=O)[O-]
REMARK SMILES IDX 12 1 11 2 10 3 9 4 8 5 7 6 6 7 5 8 4 9 3 10 2 11 1 12 13 13
REMARK SMILES IDX 14 14 15 15 16 16 17 17 18 18 19 19 20 20 21 21 22 22 23 23
REMARK SMILES IDX 24 24
REMARK H PARENT
REMARK Flexibility Score: inf
ROOT
ATOM      1  C   UNL     1       7.469  -3.388  -6.648  1.00  0.00     0.000 C 
ENDROOT
BRANCH   1   2
ATOM      2  C   UNL     1       8.619  -4.412  -6.706  1.00  0.00     0.000 C 
BRANCH   2   3
ATOM      3  C   UNL     1       9.892  -3.919  -7.424  1.00  0.00     0.000 C 
BRANCH   3   4
ATOM      4  C   UNL     1      10.125  -4.519  -8.825  1.00  0.00    -0.000 C 
BRANCH   4   5
ATOM      5  C   UNL     1       9.414  -5.860  -9.087  1.00  0.00    -0.000 C 
BRANCH   5   6
ATOM      6  C   UNL     1       7.993  -5.738  -9.670  1.00  0.00    -0.000 C 
BRANCH   6   7
ATOM      7  C   UNL     1       7.162  -7.035  -9.559  1.00  0.00    -0.000 C 
BRANCH   7   8
ATOM      8  C   UNL     1       7.951  -8.188  -8.921  1.00  0.00    -0.000 C 
BRANCH   8   9
ATOM      9  C   UNL     1       7.251  -8.702  -7.658  1.00  0.00    -0.000 C 
BRANCH   9  10
ATOM     10  C   UNL     1       8.168  -8.583  -6.434  1.00  0.00    -0.000 C 
BRANCH  10  11
ATOM     11  C   UNL     1       7.640  -7.535  -5.449  1.00  0.00    -0.003 C 
ATOM     12  C   UNL     1       6.220  -7.107  -5.809  1.00  0.00     0.004 C 
ENDBRANCH  10  11
ENDBRANCH   9  10
ENDBRANCH   8   9
ENDBRANCH   7   8
ENDBRANCH   6   7
ENDBRANCH   5   6
ENDBRANCH   4   5
ENDBRANCH   3   4
ENDBRANCH   2   3
ENDBRANCH   1   2
BRANCH   1  13
ATOM     13  C   UNL     1       7.572  -2.232  -7.664  1.00  0.00     0.000 C 
BRANCH  13  14
ATOM     14  C   UNL     1       6.953  -2.520  -9.044  1.00  0.00     0.000 C 
BRANCH  14  15
ATOM     15  C   UNL     1       5.417  -2.517  -9.023  1.00  0.00     0.000 C 
BRANCH  15  16
ATOM     16  C   UNL     1       4.856  -3.717  -9.800  1.00  0.00     0.000 C 
BRANCH  16  17
ATOM     17  C   UNL     1       3.762  -4.473  -9.025  1.00  0.00     0.000 C 
BRANCH  17  18
ATOM     18  C   UNL     1       4.073  -4.719  -7.536  1.00  0.00     0.000 C 
BRANCH  18  19
ATOM     19  C   UNL     1       2.984  -4.247  -6.553  1.00  0.00     0.000 C 
BRANCH  19  20
ATOM     20  C   UNL     1       3.496  -3.406  -5.366  1.00  0.00     0.006 C 
BRANCH  20  21
ATOM     21  C   UNL     1       2.467  -2.416  -4.798  1.00  0.00     0.053 C 
BRANCH  21  22
ATOM     22  C   UNL     1       2.128  -2.718  -3.371  1.00  0.00     0.041 C 
ATOM     23  O   UNL     1       1.137  -3.444  -3.095  1.00  0.00    -0.550 OA
ATOM     24  O   UNL     1       2.925  -2.222  -2.347  1.00  0.00    -0.550 OA
ENDBRANCH  21  22
ENDBRANCH  20  21
ENDBRANCH  19  20
ENDBRANCH  18  19
ENDBRANCH  17  18
ENDBRANCH  16  17
ENDBRANCH  15  16
ENDBRANCH  14  15
ENDBRANCH  13  14
ENDBRANCH   1  13
TORSDOF 20
ENDMDL
MODEL 8
REMARK VINA RESULT:    -2.638      2.669      6.679
REMARK INTER + INTRA:          -8.679
REMARK INTER:                  -5.684
REMARK INTRA:                  -2.996
REMARK UNBOUND:                -2.957
REMARK SMILES CCCCCCCCCCCCCCCCCCCCCC(=O)[O-]
REMARK SMILES IDX 12 1 11 2 10 3 9 4 8 5 7 6 6 7 5 8 4 9 3 10 2 11 1 12 13 13
REMARK SMILES IDX 14 14 15 15 16 16 17 17 18 18 19 19 20 20 21 21 22 22 23 23
REMARK SMILES IDX 24 24
REMARK H PARENT
REMARK Flexibility Score: inf
ROOT
ATOM      1  C   UNL     1       3.928  -3.746  -6.228  1.00  0.00     0.000 C 
ENDROOT
BRANCH   1   2
ATOM      2  C   UNL     1       5.449  -3.922  -6.410  1.00  0.00     0.000 C 
BRANCH   2   3
ATOM      3  C   UNL     1       6.065  -5.097  -5.625  1.00  0.00     0.000 C 
BRANCH   3   4
ATOM      4  C   UNL     1       7.511  -5.459  -6.019  1.00  0.00    -0.000 C 
BRANCH   4   5
ATOM      5  C   UNL     1       7.961  -6.878  -5.620  1.00  0.00    -0.000 C 
BRANCH   5   6
ATOM      6  C   UNL     1       9.485  -7.100  -5.620  1.00  0.00    -0.000 C 
BRANCH   6   7
ATOM      7  C   UNL     1       9.934  -8.337  -4.813  1.00  0.00    -0.000 C 
BRANCH   7   8
ATOM      8  C   UNL     1       9.129  -9.596  -5.168  1.00  0.00    -0.000 C 
BRANCH   8   9
ATOM      9  C   UNL     1       9.518 -10.125  -6.554  1.00  0.00    -0.000 C 
BRANCH   9  10
ATOM     10  C   UNL     1       8.370  -9.945  -7.554  1.00  0.00    -0.000 C 
BRANCH  10  11
ATOM     11  C   UNL     1       8.904  -9.633  -8.956  1.00  0.00    -0.003 C 
ATOM     12  C   UNL     1       7.942 -10.121 -10.034  1.00  0.00     0.004 C 
ENDBRANCH  10  11
ENDBRANCH   9  10
ENDBRANCH   8   9
ENDBRANCH   7   8
ENDBRANCH   6   7
ENDBRANCH   5   6
ENDBRANCH   4   5
ENDBRANCH   3   4
ENDBRANCH   2   3
ENDBRANCH   1   2
BRANCH   1  13
ATOM     13  C   UNL     1       3.057  -4.500  -7.252  1.00  0.00     0.000 C 
BRANCH  13  14
ATOM     14  C   UNL     1       3.772  -4.883  -8.560  1.00  0.00     0.000 C 
BRANCH  14  15
ATOM     15  C   UNL     1       3.992  -6.396  -8.701  1.00  0.00     0.000 C 
BRANCH  15  16
ATOM     16  C   UNL     1       5.121  -6.695  -9.699  1.00  0.00     0.000 C 
BRANCH  16  17
ATOM     17  C   UNL     1       6.513  -6.705  -9.042  1.00  0.00     0.000 C 
BRANCH  17  18
ATOM     18  C   UNL     1       7.667  -6.258  -9.959  1.00  0.00     0.000 C 
BRANCH  18  19
ATOM     19  C   UNL     1       8.993  -5.948  -9.237  1.00  0.00     0.000 C 
BRANCH  19  20
ATOM     20  C   UNL     1       9.619  -4.581  -9.581  1.00  0.00     0.006 C 
BRANCH  20  21
ATOM     21  C   UNL     1       8.616  -3.419  -9.634  1.00  0.00     0.053 C 
BRANCH  21  22
ATOM     22  C   UNL     1       8.901  -2.385  -8.588  1.00  0.00     0.041 C 
ATOM     23  O   UNL     1       9.745  -2.613  -7.684  1.00  0.00    -0.550 OA
ATOM     24  O   UNL     1       8.253  -1.156  -8.632  1.00  0.00    -0.550 OA
ENDBRANCH  21  22
ENDBRANCH  20  21
ENDBRANCH  19  20
ENDBRANCH  18  19
ENDBRANCH  17  18
ENDBRANCH  16  17
ENDBRANCH  15  16
ENDBRANCH  14  15
ENDBRANCH  13  14
ENDBRANCH   1  13
TORSDOF 20
ENDMDL
