MODEL 1
REMARK VINA RESULT:    -5.838      0.000      0.000
REMARK INTER + INTRA:          -5.838
REMARK INTER:                  -5.838
REMARK INTRA:                   0.000
REMARK UNBOUND:                 0.000
REMARK SMILES CC(C)=C1CC[C@@H](C)CC1=O
REMARK SMILES IDX 8 1 7 2 6 3 5 4 4 5 2 6 1 7 3 8 10 9 11 10 9 11
REMARK H PARENT
REMARK Flexibility Score: inf
ROOT
ATOM      1  C   UNL     1     -10.946  73.334  33.967  1.00  0.00     0.008 C 
ATOM      2  C   UNL     1     -10.572  73.210  32.486  1.00  0.00    -0.006 C 
ATOM      3  C   UNL     1     -10.090  74.561  31.934  1.00  0.00     0.008 C 
ATOM      4  C   UNL     1      -9.615  74.434  30.480  1.00  0.00     0.039 C 
ATOM      5  C   UNL     1     -10.654  73.773  29.583  1.00  0.00    -0.006 C 
ATOM      6  C   UNL     1     -10.766  74.106  28.263  1.00  0.00    -0.070 C 
ATOM      7  C   UNL     1     -11.829  73.499  27.377  1.00  0.00     0.039 C 
ATOM      8  C   UNL     1      -9.851  75.131  27.633  1.00  0.00     0.039 C 
ATOM      9  C   UNL     1     -11.450  72.672  30.202  1.00  0.00     0.159 C 
ATOM     10  O   UNL     1     -11.859  71.696  29.518  1.00  0.00    -0.295 OA
ATOM     11  C   UNL     1     -11.772  72.709  31.668  1.00  0.00     0.084 C 
ENDROOT
TORSDOF 0
ENDMDL
MODEL 2
REMARK VINA RESULT:    -5.720      1.787      4.623
REMARK INTER + INTRA:          -5.720
REMARK INTER:                  -5.720
REMARK INTRA:                   0.000
REMARK UNBOUND:                 0.000
REMARK SMILES CC(C)=C1CC[C@@H](C)CC1=O
REMARK SMILES IDX 8 1 7 2 6 3 5 4 4 5 2 6 1 7 3 8 10 9 11 10 9 11
REMARK H PARENT
REMARK Flexibility Score: inf
ROOT
ATOM      1  C   UNL     1     -10.185  73.393  26.245  1.00  0.00     0.008 C 
ATOM      2  C   UNL     1     -10.047  73.236  27.764  1.00  0.00    -0.006 C 
ATOM      3  C   UNL     1     -11.272  72.514  28.347  1.00  0.00     0.008 C 
ATOM      4  C   UNL     1     -11.106  72.257  29.851  1.00  0.00     0.039 C 
ATOM      5  C   UNL     1     -10.749  73.520  30.623  1.00  0.00    -0.006 C 
ATOM      6  C   UNL     1     -11.159  73.704  31.912  1.00  0.00    -0.070 C 
ATOM      7  C   UNL     1     -10.859  74.977  32.669  1.00  0.00     0.039 C 
ATOM      8  C   UNL     1     -11.971  72.651  32.633  1.00  0.00     0.039 C 
ATOM      9  C   UNL     1      -9.836  74.477  29.929  1.00  0.00     0.159 C 
ATOM     10  O   UNL     1      -9.015  75.184  30.573  1.00  0.00    -0.295 OA
ATOM     11  C   UNL     1      -9.879  74.607  28.434  1.00  0.00     0.084 C 
ENDROOT
TORSDOF 0
ENDMDL
MODEL 3
REMARK VINA RESULT:    -5.720      1.751      2.059
REMARK INTER + INTRA:          -5.720
REMARK INTER:                  -5.720
REMARK INTRA:                   0.000
REMARK UNBOUND:                 0.000
REMARK SMILES CC(C)=C1CC[C@@H](C)CC1=O
REMARK SMILES IDX 8 1 7 2 6 3 5 4 4 5 2 6 1 7 3 8 10 9 11 10 9 11
REMARK H PARENT
REMARK Flexibility Score: inf
ROOT
ATOM      1  C   UNL     1     -10.605  72.103  32.892  1.00  0.00     0.008 C 
ATOM      2  C   UNL     1     -10.672  72.166  31.362  1.00  0.00    -0.006 C 
ATOM      3  C   UNL     1      -9.276  71.964  30.751  1.00  0.00     0.008 C 
ATOM      4  C   UNL     1      -9.338  71.922  29.218  1.00  0.00     0.039 C 
ATOM      5  C   UNL     1     -10.065  73.125  28.630  1.00  0.00    -0.006 C 
ATOM      6  C   UNL     1      -9.719  73.638  27.413  1.00  0.00    -0.070 C 
ATOM      7  C   UNL     1     -10.395  74.865  26.845  1.00  0.00     0.039 C 
ATOM      8  C   UNL     1      -8.611  73.022  26.589  1.00  0.00     0.039 C 
ATOM      9  C   UNL     1     -11.238  73.625  29.407  1.00  0.00     0.159 C 
ATOM     10  O   UNL     1     -12.232  74.143  28.830  1.00  0.00    -0.295 OA
ATOM     11  C   UNL     1     -11.254  73.511  30.903  1.00  0.00     0.084 C 
ENDROOT
TORSDOF 0
ENDMDL
MODEL 4
REMARK VINA RESULT:    -5.233      1.224      4.068
REMARK INTER + INTRA:          -5.233
REMARK INTER:                  -5.233
REMARK INTRA:                   0.000
REMARK UNBOUND:                 0.000
REMARK SMILES CC(C)=C1CC[C@@H](C)CC1=O
REMARK SMILES IDX 8 1 7 2 6 3 5 4 4 5 2 6 1 7 3 8 10 9 11 10 9 11
REMARK H PARENT
REMARK Flexibility Score: inf
ROOT
ATOM      1  C   UNL     1      -9.178  73.503  26.196  1.00  0.00     0.008 C 
ATOM      2  C   UNL     1     -10.070  73.708  27.425  1.00  0.00    -0.006 C 
ATOM      3  C   UNL     1      -9.373  74.611  28.455  1.00  0.00     0.008 C 
ATOM      4  C   UNL     1     -10.292  74.911  29.648  1.00  0.00     0.039 C 
ATOM      5  C   UNL     1     -10.867  73.647  30.273  1.00  0.00    -0.006 C 
ATOM      6  C   UNL     1     -11.141  73.577  31.609  1.00  0.00    -0.070 C 
ATOM      7  C   UNL     1     -11.658  72.310  32.250  1.00  0.00     0.039 C 
ATOM      8  C   UNL     1     -10.899  74.759  32.521  1.00  0.00     0.039 C 
ATOM      9  C   UNL     1     -11.217  72.547  29.325  1.00  0.00     0.159 C 
ATOM     10  O   UNL     1     -12.180  71.767  29.554  1.00  0.00    -0.295 OA
ATOM     11  C   UNL     1     -10.422  72.357  28.066  1.00  0.00     0.084 C 
ENDROOT
TORSDOF 0
ENDMDL
MODEL 5
REMARK VINA RESULT:    -5.093      1.768      2.725
REMARK INTER + INTRA:          -5.093
REMARK INTER:                  -5.093
REMARK INTRA:                   0.000
REMARK UNBOUND:                 0.000
REMARK SMILES CC(C)=C1CC[C@@H](C)CC1=O
REMARK SMILES IDX 8 1 7 2 6 3 5 4 4 5 2 6 1 7 3 8 10 9 11 10 9 11
REMARK H PARENT
REMARK Flexibility Score: inf
ROOT
ATOM      1  C   UNL     1     -11.036  72.710  35.277  1.00  0.00     0.008 C 
ATOM      2  C   UNL     1     -11.420  73.102  33.846  1.00  0.00    -0.006 C 
ATOM      3  C   UNL     1     -11.366  71.879  32.916  1.00  0.00     0.008 C 
ATOM      4  C   UNL     1     -11.844  72.232  31.501  1.00  0.00     0.039 C 
ATOM      5  C   UNL     1     -11.117  73.439  30.923  1.00  0.00    -0.006 C 
ATOM      6  C   UNL     1     -10.881  73.550  29.582  1.00  0.00    -0.070 C 
ATOM      7  C   UNL     1     -10.111  74.714  29.003  1.00  0.00     0.039 C 
ATOM      8  C   UNL     1     -11.349  72.487  28.614  1.00  0.00     0.039 C 
ATOM      9  C   UNL     1     -10.787  74.530  31.888  1.00  0.00     0.159 C 
ATOM     10  O   UNL     1     -10.762  75.737  31.527  1.00  0.00    -0.295 OA
ATOM     11  C   UNL     1     -10.484  74.201  33.320  1.00  0.00     0.084 C 
ENDROOT
TORSDOF 0
ENDMDL
MODEL 6
REMARK VINA RESULT:    -5.057      3.344      6.211
REMARK INTER + INTRA:          -5.057
REMARK INTER:                  -5.057
REMARK INTRA:                   0.000
REMARK UNBOUND:                 0.000
REMARK SMILES CC(C)=C1CC[C@@H](C)CC1=O
REMARK SMILES IDX 8 1 7 2 6 3 5 4 4 5 2 6 1 7 3 8 10 9 11 10 9 11
REMARK H PARENT
REMARK Flexibility Score: inf
ROOT
ATOM      1  C   UNL     1      -9.019  73.616  22.462  1.00  0.00     0.008 C 
ATOM      2  C   UNL     1      -8.874  73.822  23.974  1.00  0.00    -0.006 C 
ATOM      3  C   UNL     1      -8.617  72.481  24.680  1.00  0.00     0.008 C 
ATOM      4  C   UNL     1      -8.369  72.679  26.182  1.00  0.00     0.039 C 
ATOM      5  C   UNL     1      -9.469  73.493  26.853  1.00  0.00    -0.006 C 
ATOM      6  C   UNL     1      -9.819  73.274  28.154  1.00  0.00    -0.070 C 
ATOM      7  C   UNL     1     -10.946  74.035  28.813  1.00  0.00     0.039 C 
ATOM      8  C   UNL     1      -9.118  72.227  28.989  1.00  0.00     0.039 C 
ATOM      9  C   UNL     1     -10.047  74.607  26.043  1.00  0.00     0.159 C 
ATOM     10  O   UNL     1     -10.464  75.664  26.588  1.00  0.00    -0.295 OA
ATOM     11  C   UNL     1     -10.135  74.484  24.550  1.00  0.00     0.084 C 
ENDROOT
TORSDOF 0
ENDMDL
MODEL 7
REMARK VINA RESULT:    -4.960      1.455      4.547
REMARK INTER + INTRA:          -4.960
REMARK INTER:                  -4.960
REMARK INTRA:                   0.000
REMARK UNBOUND:                 0.000
REMARK SMILES CC(C)=C1CC[C@@H](C)CC1=O
REMARK SMILES IDX 8 1 7 2 6 3 5 4 4 5 2 6 1 7 3 8 10 9 11 10 9 11
REMARK H PARENT
REMARK Flexibility Score: inf
ROOT
ATOM      1  C   UNL     1      -9.671  73.945  24.680  1.00  0.00     0.008 C 
ATOM      2  C   UNL     1     -10.213  74.262  26.079  1.00  0.00    -0.006 C 
ATOM      3  C   UNL     1      -9.059  74.537  27.057  1.00  0.00     0.008 C 
ATOM      4  C   UNL     1      -9.585  74.956  28.437  1.00  0.00     0.039 C 
ATOM      5  C   UNL     1     -10.605  73.972  28.996  1.00  0.00    -0.006 C 
ATOM      6  C   UNL     1     -10.719  73.756  30.340  1.00  0.00    -0.070 C 
ATOM      7  C   UNL     1     -11.687  72.741  30.903  1.00  0.00     0.039 C 
ATOM      8  C   UNL     1      -9.850  74.499  31.329  1.00  0.00     0.039 C 
ATOM      9  C   UNL     1     -11.535  73.356  28.003  1.00  0.00     0.159 C 
ATOM     10  O   UNL     1     -12.716  73.047  28.318  1.00  0.00    -0.295 OA
ATOM     11  C   UNL     1     -11.074  73.101  26.598  1.00  0.00     0.084 C 
ENDROOT
TORSDOF 0
ENDMDL
MODEL 8
REMARK VINA RESULT:    -4.953      3.993      5.604
REMARK INTER + INTRA:          -4.953
REMARK INTER:                  -4.953
REMARK INTRA:                   0.000
REMARK UNBOUND:                 0.000
REMARK SMILES CC(C)=C1CC[C@@H](C)CC1=O
REMARK SMILES IDX 8 1 7 2 6 3 5 4 4 5 2 6 1 7 3 8 10 9 11 10 9 11
REMARK H PARENT
REMARK Flexibility Score: inf
ROOT
ATOM      1  C   UNL     1      -9.982  74.036  28.808  1.00  0.00     0.008 C 
ATOM      2  C   UNL     1      -9.413  74.131  27.387  1.00  0.00    -0.006 C 
ATOM      3  C   UNL     1     -10.507  74.550  26.393  1.00  0.00     0.008 C 
ATOM      4  C   UNL     1      -9.934  74.749  24.983  1.00  0.00     0.039 C 
ATOM      5  C   UNL     1      -9.136  73.543  24.502  1.00  0.00    -0.006 C 
ATOM      6  C   UNL     1      -9.089  73.205  23.180  1.00  0.00    -0.070 C 
ATOM      7  C   UNL     1      -8.348  71.980  22.697  1.00  0.00     0.039 C 
ATOM      8  C   UNL     1      -9.813  74.025  22.135  1.00  0.00     0.039 C 
ATOM      9  C   UNL     1      -8.326  72.837  25.539  1.00  0.00     0.159 C 
ATOM     10  O   UNL     1      -7.234  72.279  25.248  1.00  0.00    -0.295 OA
ATOM     11  C   UNL     1      -8.804  72.787  26.961  1.00  0.00     0.084 C 
ENDROOT
TORSDOF 0
ENDMDL
MODEL 9
REMARK VINA RESULT:    -4.792      5.314      7.250
REMARK INTER + INTRA:          -4.792
REMARK INTER:                  -4.792
REMARK INTRA:                   0.000
REMARK UNBOUND:                 0.000
REMARK SMILES CC(C)=C1CC[C@@H](C)CC1=O
REMARK SMILES IDX 8 1 7 2 6 3 5 4 4 5 2 6 1 7 3 8 10 9 11 10 9 11
REMARK H PARENT
REMARK Flexibility Score: inf
ROOT
ATOM      1  C   UNL     1     -10.499  74.166  26.881  1.00  0.00     0.008 C 
ATOM      2  C   UNL     1     -10.084  73.554  25.539  1.00  0.00    -0.006 C 
ATOM      3  C   UNL     1      -8.707  72.882  25.653  1.00  0.00     0.008 C 
ATOM      4  C   UNL     1      -8.319  72.176  24.346  1.00  0.00     0.039 C 
ATOM      5  C   UNL     1      -8.425  73.093  23.134  1.00  0.00    -0.006 C 
ATOM      6  C   UNL     1      -7.591  72.950  22.062  1.00  0.00    -0.070 C 
ATOM      7  C   UNL     1      -7.648  73.889  20.879  1.00  0.00     0.039 C 
ATOM      8  C   UNL     1      -6.539  71.865  22.027  1.00  0.00     0.039 C 
ATOM      9  C   UNL     1      -9.558  74.066  23.144  1.00  0.00     0.159 C 
ATOM     10  O   UNL     1     -10.122  74.425  22.075  1.00  0.00    -0.295 OA
ATOM     11  C   UNL     1     -10.053  74.631  24.443  1.00  0.00     0.084 C 
ENDROOT
TORSDOF 0
ENDMDL
