MODEL 1
REMARK VINA RESULT:    -3.624      0.000      0.000
REMARK INTER + INTRA:          -8.441
REMARK INTER:                  -6.378
REMARK INTRA:                  -2.064
REMARK UNBOUND:                -2.064
REMARK SMILES CCCCCCC=CCCCCCCCC(=O)[O-]
REMARK SMILES IDX 10 1 11 2 12 3 13 4 14 5 15 6 16 7 17 8 18 9 9 10 8 11 7 12
REMARK SMILES IDX 6 13 5 14 4 15 3 16 2 17 1 18
REMARK H PARENT
REMARK Flexibility Score: inf
ROOT
ATOM      1  C   UNL     1      49.002 -41.248 -28.785  1.00  0.00     0.004 C 
ENDROOT
BRANCH   1   2
ATOM      2  C   UNL     1      49.298 -42.322 -29.846  1.00  0.00     0.000 C 
BRANCH   2   3
ATOM      3  C   UNL     1      50.750 -42.271 -30.347  1.00  0.00     0.000 C 
BRANCH   3   4
ATOM      4  C   UNL     1      51.357 -40.860 -30.260  1.00  0.00     0.000 C 
BRANCH   4   5
ATOM      5  C   UNL     1      52.639 -40.807 -29.408  1.00  0.00     0.006 C 
BRANCH   5   6
ATOM      6  C   UNL     1      53.444 -42.118 -29.411  1.00  0.00     0.053 C 
BRANCH   6   7
ATOM      7  C   UNL     1      54.548 -42.117 -30.425  1.00  0.00     0.041 C 
ATOM      8  O   UNL     1      55.353 -43.084 -30.489  1.00  0.00    -0.550 OA
ATOM      9  O   UNL     1      54.670 -41.062 -31.319  1.00  0.00    -0.550 OA
ENDBRANCH   6   7
ENDBRANCH   5   6
ENDBRANCH   4   5
ENDBRANCH   3   4
ENDBRANCH   2   3
ENDBRANCH   1   2
BRANCH   1  10
ATOM     10  C   UNL     1      48.828 -41.851 -27.384  1.00  0.00     0.027 C 
BRANCH  10  11
ATOM     11  C   UNL     1      50.127 -41.923 -26.626  1.00  0.00    -0.031 C 
ATOM     12  C   UNL     1      50.867 -43.041 -26.602  1.00  0.00    -0.031 C 
BRANCH  12  13
ATOM     13  C   UNL     1      52.161 -43.088 -25.836  1.00  0.00     0.027 C 
BRANCH  13  14
ATOM     14  C   UNL     1      52.206 -41.996 -24.758  1.00  0.00     0.004 C 
BRANCH  14  15
ATOM     15  C   UNL     1      53.550 -41.250 -24.724  1.00  0.00     0.000 C 
BRANCH  15  16
ATOM     16  C   UNL     1      54.455 -41.611 -25.914  1.00  0.00    -0.000 C 
BRANCH  16  17
ATOM     17  C   UNL     1      55.762 -42.290 -25.476  1.00  0.00    -0.003 C 
ATOM     18  C   UNL     1      55.902 -43.713 -26.016  1.00  0.00     0.004 C 
ENDBRANCH  16  17
ENDBRANCH  15  16
ENDBRANCH  14  15
ENDBRANCH  13  14
ENDBRANCH  12  13
ENDBRANCH  10  11
ENDBRANCH   1  10
TORSDOF 13
ENDMDL
MODEL 2
REMARK VINA RESULT:    -3.567      2.371      4.337
REMARK INTER + INTRA:          -8.341
REMARK INTER:                  -6.158
REMARK INTRA:                  -2.183
REMARK UNBOUND:                -2.064
REMARK SMILES CCCCCCC=CCCCCCCCC(=O)[O-]
REMARK SMILES IDX 10 1 11 2 12 3 13 4 14 5 15 6 16 7 17 8 18 9 9 10 8 11 7 12
REMARK SMILES IDX 6 13 5 14 4 15 3 16 2 17 1 18
REMARK H PARENT
REMARK Flexibility Score: inf
ROOT
ATOM      1  C   UNL     1      52.203 -41.891 -25.062  1.00  0.00     0.004 C 
ENDROOT
BRANCH   1   2
ATOM      2  C   UNL     1      53.507 -42.349 -25.739  1.00  0.00     0.000 C 
BRANCH   2   3
ATOM      3  C   UNL     1      53.569 -41.957 -27.224  1.00  0.00     0.000 C 
BRANCH   3   4
ATOM      4  C   UNL     1      52.275 -41.282 -27.712  1.00  0.00     0.000 C 
BRANCH   4   5
ATOM      5  C   UNL     1      52.506 -40.319 -28.892  1.00  0.00     0.006 C 
BRANCH   5   6
ATOM      6  C   UNL     1      53.483 -40.856 -29.952  1.00  0.00     0.053 C 
BRANCH   6   7
ATOM      7  C   UNL     1      52.801 -41.228 -31.234  1.00  0.00     0.041 C 
ATOM      8  O   UNL     1      53.257 -40.829 -32.337  1.00  0.00    -0.550 OA
ATOM      9  O   UNL     1      51.676 -42.044 -31.211  1.00  0.00    -0.550 OA
ENDBRANCH   6   7
ENDBRANCH   5   6
ENDBRANCH   4   5
ENDBRANCH   3   4
ENDBRANCH   2   3
ENDBRANCH   1   2
BRANCH   1  10
ATOM     10  C   UNL     1      52.468 -41.083 -23.784  1.00  0.00     0.027 C 
BRANCH  10  11
ATOM     11  C   UNL     1      53.658 -40.169 -23.920  1.00  0.00    -0.031 C 
ATOM     12  C   UNL     1      54.572 -40.054 -22.946  1.00  0.00    -0.031 C 
BRANCH  12  13
ATOM     13  C   UNL     1      55.752 -39.134 -23.106  1.00  0.00     0.027 C 
BRANCH  13  14
ATOM     14  C   UNL     1      56.849 -39.785 -23.959  1.00  0.00     0.004 C 
BRANCH  14  15
ATOM     15  C   UNL     1      57.087 -39.045 -25.285  1.00  0.00     0.000 C 
BRANCH  15  16
ATOM     16  C   UNL     1      56.455 -39.769 -26.487  1.00  0.00    -0.000 C 
BRANCH  16  17
ATOM     17  C   UNL     1      55.679 -38.813 -27.407  1.00  0.00    -0.003 C 
ATOM     18  C   UNL     1      54.597 -38.025 -26.669  1.00  0.00     0.004 C 
ENDBRANCH  16  17
ENDBRANCH  15  16
ENDBRANCH  14  15
ENDBRANCH  13  14
ENDBRANCH  12  13
ENDBRANCH  10  11
ENDBRANCH   1  10
TORSDOF 13
ENDMDL
MODEL 3
REMARK VINA RESULT:    -3.548      2.333      5.786
REMARK INTER + INTRA:          -8.308
REMARK INTER:                  -6.157
REMARK INTRA:                  -2.151
REMARK UNBOUND:                -2.064
REMARK SMILES CCCCCCC=CCCCCCCCC(=O)[O-]
REMARK SMILES IDX 10 1 11 2 12 3 13 4 14 5 15 6 16 7 17 8 18 9 9 10 8 11 7 12
REMARK SMILES IDX 6 13 5 14 4 15 3 16 2 17 1 18
REMARK H PARENT
REMARK Flexibility Score: inf
ROOT
ATOM      1  C   UNL     1      55.398 -41.127 -32.051  1.00  0.00     0.004 C 
ENDROOT
BRANCH   1   2
ATOM      2  C   UNL     1      55.995 -40.324 -30.883  1.00  0.00     0.000 C 
BRANCH   2   3
ATOM      3  C   UNL     1      55.738 -40.988 -29.520  1.00  0.00     0.000 C 
BRANCH   3   4
ATOM      4  C   UNL     1      55.615 -42.518 -29.621  1.00  0.00     0.000 C 
BRANCH   4   5
ATOM      5  C   UNL     1      54.286 -43.054 -29.056  1.00  0.00     0.006 C 
BRANCH   5   6
ATOM      6  C   UNL     1      53.840 -42.367 -27.753  1.00  0.00     0.053 C 
BRANCH   6   7
ATOM      7  C   UNL     1      54.528 -42.919 -26.542  1.00  0.00     0.041 C 
ATOM      8  O   UNL     1      54.888 -44.125 -26.509  1.00  0.00    -0.550 OA
ATOM      9  O   UNL     1      54.800 -42.092 -25.459  1.00  0.00    -0.550 OA
ENDBRANCH   6   7
ENDBRANCH   5   6
ENDBRANCH   4   5
ENDBRANCH   3   4
ENDBRANCH   2   3
ENDBRANCH   1   2
BRANCH   1  10
ATOM     10  C   UNL     1      54.091 -40.509 -32.569  1.00  0.00     0.027 C 
BRANCH  10  11
ATOM     11  C   UNL     1      52.875 -41.109 -31.914  1.00  0.00    -0.031 C 
ATOM     12  C   UNL     1      52.258 -40.504 -30.888  1.00  0.00    -0.031 C 
BRANCH  12  13
ATOM     13  C   UNL     1      51.044 -41.124 -30.250  1.00  0.00     0.027 C 
BRANCH  13  14
ATOM     14  C   UNL     1      50.968 -42.628 -30.551  1.00  0.00     0.004 C 
BRANCH  14  15
ATOM     15  C   UNL     1      50.383 -43.438 -29.383  1.00  0.00     0.000 C 
BRANCH  15  16
ATOM     16  C   UNL     1      50.023 -42.556 -28.175  1.00  0.00    -0.000 C 
BRANCH  16  17
ATOM     17  C   UNL     1      48.506 -42.384 -28.002  1.00  0.00    -0.003 C 
ATOM     18  C   UNL     1      48.074 -40.918 -27.974  1.00  0.00     0.004 C 
ENDBRANCH  16  17
ENDBRANCH  15  16
ENDBRANCH  14  15
ENDBRANCH  13  14
ENDBRANCH  12  13
ENDBRANCH  10  11
ENDBRANCH   1  10
TORSDOF 13
ENDMDL
MODEL 4
REMARK VINA RESULT:    -3.538      2.084      4.414
REMARK INTER + INTRA:          -8.291
REMARK INTER:                  -6.495
REMARK INTRA:                  -1.796
REMARK UNBOUND:                -2.064
REMARK SMILES CCCCCCC=CCCCCCCCC(=O)[O-]
REMARK SMILES IDX 10 1 11 2 12 3 13 4 14 5 15 6 16 7 17 8 18 9 9 10 8 11 7 12
REMARK SMILES IDX 6 13 5 14 4 15 3 16 2 17 1 18
REMARK H PARENT
REMARK Flexibility Score: inf
ROOT
ATOM      1  C   UNL     1      51.997 -41.112 -24.004  1.00  0.00     0.004 C 
ENDROOT
BRANCH   1   2
ATOM      2  C   UNL     1      50.927 -42.203 -23.825  1.00  0.00     0.000 C 
BRANCH   2   3
ATOM      3  C   UNL     1      51.082 -43.352 -24.835  1.00  0.00     0.000 C 
BRANCH   3   4
ATOM      4  C   UNL     1      52.298 -43.167 -25.759  1.00  0.00     0.000 C 
BRANCH   4   5
ATOM      5  C   UNL     1      51.907 -42.809 -27.205  1.00  0.00     0.006 C 
BRANCH   5   6
ATOM      6  C   UNL     1      53.081 -42.856 -28.198  1.00  0.00     0.053 C 
BRANCH   6   7
ATOM      7  C   UNL     1      53.028 -41.752 -29.210  1.00  0.00     0.041 C 
ATOM      8  O   UNL     1      53.639 -41.863 -30.306  1.00  0.00    -0.550 OA
ATOM      9  O   UNL     1      52.278 -40.611 -28.955  1.00  0.00    -0.550 OA
ENDBRANCH   6   7
ENDBRANCH   5   6
ENDBRANCH   4   5
ENDBRANCH   3   4
ENDBRANCH   2   3
ENDBRANCH   1   2
BRANCH   1  10
ATOM     10  C   UNL     1      52.416 -40.489 -22.665  1.00  0.00     0.027 C 
BRANCH  10  11
ATOM     11  C   UNL     1      53.898 -40.233 -22.590  1.00  0.00    -0.031 C 
ATOM     12  C   UNL     1      54.439 -39.093 -23.046  1.00  0.00    -0.031 C 
BRANCH  12  13
ATOM     13  C   UNL     1      55.923 -38.862 -22.961  1.00  0.00     0.027 C 
BRANCH  13  14
ATOM     14  C   UNL     1      56.687 -39.825 -23.881  1.00  0.00     0.004 C 
BRANCH  14  15
ATOM     15  C   UNL     1      56.323 -39.644 -25.363  1.00  0.00     0.000 C 
BRANCH  15  16
ATOM     16  C   UNL     1      55.769 -40.932 -25.997  1.00  0.00    -0.000 C 
BRANCH  16  17
ATOM     17  C   UNL     1      55.932 -42.156 -25.082  1.00  0.00    -0.003 C 
ATOM     18  C   UNL     1      56.036 -43.468 -25.859  1.00  0.00     0.004 C 
ENDBRANCH  16  17
ENDBRANCH  15  16
ENDBRANCH  14  15
ENDBRANCH  13  14
ENDBRANCH  12  13
ENDBRANCH  10  11
ENDBRANCH   1  10
TORSDOF 13
ENDMDL
MODEL 5
REMARK VINA RESULT:    -3.524      3.187      4.924
REMARK INTER + INTRA:          -8.265
REMARK INTER:                  -6.040
REMARK INTRA:                  -2.225
REMARK UNBOUND:                -2.064
REMARK SMILES CCCCCCC=CCCCCCCCC(=O)[O-]
REMARK SMILES IDX 10 1 11 2 12 3 13 4 14 5 15 6 16 7 17 8 18 9 9 10 8 11 7 12
REMARK SMILES IDX 6 13 5 14 4 15 3 16 2 17 1 18
REMARK H PARENT
REMARK Flexibility Score: inf
ROOT
ATOM      1  C   UNL     1      52.700 -41.594 -25.491  1.00  0.00     0.004 C 
ENDROOT
BRANCH   1   2
ATOM      2  C   UNL     1      54.010 -42.332 -25.817  1.00  0.00     0.000 C 
BRANCH   2   3
ATOM      3  C   UNL     1      54.759 -41.705 -27.005  1.00  0.00     0.000 C 
BRANCH   3   4
ATOM      4  C   UNL     1      56.256 -42.058 -27.012  1.00  0.00     0.000 C 
BRANCH   4   5
ATOM      5  C   UNL     1      56.927 -41.807 -28.375  1.00  0.00     0.006 C 
BRANCH   5   6
ATOM      6  C   UNL     1      55.933 -41.578 -29.527  1.00  0.00     0.053 C 
BRANCH   6   7
ATOM      7  C   UNL     1      56.223 -40.329 -30.303  1.00  0.00     0.041 C 
ATOM      8  O   UNL     1      55.980 -40.276 -31.537  1.00  0.00    -0.550 OA
ATOM      9  O   UNL     1      56.735 -39.212 -29.656  1.00  0.00    -0.550 OA
ENDBRANCH   6   7
ENDBRANCH   5   6
ENDBRANCH   4   5
ENDBRANCH   3   4
ENDBRANCH   2   3
ENDBRANCH   1   2
BRANCH   1  10
ATOM     10  C   UNL     1      52.792 -40.806 -24.177  1.00  0.00     0.027 C 
BRANCH  10  11
ATOM     11  C   UNL     1      54.210 -40.442 -23.824  1.00  0.00    -0.031 C 
ATOM     12  C   UNL     1      54.509 -39.293 -23.201  1.00  0.00    -0.031 C 
BRANCH  12  13
ATOM     13  C   UNL     1      55.934 -38.953 -22.861  1.00  0.00     0.027 C 
BRANCH  13  14
ATOM     14  C   UNL     1      56.913 -39.662 -23.808  1.00  0.00     0.004 C 
BRANCH  14  15
ATOM     15  C   UNL     1      57.699 -38.681 -24.692  1.00  0.00     0.000 C 
BRANCH  15  16
ATOM     16  C   UNL     1      57.195 -38.662 -26.146  1.00  0.00    -0.000 C 
BRANCH  16  17
ATOM     17  C   UNL     1      56.120 -37.590 -26.382  1.00  0.00    -0.003 C 
ATOM     18  C   UNL     1      54.766 -38.183 -26.774  1.00  0.00     0.004 C 
ENDBRANCH  16  17
ENDBRANCH  15  16
ENDBRANCH  14  15
ENDBRANCH  13  14
ENDBRANCH  12  13
ENDBRANCH  10  11
ENDBRANCH   1  10
TORSDOF 13
ENDMDL
MODEL 6
REMARK VINA RESULT:    -3.522      3.977      6.544
REMARK INTER + INTRA:          -8.263
REMARK INTER:                  -5.986
REMARK INTRA:                  -2.277
REMARK UNBOUND:                -2.064
REMARK SMILES CCCCCCC=CCCCCCCCC(=O)[O-]
REMARK SMILES IDX 10 1 11 2 12 3 13 4 14 5 15 6 16 7 17 8 18 9 9 10 8 11 7 12
REMARK SMILES IDX 6 13 5 14 4 15 3 16 2 17 1 18
REMARK H PARENT
REMARK Flexibility Score: inf
ROOT
ATOM      1  C   UNL     1      53.497 -37.832 -22.495  1.00  0.00     0.004 C 
ENDROOT
BRANCH   1   2
ATOM      2  C   UNL     1      52.390 -38.763 -23.019  1.00  0.00     0.000 C 
BRANCH   2   3
ATOM      3  C   UNL     1      52.724 -40.249 -22.812  1.00  0.00     0.000 C 
BRANCH   3   4
ATOM      4  C   UNL     1      52.448 -41.097 -24.066  1.00  0.00     0.000 C 
BRANCH   4   5
ATOM      5  C   UNL     1      53.456 -40.838 -25.201  1.00  0.00     0.006 C 
BRANCH   5   6
ATOM      6  C   UNL     1      54.093 -42.117 -25.773  1.00  0.00     0.053 C 
BRANCH   6   7
ATOM      7  C   UNL     1      55.590 -42.047 -25.822  1.00  0.00     0.041 C 
ATOM      8  O   UNL     1      56.282 -42.616 -24.937  1.00  0.00    -0.550 OA
ATOM      9  O   UNL     1      56.221 -41.378 -26.863  1.00  0.00    -0.550 OA
ENDBRANCH   6   7
ENDBRANCH   5   6
ENDBRANCH   4   5
ENDBRANCH   3   4
ENDBRANCH   2   3
ENDBRANCH   1   2
BRANCH   1  10
ATOM     10  C   UNL     1      54.734 -38.611 -22.027  1.00  0.00     0.027 C 
BRANCH  10  11
ATOM     11  C   UNL     1      55.938 -38.348 -22.893  1.00  0.00    -0.031 C 
ATOM     12  C   UNL     1      56.553 -39.334 -23.561  1.00  0.00    -0.031 C 
BRANCH  12  13
ATOM     13  C   UNL     1      57.755 -39.046 -24.419  1.00  0.00     0.027 C 
BRANCH  13  14
ATOM     14  C   UNL     1      57.780 -37.576 -24.860  1.00  0.00     0.004 C 
BRANCH  14  15
ATOM     15  C   UNL     1      57.777 -37.414 -26.389  1.00  0.00     0.000 C 
BRANCH  15  16
ATOM     16  C   UNL     1      56.444 -36.863 -26.922  1.00  0.00    -0.000 C 
BRANCH  16  17
ATOM     17  C   UNL     1      55.308 -37.896 -26.849  1.00  0.00    -0.003 C 
ATOM     18  C   UNL     1      54.093 -37.388 -26.073  1.00  0.00     0.004 C 
ENDBRANCH  16  17
ENDBRANCH  15  16
ENDBRANCH  14  15
ENDBRANCH  13  14
ENDBRANCH  12  13
ENDBRANCH  10  11
ENDBRANCH   1  10
TORSDOF 13
ENDMDL
MODEL 7
REMARK VINA RESULT:    -3.506      2.795      6.258
REMARK INTER + INTRA:          -8.235
REMARK INTER:                  -6.150
REMARK INTRA:                  -2.085
REMARK UNBOUND:                -2.064
REMARK SMILES CCCCCCC=CCCCCCCCC(=O)[O-]
REMARK SMILES IDX 10 1 11 2 12 3 13 4 14 5 15 6 16 7 17 8 18 9 9 10 8 11 7 12
REMARK SMILES IDX 6 13 5 14 4 15 3 16 2 17 1 18
REMARK H PARENT
REMARK Flexibility Score: inf
ROOT
ATOM      1  C   UNL     1      56.619 -40.093 -30.566  1.00  0.00     0.004 C 
ENDROOT
BRANCH   1   2
ATOM      2  C   UNL     1      57.456 -39.770 -29.316  1.00  0.00     0.000 C 
BRANCH   2   3
ATOM      3  C   UNL     1      56.684 -40.019 -28.010  1.00  0.00     0.000 C 
BRANCH   3   4
ATOM      4  C   UNL     1      55.384 -39.200 -27.927  1.00  0.00     0.000 C 
BRANCH   4   5
ATOM      5  C   UNL     1      54.146 -40.066 -27.631  1.00  0.00     0.006 C 
BRANCH   5   6
ATOM      6  C   UNL     1      54.480 -41.469 -27.093  1.00  0.00     0.053 C 
BRANCH   6   7
ATOM      7  C   UNL     1      54.398 -41.552 -25.599  1.00  0.00     0.041 C 
ATOM      8  O   UNL     1      53.279 -41.630 -25.027  1.00  0.00    -0.550 OA
ATOM      9  O   UNL     1      55.561 -41.574 -24.840  1.00  0.00    -0.550 OA
ENDBRANCH   6   7
ENDBRANCH   5   6
ENDBRANCH   4   5
ENDBRANCH   3   4
ENDBRANCH   2   3
ENDBRANCH   1   2
BRANCH   1  10
ATOM     10  C   UNL     1      56.298 -41.590 -30.676  1.00  0.00     0.027 C 
BRANCH  10  11
ATOM     11  C   UNL     1      54.818 -41.854 -30.762  1.00  0.00    -0.031 C 
ATOM     12  C   UNL     1      53.985 -40.999 -31.371  1.00  0.00    -0.031 C 
BRANCH  12  13
ATOM     13  C   UNL     1      52.509 -41.285 -31.444  1.00  0.00     0.027 C 
BRANCH  13  14
ATOM     14  C   UNL     1      51.731 -40.436 -30.428  1.00  0.00     0.004 C 
BRANCH  14  15
ATOM     15  C   UNL     1      50.526 -41.181 -29.831  1.00  0.00     0.000 C 
BRANCH  15  16
ATOM     16  C   UNL     1      50.943 -42.399 -28.990  1.00  0.00    -0.000 C 
BRANCH  16  17
ATOM     17  C   UNL     1      50.221 -43.686 -29.418  1.00  0.00    -0.003 C 
ATOM     18  C   UNL     1      49.219 -43.456 -30.550  1.00  0.00     0.004 C 
ENDBRANCH  16  17
ENDBRANCH  15  16
ENDBRANCH  14  15
ENDBRANCH  13  14
ENDBRANCH  12  13
ENDBRANCH  10  11
ENDBRANCH   1  10
TORSDOF 13
ENDMDL
MODEL 8
REMARK VINA RESULT:    -3.505      2.593      5.652
REMARK INTER + INTRA:          -8.233
REMARK INTER:                  -5.897
REMARK INTRA:                  -2.336
REMARK UNBOUND:                -2.064
REMARK SMILES CCCCCCC=CCCCCCCCC(=O)[O-]
REMARK SMILES IDX 10 1 11 2 12 3 13 4 14 5 15 6 16 7 17 8 18 9 9 10 8 11 7 12
REMARK SMILES IDX 6 13 5 14 4 15 3 16 2 17 1 18
REMARK H PARENT
REMARK Flexibility Score: inf
ROOT
ATOM      1  C   UNL     1      56.078 -43.601 -25.750  1.00  0.00     0.004 C 
ENDROOT
BRANCH   1   2
ATOM      2  C   UNL     1      55.725 -42.104 -25.715  1.00  0.00     0.000 C 
BRANCH   2   3
ATOM      3  C   UNL     1      54.216 -41.851 -25.868  1.00  0.00     0.000 C 
BRANCH   3   4
ATOM      4  C   UNL     1      53.903 -40.739 -26.885  1.00  0.00     0.000 C 
BRANCH   4   5
ATOM      5  C   UNL     1      53.237 -41.267 -28.169  1.00  0.00     0.006 C 
BRANCH   5   6
ATOM      6  C   UNL     1      52.601 -40.169 -29.039  1.00  0.00     0.053 C 
BRANCH   6   7
ATOM      7  C   UNL     1      51.882 -40.719 -30.233  1.00  0.00     0.041 C 
ATOM      8  O   UNL     1      52.525 -41.059 -31.261  1.00  0.00    -0.550 OA
ATOM      9  O   UNL     1      50.504 -40.886 -30.199  1.00  0.00    -0.550 OA
ENDBRANCH   6   7
ENDBRANCH   5   6
ENDBRANCH   4   5
ENDBRANCH   3   4
ENDBRANCH   2   3
ENDBRANCH   1   2
BRANCH   1  10
ATOM     10  C   UNL     1      56.232 -44.125 -27.185  1.00  0.00     0.027 C 
BRANCH  10  11
ATOM     11  C   UNL     1      56.843 -43.102 -28.107  1.00  0.00    -0.031 C 
ATOM     12  C   UNL     1      56.361 -42.889 -29.340  1.00  0.00    -0.031 C 
BRANCH  12  13
ATOM     13  C   UNL     1      56.989 -41.862 -30.242  1.00  0.00     0.027 C 
BRANCH  13  14
ATOM     14  C   UNL     1      56.162 -40.569 -30.267  1.00  0.00     0.004 C 
BRANCH  14  15
ATOM     15  C   UNL     1      56.980 -39.333 -29.860  1.00  0.00     0.000 C 
BRANCH  15  16
ATOM     16  C   UNL     1      57.895 -39.602 -28.652  1.00  0.00    -0.000 C 
BRANCH  16  17
ATOM     17  C   UNL     1      57.280 -39.120 -27.329  1.00  0.00    -0.003 C 
ATOM     18  C   UNL     1      56.235 -38.021 -27.525  1.00  0.00     0.004 C 
ENDBRANCH  16  17
ENDBRANCH  15  16
ENDBRANCH  14  15
ENDBRANCH  13  14
ENDBRANCH  12  13
ENDBRANCH  10  11
ENDBRANCH   1  10
TORSDOF 13
ENDMDL
MODEL 9
REMARK VINA RESULT:    -3.458      1.808      2.523
REMARK INTER + INTRA:          -8.150
REMARK INTER:                  -6.011
REMARK INTRA:                  -2.140
REMARK UNBOUND:                -2.064
REMARK SMILES CCCCCCC=CCCCCCCCC(=O)[O-]
REMARK SMILES IDX 10 1 11 2 12 3 13 4 14 5 15 6 16 7 17 8 18 9 9 10 8 11 7 12
REMARK SMILES IDX 6 13 5 14 4 15 3 16 2 17 1 18
REMARK H PARENT
REMARK Flexibility Score: inf
ROOT
ATOM      1  C   UNL     1      50.898 -42.859 -30.643  1.00  0.00     0.004 C 
ENDROOT
BRANCH   1   2
ATOM      2  C   UNL     1      50.818 -41.504 -29.919  1.00  0.00     0.000 C 
BRANCH   2   3
ATOM      3  C   UNL     1      51.871 -40.504 -30.422  1.00  0.00     0.000 C 
BRANCH   3   4
ATOM      4  C   UNL     1      52.811 -41.115 -31.476  1.00  0.00     0.000 C 
BRANCH   4   5
ATOM      5  C   UNL     1      54.241 -41.339 -30.949  1.00  0.00     0.006 C 
BRANCH   5   6
ATOM      6  C   UNL     1      54.507 -40.701 -29.575  1.00  0.00     0.053 C 
BRANCH   6   7
ATOM      7  C   UNL     1      55.964 -40.468 -29.316  1.00  0.00     0.041 C 
ATOM      8  O   UNL     1      56.376 -40.253 -28.145  1.00  0.00    -0.550 OA
ATOM      9  O   UNL     1      56.873 -40.519 -30.365  1.00  0.00    -0.550 OA
ENDBRANCH   6   7
ENDBRANCH   5   6
ENDBRANCH   4   5
ENDBRANCH   3   4
ENDBRANCH   2   3
ENDBRANCH   1   2
BRANCH   1  10
ATOM     10  C   UNL     1      51.128 -44.023 -29.668  1.00  0.00     0.027 C 
BRANCH  10  11
ATOM     11  C   UNL     1      52.026 -43.640 -28.521  1.00  0.00    -0.031 C 
ATOM     12  C   UNL     1      51.655 -43.823 -27.246  1.00  0.00    -0.031 C 
BRANCH  12  13
ATOM     13  C   UNL     1      52.570 -43.432 -26.117  1.00  0.00     0.027 C 
BRANCH  13  14
ATOM     14  C   UNL     1      53.642 -42.441 -26.592  1.00  0.00     0.004 C 
BRANCH  14  15
ATOM     15  C   UNL     1      54.929 -42.512 -25.755  1.00  0.00     0.000 C 
BRANCH  15  16
ATOM     16  C   UNL     1      55.901 -43.593 -26.257  1.00  0.00    -0.000 C 
BRANCH  16  17
ATOM     17  C   UNL     1      55.772 -43.846 -27.767  1.00  0.00    -0.003 C 
ATOM     18  C   UNL     1      57.125 -43.896 -28.479  1.00  0.00     0.004 C 
ENDBRANCH  16  17
ENDBRANCH  15  16
ENDBRANCH  14  15
ENDBRANCH  13  14
ENDBRANCH  12  13
ENDBRANCH  10  11
ENDBRANCH   1  10
TORSDOF 13
ENDMDL
