MODEL 1
REMARK VINA RESULT:    -4.702      0.000      0.000
REMARK INTER + INTRA:         -14.313
REMARK INTER:                 -10.750
REMARK INTRA:                  -3.562
REMARK UNBOUND:                -3.562
REMARK SMILES CCCCCCCCCCCCCCCCCCCCCCCC(=O)[O-]
REMARK SMILES IDX 13 1 14 2 15 3 16 4 17 5 18 6 19 7 20 8 21 9 22 10 23 11
REMARK SMILES IDX 24 12 25 13 26 14 12 15 11 16 10 17 9 18 8 19 7 20 6 21 5 22
REMARK SMILES IDX 4 23 3 24 2 25 1 26
REMARK H PARENT
REMARK Flexibility Score: inf
ROOT
ATOM      1  C   UNL     1     -49.401  13.344 -31.153  1.00  0.00     0.000 C 
ENDROOT
BRANCH   1   2
ATOM      2  C   UNL     1     -50.801  13.864 -31.531  1.00  0.00     0.000 C 
BRANCH   2   3
ATOM      3  C   UNL     1     -51.796  12.751 -31.926  1.00  0.00     0.000 C 
BRANCH   3   4
ATOM      4  C   UNL     1     -53.104  12.816 -31.118  1.00  0.00     0.000 C 
BRANCH   4   5
ATOM      5  C   UNL     1     -53.124  11.819 -29.947  1.00  0.00     0.000 C 
BRANCH   5   6
ATOM      6  C   UNL     1     -52.860  12.498 -28.593  1.00  0.00     0.000 C 
BRANCH   6   7
ATOM      7  C   UNL     1     -53.381  13.944 -28.594  1.00  0.00     0.000 C 
BRANCH   7   8
ATOM      8  C   UNL     1     -52.274  14.978 -28.324  1.00  0.00     0.000 C 
BRANCH   8   9
ATOM      9  C   UNL     1     -52.773  16.369 -27.883  1.00  0.00     0.000 C 
BRANCH   9  10
ATOM     10  C   UNL     1     -53.116  17.336 -29.033  1.00  0.00     0.006 C 
BRANCH  10  11
ATOM     11  C   UNL     1     -52.595  16.897 -30.411  1.00  0.00     0.053 C 
BRANCH  11  12
ATOM     12  C   UNL     1     -51.518  17.805 -30.920  1.00  0.00     0.041 C 
ATOM     13  O   UNL     1     -50.308  17.470 -30.823  1.00  0.00    -0.550 OA
ATOM     14  O   UNL     1     -51.849  19.041 -31.460  1.00  0.00    -0.550 OA
ENDBRANCH  11  12
ENDBRANCH  10  11
ENDBRANCH   9  10
ENDBRANCH   8   9
ENDBRANCH   7   8
ENDBRANCH   6   7
ENDBRANCH   5   6
ENDBRANCH   4   5
ENDBRANCH   3   4
ENDBRANCH   2   3
ENDBRANCH   1   2
BRANCH   1  15
ATOM     15  C   UNL     1     -49.293  12.728 -29.745  1.00  0.00     0.000 C 
BRANCH  15  16
ATOM     16  C   UNL     1     -49.462  11.196 -29.683  1.00  0.00     0.000 C 
BRANCH  16  17
ATOM     17  C   UNL     1     -48.416  10.453 -28.833  1.00  0.00     0.000 C 
BRANCH  17  18
ATOM     18  C   UNL     1     -47.204   9.983 -29.654  1.00  0.00    -0.000 C 
BRANCH  18  19
ATOM     19  C   UNL     1     -47.391   8.568 -30.226  1.00  0.00    -0.000 C 
BRANCH  19  20
ATOM     20  C   UNL     1     -46.941   8.453 -31.691  1.00  0.00    -0.000 C 
BRANCH  20  21
ATOM     21  C   UNL     1     -47.299   7.076 -32.271  1.00  0.00    -0.000 C 
BRANCH  21  22
ATOM     22  C   UNL     1     -48.525   6.445 -31.589  1.00  0.00    -0.000 C 
BRANCH  22  23
ATOM     23  C   UNL     1     -49.839   6.761 -32.323  1.00  0.00    -0.000 C 
BRANCH  23  24
ATOM     24  C   UNL     1     -50.907   7.355 -31.391  1.00  0.00    -0.000 C 
BRANCH  24  25
ATOM     25  C   UNL     1     -51.118   8.859 -31.613  1.00  0.00    -0.003 C 
ATOM     26  C   UNL     1     -50.429   9.326 -32.893  1.00  0.00     0.004 C 
ENDBRANCH  24  25
ENDBRANCH  23  24
ENDBRANCH  22  23
ENDBRANCH  21  22
ENDBRANCH  20  21
ENDBRANCH  19  20
ENDBRANCH  18  19
ENDBRANCH  17  18
ENDBRANCH  16  17
ENDBRANCH  15  16
ENDBRANCH   1  15
TORSDOF 22
ENDMDL
MODEL 2
REMARK VINA RESULT:    -4.610      0.884      2.507
REMARK INTER + INTRA:         -14.102
REMARK INTER:                 -10.222
REMARK INTRA:                  -3.880
REMARK UNBOUND:                -3.562
REMARK SMILES CCCCCCCCCCCCCCCCCCCCCCCC(=O)[O-]
REMARK SMILES IDX 13 1 14 2 15 3 16 4 17 5 18 6 19 7 20 8 21 9 22 10 23 11
REMARK SMILES IDX 24 12 25 13 26 14 12 15 11 16 10 17 9 18 8 19 7 20 6 21 5 22
REMARK SMILES IDX 4 23 3 24 2 25 1 26
REMARK H PARENT
REMARK Flexibility Score: inf
ROOT
ATOM      1  C   UNL     1     -49.646  12.979 -29.976  1.00  0.00     0.000 C 
ENDROOT
BRANCH   1   2
ATOM      2  C   UNL     1     -50.011  13.588 -31.343  1.00  0.00     0.000 C 
BRANCH   2   3
ATOM      3  C   UNL     1     -51.425  14.207 -31.394  1.00  0.00     0.000 C 
BRANCH   3   4
ATOM      4  C   UNL     1     -52.529  13.145 -31.551  1.00  0.00     0.000 C 
BRANCH   4   5
ATOM      5  C   UNL     1     -53.783  13.473 -30.724  1.00  0.00     0.000 C 
BRANCH   5   6
ATOM      6  C   UNL     1     -53.938  12.553 -29.503  1.00  0.00     0.000 C 
BRANCH   6   7
ATOM      7  C   UNL     1     -53.318  13.194 -28.251  1.00  0.00     0.000 C 
BRANCH   7   8
ATOM      8  C   UNL     1     -53.501  14.722 -28.210  1.00  0.00     0.000 C 
BRANCH   8   9
ATOM      9  C   UNL     1     -52.201  15.530 -28.020  1.00  0.00     0.000 C 
BRANCH   9  10
ATOM     10  C   UNL     1     -52.269  16.998 -28.482  1.00  0.00     0.006 C 
BRANCH  10  11
ATOM     11  C   UNL     1     -52.724  17.187 -29.939  1.00  0.00     0.053 C 
BRANCH  11  12
ATOM     12  C   UNL     1     -51.695  17.900 -30.761  1.00  0.00     0.041 C 
ATOM     13  O   UNL     1     -52.023  18.891 -31.465  1.00  0.00    -0.550 OA
ATOM     14  O   UNL     1     -50.385  17.441 -30.784  1.00  0.00    -0.550 OA
ENDBRANCH  11  12
ENDBRANCH  10  11
ENDBRANCH   9  10
ENDBRANCH   8   9
ENDBRANCH   7   8
ENDBRANCH   6   7
ENDBRANCH   5   6
ENDBRANCH   4   5
ENDBRANCH   3   4
ENDBRANCH   2   3
ENDBRANCH   1   2
BRANCH   1  15
ATOM     15  C   UNL     1     -49.479  11.448 -29.969  1.00  0.00     0.000 C 
BRANCH  15  16
ATOM     16  C   UNL     1     -50.711  10.654 -29.487  1.00  0.00     0.000 C 
BRANCH  16  17
ATOM     17  C   UNL     1     -51.355   9.736 -30.541  1.00  0.00     0.000 C 
BRANCH  17  18
ATOM     18  C   UNL     1     -50.946  10.097 -31.978  1.00  0.00    -0.000 C 
BRANCH  18  19
ATOM     19  C   UNL     1     -50.255   8.932 -32.707  1.00  0.00    -0.000 C 
BRANCH  19  20
ATOM     20  C   UNL     1     -50.984   7.593 -32.516  1.00  0.00    -0.000 C 
BRANCH  20  21
ATOM     21  C   UNL     1     -50.005   6.490 -32.082  1.00  0.00    -0.000 C 
BRANCH  21  22
ATOM     22  C   UNL     1     -49.642   6.572 -30.590  1.00  0.00    -0.000 C 
BRANCH  22  23
ATOM     23  C   UNL     1     -48.144   6.835 -30.359  1.00  0.00    -0.000 C 
BRANCH  23  24
ATOM     24  C   UNL     1     -47.404   7.206 -31.654  1.00  0.00    -0.000 C 
BRANCH  24  25
ATOM     25  C   UNL     1     -46.703   8.569 -31.566  1.00  0.00    -0.003 C 
ATOM     26  C   UNL     1     -46.788   9.140 -30.152  1.00  0.00     0.004 C 
ENDBRANCH  24  25
ENDBRANCH  23  24
ENDBRANCH  22  23
ENDBRANCH  21  22
ENDBRANCH  20  21
ENDBRANCH  19  20
ENDBRANCH  18  19
ENDBRANCH  17  18
ENDBRANCH  16  17
ENDBRANCH  15  16
ENDBRANCH   1  15
TORSDOF 22
ENDMDL
MODEL 3
REMARK VINA RESULT:    -4.604      2.942      5.823
REMARK INTER + INTRA:         -14.088
REMARK INTER:                 -11.053
REMARK INTRA:                  -3.036
REMARK UNBOUND:                -3.562
REMARK SMILES CCCCCCCCCCCCCCCCCCCCCCCC(=O)[O-]
REMARK SMILES IDX 13 1 14 2 15 3 16 4 17 5 18 6 19 7 20 8 21 9 22 10 23 11
REMARK SMILES IDX 24 12 25 13 26 14 12 15 11 16 10 17 9 18 8 19 7 20 6 21 5 22
REMARK SMILES IDX 4 23 3 24 2 25 1 26
REMARK H PARENT
REMARK Flexibility Score: inf
ROOT
ATOM      1  C   UNL     1     -52.617  15.695 -27.658  1.00  0.00     0.000 C 
ENDROOT
BRANCH   1   2
ATOM      2  C   UNL     1     -52.320  17.111 -28.187  1.00  0.00     0.000 C 
BRANCH   2   3
ATOM      3  C   UNL     1     -53.337  17.613 -29.235  1.00  0.00     0.000 C 
BRANCH   3   4
ATOM      4  C   UNL     1     -52.767  17.598 -30.665  1.00  0.00     0.000 C 
BRANCH   4   5
ATOM      5  C   UNL     1     -51.333  17.046 -30.721  1.00  0.00     0.000 C 
BRANCH   5   6
ATOM      6  C   UNL     1     -51.294  15.541 -31.029  1.00  0.00     0.000 C 
BRANCH   6   7
ATOM      7  C   UNL     1     -50.150  15.209 -32.001  1.00  0.00     0.000 C 
BRANCH   7   8
ATOM      8  C   UNL     1     -49.253  14.064 -31.498  1.00  0.00     0.000 C 
BRANCH   8   9
ATOM      9  C   UNL     1     -49.846  13.230 -30.343  1.00  0.00     0.000 C 
BRANCH   9  10
ATOM     10  C   UNL     1     -48.833  12.353 -29.582  1.00  0.00     0.006 C 
BRANCH  10  11
ATOM     11  C   UNL     1     -49.358  10.960 -29.199  1.00  0.00     0.053 C 
BRANCH  11  12
ATOM     12  C   UNL     1     -48.380   9.878 -29.539  1.00  0.00     0.041 C 
ATOM     13  O   UNL     1     -47.146  10.127 -29.569  1.00  0.00    -0.550 OA
ATOM     14  O   UNL     1     -48.835   8.608 -29.868  1.00  0.00    -0.550 OA
ENDBRANCH  11  12
ENDBRANCH  10  11
ENDBRANCH   9  10
ENDBRANCH   8   9
ENDBRANCH   7   8
ENDBRANCH   6   7
ENDBRANCH   5   6
ENDBRANCH   4   5
ENDBRANCH   3   4
ENDBRANCH   2   3
ENDBRANCH   1   2
BRANCH   1  15
ATOM     15  C   UNL     1     -53.903  15.051 -28.208  1.00  0.00     0.000 C 
BRANCH  15  16
ATOM     16  C   UNL     1     -53.701  13.721 -28.964  1.00  0.00     0.000 C 
BRANCH  16  17
ATOM     17  C   UNL     1     -54.056  13.755 -30.461  1.00  0.00     0.000 C 
BRANCH  17  18
ATOM     18  C   UNL     1     -53.634  12.476 -31.204  1.00  0.00    -0.000 C 
BRANCH  18  19
ATOM     19  C   UNL     1     -53.012  11.427 -30.267  1.00  0.00    -0.000 C 
BRANCH  19  20
ATOM     20  C   UNL     1     -52.375  10.253 -31.027  1.00  0.00    -0.000 C 
BRANCH  20  21
ATOM     21  C   UNL     1     -51.558  10.752 -32.229  1.00  0.00    -0.000 C 
BRANCH  21  22
ATOM     22  C   UNL     1     -50.801   9.621 -32.943  1.00  0.00    -0.000 C 
BRANCH  22  23
ATOM     23  C   UNL     1     -51.145   8.231 -32.381  1.00  0.00    -0.000 C 
BRANCH  23  24
ATOM     24  C   UNL     1     -50.733   7.093 -33.329  1.00  0.00    -0.000 C 
BRANCH  24  25
ATOM     25  C   UNL     1     -51.932   6.275 -33.828  1.00  0.00    -0.003 C 
ATOM     26  C   UNL     1     -52.895   7.147 -34.630  1.00  0.00     0.004 C 
ENDBRANCH  24  25
ENDBRANCH  23  24
ENDBRANCH  22  23
ENDBRANCH  21  22
ENDBRANCH  20  21
ENDBRANCH  19  20
ENDBRANCH  18  19
ENDBRANCH  17  18
ENDBRANCH  16  17
ENDBRANCH  15  16
ENDBRANCH   1  15
TORSDOF 22
ENDMDL
MODEL 4
REMARK VINA RESULT:    -4.603      2.831      8.200
REMARK INTER + INTRA:         -14.085
REMARK INTER:                 -10.831
REMARK INTRA:                  -3.255
REMARK UNBOUND:                -3.562
REMARK SMILES CCCCCCCCCCCCCCCCCCCCCCCC(=O)[O-]
REMARK SMILES IDX 13 1 14 2 15 3 16 4 17 5 18 6 19 7 20 8 21 9 22 10 23 11
REMARK SMILES IDX 24 12 25 13 26 14 12 15 11 16 10 17 9 18 8 19 7 20 6 21 5 22
REMARK SMILES IDX 4 23 3 24 2 25 1 26
REMARK H PARENT
REMARK Flexibility Score: inf
ROOT
ATOM      1  C   UNL     1     -52.899  11.956 -29.970  1.00  0.00     0.000 C 
ENDROOT
BRANCH   1   2
ATOM      2  C   UNL     1     -51.936  10.794 -29.657  1.00  0.00     0.000 C 
BRANCH   2   3
ATOM      3  C   UNL     1     -51.831   9.747 -30.788  1.00  0.00     0.000 C 
BRANCH   3   4
ATOM      4  C   UNL     1     -51.119  10.299 -32.037  1.00  0.00     0.000 C 
BRANCH   4   5
ATOM      5  C   UNL     1     -51.006   9.254 -33.159  1.00  0.00     0.000 C 
BRANCH   5   6
ATOM      6  C   UNL     1     -51.573   7.886 -32.748  1.00  0.00     0.000 C 
BRANCH   6   7
ATOM      7  C   UNL     1     -50.793   6.745 -33.420  1.00  0.00     0.000 C 
BRANCH   7   8
ATOM      8  C   UNL     1     -49.317   7.100 -33.675  1.00  0.00     0.000 C 
BRANCH   8   9
ATOM      9  C   UNL     1     -48.336   6.641 -32.577  1.00  0.00     0.000 C 
BRANCH   9  10
ATOM     10  C   UNL     1     -47.199   7.632 -32.260  1.00  0.00     0.006 C 
BRANCH  10  11
ATOM     11  C   UNL     1     -47.656   8.925 -31.566  1.00  0.00     0.053 C 
BRANCH  11  12
ATOM     12  C   UNL     1     -47.050   9.077 -30.205  1.00  0.00     0.041 C 
ATOM     13  O   UNL     1     -45.906   8.609 -29.965  1.00  0.00    -0.550 OA
ATOM     14  O   UNL     1     -47.769   9.693 -29.189  1.00  0.00    -0.550 OA
ENDBRANCH  11  12
ENDBRANCH  10  11
ENDBRANCH   9  10
ENDBRANCH   8   9
ENDBRANCH   7   8
ENDBRANCH   6   7
ENDBRANCH   5   6
ENDBRANCH   4   5
ENDBRANCH   3   4
ENDBRANCH   2   3
ENDBRANCH   1   2
BRANCH   1  15
ATOM     15  C   UNL     1     -53.020  13.016 -28.860  1.00  0.00     0.000 C 
BRANCH  15  16
ATOM     16  C   UNL     1     -54.056  14.128 -29.125  1.00  0.00     0.000 C 
BRANCH  16  17
ATOM     17  C   UNL     1     -53.877  15.407 -28.287  1.00  0.00     0.000 C 
BRANCH  17  18
ATOM     18  C   UNL     1     -52.406  15.701 -27.953  1.00  0.00    -0.000 C 
BRANCH  18  19
ATOM     19  C   UNL     1     -51.947  17.076 -28.467  1.00  0.00    -0.000 C 
BRANCH  19  20
ATOM     20  C   UNL     1     -52.585  17.453 -29.813  1.00  0.00    -0.000 C 
BRANCH  20  21
ATOM     21  C   UNL     1     -51.510  17.701 -30.883  1.00  0.00    -0.000 C 
BRANCH  21  22
ATOM     22  C   UNL     1     -50.661  16.452 -31.171  1.00  0.00    -0.000 C 
BRANCH  22  23
ATOM     23  C   UNL     1     -51.515  15.234 -31.565  1.00  0.00    -0.000 C 
BRANCH  23  24
ATOM     24  C   UNL     1     -50.661  14.002 -31.908  1.00  0.00    -0.000 C 
BRANCH  24  25
ATOM     25  C   UNL     1     -49.289  14.022 -31.219  1.00  0.00    -0.003 C 
ATOM     26  C   UNL     1     -49.223  12.986 -30.099  1.00  0.00     0.004 C 
ENDBRANCH  24  25
ENDBRANCH  23  24
ENDBRANCH  22  23
ENDBRANCH  21  22
ENDBRANCH  20  21
ENDBRANCH  19  20
ENDBRANCH  18  19
ENDBRANCH  17  18
ENDBRANCH  16  17
ENDBRANCH  15  16
ENDBRANCH   1  15
TORSDOF 22
ENDMDL
MODEL 5
REMARK VINA RESULT:    -4.602      3.371      8.407
REMARK INTER + INTRA:         -14.084
REMARK INTER:                 -10.301
REMARK INTRA:                  -3.783
REMARK UNBOUND:                -3.562
REMARK SMILES CCCCCCCCCCCCCCCCCCCCCCCC(=O)[O-]
REMARK SMILES IDX 13 1 14 2 15 3 16 4 17 5 18 6 19 7 20 8 21 9 22 10 23 11
REMARK SMILES IDX 24 12 25 13 26 14 12 15 11 16 10 17 9 18 8 19 7 20 6 21 5 22
REMARK SMILES IDX 4 23 3 24 2 25 1 26
REMARK H PARENT
REMARK Flexibility Score: inf
ROOT
ATOM      1  C   UNL     1     -49.660  13.709 -30.601  1.00  0.00     0.000 C 
ENDROOT
BRANCH   1   2
ATOM      2  C   UNL     1     -49.615  12.180 -30.790  1.00  0.00     0.000 C 
BRANCH   2   3
ATOM      3  C   UNL     1     -50.183  11.385 -29.594  1.00  0.00     0.000 C 
BRANCH   3   4
ATOM      4  C   UNL     1     -49.171  10.374 -29.025  1.00  0.00     0.000 C 
BRANCH   4   5
ATOM      5  C   UNL     1     -47.757  10.570 -29.597  1.00  0.00     0.000 C 
BRANCH   5   6
ATOM      6  C   UNL     1     -47.013   9.240 -29.793  1.00  0.00     0.000 C 
BRANCH   6   7
ATOM      7  C   UNL     1     -46.897   8.892 -31.286  1.00  0.00     0.000 C 
BRANCH   7   8
ATOM      8  C   UNL     1     -48.193   8.296 -31.863  1.00  0.00     0.000 C 
BRANCH   8   9
ATOM      9  C   UNL     1     -48.957   9.214 -32.838  1.00  0.00     0.000 C 
BRANCH   9  10
ATOM     10  C   UNL     1     -50.455   8.893 -33.004  1.00  0.00     0.006 C 
BRANCH  10  11
ATOM     11  C   UNL     1     -51.176   8.527 -31.696  1.00  0.00     0.053 C 
BRANCH  11  12
ATOM     12  C   UNL     1     -51.721   7.132 -31.726  1.00  0.00     0.041 C 
ATOM     13  O   UNL     1     -52.827   6.872 -31.183  1.00  0.00    -0.550 OA
ATOM     14  O   UNL     1     -50.985   6.111 -32.314  1.00  0.00    -0.550 OA
ENDBRANCH  11  12
ENDBRANCH  10  11
ENDBRANCH   9  10
ENDBRANCH   8   9
ENDBRANCH   7   8
ENDBRANCH   6   7
ENDBRANCH   5   6
ENDBRANCH   4   5
ENDBRANCH   3   4
ENDBRANCH   2   3
ENDBRANCH   1   2
BRANCH   1  15
ATOM     15  C   UNL     1     -49.971  14.513 -31.877  1.00  0.00     0.000 C 
BRANCH  15  16
ATOM     16  C   UNL     1     -51.085  15.570 -31.734  1.00  0.00     0.000 C 
BRANCH  16  17
ATOM     17  C   UNL     1     -50.783  16.715 -30.751  1.00  0.00     0.000 C 
BRANCH  17  18
ATOM     18  C   UNL     1     -51.725  17.917 -30.927  1.00  0.00    -0.000 C 
BRANCH  18  19
ATOM     19  C   UNL     1     -53.188  17.575 -30.599  1.00  0.00    -0.000 C 
BRANCH  19  20
ATOM     20  C   UNL     1     -53.673  18.222 -29.292  1.00  0.00    -0.000 C 
BRANCH  20  21
ATOM     21  C   UNL     1     -53.355  17.328 -28.083  1.00  0.00    -0.000 C 
BRANCH  21  22
ATOM     22  C   UNL     1     -53.821  15.876 -28.279  1.00  0.00    -0.000 C 
BRANCH  22  23
ATOM     23  C   UNL     1     -52.668  14.864 -28.169  1.00  0.00    -0.000 C 
BRANCH  23  24
ATOM     24  C   UNL     1     -53.007  13.511 -28.817  1.00  0.00    -0.000 C 
BRANCH  24  25
ATOM     25  C   UNL     1     -53.796  13.662 -30.125  1.00  0.00    -0.003 C 
ATOM     26  C   UNL     1     -53.342  12.635 -31.160  1.00  0.00     0.004 C 
ENDBRANCH  24  25
ENDBRANCH  23  24
ENDBRANCH  22  23
ENDBRANCH  21  22
ENDBRANCH  20  21
ENDBRANCH  19  20
ENDBRANCH  18  19
ENDBRANCH  17  18
ENDBRANCH  16  17
ENDBRANCH  15  16
ENDBRANCH   1  15
TORSDOF 22
ENDMDL
MODEL 6
REMARK VINA RESULT:    -4.601      1.291      4.109
REMARK INTER + INTRA:         -14.082
REMARK INTER:                 -10.619
REMARK INTRA:                  -3.463
REMARK UNBOUND:                -3.562
REMARK SMILES CCCCCCCCCCCCCCCCCCCCCCCC(=O)[O-]
REMARK SMILES IDX 13 1 14 2 15 3 16 4 17 5 18 6 19 7 20 8 21 9 22 10 23 11
REMARK SMILES IDX 24 12 25 13 26 14 12 15 11 16 10 17 9 18 8 19 7 20 6 21 5 22
REMARK SMILES IDX 4 23 3 24 2 25 1 26
REMARK H PARENT
REMARK Flexibility Score: inf
ROOT
ATOM      1  C   UNL     1     -48.638   8.415 -33.412  1.00  0.00     0.000 C 
ENDROOT
BRANCH   1   2
ATOM      2  C   UNL     1     -50.171   8.553 -33.366  1.00  0.00     0.000 C 
BRANCH   2   3
ATOM      3  C   UNL     1     -50.675   9.599 -32.347  1.00  0.00     0.000 C 
BRANCH   3   4
ATOM      4  C   UNL     1     -51.277   8.952 -31.087  1.00  0.00     0.000 C 
BRANCH   4   5
ATOM      5  C   UNL     1     -52.513   9.707 -30.571  1.00  0.00     0.000 C 
BRANCH   5   6
ATOM      6  C   UNL     1     -52.465  11.207 -30.900  1.00  0.00     0.000 C 
BRANCH   6   7
ATOM      7  C   UNL     1     -53.768  11.903 -30.475  1.00  0.00     0.000 C 
BRANCH   7   8
ATOM      8  C   UNL     1     -53.596  13.419 -30.269  1.00  0.00     0.000 C 
BRANCH   8   9
ATOM      9  C   UNL     1     -53.224  13.844 -28.834  1.00  0.00     0.000 C 
BRANCH   9  10
ATOM     10  C   UNL     1     -52.129  14.924 -28.733  1.00  0.00     0.006 C 
BRANCH  10  11
ATOM     11  C   UNL     1     -52.570  16.212 -28.019  1.00  0.00     0.053 C 
BRANCH  11  12
ATOM     12  C   UNL     1     -52.861  17.319 -28.985  1.00  0.00     0.041 C 
ATOM     13  O   UNL     1     -52.311  17.331 -30.118  1.00  0.00    -0.550 OA
ATOM     14  O   UNL     1     -53.703  18.359 -28.616  1.00  0.00    -0.550 OA
ENDBRANCH  11  12
ENDBRANCH  10  11
ENDBRANCH   9  10
ENDBRANCH   8   9
ENDBRANCH   7   8
ENDBRANCH   6   7
ENDBRANCH   5   6
ENDBRANCH   4   5
ENDBRANCH   3   4
ENDBRANCH   2   3
ENDBRANCH   1   2
BRANCH   1  15
ATOM     15  C   UNL     1     -48.121   6.993 -33.698  1.00  0.00     0.000 C 
BRANCH  15  16
ATOM     16  C   UNL     1     -47.470   6.276 -32.498  1.00  0.00     0.000 C 
BRANCH  16  17
ATOM     17  C   UNL     1     -48.394   6.045 -31.289  1.00  0.00     0.000 C 
BRANCH  17  18
ATOM     18  C   UNL     1     -48.099   7.000 -30.121  1.00  0.00    -0.000 C 
BRANCH  18  19
ATOM     19  C   UNL     1     -46.604   7.342 -30.000  1.00  0.00    -0.000 C 
BRANCH  19  20
ATOM     20  C   UNL     1     -46.332   8.852 -30.062  1.00  0.00    -0.000 C 
BRANCH  20  21
ATOM     21  C   UNL     1     -47.635   9.640 -30.271  1.00  0.00    -0.000 C 
BRANCH  21  22
ATOM     22  C   UNL     1     -47.855  10.718 -29.197  1.00  0.00    -0.000 C 
BRANCH  22  23
ATOM     23  C   UNL     1     -49.261  11.339 -29.261  1.00  0.00    -0.000 C 
BRANCH  23  24
ATOM     24  C   UNL     1     -49.236  12.811 -29.704  1.00  0.00    -0.000 C 
BRANCH  24  25
ATOM     25  C   UNL     1     -49.650  12.996 -31.170  1.00  0.00    -0.003 C 
ATOM     26  C   UNL     1     -49.704  14.476 -31.543  1.00  0.00     0.004 C 
ENDBRANCH  24  25
ENDBRANCH  23  24
ENDBRANCH  22  23
ENDBRANCH  21  22
ENDBRANCH  20  21
ENDBRANCH  19  20
ENDBRANCH  18  19
ENDBRANCH  17  18
ENDBRANCH  16  17
ENDBRANCH  15  16
ENDBRANCH   1  15
TORSDOF 22
ENDMDL
MODEL 7
REMARK VINA RESULT:    -4.567      1.148      3.386
REMARK INTER + INTRA:         -14.003
REMARK INTER:                 -10.450
REMARK INTRA:                  -3.553
REMARK UNBOUND:                -3.562
REMARK SMILES CCCCCCCCCCCCCCCCCCCCCCCC(=O)[O-]
REMARK SMILES IDX 13 1 14 2 15 3 16 4 17 5 18 6 19 7 20 8 21 9 22 10 23 11
REMARK SMILES IDX 24 12 25 13 26 14 12 15 11 16 10 17 9 18 8 19 7 20 6 21 5 22
REMARK SMILES IDX 4 23 3 24 2 25 1 26
REMARK H PARENT
REMARK Flexibility Score: inf
ROOT
ATOM      1  C   UNL     1     -47.426  10.201 -29.610  1.00  0.00     0.000 C 
ENDROOT
BRANCH   1   2
ATOM      2  C   UNL     1     -48.918   9.820 -29.667  1.00  0.00     0.000 C 
BRANCH   2   3
ATOM      3  C   UNL     1     -49.874  11.032 -29.633  1.00  0.00     0.000 C 
BRANCH   3   4
ATOM      4  C   UNL     1     -49.124  12.372 -29.538  1.00  0.00     0.000 C 
BRANCH   4   5
ATOM      5  C   UNL     1     -49.370  13.273 -30.759  1.00  0.00     0.000 C 
BRANCH   5   6
ATOM      6  C   UNL     1     -50.712  12.977 -31.447  1.00  0.00     0.000 C 
BRANCH   6   7
ATOM      7  C   UNL     1     -51.682  14.158 -31.288  1.00  0.00     0.000 C 
BRANCH   7   8
ATOM      8  C   UNL     1     -52.894  13.820 -30.402  1.00  0.00     0.000 C 
BRANCH   8   9
ATOM      9  C   UNL     1     -52.630  13.883 -28.883  1.00  0.00     0.000 C 
BRANCH   9  10
ATOM     10  C   UNL     1     -52.292  15.283 -28.334  1.00  0.00     0.006 C 
BRANCH  10  11
ATOM     11  C   UNL     1     -53.222  16.402 -28.831  1.00  0.00     0.053 C 
BRANCH  11  12
ATOM     12  C   UNL     1     -52.503  17.381 -29.708  1.00  0.00     0.041 C 
ATOM     13  O   UNL     1     -53.138  18.042 -30.572  1.00  0.00    -0.550 OA
ATOM     14  O   UNL     1     -51.126  17.528 -29.603  1.00  0.00    -0.550 OA
ENDBRANCH  11  12
ENDBRANCH  10  11
ENDBRANCH   9  10
ENDBRANCH   8   9
ENDBRANCH   7   8
ENDBRANCH   6   7
ENDBRANCH   5   6
ENDBRANCH   4   5
ENDBRANCH   3   4
ENDBRANCH   2   3
ENDBRANCH   1   2
BRANCH   1  15
ATOM     15  C   UNL     1     -46.472   9.195 -30.281  1.00  0.00     0.000 C 
BRANCH  15  16
ATOM     16  C   UNL     1     -46.667   7.723 -29.861  1.00  0.00     0.000 C 
BRANCH  16  17
ATOM     17  C   UNL     1     -47.135   6.776 -30.980  1.00  0.00     0.000 C 
BRANCH  17  18
ATOM     18  C   UNL     1     -47.096   7.431 -32.371  1.00  0.00    -0.000 C 
BRANCH  18  19
ATOM     19  C   UNL     1     -47.979   6.696 -33.394  1.00  0.00    -0.000 C 
BRANCH  19  20
ATOM     20  C   UNL     1     -49.305   7.422 -33.668  1.00  0.00    -0.000 C 
BRANCH  20  21
ATOM     21  C   UNL     1     -49.202   8.913 -33.309  1.00  0.00    -0.000 C 
BRANCH  21  22
ATOM     22  C   UNL     1     -50.558   9.526 -32.925  1.00  0.00    -0.000 C 
BRANCH  22  23
ATOM     23  C   UNL     1     -51.646   8.462 -32.697  1.00  0.00    -0.000 C 
BRANCH  23  24
ATOM     24  C   UNL     1     -52.529   8.774 -31.478  1.00  0.00    -0.000 C 
BRANCH  24  25
ATOM     25  C   UNL     1     -52.276   7.819 -30.303  1.00  0.00    -0.003 C 
ATOM     26  C   UNL     1     -51.132   6.857 -30.615  1.00  0.00     0.004 C 
ENDBRANCH  24  25
ENDBRANCH  23  24
ENDBRANCH  22  23
ENDBRANCH  21  22
ENDBRANCH  20  21
ENDBRANCH  19  20
ENDBRANCH  18  19
ENDBRANCH  17  18
ENDBRANCH  16  17
ENDBRANCH  15  16
ENDBRANCH   1  15
TORSDOF 22
ENDMDL
MODEL 8
REMARK VINA RESULT:    -4.512      2.633      4.186
REMARK INTER + INTRA:         -13.878
REMARK INTER:                 -10.919
REMARK INTRA:                  -2.959
REMARK UNBOUND:                -3.562
REMARK SMILES CCCCCCCCCCCCCCCCCCCCCCCC(=O)[O-]
REMARK SMILES IDX 13 1 14 2 15 3 16 4 17 5 18 6 19 7 20 8 21 9 22 10 23 11
REMARK SMILES IDX 24 12 25 13 26 14 12 15 11 16 10 17 9 18 8 19 7 20 6 21 5 22
REMARK SMILES IDX 4 23 3 24 2 25 1 26
REMARK H PARENT
REMARK Flexibility Score: inf
ROOT
ATOM      1  C   UNL     1     -49.986  15.161 -31.758  1.00  0.00     0.000 C 
ENDROOT
BRANCH   1   2
ATOM      2  C   UNL     1     -51.262  15.965 -31.443  1.00  0.00     0.000 C 
BRANCH   2   3
ATOM      3  C   UNL     1     -50.997  17.298 -30.710  1.00  0.00     0.000 C 
BRANCH   3   4
ATOM      4  C   UNL     1     -51.543  17.299 -29.271  1.00  0.00     0.000 C 
BRANCH   4   5
ATOM      5  C   UNL     1     -53.066  17.089 -29.220  1.00  0.00     0.000 C 
BRANCH   5   6
ATOM      6  C   UNL     1     -53.484  16.086 -28.134  1.00  0.00     0.000 C 
BRANCH   6   7
ATOM      7  C   UNL     1     -52.631  14.809 -28.210  1.00  0.00     0.000 C 
BRANCH   7   8
ATOM      8  C   UNL     1     -53.404  13.609 -28.785  1.00  0.00     0.000 C 
BRANCH   8   9
ATOM      9  C   UNL     1     -53.621  13.644 -30.312  1.00  0.00     0.000 C 
BRANCH   9  10
ATOM     10  C   UNL     1     -53.700  12.264 -30.993  1.00  0.00     0.006 C 
BRANCH  10  11
ATOM     11  C   UNL     1     -52.836  11.177 -30.333  1.00  0.00     0.053 C 
BRANCH  11  12
ATOM     12  C   UNL     1     -52.362  10.158 -31.323  1.00  0.00     0.041 C 
ATOM     13  O   UNL     1     -52.593   8.934 -31.132  1.00  0.00    -0.550 OA
ATOM     14  O   UNL     1     -51.625  10.556 -32.430  1.00  0.00    -0.550 OA
ENDBRANCH  11  12
ENDBRANCH  10  11
ENDBRANCH   9  10
ENDBRANCH   8   9
ENDBRANCH   7   8
ENDBRANCH   6   7
ENDBRANCH   5   6
ENDBRANCH   4   5
ENDBRANCH   3   4
ENDBRANCH   2   3
ENDBRANCH   1   2
BRANCH   1  15
ATOM     15  C   UNL     1     -50.075  13.654 -31.455  1.00  0.00     0.000 C 
BRANCH  15  16
ATOM     16  C   UNL     1     -49.648  13.244 -30.030  1.00  0.00     0.000 C 
BRANCH  16  17
ATOM     17  C   UNL     1     -49.479  11.731 -29.803  1.00  0.00     0.000 C 
BRANCH  17  18
ATOM     18  C   UNL     1     -48.109  11.365 -29.210  1.00  0.00    -0.000 C 
BRANCH  18  19
ATOM     19  C   UNL     1     -47.666   9.940 -29.582  1.00  0.00    -0.000 C 
BRANCH  19  20
ATOM     20  C   UNL     1     -48.832   9.056 -30.048  1.00  0.00    -0.000 C 
BRANCH  20  21
ATOM     21  C   UNL     1     -48.357   8.009 -31.068  1.00  0.00    -0.000 C 
BRANCH  21  22
ATOM     22  C   UNL     1     -49.182   8.025 -32.365  1.00  0.00    -0.000 C 
BRANCH  22  23
ATOM     23  C   UNL     1     -50.089   6.790 -32.505  1.00  0.00    -0.000 C 
BRANCH  23  24
ATOM     24  C   UNL     1     -50.678   6.648 -33.918  1.00  0.00    -0.000 C 
BRANCH  24  25
ATOM     25  C   UNL     1     -52.172   6.296 -33.905  1.00  0.00    -0.003 C 
ATOM     26  C   UNL     1     -53.005   7.417 -34.523  1.00  0.00     0.004 C 
ENDBRANCH  24  25
ENDBRANCH  23  24
ENDBRANCH  22  23
ENDBRANCH  21  22
ENDBRANCH  20  21
ENDBRANCH  19  20
ENDBRANCH  18  19
ENDBRANCH  17  18
ENDBRANCH  16  17
ENDBRANCH  15  16
ENDBRANCH   1  15
TORSDOF 22
ENDMDL
MODEL 9
REMARK VINA RESULT:    -4.509      3.322      8.344
REMARK INTER + INTRA:         -13.870
REMARK INTER:                 -10.515
REMARK INTRA:                  -3.356
REMARK UNBOUND:                -3.562
REMARK SMILES CCCCCCCCCCCCCCCCCCCCCCCC(=O)[O-]
REMARK SMILES IDX 13 1 14 2 15 3 16 4 17 5 18 6 19 7 20 8 21 9 22 10 23 11
REMARK SMILES IDX 24 12 25 13 26 14 12 15 11 16 10 17 9 18 8 19 7 20 6 21 5 22
REMARK SMILES IDX 4 23 3 24 2 25 1 26
REMARK H PARENT
REMARK Flexibility Score: inf
ROOT
ATOM      1  C   UNL     1     -52.186  10.191 -31.117  1.00  0.00     0.000 C 
ENDROOT
BRANCH   1   2
ATOM      2  C   UNL     1     -53.112   8.959 -31.130  1.00  0.00     0.000 C 
BRANCH   2   3
ATOM      3  C   UNL     1     -52.507   7.716 -30.442  1.00  0.00     0.000 C 
BRANCH   3   4
ATOM      4  C   UNL     1     -52.996   6.398 -31.072  1.00  0.00     0.000 C 
BRANCH   4   5
ATOM      5  C   UNL     1     -53.961   6.630 -32.246  1.00  0.00     0.000 C 
BRANCH   5   6
ATOM      6  C   UNL     1     -53.445   6.025 -33.561  1.00  0.00     0.000 C 
BRANCH   6   7
ATOM      7  C   UNL     1     -52.454   6.977 -34.250  1.00  0.00     0.000 C 
BRANCH   7   8
ATOM      8  C   UNL     1     -50.987   6.553 -34.059  1.00  0.00     0.000 C 
BRANCH   8   9
ATOM      9  C   UNL     1     -50.093   7.594 -33.355  1.00  0.00     0.000 C 
BRANCH   9  10
ATOM     10  C   UNL     1     -49.266   7.054 -32.171  1.00  0.00     0.006 C 
BRANCH  10  11
ATOM     11  C   UNL     1     -48.830   8.124 -31.158  1.00  0.00     0.053 C 
BRANCH  11  12
ATOM     12  C   UNL     1     -47.339   8.237 -31.068  1.00  0.00     0.041 C 
ATOM     13  O   UNL     1     -46.658   8.468 -32.102  1.00  0.00    -0.550 OA
ATOM     14  O   UNL     1     -46.699   8.040 -29.851  1.00  0.00    -0.550 OA
ENDBRANCH  11  12
ENDBRANCH  10  11
ENDBRANCH   9  10
ENDBRANCH   8   9
ENDBRANCH   7   8
ENDBRANCH   6   7
ENDBRANCH   5   6
ENDBRANCH   4   5
ENDBRANCH   3   4
ENDBRANCH   2   3
ENDBRANCH   1   2
BRANCH   1  15
ATOM     15  C   UNL     1     -51.350  10.363 -29.835  1.00  0.00     0.000 C 
BRANCH  15  16
ATOM     16  C   UNL     1     -51.826  11.482 -28.885  1.00  0.00     0.000 C 
BRANCH  16  17
ATOM     17  C   UNL     1     -52.803  12.498 -29.503  1.00  0.00     0.000 C 
BRANCH  17  18
ATOM     18  C   UNL     1     -53.755  13.117 -28.467  1.00  0.00    -0.000 C 
BRANCH  18  19
ATOM     19  C   UNL     1     -53.611  14.646 -28.372  1.00  0.00    -0.000 C 
BRANCH  19  20
ATOM     20  C   UNL     1     -52.162  15.121 -28.553  1.00  0.00    -0.000 C 
BRANCH  20  21
ATOM     21  C   UNL     1     -52.095  16.650 -28.687  1.00  0.00    -0.000 C 
BRANCH  21  22
ATOM     22  C   UNL     1     -51.416  17.103 -29.991  1.00  0.00    -0.000 C 
BRANCH  22  23
ATOM     23  C   UNL     1     -51.582  16.082 -31.130  1.00  0.00    -0.000 C 
BRANCH  23  24
ATOM     24  C   UNL     1     -50.235  15.540 -31.636  1.00  0.00    -0.000 C 
BRANCH  24  25
ATOM     25  C   UNL     1     -50.216  14.008 -31.742  1.00  0.00    -0.003 C 
ATOM     26  C   UNL     1     -49.236  13.401 -30.741  1.00  0.00     0.004 C 
ENDBRANCH  24  25
ENDBRANCH  23  24
ENDBRANCH  22  23
ENDBRANCH  21  22
ENDBRANCH  20  21
ENDBRANCH  19  20
ENDBRANCH  18  19
ENDBRANCH  17  18
ENDBRANCH  16  17
ENDBRANCH  15  16
ENDBRANCH   1  15
TORSDOF 22
ENDMDL
