MODEL 1
REMARK VINA RESULT:    -6.239      0.000      0.000
REMARK INTER + INTRA:         -10.390
REMARK INTER:                  -9.156
REMARK INTRA:                  -1.234
REMARK UNBOUND:                -1.234
REMARK SMILES O=c1c(O[C@@H]2O[C@H](CO)[C@@H](O)[C@H](O)[C@@H]2O)c(-c2ccc(O)c(O)c2)oc2cc(O)cc(O)c12
REMARK SMILES IDX 4 1 3 2 16 3 25 4 2 5 26 6 1 7 33 8 27 9 31 10 28 11 30 12
REMARK SMILES IDX 17 13 18 14 19 15 20 16 24 17 22 18 21 19 23 21 32 23 29 25
REMARK SMILES IDX 5 27 14 28 6 29 12 30 7 31 10 32 15 33 13 35 8 37 9 38 11 40
REMARK H PARENT 21 20 23 22 32 24 29 26 15 34 13 36 9 39 11 41
REMARK Flexibility Score: inf
ROOT
ATOM      1  O   UNL     1      -5.722   6.929  14.275  1.00  0.00    -0.454 OA
ENDROOT
BRANCH   1   2
ATOM      2  C   UNL     1      -4.801   5.980  14.763  1.00  0.00     0.214 A 
ATOM      3  C   UNL     1      -3.454   6.079  14.360  1.00  0.00     0.180 A 
ATOM      4  O   UNL     1      -2.547   5.238  14.841  1.00  0.00    -0.452 OA
ATOM      5  C   UNL     1      -5.157   4.946  15.656  1.00  0.00     0.239 A 
ATOM      6  C   UNL     1      -2.837   4.260  15.688  1.00  0.00     0.146 A 
ATOM      7  O   UNL     1      -6.355   4.802  16.014  1.00  0.00    -0.285 OA
ATOM      8  C   UNL     1      -4.164   4.064  16.134  1.00  0.00     0.111 A 
ATOM      9  C   UNL     1      -1.811   3.421  16.134  1.00  0.00     0.094 A 
ATOM     10  C   UNL     1      -4.437   3.006  17.035  1.00  0.00     0.134 A 
ATOM     11  C   UNL     1      -2.088   2.378  17.023  1.00  0.00     0.123 A 
ATOM     12  C   UNL     1      -3.395   2.174  17.469  1.00  0.00     0.093 A 
BRANCH   3  13
ATOM     13  C   UNL     1      -2.996   7.137  13.435  1.00  0.00     0.025 A 
ATOM     14  C   UNL     1      -3.554   7.223  12.151  1.00  0.00     0.016 A 
ATOM     15  C   UNL     1      -3.134   8.218  11.263  1.00  0.00     0.051 A 
ATOM     16  C   UNL     1      -2.164   9.147  11.651  1.00  0.00     0.157 A 
ATOM     17  C   UNL     1      -2.041   8.087  13.831  1.00  0.00     0.062 A 
ATOM     18  C   UNL     1      -1.616   9.085  12.944  1.00  0.00     0.158 A 
BRANCH  16  19
ATOM     19  O   UNL     1      -1.760  10.125  10.743  1.00  0.00    -0.504 OA
ATOM     20  H   UNL     1      -0.884  10.062  10.237  1.00  0.00     0.293 HD
ENDBRANCH  16  19
BRANCH  18  21
ATOM     21  O   UNL     1      -0.659  10.017  13.342  1.00  0.00    -0.504 OA
ATOM     22  H   UNL     1      -0.056   9.850  14.141  1.00  0.00     0.293 HD
ENDBRANCH  18  21
ENDBRANCH   3  13
BRANCH  10  23
ATOM     23  O   UNL     1      -5.732   2.775  17.502  1.00  0.00    -0.507 OA
ATOM     24  H   UNL     1      -6.335   3.535  17.798  1.00  0.00     0.293 HD
ENDBRANCH  10  23
BRANCH  11  25
ATOM     25  O   UNL     1      -1.070   1.538  17.471  1.00  0.00    -0.508 OA
ATOM     26  H   UNL     1      -1.078   1.148  18.406  1.00  0.00     0.293 HD
ENDBRANCH  11  25
ENDBRANCH   1   2
BRANCH   1  27
ATOM     27  C   UNL     1      -6.468   7.861  15.063  1.00  0.00     0.339 C 
ATOM     28  C   UNL     1      -6.250   9.296  14.561  1.00  0.00     0.214 C 
ATOM     29  O   UNL     1      -7.846   7.516  15.137  1.00  0.00    -0.332 OA
ATOM     30  C   UNL     1      -6.931   9.517  13.202  1.00  0.00     0.180 C 
ATOM     31  C   UNL     1      -8.563   7.678  13.918  1.00  0.00     0.179 C 
ATOM     32  C   UNL     1      -8.403   9.082  13.283  1.00  0.00     0.177 C 
BRANCH  28  33
ATOM     33  O   UNL     1      -4.873   9.561  14.475  1.00  0.00    -0.384 OA
ATOM     34  H   UNL     1      -4.456   9.182  15.292  1.00  0.00     0.211 HD
ENDBRANCH  28  33
BRANCH  30  35
ATOM     35  O   UNL     1      -6.276   8.805  12.185  1.00  0.00    -0.387 OA
ATOM     36  H   UNL     1      -6.591   7.864  12.236  1.00  0.00     0.211 HD
ENDBRANCH  30  35
BRANCH  31  37
ATOM     37  C   UNL     1      -8.338   6.516  12.929  1.00  0.00     0.191 C 
BRANCH  37  38
ATOM     38  O   UNL     1      -8.218   5.300  13.615  1.00  0.00    -0.394 OA
ATOM     39  H   UNL     1      -8.294   5.509  14.582  1.00  0.00     0.210 HD
ENDBRANCH  37  38
ENDBRANCH  31  37
BRANCH  32  40
ATOM     40  O   UNL     1      -9.125  10.010  14.055  1.00  0.00    -0.387 OA
ATOM     41  H   UNL     1      -8.619  10.864  14.031  1.00  0.00     0.211 HD
ENDBRANCH  32  40
ENDBRANCH   1  27
TORSDOF 12
ENDMDL
MODEL 2
REMARK VINA RESULT:    -5.770      0.767      2.369
REMARK INTER + INTRA:          -9.703
REMARK INTER:                  -8.903
REMARK INTRA:                  -0.800
REMARK UNBOUND:                -1.234
REMARK SMILES O=c1c(O[C@@H]2O[C@H](CO)[C@@H](O)[C@H](O)[C@@H]2O)c(-c2ccc(O)c(O)c2)oc2cc(O)cc(O)c12
REMARK SMILES IDX 4 1 3 2 16 3 25 4 2 5 26 6 1 7 33 8 27 9 31 10 28 11 30 12
REMARK SMILES IDX 17 13 18 14 19 15 20 16 24 17 22 18 21 19 23 21 32 23 29 25
REMARK SMILES IDX 5 27 14 28 6 29 12 30 7 31 10 32 15 33 13 35 8 37 9 38 11 40
REMARK H PARENT 21 20 23 22 32 24 29 26 15 34 13 36 9 39 11 41
REMARK Flexibility Score: inf
ROOT
ATOM      1  O   UNL     1      -5.642   6.949  14.645  1.00  0.00    -0.454 OA
ENDROOT
BRANCH   1   2
ATOM      2  C   UNL     1      -4.709   5.969  15.040  1.00  0.00     0.214 A 
ATOM      3  C   UNL     1      -3.400   6.037  14.519  1.00  0.00     0.180 A 
ATOM      4  O   UNL     1      -2.478   5.166  14.909  1.00  0.00    -0.452 OA
ATOM      5  C   UNL     1      -5.012   4.935  15.951  1.00  0.00     0.239 A 
ATOM      6  C   UNL     1      -2.718   4.186  15.769  1.00  0.00     0.146 A 
ATOM      7  O   UNL     1      -6.177   4.819  16.413  1.00  0.00    -0.285 OA
ATOM      8  C   UNL     1      -4.005   4.021  16.330  1.00  0.00     0.111 A 
ATOM      9  C   UNL     1      -1.680   3.315  16.114  1.00  0.00     0.094 A 
ATOM     10  C   UNL     1      -4.227   2.959  17.242  1.00  0.00     0.134 A 
ATOM     11  C   UNL     1      -1.906   2.269  17.015  1.00  0.00     0.123 A 
ATOM     12  C   UNL     1      -3.173   2.095  17.573  1.00  0.00     0.093 A 
BRANCH   3  13
ATOM     13  C   UNL     1      -2.997   7.093  13.567  1.00  0.00     0.025 A 
ATOM     14  C   UNL     1      -2.057   8.058  13.960  1.00  0.00     0.016 A 
ATOM     15  C   UNL     1      -1.662   9.063  13.072  1.00  0.00     0.051 A 
ATOM     16  C   UNL     1      -2.188   9.108  11.777  1.00  0.00     0.157 A 
ATOM     17  C   UNL     1      -3.504   7.125  12.258  1.00  0.00     0.062 A 
ATOM     18  C   UNL     1      -3.111   8.131  11.365  1.00  0.00     0.158 A 
BRANCH  16  19
ATOM     19  O   UNL     1      -1.781  10.125  10.915  1.00  0.00    -0.504 OA
ATOM     20  H   UNL     1      -2.091  11.083  11.026  1.00  0.00     0.293 HD
ENDBRANCH  16  19
BRANCH  18  21
ATOM     21  O   UNL     1      -3.629   8.163  10.071  1.00  0.00    -0.504 OA
ATOM     22  H   UNL     1      -3.053   8.413   9.275  1.00  0.00     0.293 HD
ENDBRANCH  18  21
ENDBRANCH   3  13
BRANCH  10  23
ATOM     23  O   UNL     1      -5.481   2.758  17.820  1.00  0.00    -0.507 OA
ATOM     24  H   UNL     1      -5.692   1.924  18.357  1.00  0.00     0.293 HD
ENDBRANCH  10  23
BRANCH  11  25
ATOM     25  O   UNL     1      -0.876   1.397  17.362  1.00  0.00    -0.508 OA
ATOM     26  H   UNL     1      -0.286   1.568  18.168  1.00  0.00     0.293 HD
ENDBRANCH  11  25
ENDBRANCH   1   2
BRANCH   1  27
ATOM     27  C   UNL     1      -6.332   6.998  13.393  1.00  0.00     0.339 C 
ATOM     28  C   UNL     1      -7.790   6.544  13.556  1.00  0.00     0.214 C 
ATOM     29  O   UNL     1      -6.227   8.274  12.774  1.00  0.00    -0.332 OA
ATOM     30  C   UNL     1      -8.610   7.585  14.334  1.00  0.00     0.180 C 
ATOM     31  C   UNL     1      -6.948   9.311  13.431  1.00  0.00     0.179 C 
ATOM     32  C   UNL     1      -8.437   8.969  13.689  1.00  0.00     0.177 C 
BRANCH  28  33
ATOM     33  O   UNL     1      -7.826   5.299  14.204  1.00  0.00    -0.384 OA
ATOM     34  H   UNL     1      -8.327   4.680  13.611  1.00  0.00     0.211 HD
ENDBRANCH  28  33
BRANCH  30  35
ATOM     35  O   UNL     1      -8.221   7.632  15.682  1.00  0.00    -0.387 OA
ATOM     36  H   UNL     1      -7.713   8.476  15.811  1.00  0.00     0.211 HD
ENDBRANCH  30  35
BRANCH  31  37
ATOM     37  C   UNL     1      -6.212   9.864  14.669  1.00  0.00     0.191 C 
BRANCH  37  38
ATOM     38  O   UNL     1      -4.841   9.995  14.411  1.00  0.00    -0.394 OA
ATOM     39  H   UNL     1      -4.377   9.912  15.285  1.00  0.00     0.210 HD
ENDBRANCH  37  38
ENDBRANCH  31  37
BRANCH  32  40
ATOM     40  O   UNL     1      -9.125   9.004  12.462  1.00  0.00    -0.387 OA
ATOM     41  H   UNL     1      -9.696   8.192  12.426  1.00  0.00     0.211 HD
ENDBRANCH  32  40
ENDBRANCH   1  27
TORSDOF 12
ENDMDL
MODEL 3
REMARK VINA RESULT:    -5.409      1.105      1.683
REMARK INTER + INTRA:          -9.172
REMARK INTER:                  -9.486
REMARK INTRA:                   0.314
REMARK UNBOUND:                -1.234
REMARK SMILES O=c1c(O[C@@H]2O[C@H](CO)[C@@H](O)[C@H](O)[C@@H]2O)c(-c2ccc(O)c(O)c2)oc2cc(O)cc(O)c12
REMARK SMILES IDX 4 1 3 2 16 3 25 4 2 5 26 6 1 7 33 8 27 9 31 10 28 11 30 12
REMARK SMILES IDX 17 13 18 14 19 15 20 16 24 17 22 18 21 19 23 21 32 23 29 25
REMARK SMILES IDX 5 27 14 28 6 29 12 30 7 31 10 32 15 33 13 35 8 37 9 38 11 40
REMARK H PARENT 21 20 23 22 32 24 29 26 15 34 13 36 9 39 11 41
REMARK Flexibility Score: inf
ROOT
ATOM      1  O   UNL     1      -6.216   6.087  13.603  1.00  0.00    -0.454 OA
ENDROOT
BRANCH   1   2
ATOM      2  C   UNL     1      -5.189   5.374  14.252  1.00  0.00     0.214 A 
ATOM      3  C   UNL     1      -3.851   5.744  14.004  1.00  0.00     0.180 A 
ATOM      4  O   UNL     1      -2.858   5.132  14.638  1.00  0.00    -0.452 OA
ATOM      5  C   UNL     1      -5.433   4.321  15.160  1.00  0.00     0.239 A 
ATOM      6  C   UNL     1      -3.044   4.146  15.504  1.00  0.00     0.146 A 
ATOM      7  O   UNL     1      -6.611   3.938  15.385  1.00  0.00    -0.285 OA
ATOM      8  C   UNL     1      -4.348   3.689  15.805  1.00  0.00     0.111 A 
ATOM      9  C   UNL     1      -1.932   3.562  16.118  1.00  0.00     0.094 A 
ATOM     10  C   UNL     1      -4.509   2.629  16.731  1.00  0.00     0.134 A 
ATOM     11  C   UNL     1      -2.097   2.516  17.032  1.00  0.00     0.123 A 
ATOM     12  C   UNL     1      -3.380   2.055  17.334  1.00  0.00     0.093 A 
BRANCH   3  13
ATOM     13  C   UNL     1      -3.508   6.840  13.074  1.00  0.00     0.025 A 
ATOM     14  C   UNL     1      -3.925   6.771  11.737  1.00  0.00     0.016 A 
ATOM     15  C   UNL     1      -3.611   7.799  10.844  1.00  0.00     0.051 A 
ATOM     16  C   UNL     1      -2.891   8.917  11.279  1.00  0.00     0.157 A 
ATOM     17  C   UNL     1      -2.807   7.975  13.515  1.00  0.00     0.062 A 
ATOM     18  C   UNL     1      -2.490   9.008  12.623  1.00  0.00     0.158 A 
BRANCH  16  19
ATOM     19  O   UNL     1      -2.587   9.925  10.365  1.00  0.00    -0.504 OA
ATOM     20  H   UNL     1      -2.736  10.905  10.575  1.00  0.00     0.293 HD
ENDBRANCH  16  19
BRANCH  18  21
ATOM     21  O   UNL     1      -1.783  10.125  13.066  1.00  0.00    -0.504 OA
ATOM     22  H   UNL     1      -1.849  10.448  14.025  1.00  0.00     0.293 HD
ENDBRANCH  18  21
ENDBRANCH   3  13
BRANCH  10  23
ATOM     23  O   UNL     1      -5.776   2.145  17.058  1.00  0.00    -0.507 OA
ATOM     24  H   UNL     1      -5.899   1.301  17.607  1.00  0.00     0.293 HD
ENDBRANCH  10  23
BRANCH  11  25
ATOM     25  O   UNL     1      -0.993   1.928  17.646  1.00  0.00    -0.508 OA
ATOM     26  H   UNL     1      -1.100   1.211  18.354  1.00  0.00     0.293 HD
ENDBRANCH  11  25
ENDBRANCH   1   2
BRANCH   1  27
ATOM     27  C   UNL     1      -6.303   7.509  13.474  1.00  0.00     0.339 C 
ATOM     28  C   UNL     1      -7.278   7.896  12.352  1.00  0.00     0.214 C 
ATOM     29  O   UNL     1      -6.620   8.139  14.709  1.00  0.00    -0.332 OA
ATOM     30  C   UNL     1      -8.730   7.592  12.751  1.00  0.00     0.180 C 
ATOM     31  C   UNL     1      -7.947   7.907  15.169  1.00  0.00     0.179 C 
ATOM     32  C   UNL     1      -9.037   8.229  14.117  1.00  0.00     0.177 C 
BRANCH  28  33
ATOM     33  O   UNL     1      -6.935   7.214  11.173  1.00  0.00    -0.384 OA
ATOM     34  H   UNL     1      -7.454   7.632  10.438  1.00  0.00     0.211 HD
ENDBRANCH  28  33
BRANCH  30  35
ATOM     35  O   UNL     1      -8.962   6.208  12.805  1.00  0.00    -0.387 OA
ATOM     36  H   UNL     1      -8.183   5.764  12.377  1.00  0.00     0.211 HD
ENDBRANCH  30  35
BRANCH  31  37
ATOM     37  C   UNL     1      -8.117   6.530  15.842  1.00  0.00     0.191 C 
BRANCH  37  38
ATOM     38  O   UNL     1      -7.429   6.487  17.063  1.00  0.00    -0.394 OA
ATOM     39  H   UNL     1      -7.462   5.546  17.376  1.00  0.00     0.210 HD
ENDBRANCH  37  38
ENDBRANCH  31  37
BRANCH  32  40
ATOM     40  O   UNL     1      -9.125   9.625  13.974  1.00  0.00    -0.387 OA
ATOM     41  H   UNL     1      -9.603   9.801  13.121  1.00  0.00     0.211 HD
ENDBRANCH  32  40
ENDBRANCH   1  27
TORSDOF 12
ENDMDL
MODEL 4
REMARK VINA RESULT:    -4.837     12.582     17.051
REMARK INTER + INTRA:          -8.333
REMARK INTER:                  -7.469
REMARK INTRA:                  -0.864
REMARK UNBOUND:                -1.234
REMARK SMILES O=c1c(O[C@@H]2O[C@H](CO)[C@@H](O)[C@H](O)[C@@H]2O)c(-c2ccc(O)c(O)c2)oc2cc(O)cc(O)c12
REMARK SMILES IDX 4 1 3 2 16 3 25 4 2 5 26 6 1 7 33 8 27 9 31 10 28 11 30 12
REMARK SMILES IDX 17 13 18 14 19 15 20 16 24 17 22 18 21 19 23 21 32 23 29 25
REMARK SMILES IDX 5 27 14 28 6 29 12 30 7 31 10 32 15 33 13 35 8 37 9 38 11 40
REMARK H PARENT 21 20 23 22 32 24 29 26 15 34 13 36 9 39 11 41
REMARK Flexibility Score: inf
ROOT
ATOM      1  O   UNL     1      -4.791  -6.373  22.710  1.00  0.00    -0.454 OA
ENDROOT
BRANCH   1   2
ATOM      2  C   UNL     1      -4.734  -6.996  23.974  1.00  0.00     0.214 A 
ATOM      3  C   UNL     1      -5.547  -8.124  24.206  1.00  0.00     0.180 A 
ATOM      4  O   UNL     1      -5.481  -8.770  25.364  1.00  0.00    -0.452 OA
ATOM      5  C   UNL     1      -3.885  -6.559  25.013  1.00  0.00     0.239 A 
ATOM      6  C   UNL     1      -4.691  -8.400  26.362  1.00  0.00     0.146 A 
ATOM      7  O   UNL     1      -3.168  -5.536  24.858  1.00  0.00    -0.285 OA
ATOM      8  C   UNL     1      -3.854  -7.268  26.234  1.00  0.00     0.111 A 
ATOM      9  C   UNL     1      -4.697  -9.144  27.545  1.00  0.00     0.094 A 
ATOM     10  C   UNL     1      -3.026  -6.898  27.323  1.00  0.00     0.134 A 
ATOM     11  C   UNL     1      -3.877  -8.774  28.617  1.00  0.00     0.123 A 
ATOM     12  C   UNL     1      -3.048  -7.656  28.503  1.00  0.00     0.093 A 
BRANCH   3  13
ATOM     13  C   UNL     1      -6.458  -8.652  23.169  1.00  0.00     0.025 A 
ATOM     14  C   UNL     1      -7.839  -8.681  23.411  1.00  0.00     0.016 A 
ATOM     15  C   UNL     1      -8.717  -9.175  22.442  1.00  0.00     0.051 A 
ATOM     16  C   UNL     1      -8.228  -9.632  21.214  1.00  0.00     0.157 A 
ATOM     17  C   UNL     1      -5.972  -9.087  21.925  1.00  0.00     0.062 A 
ATOM     18  C   UNL     1      -6.848  -9.584  20.951  1.00  0.00     0.158 A 
BRANCH  16  19
ATOM     19  O   UNL     1      -9.125 -10.125  20.267  1.00  0.00    -0.504 OA
ATOM     20  H   UNL     1     -10.095 -10.311  20.490  1.00  0.00     0.293 HD
ENDBRANCH  16  19
BRANCH  18  21
ATOM     21  O   UNL     1      -6.355 -10.025  19.724  1.00  0.00    -0.504 OA
ATOM     22  H   UNL     1      -6.971 -10.382  19.002  1.00  0.00     0.293 HD
ENDBRANCH  18  21
ENDBRANCH   3  13
BRANCH  10  23
ATOM     23  O   UNL     1      -2.184  -5.788  27.242  1.00  0.00    -0.507 OA
ATOM     24  H   UNL     1      -1.176  -5.886  27.188  1.00  0.00     0.293 HD
ENDBRANCH  10  23
BRANCH  11  25
ATOM     25  O   UNL     1      -3.879  -9.510  29.799  1.00  0.00    -0.508 OA
ATOM     26  H   UNL     1      -4.743  -9.824  30.226  1.00  0.00     0.293 HD
ENDBRANCH  11  25
ENDBRANCH   1   2
BRANCH   1  27
ATOM     27  C   UNL     1      -4.512  -4.998  22.436  1.00  0.00     0.339 C 
ATOM     28  C   UNL     1      -4.002  -4.822  20.998  1.00  0.00     0.214 C 
ATOM     29  O   UNL     1      -5.624  -4.159  22.724  1.00  0.00    -0.332 OA
ATOM     30  C   UNL     1      -5.128  -5.056  19.979  1.00  0.00     0.180 C 
ATOM     31  C   UNL     1      -6.726  -4.311  21.836  1.00  0.00     0.179 C 
ATOM     32  C   UNL     1      -6.343  -4.187  20.340  1.00  0.00     0.177 C 
BRANCH  28  33
ATOM     33  O   UNL     1      -2.932  -5.702  20.766  1.00  0.00    -0.384 OA
ATOM     34  H   UNL     1      -2.654  -5.573  19.822  1.00  0.00     0.211 HD
ENDBRANCH  28  33
BRANCH  30  35
ATOM     35  O   UNL     1      -5.501  -6.409  19.938  1.00  0.00    -0.387 OA
ATOM     36  H   UNL     1      -6.342  -6.465  19.412  1.00  0.00     0.211 HD
ENDBRANCH  30  35
BRANCH  31  37
ATOM     37  C   UNL     1      -7.591  -5.547  22.159  1.00  0.00     0.191 C 
BRANCH  37  38
ATOM     38  O   UNL     1      -8.174  -6.060  20.992  1.00  0.00    -0.394 OA
ATOM     39  H   UNL     1      -8.871  -6.706  21.282  1.00  0.00     0.210 HD
ENDBRANCH  37  38
ENDBRANCH  31  37
BRANCH  32  40
ATOM     40  O   UNL     1      -6.056  -2.839  20.060  1.00  0.00    -0.387 OA
ATOM     41  H   UNL     1      -6.155  -2.718  19.079  1.00  0.00     0.211 HD
ENDBRANCH  32  40
ENDBRANCH   1  27
TORSDOF 12
ENDMDL
MODEL 5
REMARK VINA RESULT:    -4.689      1.799      5.027
REMARK INTER + INTRA:          -8.116
REMARK INTER:                  -7.629
REMARK INTRA:                  -0.487
REMARK UNBOUND:                -1.234
REMARK SMILES O=c1c(O[C@@H]2O[C@H](CO)[C@@H](O)[C@H](O)[C@@H]2O)c(-c2ccc(O)c(O)c2)oc2cc(O)cc(O)c12
REMARK SMILES IDX 4 1 3 2 16 3 25 4 2 5 26 6 1 7 33 8 27 9 31 10 28 11 30 12
REMARK SMILES IDX 17 13 18 14 19 15 20 16 24 17 22 18 21 19 23 21 32 23 29 25
REMARK SMILES IDX 5 27 14 28 6 29 12 30 7 31 10 32 15 33 13 35 8 37 9 38 11 40
REMARK H PARENT 21 20 23 22 32 24 29 26 15 34 13 36 9 39 11 41
REMARK Flexibility Score: inf
ROOT
ATOM      1  O   UNL     1      -3.736   7.279  13.601  1.00  0.00    -0.454 OA
ENDROOT
BRANCH   1   2
ATOM      2  C   UNL     1      -3.483   6.149  14.404  1.00  0.00     0.214 A 
ATOM      3  C   UNL     1      -4.418   5.094  14.396  1.00  0.00     0.180 A 
ATOM      4  O   UNL     1      -4.188   3.990  15.097  1.00  0.00    -0.452 OA
ATOM      5  C   UNL     1      -2.326   6.010  15.201  1.00  0.00     0.239 A 
ATOM      6  C   UNL     1      -3.111   3.815  15.849  1.00  0.00     0.146 A 
ATOM      7  O   UNL     1      -1.483   6.943  15.262  1.00  0.00    -0.285 OA
ATOM      8  C   UNL     1      -2.125   4.825  15.940  1.00  0.00     0.111 A 
ATOM      9  C   UNL     1      -2.962   2.617  16.554  1.00  0.00     0.094 A 
ATOM     10  C   UNL     1      -0.990   4.606  16.758  1.00  0.00     0.134 A 
ATOM     11  C   UNL     1      -1.838   2.407  17.360  1.00  0.00     0.123 A 
ATOM     12  C   UNL     1      -0.860   3.398  17.460  1.00  0.00     0.093 A 
BRANCH   3  13
ATOM     13  C   UNL     1      -5.651   5.154  13.584  1.00  0.00     0.025 A 
ATOM     14  C   UNL     1      -5.685   4.528  12.329  1.00  0.00     0.016 A 
ATOM     15  C   UNL     1      -6.843   4.573  11.548  1.00  0.00     0.051 A 
ATOM     16  C   UNL     1      -7.985   5.230  12.015  1.00  0.00     0.157 A 
ATOM     17  C   UNL     1      -6.807   5.791  14.062  1.00  0.00     0.062 A 
ATOM     18  C   UNL     1      -7.970   5.840  13.282  1.00  0.00     0.158 A 
BRANCH  16  19
ATOM     19  O   UNL     1      -9.125   5.265  11.212  1.00  0.00    -0.504 OA
ATOM     20  H   UNL     1     -10.032   4.967  11.551  1.00  0.00     0.293 HD
ENDBRANCH  16  19
BRANCH  18  21
ATOM     21  O   UNL     1      -9.109   6.485  13.759  1.00  0.00    -0.504 OA
ATOM     22  H   UNL     1      -9.448   7.344  13.339  1.00  0.00     0.293 HD
ENDBRANCH  18  21
ENDBRANCH   3  13
BRANCH  10  23
ATOM     23  O   UNL     1       0.008   5.574  16.879  1.00  0.00    -0.507 OA
ATOM     24  H   UNL     1       0.062   6.365  16.246  1.00  0.00     0.293 HD
ENDBRANCH  10  23
BRANCH  11  25
ATOM     25  O   UNL     1      -1.684   1.216  18.067  1.00  0.00    -0.508 OA
ATOM     26  H   UNL     1      -2.448   0.557  18.168  1.00  0.00     0.293 HD
ENDBRANCH  11  25
ENDBRANCH   1   2
BRANCH   1  27
ATOM     27  C   UNL     1      -3.634   7.340  12.175  1.00  0.00     0.339 C 
ATOM     28  C   UNL     1      -4.681   8.301  11.594  1.00  0.00     0.214 C 
ATOM     29  O   UNL     1      -2.314   7.651  11.747  1.00  0.00    -0.332 OA
ATOM     30  C   UNL     1      -4.340   9.761  11.931  1.00  0.00     0.180 C 
ATOM     31  C   UNL     1      -1.901   8.985  12.025  1.00  0.00     0.179 C 
ATOM     32  C   UNL     1      -2.891  10.063  11.517  1.00  0.00     0.177 C 
BRANCH  28  33
ATOM     33  O   UNL     1      -5.954   7.964  12.083  1.00  0.00    -0.384 OA
ATOM     34  H   UNL     1      -6.370   7.364  11.411  1.00  0.00     0.211 HD
ENDBRANCH  28  33
BRANCH  30  35
ATOM     35  O   UNL     1      -4.511  10.018  13.300  1.00  0.00    -0.387 OA
ATOM     36  H   UNL     1      -4.959   9.223  13.694  1.00  0.00     0.211 HD
ENDBRANCH  30  35
BRANCH  31  37
ATOM     37  C   UNL     1      -1.460   9.184  13.490  1.00  0.00     0.191 C 
BRANCH  37  38
ATOM     38  O   UNL     1      -0.062   9.182  13.590  1.00  0.00    -0.394 OA
ATOM     39  H   UNL     1       0.157   8.908  14.519  1.00  0.00     0.210 HD
ENDBRANCH  37  38
ENDBRANCH  31  37
BRANCH  32  40
ATOM     40  O   UNL     1      -2.806  10.125  10.114  1.00  0.00    -0.387 OA
ATOM     41  H   UNL     1      -3.672  10.484   9.786  1.00  0.00     0.211 HD
ENDBRANCH  32  40
ENDBRANCH   1  27
TORSDOF 12
ENDMDL
MODEL 6
REMARK VINA RESULT:    -4.432     12.801     17.971
REMARK INTER + INTRA:          -7.739
REMARK INTER:                  -6.542
REMARK INTRA:                  -1.197
REMARK UNBOUND:                -1.234
REMARK SMILES O=c1c(O[C@@H]2O[C@H](CO)[C@@H](O)[C@H](O)[C@@H]2O)c(-c2ccc(O)c(O)c2)oc2cc(O)cc(O)c12
REMARK SMILES IDX 4 1 3 2 16 3 25 4 2 5 26 6 1 7 33 8 27 9 31 10 28 11 30 12
REMARK SMILES IDX 17 13 18 14 19 15 20 16 24 17 22 18 21 19 23 21 32 23 29 25
REMARK SMILES IDX 5 27 14 28 6 29 12 30 7 31 10 32 15 33 13 35 8 37 9 38 11 40
REMARK H PARENT 21 20 23 22 32 24 29 26 15 34 13 36 9 39 11 41
REMARK Flexibility Score: inf
ROOT
ATOM      1  O   UNL     1      -6.790  -7.587  25.034  1.00  0.00    -0.454 OA
ENDROOT
BRANCH   1   2
ATOM      2  C   UNL     1      -6.455  -6.937  23.829  1.00  0.00     0.214 A 
ATOM      3  C   UNL     1      -5.139  -6.459  23.664  1.00  0.00     0.180 A 
ATOM      4  O   UNL     1      -4.771  -5.890  22.523  1.00  0.00    -0.452 OA
ATOM      5  C   UNL     1      -7.368  -6.760  22.766  1.00  0.00     0.239 A 
ATOM      6  C   UNL     1      -5.592  -5.714  21.498  1.00  0.00     0.146 A 
ATOM      7  O   UNL     1      -8.561  -7.143  22.885  1.00  0.00    -0.285 OA
ATOM      8  C   UNL     1      -6.938  -6.139  21.573  1.00  0.00     0.111 A 
ATOM      9  C   UNL     1      -5.110  -5.099  20.338  1.00  0.00     0.094 A 
ATOM     10  C   UNL     1      -7.789  -5.930  20.460  1.00  0.00     0.134 A 
ATOM     11  C   UNL     1      -5.955  -4.895  19.243  1.00  0.00     0.123 A 
ATOM     12  C   UNL     1      -7.287  -5.309  19.307  1.00  0.00     0.093 A 
BRANCH   3  13
ATOM     13  C   UNL     1      -4.120  -6.610  24.724  1.00  0.00     0.025 A 
ATOM     14  C   UNL     1      -3.261  -7.719  24.704  1.00  0.00     0.016 A 
ATOM     15  C   UNL     1      -2.290  -7.878  25.697  1.00  0.00     0.051 A 
ATOM     16  C   UNL     1      -2.153  -6.925  26.711  1.00  0.00     0.157 A 
ATOM     17  C   UNL     1      -3.964  -5.641  25.728  1.00  0.00     0.062 A 
ATOM     18  C   UNL     1      -2.992  -5.797  26.725  1.00  0.00     0.158 A 
BRANCH  16  19
ATOM     19  O   UNL     1      -1.180  -7.112  27.691  1.00  0.00    -0.504 OA
ATOM     20  H   UNL     1      -0.218  -6.822  27.558  1.00  0.00     0.293 HD
ENDBRANCH  16  19
BRANCH  18  21
ATOM     21  O   UNL     1      -2.853  -4.836  27.725  1.00  0.00    -0.504 OA
ATOM     22  H   UNL     1      -3.551  -4.722  28.452  1.00  0.00     0.293 HD
ENDBRANCH  18  21
ENDBRANCH   3  13
BRANCH  10  23
ATOM     23  O   UNL     1      -9.125  -6.333  20.489  1.00  0.00    -0.507 OA
ATOM     24  H   UNL     1      -9.407  -7.265  20.205  1.00  0.00     0.293 HD
ENDBRANCH  10  23
BRANCH  11  25
ATOM     25  O   UNL     1      -5.481  -4.281  18.085  1.00  0.00    -0.508 OA
ATOM     26  H   UNL     1      -6.023  -3.576  17.600  1.00  0.00     0.293 HD
ENDBRANCH  11  25
ENDBRANCH   1   2
BRANCH   1  27
ATOM     27  C   UNL     1      -7.606  -8.755  25.162  1.00  0.00     0.339 C 
ATOM     28  C   UNL     1      -6.922  -9.802  26.054  1.00  0.00     0.214 C 
ATOM     29  O   UNL     1      -8.922  -8.442  25.603  1.00  0.00    -0.332 OA
ATOM     30  C   UNL     1      -6.901  -9.350  27.522  1.00  0.00     0.180 C 
ATOM     31  C   UNL     1      -9.004  -8.002  26.954  1.00  0.00     0.179 C 
ATOM     32  C   UNL     1      -8.321  -8.958  27.964  1.00  0.00     0.177 C 
BRANCH  28  33
ATOM     33  O   UNL     1      -5.618 -10.038  25.589  1.00  0.00    -0.384 OA
ATOM     34  H   UNL     1      -5.142 -10.530  26.307  1.00  0.00     0.211 HD
ENDBRANCH  28  33
BRANCH  30  35
ATOM     35  O   UNL     1      -6.026  -8.268  27.707  1.00  0.00    -0.387 OA
ATOM     36  H   UNL     1      -5.165  -8.640  28.036  1.00  0.00     0.211 HD
ENDBRANCH  30  35
BRANCH  31  37
ATOM     37  C   UNL     1      -8.607  -6.522  27.129  1.00  0.00     0.191 C 
BRANCH  37  38
ATOM     38  O   UNL     1      -8.816  -5.810  25.940  1.00  0.00    -0.394 OA
ATOM     39  H   UNL     1      -9.203  -6.451  25.288  1.00  0.00     0.210 HD
ENDBRANCH  37  38
ENDBRANCH  31  37
BRANCH  32  40
ATOM     40  O   UNL     1      -9.109 -10.115  28.091  1.00  0.00    -0.387 OA
ATOM     41  H   UNL     1      -9.549 -10.072  28.980  1.00  0.00     0.211 HD
ENDBRANCH  32  40
ENDBRANCH   1  27
TORSDOF 12
ENDMDL
MODEL 7
REMARK VINA RESULT:    -4.413     13.271     18.710
REMARK INTER + INTRA:          -7.711
REMARK INTER:                  -6.808
REMARK INTRA:                  -0.903
REMARK UNBOUND:                -1.234
REMARK SMILES O=c1c(O[C@@H]2O[C@H](CO)[C@@H](O)[C@H](O)[C@@H]2O)c(-c2ccc(O)c(O)c2)oc2cc(O)cc(O)c12
REMARK SMILES IDX 4 1 3 2 16 3 25 4 2 5 26 6 1 7 33 8 27 9 31 10 28 11 30 12
REMARK SMILES IDX 17 13 18 14 19 15 20 16 24 17 22 18 21 19 23 21 32 23 29 25
REMARK SMILES IDX 5 27 14 28 6 29 12 30 7 31 10 32 15 33 13 35 8 37 9 38 11 40
REMARK H PARENT 21 20 23 22 32 24 29 26 15 34 13 36 9 39 11 41
REMARK Flexibility Score: inf
ROOT
ATOM      1  O   UNL     1      -4.693  -7.610  24.551  1.00  0.00    -0.454 OA
ENDROOT
BRANCH   1   2
ATOM      2  C   UNL     1      -5.556  -7.183  23.522  1.00  0.00     0.214 A 
ATOM      3  C   UNL     1      -6.941  -7.400  23.671  1.00  0.00     0.180 A 
ATOM      4  O   UNL     1      -7.791  -6.963  22.750  1.00  0.00    -0.452 OA
ATOM      5  C   UNL     1      -5.105  -6.526  22.356  1.00  0.00     0.239 A 
ATOM      6  C   UNL     1      -7.410  -6.334  21.646  1.00  0.00     0.146 A 
ATOM      7  O   UNL     1      -3.874  -6.343  22.168  1.00  0.00    -0.285 OA
ATOM      8  C   UNL     1      -6.041  -6.089  21.394  1.00  0.00     0.111 A 
ATOM      9  C   UNL     1      -8.383  -5.917  20.732  1.00  0.00     0.094 A 
ATOM     10  C   UNL     1      -5.671  -5.419  20.202  1.00  0.00     0.134 A 
ATOM     11  C   UNL     1      -8.010  -5.256  19.557  1.00  0.00     0.123 A 
ATOM     12  C   UNL     1      -6.661  -5.010  19.297  1.00  0.00     0.093 A 
BRANCH   3  13
ATOM     13  C   UNL     1      -7.498  -8.071  24.864  1.00  0.00     0.025 A 
ATOM     14  C   UNL     1      -7.618  -9.469  24.879  1.00  0.00     0.016 A 
ATOM     15  C   UNL     1      -8.140 -10.122  25.999  1.00  0.00     0.051 A 
ATOM     16  C   UNL     1      -8.536  -9.389  27.123  1.00  0.00     0.157 A 
ATOM     17  C   UNL     1      -7.871  -7.340  26.004  1.00  0.00     0.062 A 
ATOM     18  C   UNL     1      -8.397  -7.991  27.128  1.00  0.00     0.158 A 
BRANCH  16  19
ATOM     19  O   UNL     1      -9.059 -10.066  28.224  1.00  0.00    -0.504 OA
ATOM     20  H   UNL     1      -8.482 -10.638  28.829  1.00  0.00     0.293 HD
ENDBRANCH  16  19
BRANCH  18  21
ATOM     21  O   UNL     1      -8.776  -7.256  28.250  1.00  0.00    -0.504 OA
ATOM     22  H   UNL     1      -9.055  -7.711  29.113  1.00  0.00     0.293 HD
ENDBRANCH  18  21
ENDBRANCH   3  13
BRANCH  10  23
ATOM     23  O   UNL     1      -4.331  -5.155  19.912  1.00  0.00    -0.507 OA
ATOM     24  H   UNL     1      -3.913  -4.251  20.100  1.00  0.00     0.293 HD
ENDBRANCH  10  23
BRANCH  11  25
ATOM     25  O   UNL     1      -8.974  -4.839  18.641  1.00  0.00    -0.508 OA
ATOM     26  H   UNL     1      -8.859  -3.988  18.103  1.00  0.00     0.293 HD
ENDBRANCH  11  25
ENDBRANCH   1   2
BRANCH   1  27
ATOM     27  C   UNL     1      -3.318  -7.244  24.703  1.00  0.00     0.339 C 
ATOM     28  C   UNL     1      -3.128  -6.339  25.929  1.00  0.00     0.214 C 
ATOM     29  O   UNL     1      -2.462  -8.379  24.728  1.00  0.00    -0.332 OA
ATOM     30  C   UNL     1      -3.322  -7.127  27.234  1.00  0.00     0.180 C 
ATOM     31  C   UNL     1      -2.577  -9.181  25.898  1.00  0.00     0.179 C 
ATOM     32  C   UNL     1      -2.436  -8.383  27.218  1.00  0.00     0.177 C 
BRANCH  28  33
ATOM     33  O   UNL     1      -4.025  -5.260  25.863  1.00  0.00    -0.384 OA
ATOM     34  H   UNL     1      -3.742  -4.698  25.095  1.00  0.00     0.211 HD
ENDBRANCH  28  33
BRANCH  30  35
ATOM     35  O   UNL     1      -4.667  -7.492  27.410  1.00  0.00    -0.387 OA
ATOM     36  H   UNL     1      -5.048  -6.881  28.095  1.00  0.00     0.211 HD
ENDBRANCH  30  35
BRANCH  31  37
ATOM     37  C   UNL     1      -3.801 -10.120  25.865  1.00  0.00     0.191 C 
BRANCH  37  38
ATOM     38  O   UNL     1      -4.455 -10.123  27.105  1.00  0.00    -0.394 OA
ATOM     39  H   UNL     1      -3.748 -10.174  27.800  1.00  0.00     0.210 HD
ENDBRANCH  37  38
ENDBRANCH  31  37
BRANCH  32  40
ATOM     40  O   UNL     1      -1.089  -8.008  27.374  1.00  0.00    -0.387 OA
ATOM     41  H   UNL     1      -0.833  -7.498  26.561  1.00  0.00     0.211 HD
ENDBRANCH  32  40
ENDBRANCH   1  27
TORSDOF 12
ENDMDL
