MODEL 1
REMARK VINA RESULT:    -3.594      0.000      0.000
REMARK INTER + INTRA:         -12.176
REMARK INTER:                  -8.217
REMARK INTRA:                  -3.959
REMARK UNBOUND:                -3.959
REMARK SMILES CCCCCCCCCCCCCCCCCCCCCCCC(=O)[O-]
REMARK SMILES IDX 13 1 14 2 15 3 16 4 17 5 18 6 19 7 20 8 21 9 22 10 23 11
REMARK SMILES IDX 24 12 25 13 26 14 12 15 11 16 10 17 9 18 8 19 7 20 6 21 5 22
REMARK SMILES IDX 4 23 3 24 2 25 1 26
REMARK H PARENT
REMARK Flexibility Score: inf
ROOT
ATOM      1  C   UNL     1     119.465  56.868  51.247  1.00  0.00     0.000 C 
ENDROOT
BRANCH   1   2
ATOM      2  C   UNL     1     118.773  55.497  51.339  1.00  0.00     0.000 C 
BRANCH   2   3
ATOM      3  C   UNL     1     119.059  54.775  52.666  1.00  0.00     0.000 C 
BRANCH   3   4
ATOM      4  C   UNL     1     119.413  53.293  52.464  1.00  0.00     0.000 C 
BRANCH   4   5
ATOM      5  C   UNL     1     118.922  52.405  53.621  1.00  0.00     0.000 C 
BRANCH   5   6
ATOM      6  C   UNL     1     117.941  53.151  54.551  1.00  0.00     0.000 C 
BRANCH   6   7
ATOM      7  C   UNL     1     116.582  52.447  54.706  1.00  0.00     0.000 C 
BRANCH   7   8
ATOM      8  C   UNL     1     115.551  52.904  53.662  1.00  0.00     0.000 C 
BRANCH   8   9
ATOM      9  C   UNL     1     115.331  51.864  52.550  1.00  0.00     0.000 C 
BRANCH   9  10
ATOM     10  C   UNL     1     115.803  52.362  51.172  1.00  0.00     0.006 C 
BRANCH  10  11
ATOM     11  C   UNL     1     115.663  53.883  51.029  1.00  0.00     0.053 C 
BRANCH  11  12
ATOM     12  C   UNL     1     114.736  54.251  49.911  1.00  0.00     0.041 C 
ATOM     13  O   UNL     1     114.532  53.447  48.963  1.00  0.00    -0.550 OA
ATOM     14  O   UNL     1     114.120  55.496  49.900  1.00  0.00    -0.550 OA
ENDBRANCH  11  12
ENDBRANCH  10  11
ENDBRANCH   9  10
ENDBRANCH   8   9
ENDBRANCH   7   8
ENDBRANCH   6   7
ENDBRANCH   5   6
ENDBRANCH   4   5
ENDBRANCH   3   4
ENDBRANCH   2   3
ENDBRANCH   1   2
BRANCH   1  15
ATOM     15  C   UNL     1     119.810  57.323  49.815  1.00  0.00     0.000 C 
BRANCH  15  16
ATOM     16  C   UNL     1     121.214  57.935  49.637  1.00  0.00     0.000 C 
BRANCH  16  17
ATOM     17  C   UNL     1     122.028  58.097  50.933  1.00  0.00     0.000 C 
BRANCH  17  18
ATOM     18  C   UNL     1     123.255  57.171  50.991  1.00  0.00    -0.000 C 
BRANCH  18  19
ATOM     19  C   UNL     1     122.979  55.871  51.762  1.00  0.00    -0.000 C 
BRANCH  19  20
ATOM     20  C   UNL     1     122.501  54.727  50.855  1.00  0.00    -0.000 C 
BRANCH  20  21
ATOM     21  C   UNL     1     122.909  53.364  51.436  1.00  0.00    -0.000 C 
BRANCH  21  22
ATOM     22  C   UNL     1     123.579  53.477  52.817  1.00  0.00    -0.000 C 
BRANCH  22  23
ATOM     23  C   UNL     1     123.345  52.278  53.756  1.00  0.00    -0.000 C 
BRANCH  23  24
ATOM     24  C   UNL     1     122.360  52.534  54.910  1.00  0.00    -0.000 C 
BRANCH  24  25
ATOM     25  C   UNL     1     122.324  54.005  55.348  1.00  0.00    -0.003 C 
ATOM     26  C   UNL     1     121.047  54.316  56.125  1.00  0.00     0.004 C 
ENDBRANCH  24  25
ENDBRANCH  23  24
ENDBRANCH  22  23
ENDBRANCH  21  22
ENDBRANCH  20  21
ENDBRANCH  19  20
ENDBRANCH  18  19
ENDBRANCH  17  18
ENDBRANCH  16  17
ENDBRANCH  15  16
ENDBRANCH   1  15
TORSDOF 22
ENDMDL
MODEL 2
REMARK VINA RESULT:    -3.583      2.685      7.248
REMARK INTER + INTRA:         -12.150
REMARK INTER:                  -7.788
REMARK INTRA:                  -4.362
REMARK UNBOUND:                -3.959
REMARK SMILES CCCCCCCCCCCCCCCCCCCCCCCC(=O)[O-]
REMARK SMILES IDX 13 1 14 2 15 3 16 4 17 5 18 6 19 7 20 8 21 9 22 10 23 11
REMARK SMILES IDX 24 12 25 13 26 14 12 15 11 16 10 17 9 18 8 19 7 20 6 21 5 22
REMARK SMILES IDX 4 23 3 24 2 25 1 26
REMARK H PARENT
REMARK Flexibility Score: inf
ROOT
ATOM      1  C   UNL     1     117.686  52.697  54.268  1.00  0.00     0.000 C 
ENDROOT
BRANCH   1   2
ATOM      2  C   UNL     1     118.674  51.580  53.886  1.00  0.00     0.000 C 
BRANCH   2   3
ATOM      3  C   UNL     1     120.088  51.822  54.441  1.00  0.00     0.000 C 
BRANCH   3   4
ATOM      4  C   UNL     1     120.206  53.163  55.182  1.00  0.00     0.000 C 
BRANCH   4   5
ATOM      5  C   UNL     1     121.594  53.807  55.021  1.00  0.00     0.000 C 
BRANCH   5   6
ATOM      6  C   UNL     1     122.262  53.423  53.683  1.00  0.00     0.000 C 
BRANCH   6   7
ATOM      7  C   UNL     1     122.005  54.434  52.552  1.00  0.00     0.000 C 
BRANCH   7   8
ATOM      8  C   UNL     1     121.373  53.789  51.308  1.00  0.00     0.000 C 
BRANCH   8   9
ATOM      9  C   UNL     1     119.840  53.911  51.289  1.00  0.00     0.000 C 
BRANCH   9  10
ATOM     10  C   UNL     1     119.332  55.119  52.095  1.00  0.00     0.006 C 
BRANCH  10  11
ATOM     11  C   UNL     1     118.467  56.057  51.245  1.00  0.00     0.053 C 
BRANCH  11  12
ATOM     12  C   UNL     1     119.303  56.956  50.386  1.00  0.00     0.041 C 
ATOM     13  O   UNL     1     118.860  57.377  49.284  1.00  0.00    -0.550 OA
ATOM     14  O   UNL     1     120.586  57.306  50.788  1.00  0.00    -0.550 OA
ENDBRANCH  11  12
ENDBRANCH  10  11
ENDBRANCH   9  10
ENDBRANCH   8   9
ENDBRANCH   7   8
ENDBRANCH   6   7
ENDBRANCH   5   6
ENDBRANCH   4   5
ENDBRANCH   3   4
ENDBRANCH   2   3
ENDBRANCH   1   2
BRANCH   1  15
ATOM     15  C   UNL     1     116.212  52.255  54.351  1.00  0.00     0.000 C 
BRANCH  15  16
ATOM     16  C   UNL     1     115.232  53.057  53.472  1.00  0.00     0.000 C 
BRANCH  16  17
ATOM     17  C   UNL     1     115.830  53.627  52.173  1.00  0.00     0.000 C 
BRANCH  17  18
ATOM     18  C   UNL     1     115.693  52.668  50.979  1.00  0.00    -0.000 C 
BRANCH  18  19
ATOM     19  C   UNL     1     117.001  51.927  50.661  1.00  0.00    -0.000 C 
BRANCH  19  20
ATOM     20  C   UNL     1     116.831  50.400  50.628  1.00  0.00    -0.000 C 
BRANCH  20  21
ATOM     21  C   UNL     1     115.580  49.974  51.411  1.00  0.00    -0.000 C 
BRANCH  21  22
ATOM     22  C   UNL     1     114.539  49.256  50.533  1.00  0.00    -0.000 C 
BRANCH  22  23
ATOM     23  C   UNL     1     115.108  48.572  49.275  1.00  0.00    -0.000 C 
BRANCH  23  24
ATOM     24  C   UNL     1     114.574  49.114  47.937  1.00  0.00    -0.000 C 
BRANCH  24  25
ATOM     25  C   UNL     1     114.190  50.599  48.007  1.00  0.00    -0.003 C 
ATOM     26  C   UNL     1     115.272  51.476  47.382  1.00  0.00     0.004 C 
ENDBRANCH  24  25
ENDBRANCH  23  24
ENDBRANCH  22  23
ENDBRANCH  21  22
ENDBRANCH  20  21
ENDBRANCH  19  20
ENDBRANCH  18  19
ENDBRANCH  17  18
ENDBRANCH  16  17
ENDBRANCH  15  16
ENDBRANCH   1  15
TORSDOF 22
ENDMDL
MODEL 3
REMARK VINA RESULT:    -3.535      2.590      6.995
REMARK INTER + INTRA:         -12.041
REMARK INTER:                  -8.357
REMARK INTRA:                  -3.684
REMARK UNBOUND:                -3.959
REMARK SMILES CCCCCCCCCCCCCCCCCCCCCCCC(=O)[O-]
REMARK SMILES IDX 13 1 14 2 15 3 16 4 17 5 18 6 19 7 20 8 21 9 22 10 23 11
REMARK SMILES IDX 24 12 25 13 26 14 12 15 11 16 10 17 9 18 8 19 7 20 6 21 5 22
REMARK SMILES IDX 4 23 3 24 2 25 1 26
REMARK H PARENT
REMARK Flexibility Score: inf
ROOT
ATOM      1  C   UNL     1     118.602  53.296  54.790  1.00  0.00     0.000 C 
ENDROOT
BRANCH   1   2
ATOM      2  C   UNL     1     119.287  52.022  54.262  1.00  0.00     0.000 C 
BRANCH   2   3
ATOM      3  C   UNL     1     120.721  51.857  54.792  1.00  0.00     0.000 C 
BRANCH   3   4
ATOM      4  C   UNL     1     121.059  52.868  55.898  1.00  0.00     0.000 C 
BRANCH   4   5
ATOM      5  C   UNL     1     122.347  53.657  55.604  1.00  0.00     0.000 C 
BRANCH   5   6
ATOM      6  C   UNL     1     122.790  53.520  54.132  1.00  0.00     0.000 C 
BRANCH   6   7
ATOM      7  C   UNL     1     123.156  54.859  53.469  1.00  0.00     0.000 C 
BRANCH   7   8
ATOM      8  C   UNL     1     124.308  54.731  52.459  1.00  0.00     0.000 C 
BRANCH   8   9
ATOM      9  C   UNL     1     125.081  56.047  52.269  1.00  0.00     0.000 C 
BRANCH   9  10
ATOM     10  C   UNL     1     124.537  56.889  51.102  1.00  0.00     0.006 C 
BRANCH  10  11
ATOM     11  C   UNL     1     123.460  57.881  51.561  1.00  0.00     0.053 C 
BRANCH  11  12
ATOM     12  C   UNL     1     122.192  57.724  50.777  1.00  0.00     0.041 C 
ATOM     13  O   UNL     1     122.054  56.760  49.978  1.00  0.00    -0.550 OA
ATOM     14  O   UNL     1     121.173  58.660  50.908  1.00  0.00    -0.550 OA
ENDBRANCH  11  12
ENDBRANCH  10  11
ENDBRANCH   9  10
ENDBRANCH   8   9
ENDBRANCH   7   8
ENDBRANCH   6   7
ENDBRANCH   5   6
ENDBRANCH   4   5
ENDBRANCH   3   4
ENDBRANCH   2   3
ENDBRANCH   1   2
BRANCH   1  15
ATOM     15  C   UNL     1     117.113  53.124  55.152  1.00  0.00     0.000 C 
BRANCH  15  16
ATOM     16  C   UNL     1     116.276  52.319  54.137  1.00  0.00     0.000 C 
BRANCH  16  17
ATOM     17  C   UNL     1     115.261  53.142  53.325  1.00  0.00     0.000 C 
BRANCH  17  18
ATOM     18  C   UNL     1     115.875  53.780  52.068  1.00  0.00    -0.000 C 
BRANCH  18  19
ATOM     19  C   UNL     1     115.656  52.931  50.806  1.00  0.00    -0.000 C 
BRANCH  19  20
ATOM     20  C   UNL     1     116.962  52.614  50.063  1.00  0.00    -0.000 C 
BRANCH  20  21
ATOM     21  C   UNL     1     118.101  52.339  51.056  1.00  0.00    -0.000 C 
BRANCH  21  22
ATOM     22  C   UNL     1     119.492  52.646  50.473  1.00  0.00    -0.000 C 
BRANCH  22  23
ATOM     23  C   UNL     1     119.896  54.133  50.497  1.00  0.00    -0.000 C 
BRANCH  23  24
ATOM     24  C   UNL     1     119.797  54.816  51.873  1.00  0.00    -0.000 C 
BRANCH  24  25
ATOM     25  C   UNL     1     118.792  55.977  51.891  1.00  0.00    -0.003 C 
ATOM     26  C   UNL     1     118.267  56.271  50.489  1.00  0.00     0.004 C 
ENDBRANCH  24  25
ENDBRANCH  23  24
ENDBRANCH  22  23
ENDBRANCH  21  22
ENDBRANCH  20  21
ENDBRANCH  19  20
ENDBRANCH  18  19
ENDBRANCH  17  18
ENDBRANCH  16  17
ENDBRANCH  15  16
ENDBRANCH   1  15
TORSDOF 22
ENDMDL
MODEL 4
REMARK VINA RESULT:    -3.513      1.743      6.964
REMARK INTER + INTRA:         -11.991
REMARK INTER:                  -8.641
REMARK INTRA:                  -3.350
REMARK UNBOUND:                -3.959
REMARK SMILES CCCCCCCCCCCCCCCCCCCCCCCC(=O)[O-]
REMARK SMILES IDX 13 1 14 2 15 3 16 4 17 5 18 6 19 7 20 8 21 9 22 10 23 11
REMARK SMILES IDX 24 12 25 13 26 14 12 15 11 16 10 17 9 18 8 19 7 20 6 21 5 22
REMARK SMILES IDX 4 23 3 24 2 25 1 26
REMARK H PARENT
REMARK Flexibility Score: inf
ROOT
ATOM      1  C   UNL     1     122.773  54.319  54.741  1.00  0.00     0.000 C 
ENDROOT
BRANCH   1   2
ATOM      2  C   UNL     1     122.652  53.238  53.652  1.00  0.00     0.000 C 
BRANCH   2   3
ATOM      3  C   UNL     1     124.004  52.887  53.010  1.00  0.00     0.000 C 
BRANCH   3   4
ATOM      4  C   UNL     1     124.345  53.799  51.822  1.00  0.00     0.000 C 
BRANCH   4   5
ATOM      5  C   UNL     1     125.480  54.788  52.141  1.00  0.00     0.000 C 
BRANCH   5   6
ATOM      6  C   UNL     1     125.100  56.243  51.794  1.00  0.00     0.000 C 
BRANCH   6   7
ATOM      7  C   UNL     1     123.654  56.610  52.169  1.00  0.00     0.000 C 
BRANCH   7   8
ATOM      8  C   UNL     1     123.033  57.642  51.214  1.00  0.00     0.000 C 
BRANCH   8   9
ATOM      9  C   UNL     1     121.669  57.195  50.662  1.00  0.00     0.000 C 
BRANCH   9  10
ATOM     10  C   UNL     1     121.563  55.668  50.508  1.00  0.00     0.006 C 
BRANCH  10  11
ATOM     11  C   UNL     1     120.483  55.071  51.420  1.00  0.00     0.053 C 
BRANCH  11  12
ATOM     12  C   UNL     1     119.115  55.562  51.056  1.00  0.00     0.041 C 
ATOM     13  O   UNL     1     118.664  55.383  49.894  1.00  0.00    -0.550 OA
ATOM     14  O   UNL     1     118.350  56.246  51.993  1.00  0.00    -0.550 OA
ENDBRANCH  11  12
ENDBRANCH  10  11
ENDBRANCH   9  10
ENDBRANCH   8   9
ENDBRANCH   7   8
ENDBRANCH   6   7
ENDBRANCH   5   6
ENDBRANCH   4   5
ENDBRANCH   3   4
ENDBRANCH   2   3
ENDBRANCH   1   2
BRANCH   1  15
ATOM     15  C   UNL     1     122.233  53.904  56.124  1.00  0.00     0.000 C 
BRANCH  15  16
ATOM     16  C   UNL     1     120.871  53.182  56.111  1.00  0.00     0.000 C 
BRANCH  16  17
ATOM     17  C   UNL     1     119.648  54.091  55.898  1.00  0.00     0.000 C 
BRANCH  17  18
ATOM     18  C   UNL     1     118.887  53.779  54.598  1.00  0.00    -0.000 C 
BRANCH  18  19
ATOM     19  C   UNL     1     119.183  52.369  54.064  1.00  0.00    -0.000 C 
BRANCH  19  20
ATOM     20  C   UNL     1     117.917  51.516  53.894  1.00  0.00    -0.000 C 
BRANCH  20  21
ATOM     21  C   UNL     1     116.686  52.251  54.445  1.00  0.00    -0.000 C 
BRANCH  21  22
ATOM     22  C   UNL     1     115.540  52.351  53.422  1.00  0.00    -0.000 C 
BRANCH  22  23
ATOM     23  C   UNL     1     115.401  53.722  52.731  1.00  0.00    -0.000 C 
BRANCH  23  24
ATOM     24  C   UNL     1     115.562  53.702  51.201  1.00  0.00    -0.000 C 
BRANCH  24  25
ATOM     25  C   UNL     1     116.322  52.466  50.697  1.00  0.00    -0.003 C 
ATOM     26  C   UNL     1     115.556  51.769  49.576  1.00  0.00     0.004 C 
ENDBRANCH  24  25
ENDBRANCH  23  24
ENDBRANCH  22  23
ENDBRANCH  21  22
ENDBRANCH  20  21
ENDBRANCH  19  20
ENDBRANCH  18  19
ENDBRANCH  17  18
ENDBRANCH  16  17
ENDBRANCH  15  16
ENDBRANCH   1  15
TORSDOF 22
ENDMDL
MODEL 5
REMARK VINA RESULT:    -3.494      2.683      5.462
REMARK INTER + INTRA:         -11.946
REMARK INTER:                  -8.064
REMARK INTRA:                  -3.882
REMARK UNBOUND:                -3.959
REMARK SMILES CCCCCCCCCCCCCCCCCCCCCCCC(=O)[O-]
REMARK SMILES IDX 13 1 14 2 15 3 16 4 17 5 18 6 19 7 20 8 21 9 22 10 23 11
REMARK SMILES IDX 24 12 25 13 26 14 12 15 11 16 10 17 9 18 8 19 7 20 6 21 5 22
REMARK SMILES IDX 4 23 3 24 2 25 1 26
REMARK H PARENT
REMARK Flexibility Score: inf
ROOT
ATOM      1  C   UNL     1     116.089  52.001  53.733  1.00  0.00     0.000 C 
ENDROOT
BRANCH   1   2
ATOM      2  C   UNL     1     115.250  53.055  52.988  1.00  0.00     0.000 C 
BRANCH   2   3
ATOM      3  C   UNL     1     116.035  53.750  51.862  1.00  0.00     0.000 C 
BRANCH   3   4
ATOM      4  C   UNL     1     115.119  54.277  50.747  1.00  0.00     0.000 C 
BRANCH   4   5
ATOM      5  C   UNL     1     115.896  55.022  49.647  1.00  0.00     0.000 C 
BRANCH   5   6
ATOM      6  C   UNL     1     115.750  54.341  48.269  1.00  0.00     0.000 C 
BRANCH   6   7
ATOM      7  C   UNL     1     114.626  53.293  48.214  1.00  0.00     0.000 C 
BRANCH   7   8
ATOM      8  C   UNL     1     115.152  51.863  48.014  1.00  0.00     0.000 C 
BRANCH   8   9
ATOM      9  C   UNL     1     114.563  50.866  49.025  1.00  0.00     0.000 C 
BRANCH   9  10
ATOM     10  C   UNL     1     115.586  50.419  50.083  1.00  0.00     0.006 C 
BRANCH  10  11
ATOM     11  C   UNL     1     114.939  49.588  51.198  1.00  0.00     0.053 C 
BRANCH  11  12
ATOM     12  C   UNL     1     115.194  48.122  51.015  1.00  0.00     0.041 C 
ATOM     13  O   UNL     1     116.217  47.588  51.518  1.00  0.00    -0.550 OA
ATOM     14  O   UNL     1     114.315  47.352  50.264  1.00  0.00    -0.550 OA
ENDBRANCH  11  12
ENDBRANCH  10  11
ENDBRANCH   9  10
ENDBRANCH   8   9
ENDBRANCH   7   8
ENDBRANCH   6   7
ENDBRANCH   5   6
ENDBRANCH   4   5
ENDBRANCH   3   4
ENDBRANCH   2   3
ENDBRANCH   1   2
BRANCH   1  15
ATOM     15  C   UNL     1     117.561  51.912  53.284  1.00  0.00     0.000 C 
BRANCH  15  16
ATOM     16  C   UNL     1     118.601  52.302  54.354  1.00  0.00     0.000 C 
BRANCH  16  17
ATOM     17  C   UNL     1     118.633  53.795  54.725  1.00  0.00     0.000 C 
BRANCH  17  18
ATOM     18  C   UNL     1     119.544  54.095  55.927  1.00  0.00    -0.000 C 
BRANCH  18  19
ATOM     19  C   UNL     1     120.866  53.313  55.877  1.00  0.00    -0.000 C 
BRANCH  19  20
ATOM     20  C   UNL     1     122.095  54.223  55.732  1.00  0.00    -0.000 C 
BRANCH  20  21
ATOM     21  C   UNL     1     122.685  54.122  54.318  1.00  0.00    -0.000 C 
BRANCH  21  22
ATOM     22  C   UNL     1     122.165  52.901  53.537  1.00  0.00    -0.000 C 
BRANCH  22  23
ATOM     23  C   UNL     1     121.518  53.224  52.177  1.00  0.00    -0.000 C 
BRANCH  23  24
ATOM     24  C   UNL     1     120.993  54.663  52.028  1.00  0.00    -0.000 C 
BRANCH  24  25
ATOM     25  C   UNL     1     119.615  54.728  51.352  1.00  0.00    -0.003 C 
ATOM     26  C   UNL     1     118.891  56.025  51.705  1.00  0.00     0.004 C 
ENDBRANCH  24  25
ENDBRANCH  23  24
ENDBRANCH  22  23
ENDBRANCH  21  22
ENDBRANCH  20  21
ENDBRANCH  19  20
ENDBRANCH  18  19
ENDBRANCH  17  18
ENDBRANCH  16  17
ENDBRANCH  15  16
ENDBRANCH   1  15
TORSDOF 22
ENDMDL
MODEL 6
REMARK VINA RESULT:    -3.456      1.455      2.853
REMARK INTER + INTRA:         -11.859
REMARK INTER:                  -7.857
REMARK INTRA:                  -4.002
REMARK UNBOUND:                -3.959
REMARK SMILES CCCCCCCCCCCCCCCCCCCCCCCC(=O)[O-]
REMARK SMILES IDX 13 1 14 2 15 3 16 4 17 5 18 6 19 7 20 8 21 9 22 10 23 11
REMARK SMILES IDX 24 12 25 13 26 14 12 15 11 16 10 17 9 18 8 19 7 20 6 21 5 22
REMARK SMILES IDX 4 23 3 24 2 25 1 26
REMARK H PARENT
REMARK Flexibility Score: inf
ROOT
ATOM      1  C   UNL     1     119.161  53.926  51.519  1.00  0.00     0.000 C 
ENDROOT
BRANCH   1   2
ATOM      2  C   UNL     1     119.140  52.819  52.588  1.00  0.00     0.000 C 
BRANCH   2   3
ATOM      3  C   UNL     1     118.992  53.373  54.015  1.00  0.00     0.000 C 
BRANCH   3   4
ATOM      4  C   UNL     1     117.661  52.967  54.667  1.00  0.00     0.000 C 
BRANCH   4   5
ATOM      5  C   UNL     1     117.071  51.684  54.055  1.00  0.00     0.000 C 
BRANCH   5   6
ATOM      6  C   UNL     1     115.661  51.914  53.470  1.00  0.00     0.000 C 
BRANCH   6   7
ATOM      7  C   UNL     1     115.257  53.396  53.397  1.00  0.00     0.000 C 
BRANCH   7   8
ATOM      8  C   UNL     1     115.463  54.003  52.000  1.00  0.00     0.000 C 
BRANCH   8   9
ATOM      9  C   UNL     1     115.559  52.936  50.897  1.00  0.00     0.000 C 
BRANCH   9  10
ATOM     10  C   UNL     1     115.830  53.541  49.509  1.00  0.00     0.006 C 
BRANCH  10  11
ATOM     11  C   UNL     1     115.287  54.971  49.387  1.00  0.00     0.053 C 
BRANCH  11  12
ATOM     12  C   UNL     1     113.872  54.986  48.893  1.00  0.00     0.041 C 
ATOM     13  O   UNL     1     113.482  54.130  48.055  1.00  0.00    -0.550 OA
ATOM     14  O   UNL     1     112.992  55.965  49.336  1.00  0.00    -0.550 OA
ENDBRANCH  11  12
ENDBRANCH  10  11
ENDBRANCH   9  10
ENDBRANCH   8   9
ENDBRANCH   7   8
ENDBRANCH   6   7
ENDBRANCH   5   6
ENDBRANCH   4   5
ENDBRANCH   3   4
ENDBRANCH   2   3
ENDBRANCH   1   2
BRANCH   1  15
ATOM     15  C   UNL     1     118.967  55.355  52.066  1.00  0.00     0.000 C 
BRANCH  15  16
ATOM     16  C   UNL     1     118.279  56.342  51.103  1.00  0.00     0.000 C 
BRANCH  16  17
ATOM     17  C   UNL     1     119.181  56.917  49.996  1.00  0.00     0.000 C 
BRANCH  17  18
ATOM     18  C   UNL     1     120.625  57.160  50.466  1.00  0.00    -0.000 C 
BRANCH  18  19
ATOM     19  C   UNL     1     121.657  56.386  49.631  1.00  0.00    -0.000 C 
BRANCH  19  20
ATOM     20  C   UNL     1     123.107  56.743  49.992  1.00  0.00    -0.000 C 
BRANCH  20  21
ATOM     21  C   UNL     1     123.163  57.535  51.307  1.00  0.00    -0.000 C 
BRANCH  21  22
ATOM     22  C   UNL     1     124.306  57.078  52.233  1.00  0.00    -0.000 C 
BRANCH  22  23
ATOM     23  C   UNL     1     124.633  55.574  52.172  1.00  0.00    -0.000 C 
BRANCH  23  24
ATOM     24  C   UNL     1     123.880  54.699  53.190  1.00  0.00    -0.000 C 
BRANCH  24  25
ATOM     25  C   UNL     1     122.589  54.096  52.618  1.00  0.00    -0.003 C 
ATOM     26  C   UNL     1     122.880  53.247  51.383  1.00  0.00     0.004 C 
ENDBRANCH  24  25
ENDBRANCH  23  24
ENDBRANCH  22  23
ENDBRANCH  21  22
ENDBRANCH  20  21
ENDBRANCH  19  20
ENDBRANCH  18  19
ENDBRANCH  17  18
ENDBRANCH  16  17
ENDBRANCH  15  16
ENDBRANCH   1  15
TORSDOF 22
ENDMDL
MODEL 7
REMARK VINA RESULT:    -3.444      2.746      5.307
REMARK INTER + INTRA:         -11.832
REMARK INTER:                  -7.746
REMARK INTRA:                  -4.086
REMARK UNBOUND:                -3.959
REMARK SMILES CCCCCCCCCCCCCCCCCCCCCCCC(=O)[O-]
REMARK SMILES IDX 13 1 14 2 15 3 16 4 17 5 18 6 19 7 20 8 21 9 22 10 23 11
REMARK SMILES IDX 24 12 25 13 26 14 12 15 11 16 10 17 9 18 8 19 7 20 6 21 5 22
REMARK SMILES IDX 4 23 3 24 2 25 1 26
REMARK H PARENT
REMARK Flexibility Score: inf
ROOT
ATOM      1  C   UNL     1     118.787  51.766  53.813  1.00  0.00     0.000 C 
ENDROOT
BRANCH   1   2
ATOM      2  C   UNL     1     117.675  52.763  54.187  1.00  0.00     0.000 C 
BRANCH   2   3
ATOM      3  C   UNL     1     116.288  52.104  54.266  1.00  0.00     0.000 C 
BRANCH   3   4
ATOM      4  C   UNL     1     115.277  52.747  53.304  1.00  0.00     0.000 C 
BRANCH   4   5
ATOM      5  C   UNL     1     115.919  53.814  52.399  1.00  0.00     0.000 C 
BRANCH   5   6
ATOM      6  C   UNL     1     115.607  53.575  50.906  1.00  0.00     0.000 C 
BRANCH   6   7
ATOM      7  C   UNL     1     115.621  52.091  50.502  1.00  0.00     0.000 C 
BRANCH   7   8
ATOM      8  C   UNL     1     117.042  51.521  50.368  1.00  0.00     0.000 C 
BRANCH   8   9
ATOM      9  C   UNL     1     117.158  50.083  50.900  1.00  0.00     0.000 C 
BRANCH   9  10
ATOM     10  C   UNL     1     115.845  49.572  51.518  1.00  0.00     0.006 C 
BRANCH  10  11
ATOM     11  C   UNL     1     115.269  48.380  50.742  1.00  0.00     0.053 C 
BRANCH  11  12
ATOM     12  C   UNL     1     115.571  47.078  51.422  1.00  0.00     0.041 C 
ATOM     13  O   UNL     1     114.646  46.260  51.668  1.00  0.00    -0.550 OA
ATOM     14  O   UNL     1     116.872  46.782  51.810  1.00  0.00    -0.550 OA
ENDBRANCH  11  12
ENDBRANCH  10  11
ENDBRANCH   9  10
ENDBRANCH   8   9
ENDBRANCH   7   8
ENDBRANCH   6   7
ENDBRANCH   5   6
ENDBRANCH   4   5
ENDBRANCH   3   4
ENDBRANCH   2   3
ENDBRANCH   1   2
BRANCH   1  15
ATOM     15  C   UNL     1     120.118  51.973  54.562  1.00  0.00     0.000 C 
BRANCH  15  16
ATOM     16  C   UNL     1     120.261  53.324  55.293  1.00  0.00     0.000 C 
BRANCH  16  17
ATOM     17  C   UNL     1     121.705  53.826  55.467  1.00  0.00     0.000 C 
BRANCH  17  18
ATOM     18  C   UNL     1     122.681  53.211  54.450  1.00  0.00    -0.000 C 
BRANCH  18  19
ATOM     19  C   UNL     1     123.206  54.241  53.437  1.00  0.00    -0.000 C 
BRANCH  19  20
ATOM     20  C   UNL     1     122.129  54.708  52.446  1.00  0.00    -0.000 C 
BRANCH  20  21
ATOM     21  C   UNL     1     122.106  53.808  51.201  1.00  0.00    -0.000 C 
BRANCH  21  22
ATOM     22  C   UNL     1     120.704  53.254  50.888  1.00  0.00    -0.000 C 
BRANCH  22  23
ATOM     23  C   UNL     1     119.533  54.110  51.408  1.00  0.00    -0.000 C 
BRANCH  23  24
ATOM     24  C   UNL     1     118.967  55.124  50.398  1.00  0.00    -0.000 C 
BRANCH  24  25
ATOM     25  C   UNL     1     118.903  56.552  50.960  1.00  0.00    -0.003 C 
ATOM     26  C   UNL     1     120.148  57.349  50.578  1.00  0.00     0.004 C 
ENDBRANCH  24  25
ENDBRANCH  23  24
ENDBRANCH  22  23
ENDBRANCH  21  22
ENDBRANCH  20  21
ENDBRANCH  19  20
ENDBRANCH  18  19
ENDBRANCH  17  18
ENDBRANCH  16  17
ENDBRANCH  15  16
ENDBRANCH   1  15
TORSDOF 22
ENDMDL
MODEL 8
REMARK VINA RESULT:    -3.434      7.310     10.706
REMARK INTER + INTRA:         -11.809
REMARK INTER:                  -8.085
REMARK INTRA:                  -3.724
REMARK UNBOUND:                -3.959
REMARK SMILES CCCCCCCCCCCCCCCCCCCCCCCC(=O)[O-]
REMARK SMILES IDX 13 1 14 2 15 3 16 4 17 5 18 6 19 7 20 8 21 9 22 10 23 11
REMARK SMILES IDX 24 12 25 13 26 14 12 15 11 16 10 17 9 18 8 19 7 20 6 21 5 22
REMARK SMILES IDX 4 23 3 24 2 25 1 26
REMARK H PARENT
REMARK Flexibility Score: inf
ROOT
ATOM      1  C   UNL     1     125.707  53.191  45.237  1.00  0.00     0.000 C 
ENDROOT
BRANCH   1   2
ATOM      2  C   UNL     1     126.617  53.863  44.194  1.00  0.00     0.000 C 
BRANCH   2   3
ATOM      3  C   UNL     1     125.824  54.531  43.057  1.00  0.00     0.000 C 
BRANCH   3   4
ATOM      4  C   UNL     1     125.433  55.980  43.387  1.00  0.00     0.000 C 
BRANCH   4   5
ATOM      5  C   UNL     1     123.930  56.134  43.679  1.00  0.00     0.000 C 
BRANCH   5   6
ATOM      6  C   UNL     1     123.667  56.965  44.953  1.00  0.00     0.000 C 
BRANCH   6   7
ATOM      7  C   UNL     1     124.707  56.740  46.063  1.00  0.00     0.000 C 
BRANCH   7   8
ATOM      8  C   UNL     1     124.153  55.926  47.244  1.00  0.00     0.000 C 
BRANCH   8   9
ATOM      9  C   UNL     1     125.230  55.581  48.285  1.00  0.00     0.000 C 
BRANCH   9  10
ATOM     10  C   UNL     1     124.637  55.265  49.669  1.00  0.00     0.006 C 
BRANCH  10  11
ATOM     11  C   UNL     1     123.969  56.492  50.304  1.00  0.00     0.053 C 
BRANCH  11  12
ATOM     12  C   UNL     1     124.589  56.841  51.622  1.00  0.00     0.041 C 
ATOM     13  O   UNL     1     124.189  56.286  52.680  1.00  0.00    -0.550 OA
ATOM     14  O   UNL     1     125.592  57.801  51.687  1.00  0.00    -0.550 OA
ENDBRANCH  11  12
ENDBRANCH  10  11
ENDBRANCH   9  10
ENDBRANCH   8   9
ENDBRANCH   7   8
ENDBRANCH   6   7
ENDBRANCH   5   6
ENDBRANCH   4   5
ENDBRANCH   3   4
ENDBRANCH   2   3
ENDBRANCH   1   2
BRANCH   1  15
ATOM     15  C   UNL     1     126.430  52.225  46.197  1.00  0.00     0.000 C 
BRANCH  15  16
ATOM     16  C   UNL     1     125.595  51.018  46.670  1.00  0.00     0.000 C 
BRANCH  16  17
ATOM     17  C   UNL     1     125.262  49.983  45.581  1.00  0.00     0.000 C 
BRANCH  17  18
ATOM     18  C   UNL     1     123.771  49.970  45.202  1.00  0.00    -0.000 C 
BRANCH  18  19
ATOM     19  C   UNL     1     123.517  49.342  43.823  1.00  0.00    -0.000 C 
BRANCH  19  20
ATOM     20  C   UNL     1     124.436  49.908  42.730  1.00  0.00    -0.000 C 
BRANCH  20  21
ATOM     21  C   UNL     1     123.948  51.290  42.267  1.00  0.00    -0.000 C 
BRANCH  21  22
ATOM     22  C   UNL     1     122.596  51.233  41.535  1.00  0.00    -0.000 C 
BRANCH  22  23
ATOM     23  C   UNL     1     121.647  52.412  41.824  1.00  0.00    -0.000 C 
BRANCH  23  24
ATOM     24  C   UNL     1     122.009  53.254  43.060  1.00  0.00    -0.000 C 
BRANCH  24  25
ATOM     25  C   UNL     1     121.363  52.728  44.350  1.00  0.00    -0.003 C 
ATOM     26  C   UNL     1     122.129  53.204  45.582  1.00  0.00     0.004 C 
ENDBRANCH  24  25
ENDBRANCH  23  24
ENDBRANCH  22  23
ENDBRANCH  21  22
ENDBRANCH  20  21
ENDBRANCH  19  20
ENDBRANCH  18  19
ENDBRANCH  17  18
ENDBRANCH  16  17
ENDBRANCH  15  16
ENDBRANCH   1  15
TORSDOF 22
ENDMDL
MODEL 9
REMARK VINA RESULT:    -3.384      2.983      6.180
REMARK INTER + INTRA:         -11.695
REMARK INTER:                  -6.846
REMARK INTRA:                  -4.849
REMARK UNBOUND:                -3.959
REMARK SMILES CCCCCCCCCCCCCCCCCCCCCCCC(=O)[O-]
REMARK SMILES IDX 13 1 14 2 15 3 16 4 17 5 18 6 19 7 20 8 21 9 22 10 23 11
REMARK SMILES IDX 24 12 25 13 26 14 12 15 11 16 10 17 9 18 8 19 7 20 6 21 5 22
REMARK SMILES IDX 4 23 3 24 2 25 1 26
REMARK H PARENT
REMARK Flexibility Score: inf
ROOT
ATOM      1  C   UNL     1     120.584  52.224  52.468  1.00  0.00     0.000 C 
ENDROOT
BRANCH   1   2
ATOM      2  C   UNL     1     119.818  52.450  51.153  1.00  0.00     0.000 C 
BRANCH   2   3
ATOM      3  C   UNL     1     118.698  51.419  50.933  1.00  0.00     0.000 C 
BRANCH   3   4
ATOM      4  C   UNL     1     118.712  50.302  51.988  1.00  0.00     0.000 C 
BRANCH   4   5
ATOM      5  C   UNL     1     117.920  49.060  51.545  1.00  0.00     0.000 C 
BRANCH   5   6
ATOM      6  C   UNL     1     116.397  49.311  51.543  1.00  0.00     0.000 C 
BRANCH   6   7
ATOM      7  C   UNL     1     115.567  48.071  51.171  1.00  0.00     0.000 C 
BRANCH   7   8
ATOM      8  C   UNL     1     114.457  48.378  50.154  1.00  0.00     0.000 C 
BRANCH   8   9
ATOM      9  C   UNL     1     114.552  49.803  49.583  1.00  0.00     0.000 C 
BRANCH   9  10
ATOM     10  C   UNL     1     115.019  49.825  48.118  1.00  0.00     0.006 C 
BRANCH  10  11
ATOM     11  C   UNL     1     116.423  50.424  47.969  1.00  0.00     0.053 C 
BRANCH  11  12
ATOM     12  C   UNL     1     117.476  49.359  47.907  1.00  0.00     0.041 C 
ATOM     13  O   UNL     1     118.695  49.673  47.872  1.00  0.00    -0.550 OA
ATOM     14  O   UNL     1     117.109  48.020  47.858  1.00  0.00    -0.550 OA
ENDBRANCH  11  12
ENDBRANCH  10  11
ENDBRANCH   9  10
ENDBRANCH   8   9
ENDBRANCH   7   8
ENDBRANCH   6   7
ENDBRANCH   5   6
ENDBRANCH   4   5
ENDBRANCH   3   4
ENDBRANCH   2   3
ENDBRANCH   1   2
BRANCH   1  15
ATOM     15  C   UNL     1     120.875  53.506  53.274  1.00  0.00     0.000 C 
BRANCH  15  16
ATOM     16  C   UNL     1     119.921  53.774  54.455  1.00  0.00     0.000 C 
BRANCH  16  17
ATOM     17  C   UNL     1     118.803  52.734  54.644  1.00  0.00     0.000 C 
BRANCH  17  18
ATOM     18  C   UNL     1     117.434  53.228  54.148  1.00  0.00    -0.000 C 
BRANCH  18  19
ATOM     19  C   UNL     1     116.374  52.115  54.129  1.00  0.00    -0.000 C 
BRANCH  19  20
ATOM     20  C   UNL     1     115.253  52.372  53.111  1.00  0.00    -0.000 C 
BRANCH  20  21
ATOM     21  C   UNL     1     115.619  53.539  52.181  1.00  0.00    -0.000 C 
BRANCH  21  22
ATOM     22  C   UNL     1     115.476  53.184  50.690  1.00  0.00    -0.000 C 
BRANCH  22  23
ATOM     23  C   UNL     1     116.426  53.943  49.744  1.00  0.00    -0.000 C 
BRANCH  23  24
ATOM     24  C   UNL     1     116.691  55.411  50.124  1.00  0.00    -0.000 C 
BRANCH  24  25
ATOM     25  C   UNL     1     118.179  55.705  50.363  1.00  0.00    -0.003 C 
ATOM     26  C   UNL     1     118.454  55.985  51.838  1.00  0.00     0.004 C 
ENDBRANCH  24  25
ENDBRANCH  23  24
ENDBRANCH  22  23
ENDBRANCH  21  22
ENDBRANCH  20  21
ENDBRANCH  19  20
ENDBRANCH  18  19
ENDBRANCH  17  18
ENDBRANCH  16  17
ENDBRANCH  15  16
ENDBRANCH   1  15
TORSDOF 22
ENDMDL
