MODEL 1
REMARK VINA RESULT:    -4.573      0.000      0.000
REMARK INTER + INTRA:          -5.499
REMARK INTER:                  -5.375
REMARK INTRA:                  -0.124
REMARK UNBOUND:                -0.124
REMARK SMILES O=C([O-])C=Cc1ccc(O)c(O)c1
REMARK SMILES IDX 6 1 13 2 7 3 11 4 8 5 9 6 5 7 4 8 2 9 1 10 3 11 12 12 10 14
REMARK H PARENT 12 13 10 15
REMARK Flexibility Score: inf
ROOT
ATOM      1  C   UNL     1      18.215  21.123  17.173  1.00  0.00    -0.022 A 
ATOM      2  C   UNL     1      17.171  20.202  17.395  1.00  0.00     0.058 A 
ATOM      3  C   UNL     1      18.655  21.919  18.242  1.00  0.00     0.012 A 
ATOM      4  C   UNL     1      16.564  20.102  18.653  1.00  0.00     0.157 A 
ATOM      5  C   UNL     1      18.050  21.821  19.497  1.00  0.00     0.051 A 
ATOM      6  C   UNL     1      17.002  20.917  19.708  1.00  0.00     0.157 A 
ENDROOT
BRANCH   1   7
ATOM      7  C   UNL     1      18.896  21.256  15.861  1.00  0.00     0.010 C 
ATOM      8  C   UNL     1      18.301  21.732  14.758  1.00  0.00     0.025 C 
BRANCH   8   9
ATOM      9  C   UNL     1      19.019  21.858  13.480  1.00  0.00     0.064 C 
ATOM     10  O   UNL     1      19.735  22.871  13.266  1.00  0.00    -0.545 OA
ATOM     11  O   UNL     1      18.920  20.876  12.501  1.00  0.00    -0.545 OA
ENDBRANCH   8   9
ENDBRANCH   1   7
BRANCH   4  12
ATOM     12  O   UNL     1      15.531  19.182  18.835  1.00  0.00    -0.504 OA
ATOM     13  H   UNL     1      15.107  19.022  19.740  1.00  0.00     0.293 HD
ENDBRANCH   4  12
BRANCH   6  14
ATOM     14  O   UNL     1      16.400  20.823  20.962  1.00  0.00    -0.504 OA
ATOM     15  H   UNL     1      16.816  20.282  21.711  1.00  0.00     0.293 HD
ENDBRANCH   6  14
TORSDOF 4
ENDMDL
MODEL 2
REMARK VINA RESULT:    -4.534      1.444      1.863
REMARK INTER + INTRA:          -5.453
REMARK INTER:                  -5.325
REMARK INTRA:                  -0.128
REMARK UNBOUND:                -0.124
REMARK SMILES O=C([O-])C=Cc1ccc(O)c(O)c1
REMARK SMILES IDX 6 1 13 2 7 3 11 4 8 5 9 6 5 7 4 8 2 9 1 10 3 11 12 12 10 14
REMARK H PARENT 12 13 10 15
REMARK Flexibility Score: inf
ROOT
ATOM      1  C   UNL     1      17.802  21.623  16.498  1.00  0.00    -0.022 A 
ATOM      2  C   UNL     1      16.468  21.326  16.152  1.00  0.00     0.058 A 
ATOM      3  C   UNL     1      18.343  21.052  17.660  1.00  0.00     0.012 A 
ATOM      4  C   UNL     1      15.688  20.496  16.966  1.00  0.00     0.157 A 
ATOM      5  C   UNL     1      17.566  20.224  18.474  1.00  0.00     0.051 A 
ATOM      6  C   UNL     1      16.238  19.945  18.135  1.00  0.00     0.157 A 
ENDROOT
BRANCH   1   7
ATOM      7  C   UNL     1      18.670  22.488  15.660  1.00  0.00     0.010 C 
ATOM      8  C   UNL     1      18.843  22.316  14.343  1.00  0.00     0.025 C 
BRANCH   8   9
ATOM      9  C   UNL     1      19.705  23.206  13.549  1.00  0.00     0.064 C 
ATOM     10  O   UNL     1      20.029  24.331  14.010  1.00  0.00    -0.545 OA
ATOM     11  O   UNL     1      20.168  22.825  12.294  1.00  0.00    -0.545 OA
ENDBRANCH   8   9
ENDBRANCH   1   7
BRANCH   4  12
ATOM     12  O   UNL     1      14.371  20.226  16.594  1.00  0.00    -0.504 OA
ATOM     13  H   UNL     1      13.632  20.112  17.276  1.00  0.00     0.293 HD
ENDBRANCH   4  12
BRANCH   6  14
ATOM     14  O   UNL     1      15.465  19.120  18.951  1.00  0.00    -0.504 OA
ATOM     15  H   UNL     1      15.783  18.833  19.868  1.00  0.00     0.293 HD
ENDBRANCH   6  14
TORSDOF 4
ENDMDL
MODEL 3
REMARK VINA RESULT:    -4.419     18.179     20.060
REMARK INTER + INTRA:          -5.318
REMARK INTER:                  -5.194
REMARK INTRA:                  -0.124
REMARK UNBOUND:                -0.124
REMARK SMILES O=C([O-])C=Cc1ccc(O)c(O)c1
REMARK SMILES IDX 6 1 13 2 7 3 11 4 8 5 9 6 5 7 4 8 2 9 1 10 3 11 12 12 10 14
REMARK H PARENT 12 13 10 15
REMARK Flexibility Score: inf
ROOT
ATOM      1  C   UNL     1       5.557  16.519   2.718  1.00  0.00    -0.022 A 
ATOM      2  C   UNL     1       5.960  15.253   2.245  1.00  0.00     0.058 A 
ATOM      3  C   UNL     1       6.523  17.374   3.272  1.00  0.00     0.012 A 
ATOM      4  C   UNL     1       7.296  14.845   2.351  1.00  0.00     0.157 A 
ATOM      5  C   UNL     1       7.855  16.968   3.379  1.00  0.00     0.051 A 
ATOM      6  C   UNL     1       8.248  15.704   2.923  1.00  0.00     0.157 A 
ENDROOT
BRANCH   1   7
ATOM      7  C   UNL     1       4.157  16.999   2.617  1.00  0.00     0.010 C 
ATOM      8  C   UNL     1       3.122  16.412   3.234  1.00  0.00     0.025 C 
BRANCH   8   9
ATOM      9  C   UNL     1       1.750  16.931   3.116  1.00  0.00     0.064 C 
ATOM     10  O   UNL     1       1.024  17.008   4.141  1.00  0.00    -0.545 OA
ATOM     11  O   UNL     1       1.239  17.336   1.887  1.00  0.00    -0.545 OA
ENDBRANCH   8   9
ENDBRANCH   1   7
BRANCH   4  12
ATOM     12  O   UNL     1       7.658  13.584   1.875  1.00  0.00    -0.504 OA
ATOM     13  H   UNL     1       7.165  12.744   2.151  1.00  0.00     0.293 HD
ENDBRANCH   4  12
BRANCH   6  14
ATOM     14  O   UNL     1       9.578  15.301   3.033  1.00  0.00    -0.504 OA
ATOM     15  H   UNL     1      10.240  15.810   3.606  1.00  0.00     0.293 HD
ENDBRANCH   6  14
TORSDOF 4
ENDMDL
MODEL 4
REMARK VINA RESULT:    -4.356      1.651      2.718
REMARK INTER + INTRA:          -5.243
REMARK INTER:                  -5.101
REMARK INTRA:                  -0.142
REMARK UNBOUND:                -0.124
REMARK SMILES O=C([O-])C=Cc1ccc(O)c(O)c1
REMARK SMILES IDX 6 1 13 2 7 3 11 4 8 5 9 6 5 7 4 8 2 9 1 10 3 11 12 12 10 14
REMARK H PARENT 12 13 10 15
REMARK Flexibility Score: inf
ROOT
ATOM      1  C   UNL     1      18.141  21.240  18.041  1.00  0.00    -0.022 A 
ATOM      2  C   UNL     1      17.705  21.412  19.371  1.00  0.00     0.058 A 
ATOM      3  C   UNL     1      17.413  20.388  17.195  1.00  0.00     0.012 A 
ATOM      4  C   UNL     1      16.581  20.726  19.847  1.00  0.00     0.157 A 
ATOM      5  C   UNL     1      16.292  19.703  17.669  1.00  0.00     0.051 A 
ATOM      6  C   UNL     1      15.873  19.864  18.994  1.00  0.00     0.157 A 
ENDROOT
BRANCH   1   7
ATOM      7  C   UNL     1      19.318  21.954  17.488  1.00  0.00     0.010 C 
ATOM      8  C   UNL     1      19.350  22.504  16.267  1.00  0.00     0.025 C 
BRANCH   8   9
ATOM      9  C   UNL     1      20.537  23.214  15.764  1.00  0.00     0.064 C 
ATOM     10  O   UNL     1      21.092  22.824  14.704  1.00  0.00    -0.545 OA
ATOM     11  O   UNL     1      21.058  24.310  16.442  1.00  0.00    -0.545 OA
ENDBRANCH   8   9
ENDBRANCH   1   7
BRANCH   4  12
ATOM     12  O   UNL     1      16.181  20.918  21.170  1.00  0.00    -0.504 OA
ATOM     13  H   UNL     1      16.002  21.839  21.549  1.00  0.00     0.293 HD
ENDBRANCH   4  12
BRANCH   6  14
ATOM     14  O   UNL     1      14.755  19.177  19.464  1.00  0.00    -0.504 OA
ATOM     15  H   UNL     1      14.829  18.241  19.845  1.00  0.00     0.293 HD
ENDBRANCH   6  14
TORSDOF 4
ENDMDL
MODEL 5
REMARK VINA RESULT:    -4.350     16.512     17.224
REMARK INTER + INTRA:          -5.236
REMARK INTER:                  -5.110
REMARK INTRA:                  -0.126
REMARK UNBOUND:                -0.124
REMARK SMILES O=C([O-])C=Cc1ccc(O)c(O)c1
REMARK SMILES IDX 6 1 13 2 7 3 11 4 8 5 9 6 5 7 4 8 2 9 1 10 3 11 12 12 10 14
REMARK H PARENT 12 13 10 15
REMARK Flexibility Score: inf
ROOT
ATOM      1  C   UNL     1       9.226  15.390   3.150  1.00  0.00    -0.022 A 
ATOM      2  C   UNL     1       8.794  15.341   4.491  1.00  0.00     0.058 A 
ATOM      3  C   UNL     1       8.645  16.330   2.284  1.00  0.00     0.012 A 
ATOM      4  C   UNL     1       7.785  16.198   4.946  1.00  0.00     0.157 A 
ATOM      5  C   UNL     1       7.637  17.185   2.737  1.00  0.00     0.051 A 
ATOM      6  C   UNL     1       7.200  17.122   4.065  1.00  0.00     0.157 A 
ENDROOT
BRANCH   1   7
ATOM      7  C   UNL     1      10.300  14.510   2.625  1.00  0.00     0.010 C 
ATOM      8  C   UNL     1      11.274  13.991   3.384  1.00  0.00     0.025 C 
BRANCH   8   9
ATOM      9  C   UNL     1      12.313  13.113   2.822  1.00  0.00     0.064 C 
ATOM     10  O   UNL     1      13.032  13.527   1.876  1.00  0.00    -0.545 OA
ATOM     11  O   UNL     1      12.514  11.829   3.318  1.00  0.00    -0.545 OA
ENDBRANCH   8   9
ENDBRANCH   1   7
BRANCH   4  12
ATOM     12  O   UNL     1       7.380  16.119   6.279  1.00  0.00    -0.504 OA
ATOM     13  H   UNL     1       6.560  15.597   6.562  1.00  0.00     0.293 HD
ENDBRANCH   4  12
BRANCH   6  14
ATOM     14  O   UNL     1       6.193  17.975   4.513  1.00  0.00    -0.504 OA
ATOM     15  H   UNL     1       6.025  18.125   5.501  1.00  0.00     0.293 HD
ENDBRANCH   6  14
TORSDOF 4
ENDMDL
MODEL 6
REMARK VINA RESULT:    -4.246     18.557     20.149
REMARK INTER + INTRA:          -5.114
REMARK INTER:                  -4.982
REMARK INTRA:                  -0.132
REMARK UNBOUND:                -0.124
REMARK SMILES O=C([O-])C=Cc1ccc(O)c(O)c1
REMARK SMILES IDX 6 1 13 2 7 3 11 4 8 5 9 6 5 7 4 8 2 9 1 10 3 11 12 12 10 14
REMARK H PARENT 12 13 10 15
REMARK Flexibility Score: inf
ROOT
ATOM      1  C   UNL     1       4.713  16.281   2.540  1.00  0.00    -0.022 A 
ATOM      2  C   UNL     1       3.632  15.648   3.186  1.00  0.00     0.058 A 
ATOM      3  C   UNL     1       4.493  17.510   1.897  1.00  0.00     0.012 A 
ATOM      4  C   UNL     1       2.354  16.222   3.165  1.00  0.00     0.157 A 
ATOM      5  C   UNL     1       3.219  18.083   1.875  1.00  0.00     0.051 A 
ATOM      6  C   UNL     1       2.145  17.443   2.504  1.00  0.00     0.157 A 
ENDROOT
BRANCH   1   7
ATOM      7  C   UNL     1       6.086  15.718   2.545  1.00  0.00     0.010 C 
ATOM      8  C   UNL     1       7.121  16.285   3.179  1.00  0.00     0.025 C 
BRANCH   8   9
ATOM      9  C   UNL     1       8.464  15.684   3.168  1.00  0.00     0.064 C 
ATOM     10  O   UNL     1       9.204  15.835   2.160  1.00  0.00    -0.545 OA
ATOM     11  O   UNL     1       8.932  14.950   4.252  1.00  0.00    -0.545 OA
ENDBRANCH   8   9
ENDBRANCH   1   7
BRANCH   4  12
ATOM     12  O   UNL     1       1.307  15.565   3.812  1.00  0.00    -0.504 OA
ATOM     13  H   UNL     1       0.482  16.055   4.133  1.00  0.00     0.293 HD
ENDBRANCH   4  12
BRANCH   6  14
ATOM     14  O   UNL     1       0.875  18.016   2.478  1.00  0.00    -0.504 OA
ATOM     15  H   UNL     1       0.168  17.709   1.821  1.00  0.00     0.293 HD
ENDBRANCH   6  14
TORSDOF 4
ENDMDL
MODEL 7
REMARK VINA RESULT:    -4.152      1.121      2.251
REMARK INTER + INTRA:          -5.003
REMARK INTER:                  -4.864
REMARK INTRA:                  -0.140
REMARK UNBOUND:                -0.124
REMARK SMILES O=C([O-])C=Cc1ccc(O)c(O)c1
REMARK SMILES IDX 6 1 13 2 7 3 11 4 8 5 9 6 5 7 4 8 2 9 1 10 3 11 12 12 10 14
REMARK H PARENT 12 13 10 15
REMARK Flexibility Score: inf
ROOT
ATOM      1  C   UNL     1      18.741  21.230  16.963  1.00  0.00    -0.022 A 
ATOM      2  C   UNL     1      19.364  21.880  18.049  1.00  0.00     0.058 A 
ATOM      3  C   UNL     1      17.565  20.500  17.194  1.00  0.00     0.012 A 
ATOM      4  C   UNL     1      18.832  21.776  19.340  1.00  0.00     0.157 A 
ATOM      5  C   UNL     1      17.034  20.396  18.482  1.00  0.00     0.051 A 
ATOM      6  C   UNL     1      17.665  21.028  19.560  1.00  0.00     0.157 A 
ENDROOT
BRANCH   1   7
ATOM      7  C   UNL     1      19.260  21.320  15.576  1.00  0.00     0.010 C 
ATOM      8  C   UNL     1      18.497  21.606  14.512  1.00  0.00     0.025 C 
BRANCH   8   9
ATOM      9  C   UNL     1      19.058  21.696  13.155  1.00  0.00     0.064 C 
ATOM     10  O   UNL     1      18.779  20.809  12.306  1.00  0.00    -0.545 OA
ATOM     11  O   UNL     1      19.894  22.746  12.791  1.00  0.00    -0.545 OA
ENDBRANCH   8   9
ENDBRANCH   1   7
BRANCH   4  12
ATOM     12  O   UNL     1      19.477  22.430  20.391  1.00  0.00    -0.504 OA
ATOM     13  H   UNL     1      19.133  22.387  21.342  1.00  0.00     0.293 HD
ENDBRANCH   4  12
BRANCH   6  14
ATOM     14  O   UNL     1      17.133  20.921  20.844  1.00  0.00    -0.504 OA
ATOM     15  H   UNL     1      17.364  20.143  21.450  1.00  0.00     0.293 HD
ENDBRANCH   6  14
TORSDOF 4
ENDMDL
MODEL 8
REMARK VINA RESULT:    -4.099      2.239      3.122
REMARK INTER + INTRA:          -4.942
REMARK INTER:                  -4.815
REMARK INTRA:                  -0.127
REMARK UNBOUND:                -0.124
REMARK SMILES O=C([O-])C=Cc1ccc(O)c(O)c1
REMARK SMILES IDX 6 1 13 2 7 3 11 4 8 5 9 6 5 7 4 8 2 9 1 10 3 11 12 12 10 14
REMARK H PARENT 12 13 10 15
REMARK Flexibility Score: inf
ROOT
ATOM      1  C   UNL     1      19.049  21.636  14.492  1.00  0.00    -0.022 A 
ATOM      2  C   UNL     1      17.699  21.996  14.682  1.00  0.00     0.058 A 
ATOM      3  C   UNL     1      19.812  21.254  15.606  1.00  0.00     0.012 A 
ATOM      4  C   UNL     1      17.136  21.997  15.965  1.00  0.00     0.157 A 
ATOM      5  C   UNL     1      19.252  21.255  16.886  1.00  0.00     0.051 A 
ATOM      6  C   UNL     1      17.916  21.629  17.072  1.00  0.00     0.157 A 
ENDROOT
BRANCH   1   7
ATOM      7  C   UNL     1      19.685  21.608  13.151  1.00  0.00     0.010 C 
ATOM      8  C   UNL     1      19.253  20.846  12.137  1.00  0.00     0.025 C 
BRANCH   8   9
ATOM      9  C   UNL     1      19.909  20.860  10.820  1.00  0.00     0.064 C 
ATOM     10  O   UNL     1      21.124  21.178  10.734  1.00  0.00    -0.545 OA
ATOM     11  O   UNL     1      19.208  20.529   9.666  1.00  0.00    -0.545 OA
ENDBRANCH   8   9
ENDBRANCH   1   7
BRANCH   4  12
ATOM     12  O   UNL     1      15.798  22.362  16.116  1.00  0.00    -0.504 OA
ATOM     13  H   UNL     1      15.410  23.181  15.666  1.00  0.00     0.293 HD
ENDBRANCH   4  12
BRANCH   6  14
ATOM     14  O   UNL     1      17.361  21.631  18.351  1.00  0.00    -0.504 OA
ATOM     15  H   UNL     1      16.372  21.470  18.500  1.00  0.00     0.293 HD
ENDBRANCH   6  14
TORSDOF 4
ENDMDL
MODEL 9
REMARK VINA RESULT:    -3.993      2.157      5.797
REMARK INTER + INTRA:          -4.817
REMARK INTER:                  -4.693
REMARK INTRA:                  -0.124
REMARK UNBOUND:                -0.124
REMARK SMILES O=C([O-])C=Cc1ccc(O)c(O)c1
REMARK SMILES IDX 6 1 13 2 7 3 11 4 8 5 9 6 5 7 4 8 2 9 1 10 3 11 12 12 10 14
REMARK H PARENT 12 13 10 15
REMARK Flexibility Score: inf
ROOT
ATOM      1  C   UNL     1      19.266  21.643  17.647  1.00  0.00    -0.022 A 
ATOM      2  C   UNL     1      17.960  21.887  17.172  1.00  0.00     0.058 A 
ATOM      3  C   UNL     1      20.290  21.399  16.720  1.00  0.00     0.012 A 
ATOM      4  C   UNL     1      17.686  21.859  15.799  1.00  0.00     0.157 A 
ATOM      5  C   UNL     1      20.017  21.371  15.350  1.00  0.00     0.051 A 
ATOM      6  C   UNL     1      18.717  21.597  14.883  1.00  0.00     0.157 A 
ENDROOT
BRANCH   1   7
ATOM      7  C   UNL     1      19.607  21.673  19.091  1.00  0.00     0.010 C 
ATOM      8  C   UNL     1      18.993  20.923  20.017  1.00  0.00     0.025 C 
BRANCH   8   9
ATOM      9  C   UNL     1      19.373  20.977  21.437  1.00  0.00     0.064 C 
ATOM     10  O   UNL     1      19.661  19.912  22.044  1.00  0.00    -0.545 OA
ATOM     11  O   UNL     1      19.419  22.186  22.124  1.00  0.00    -0.545 OA
ENDBRANCH   8   9
ENDBRANCH   1   7
BRANCH   4  12
ATOM     12  O   UNL     1      16.382  22.101  15.365  1.00  0.00    -0.504 OA
ATOM     13  H   UNL     1      15.686  22.527  15.964  1.00  0.00     0.293 HD
ENDBRANCH   4  12
BRANCH   6  14
ATOM     14  O   UNL     1      18.448  21.566  13.516  1.00  0.00    -0.504 OA
ATOM     15  H   UNL     1      18.253  22.413  12.995  1.00  0.00     0.293 HD
ENDBRANCH   6  14
TORSDOF 4
ENDMDL
