MODEL 1
REMARK VINA RESULT:    -3.872      0.000      0.000
REMARK INTER + INTRA:          -4.660
REMARK INTER:                  -4.551
REMARK INTRA:                  -0.109
REMARK UNBOUND:                -0.109
REMARK SMILES O=C([O-])CCC(=O)[O-]
REMARK SMILES IDX 4 1 2 2 1 3 3 4 5 5 6 6 7 7 8 8
REMARK H PARENT
REMARK Flexibility Score: inf
ROOT
ATOM      1  C   UNL     1      -2.519  37.235  18.031  1.00  0.00     0.059 C 
ENDROOT
BRANCH   1   2
ATOM      2  C   UNL     1      -2.649  36.856  16.590  1.00  0.00     0.042 C 
ATOM      3  O   UNL     1      -1.991  35.885  16.129  1.00  0.00    -0.550 OA
ATOM      4  O   UNL     1      -3.460  37.602  15.745  1.00  0.00    -0.550 OA
ENDBRANCH   1   2
BRANCH   1   5
ATOM      5  C   UNL     1      -3.880  37.185  18.724  1.00  0.00     0.059 C 
BRANCH   5   6
ATOM      6  C   UNL     1      -4.141  35.817  19.269  1.00  0.00     0.042 C 
ATOM      7  O   UNL     1      -3.846  35.543  20.463  1.00  0.00    -0.550 OA
ATOM      8  O   UNL     1      -4.755  34.857  18.475  1.00  0.00    -0.550 OA
ENDBRANCH   5   6
ENDBRANCH   1   5
TORSDOF 3
ENDMDL
MODEL 2
REMARK VINA RESULT:    -3.858      0.053      3.587
REMARK INTER + INTRA:          -4.644
REMARK INTER:                  -4.540
REMARK INTRA:                  -0.105
REMARK UNBOUND:                -0.109
REMARK SMILES O=C([O-])CCC(=O)[O-]
REMARK SMILES IDX 4 1 2 2 1 3 3 4 5 5 6 6 7 7 8 8
REMARK H PARENT
REMARK Flexibility Score: inf
ROOT
ATOM      1  C   UNL     1      -3.875  37.175  18.718  1.00  0.00     0.059 C 
ENDROOT
BRANCH   1   2
ATOM      2  C   UNL     1      -4.159  35.800  19.232  1.00  0.00     0.042 C 
ATOM      3  O   UNL     1      -3.874  35.497  20.421  1.00  0.00    -0.550 OA
ATOM      4  O   UNL     1      -4.693  34.837  18.385  1.00  0.00    -0.550 OA
ENDBRANCH   1   2
BRANCH   1   5
ATOM      5  C   UNL     1      -2.505  37.222  18.039  1.00  0.00     0.059 C 
BRANCH   5   6
ATOM      6  C   UNL     1      -2.626  36.875  16.590  1.00  0.00     0.042 C 
ATOM      7  O   UNL     1      -2.020  35.872  16.126  1.00  0.00    -0.550 OA
ATOM      8  O   UNL     1      -3.446  37.628  15.759  1.00  0.00    -0.550 OA
ENDBRANCH   5   6
ENDBRANCH   1   5
TORSDOF 3
ENDMDL
MODEL 3
REMARK VINA RESULT:    -3.709      2.133      4.465
REMARK INTER + INTRA:          -4.469
REMARK INTER:                  -4.352
REMARK INTRA:                  -0.117
REMARK UNBOUND:                -0.109
REMARK SMILES O=C([O-])CCC(=O)[O-]
REMARK SMILES IDX 4 1 2 2 1 3 3 4 5 5 6 6 7 7 8 8
REMARK H PARENT
REMARK Flexibility Score: inf
ROOT
ATOM      1  C   UNL     1      -5.018  37.087  19.839  1.00  0.00     0.059 C 
ENDROOT
BRANCH   1   2
ATOM      2  C   UNL     1      -4.649  37.264  21.277  1.00  0.00     0.042 C 
ATOM      3  O   UNL     1      -4.258  38.385  21.697  1.00  0.00    -0.550 OA
ATOM      4  O   UNL     1      -4.690  36.180  22.144  1.00  0.00    -0.550 OA
ENDBRANCH   1   2
BRANCH   1   5
ATOM      5  C   UNL     1      -3.939  36.292  19.102  1.00  0.00     0.059 C 
BRANCH   5   6
ATOM      6  C   UNL     1      -3.076  37.206  18.292  1.00  0.00     0.042 C 
ATOM      7  O   UNL     1      -3.336  37.411  17.077  1.00  0.00    -0.550 OA
ATOM      8  O   UNL     1      -2.013  37.870  18.891  1.00  0.00    -0.550 OA
ENDBRANCH   5   6
ENDBRANCH   1   5
TORSDOF 3
ENDMDL
MODEL 4
REMARK VINA RESULT:    -3.701      3.862      5.384
REMARK INTER + INTRA:          -4.459
REMARK INTER:                  -4.338
REMARK INTRA:                  -0.122
REMARK UNBOUND:                -0.109
REMARK SMILES O=C([O-])CCC(=O)[O-]
REMARK SMILES IDX 4 1 2 2 1 3 3 4 5 5 6 6 7 7 8 8
REMARK H PARENT
REMARK Flexibility Score: inf
ROOT
ATOM      1  C   UNL     1      -4.730  36.022  22.149  1.00  0.00     0.059 C 
ENDROOT
BRANCH   1   2
ATOM      2  C   UNL     1      -5.346  36.388  20.836  1.00  0.00     0.042 C 
ATOM      3  O   UNL     1      -5.856  35.497  20.106  1.00  0.00    -0.550 OA
ATOM      4  O   UNL     1      -5.313  37.704  20.395  1.00  0.00    -0.550 OA
ENDBRANCH   1   2
BRANCH   1   5
ATOM      5  C   UNL     1      -5.660  36.400  23.302  1.00  0.00     0.059 C 
BRANCH   5   6
ATOM      6  C   UNL     1      -5.060  37.498  24.121  1.00  0.00     0.042 C 
ATOM      7  O   UNL     1      -4.945  38.657  23.639  1.00  0.00    -0.550 OA
ATOM      8  O   UNL     1      -4.673  37.257  25.432  1.00  0.00    -0.550 OA
ENDBRANCH   5   6
ENDBRANCH   1   5
TORSDOF 3
ENDMDL
MODEL 5
REMARK VINA RESULT:    -3.672      3.977      6.223
REMARK INTER + INTRA:          -4.425
REMARK INTER:                  -4.306
REMARK INTRA:                  -0.119
REMARK UNBOUND:                -0.109
REMARK SMILES O=C([O-])CCC(=O)[O-]
REMARK SMILES IDX 4 1 2 2 1 3 3 4 5 5 6 6 7 7 8 8
REMARK H PARENT
REMARK Flexibility Score: inf
ROOT
ATOM      1  C   UNL     1      -5.790  36.589  23.385  1.00  0.00     0.059 C 
ENDROOT
BRANCH   1   2
ATOM      2  C   UNL     1      -5.059  37.618  24.186  1.00  0.00     0.042 C 
ATOM      3  O   UNL     1      -4.805  38.747  23.687  1.00  0.00    -0.550 OA
ATOM      4  O   UNL     1      -4.616  37.316  25.467  1.00  0.00    -0.550 OA
ENDBRANCH   1   2
BRANCH   1   5
ATOM      5  C   UNL     1      -4.891  36.031  22.281  1.00  0.00     0.059 C 
BRANCH   5   6
ATOM      6  C   UNL     1      -5.450  36.358  20.934  1.00  0.00     0.042 C 
ATOM      7  O   UNL     1      -6.028  35.468  20.254  1.00  0.00    -0.550 OA
ATOM      8  O   UNL     1      -5.377  37.657  20.447  1.00  0.00    -0.550 OA
ENDBRANCH   5   6
ENDBRANCH   1   5
TORSDOF 3
ENDMDL
MODEL 6
REMARK VINA RESULT:    -3.669      2.136      2.666
REMARK INTER + INTRA:          -4.422
REMARK INTER:                  -4.318
REMARK INTRA:                  -0.103
REMARK UNBOUND:                -0.109
REMARK SMILES O=C([O-])CCC(=O)[O-]
REMARK SMILES IDX 4 1 2 2 1 3 3 4 5 5 6 6 7 7 8 8
REMARK H PARENT
REMARK Flexibility Score: inf
ROOT
ATOM      1  C   UNL     1      -3.889  36.364  19.090  1.00  0.00     0.059 C 
ENDROOT
BRANCH   1   2
ATOM      2  C   UNL     1      -3.010  37.236  18.252  1.00  0.00     0.042 C 
ATOM      3  O   UNL     1      -3.212  37.335  17.012  1.00  0.00    -0.550 OA
ATOM      4  O   UNL     1      -1.937  37.902  18.830  1.00  0.00    -0.550 OA
ENDBRANCH   1   2
BRANCH   1   5
ATOM      5  C   UNL     1      -4.931  37.205  19.828  1.00  0.00     0.059 C 
BRANCH   5   6
ATOM      6  C   UNL     1      -4.592  37.302  21.281  1.00  0.00     0.042 C 
ATOM      7  O   UNL     1      -4.193  38.394  21.767  1.00  0.00    -0.550 OA
ATOM      8  O   UNL     1      -4.763  36.202  22.111  1.00  0.00    -0.550 OA
ENDBRANCH   5   6
ENDBRANCH   1   5
TORSDOF 3
ENDMDL
MODEL 7
REMARK VINA RESULT:    -3.665      3.855      6.090
REMARK INTER + INTRA:          -4.417
REMARK INTER:                  -4.294
REMARK INTRA:                  -0.123
REMARK UNBOUND:                -0.109
REMARK SMILES O=C([O-])CCC(=O)[O-]
REMARK SMILES IDX 4 1 2 2 1 3 3 4 5 5 6 6 7 7 8 8
REMARK H PARENT
REMARK Flexibility Score: inf
ROOT
ATOM      1  C   UNL     1      -5.759  36.571  23.245  1.00  0.00     0.059 C 
ENDROOT
BRANCH   1   2
ATOM      2  C   UNL     1      -5.071  37.583  24.105  1.00  0.00     0.042 C 
ATOM      3  O   UNL     1      -4.817  38.731  23.653  1.00  0.00    -0.550 OA
ATOM      4  O   UNL     1      -4.666  37.244  25.390  1.00  0.00    -0.550 OA
ENDBRANCH   1   2
BRANCH   1   5
ATOM      5  C   UNL     1      -4.825  36.084  22.138  1.00  0.00     0.059 C 
BRANCH   5   6
ATOM      6  C   UNL     1      -5.359  36.466  20.794  1.00  0.00     0.042 C 
ATOM      7  O   UNL     1      -5.403  37.677  20.451  1.00  0.00    -0.550 OA
ATOM      8  O   UNL     1      -5.763  35.482  19.901  1.00  0.00    -0.550 OA
ENDBRANCH   5   6
ENDBRANCH   1   5
TORSDOF 3
ENDMDL
MODEL 8
REMARK VINA RESULT:    -3.626      2.769      4.008
REMARK INTER + INTRA:          -4.371
REMARK INTER:                  -4.260
REMARK INTRA:                  -0.111
REMARK UNBOUND:                -0.109
REMARK SMILES O=C([O-])CCC(=O)[O-]
REMARK SMILES IDX 4 1 2 2 1 3 3 4 5 5 6 6 7 7 8 8
REMARK H PARENT
REMARK Flexibility Score: inf
ROOT
ATOM      1  C   UNL     1      -4.474  35.871  20.423  1.00  0.00     0.059 C 
ENDROOT
BRANCH   1   2
ATOM      2  C   UNL     1      -4.621  37.119  19.612  1.00  0.00     0.042 C 
ATOM      3  O   UNL     1      -5.435  38.013  19.967  1.00  0.00    -0.550 OA
ATOM      4  O   UNL     1      -3.895  37.276  18.439  1.00  0.00    -0.550 OA
ENDBRANCH   1   2
BRANCH   1   5
ATOM      5  C   UNL     1      -5.713  35.646  21.290  1.00  0.00     0.059 C 
BRANCH   5   6
ATOM      6  C   UNL     1      -5.342  35.619  22.738  1.00  0.00     0.042 C 
ATOM      7  O   UNL     1      -5.343  34.531  23.373  1.00  0.00    -0.550 OA
ATOM      8  O   UNL     1      -4.947  36.788  23.377  1.00  0.00    -0.550 OA
ENDBRANCH   5   6
ENDBRANCH   1   5
TORSDOF 3
ENDMDL
MODEL 9
REMARK VINA RESULT:    -3.596      1.923      4.465
REMARK INTER + INTRA:          -4.337
REMARK INTER:                  -4.302
REMARK INTRA:                  -0.034
REMARK UNBOUND:                -0.109
REMARK SMILES O=C([O-])CCC(=O)[O-]
REMARK SMILES IDX 4 1 2 2 1 3 3 4 5 5 6 6 7 7 8 8
REMARK H PARENT
REMARK Flexibility Score: inf
ROOT
ATOM      1  C   UNL     1      -4.275  35.998  19.853  1.00  0.00     0.059 C 
ENDROOT
BRANCH   1   2
ATOM      2  C   UNL     1      -5.058  36.076  21.125  1.00  0.00     0.042 C 
ATOM      3  O   UNL     1      -6.123  35.415  21.254  1.00  0.00    -0.550 OA
ATOM      4  O   UNL     1      -4.641  36.916  22.149  1.00  0.00    -0.550 OA
ENDBRANCH   1   2
BRANCH   1   5
ATOM      5  C   UNL     1      -4.207  37.370  19.181  1.00  0.00     0.059 C 
BRANCH   5   6
ATOM      6  C   UNL     1      -2.994  37.468  18.311  1.00  0.00     0.042 C 
ATOM      7  O   UNL     1      -3.099  37.349  17.062  1.00  0.00    -0.550 OA
ATOM      8  O   UNL     1      -1.754  37.739  18.875  1.00  0.00    -0.550 OA
ENDBRANCH   5   6
ENDBRANCH   1   5
TORSDOF 3
ENDMDL
