MODEL 1
REMARK VINA RESULT:    -4.163      0.000      0.000
REMARK INTER + INTRA:          -6.464
REMARK INTER:                  -5.867
REMARK INTRA:                  -0.597
REMARK UNBOUND:                -0.597
REMARK SMILES CCCCCCCCC(=O)[O-]
REMARK SMILES IDX 6 1 7 2 8 3 9 4 10 5 11 6 5 7 4 8 3 9 2 10 1 11
REMARK H PARENT
REMARK Flexibility Score: inf
ROOT
ATOM      1  C   UNL     1      99.615  92.100  86.435  1.00  0.00     0.000 C 
ENDROOT
BRANCH   1   2
ATOM      2  C   UNL     1      98.768  92.131  87.717  1.00  0.00     0.006 C 
BRANCH   2   3
ATOM      3  C   UNL     1      99.615  92.010  88.990  1.00  0.00     0.053 C 
BRANCH   3   4
ATOM      4  C   UNL     1      99.189  90.819  89.789  1.00  0.00     0.041 C 
ATOM      5  O   UNL     1      98.093  90.830  90.408  1.00  0.00    -0.550 OA
ATOM      6  O   UNL     1     100.026  89.715  89.891  1.00  0.00    -0.550 OA
ENDBRANCH   3   4
ENDBRANCH   2   3
ENDBRANCH   1   2
BRANCH   1   7
ATOM      7  C   UNL     1      98.917  91.354  85.284  1.00  0.00     0.000 C 
BRANCH   7   8
ATOM      8  C   UNL     1      99.629  90.042  84.913  1.00  0.00    -0.000 C 
BRANCH   8   9
ATOM      9  C   UNL     1     100.679  89.623  85.957  1.00  0.00    -0.000 C 
BRANCH   9  10
ATOM     10  C   UNL     1     100.533  88.153  86.380  1.00  0.00    -0.003 C 
ATOM     11  C   UNL     1      99.225  87.874  87.120  1.00  0.00     0.004 C 
ENDBRANCH   9  10
ENDBRANCH   8   9
ENDBRANCH   7   8
ENDBRANCH   1   7
TORSDOF 7
ENDMDL
MODEL 2
REMARK VINA RESULT:    -4.038      1.645      3.654
REMARK INTER + INTRA:          -6.287
REMARK INTER:                  -5.567
REMARK INTRA:                  -0.720
REMARK UNBOUND:                -0.597
REMARK SMILES CCCCCCCCC(=O)[O-]
REMARK SMILES IDX 6 1 7 2 8 3 9 4 10 5 11 6 5 7 4 8 3 9 2 10 1 11
REMARK H PARENT
REMARK Flexibility Score: inf
ROOT
ATOM      1  C   UNL     1      99.565  89.679  85.425  1.00  0.00     0.000 C 
ENDROOT
BRANCH   1   2
ATOM      2  C   UNL     1     100.031  88.334  86.006  1.00  0.00     0.006 C 
BRANCH   2   3
ATOM      3  C   UNL     1      99.607  88.140  87.467  1.00  0.00     0.053 C 
BRANCH   3   4
ATOM      4  C   UNL     1     100.810  88.047  88.351  1.00  0.00     0.041 C 
ATOM      5  O   UNL     1     101.938  88.412  87.928  1.00  0.00    -0.550 OA
ATOM      6  O   UNL     1     100.694  87.510  89.627  1.00  0.00    -0.550 OA
ENDBRANCH   3   4
ENDBRANCH   2   3
ENDBRANCH   1   2
BRANCH   1   7
ATOM      7  C   UNL     1     100.606  90.797  85.616  1.00  0.00     0.000 C 
BRANCH   7   8
ATOM      8  C   UNL     1      99.976  92.115  86.096  1.00  0.00    -0.000 C 
BRANCH   8   9
ATOM      9  C   UNL     1      98.954  91.904  87.227  1.00  0.00    -0.000 C 
BRANCH   9  10
ATOM     10  C   UNL     1      99.520  92.274  88.607  1.00  0.00    -0.003 C 
ATOM     11  C   UNL     1      99.297  91.183  89.653  1.00  0.00     0.004 C 
ENDBRANCH   9  10
ENDBRANCH   8   9
ENDBRANCH   7   8
ENDBRANCH   1   7
TORSDOF 7
ENDMDL
MODEL 3
REMARK VINA RESULT:    -4.036      1.655      2.782
REMARK INTER + INTRA:          -6.285
REMARK INTER:                  -5.655
REMARK INTRA:                  -0.630
REMARK UNBOUND:                -0.597
REMARK SMILES CCCCCCCCC(=O)[O-]
REMARK SMILES IDX 6 1 7 2 8 3 9 4 10 5 11 6 5 7 4 8 3 9 2 10 1 11
REMARK H PARENT
REMARK Flexibility Score: inf
ROOT
ATOM      1  C   UNL     1      99.431  90.047  84.890  1.00  0.00     0.000 C 
ENDROOT
BRANCH   1   2
ATOM      2  C   UNL     1      98.731  91.234  85.571  1.00  0.00     0.006 C 
BRANCH   2   3
ATOM      3  C   UNL     1      99.699  92.113  86.371  1.00  0.00     0.053 C 
BRANCH   3   4
ATOM      4  C   UNL     1      99.121  92.442  87.711  1.00  0.00     0.041 C 
ATOM      5  O   UNL     1      99.849  92.421  88.737  1.00  0.00    -0.550 OA
ATOM      6  O   UNL     1      97.766  92.723  87.833  1.00  0.00    -0.550 OA
ENDBRANCH   3   4
ENDBRANCH   2   3
ENDBRANCH   1   2
BRANCH   1   7
ATOM      7  C   UNL     1     100.580  89.473  85.738  1.00  0.00     0.000 C 
BRANCH   7   8
ATOM      8  C   UNL     1     100.369  87.991  86.093  1.00  0.00    -0.000 C 
BRANCH   8   9
ATOM      9  C   UNL     1      99.436  87.800  87.301  1.00  0.00    -0.000 C 
BRANCH   9  10
ATOM     10  C   UNL     1      99.741  88.784  88.442  1.00  0.00    -0.003 C 
ATOM     11  C   UNL     1     100.770  88.243  89.434  1.00  0.00     0.004 C 
ENDBRANCH   9  10
ENDBRANCH   8   9
ENDBRANCH   7   8
ENDBRANCH   1   7
TORSDOF 7
ENDMDL
MODEL 4
REMARK VINA RESULT:    -4.019      1.233      2.987
REMARK INTER + INTRA:          -6.260
REMARK INTER:                  -5.535
REMARK INTRA:                  -0.726
REMARK UNBOUND:                -0.597
REMARK SMILES CCCCCCCCC(=O)[O-]
REMARK SMILES IDX 6 1 7 2 8 3 9 4 10 5 11 6 5 7 4 8 3 9 2 10 1 11
REMARK H PARENT
REMARK Flexibility Score: inf
ROOT
ATOM      1  C   UNL     1      99.459  88.240  87.399  1.00  0.00     0.000 C 
ENDROOT
BRANCH   1   2
ATOM      2  C   UNL     1     100.212  88.665  88.670  1.00  0.00     0.006 C 
BRANCH   2   3
ATOM      3  C   UNL     1      99.608  89.913  89.327  1.00  0.00     0.053 C 
BRANCH   3   4
ATOM      4  C   UNL     1      99.632  89.781  90.817  1.00  0.00     0.041 C 
ATOM      5  O   UNL     1     100.234  88.816  91.358  1.00  0.00    -0.550 OA
ATOM      6  O   UNL     1      98.947  90.695  91.607  1.00  0.00    -0.550 OA
ENDBRANCH   3   4
ENDBRANCH   2   3
ENDBRANCH   1   2
BRANCH   1   7
ATOM      7  C   UNL     1     100.305  88.415  86.126  1.00  0.00     0.000 C 
BRANCH   7   8
ATOM      8  C   UNL     1      99.914  89.670  85.326  1.00  0.00    -0.000 C 
BRANCH   8   9
ATOM      9  C   UNL     1     100.764  90.898  85.700  1.00  0.00    -0.000 C 
BRANCH   9  10
ATOM     10  C   UNL     1      99.907  92.087  86.162  1.00  0.00    -0.003 C 
ATOM     11  C   UNL     1      98.415  91.760  86.214  1.00  0.00     0.004 C 
ENDBRANCH   9  10
ENDBRANCH   8   9
ENDBRANCH   7   8
ENDBRANCH   1   7
TORSDOF 7
ENDMDL
MODEL 5
REMARK VINA RESULT:    -4.016      1.349      2.604
REMARK INTER + INTRA:          -6.257
REMARK INTER:                  -5.754
REMARK INTRA:                  -0.503
REMARK UNBOUND:                -0.597
REMARK SMILES CCCCCCCCC(=O)[O-]
REMARK SMILES IDX 6 1 7 2 8 3 9 4 10 5 11 6 5 7 4 8 3 9 2 10 1 11
REMARK H PARENT
REMARK Flexibility Score: inf
ROOT
ATOM      1  C   UNL     1      99.562  92.059  88.973  1.00  0.00     0.000 C 
ENDROOT
BRANCH   1   2
ATOM      2  C   UNL     1      99.235  90.632  89.443  1.00  0.00     0.006 C 
BRANCH   2   3
ATOM      3  C   UNL     1      98.265  90.607  90.630  1.00  0.00     0.053 C 
BRANCH   3   4
ATOM      4  C   UNL     1      98.968  90.153  91.869  1.00  0.00     0.041 C 
ATOM      5  O   UNL     1      99.845  89.252  91.806  1.00  0.00    -0.550 OA
ATOM      6  O   UNL     1      98.621  90.691  93.102  1.00  0.00    -0.550 OA
ENDBRANCH   3   4
ENDBRANCH   2   3
ENDBRANCH   1   2
BRANCH   1   7
ATOM      7  C   UNL     1      98.786  92.456  87.704  1.00  0.00     0.000 C 
BRANCH   7   8
ATOM      8  C   UNL     1      99.496  92.010  86.415  1.00  0.00    -0.000 C 
BRANCH   8   9
ATOM      9  C   UNL     1      98.634  91.062  85.563  1.00  0.00    -0.000 C 
BRANCH   9  10
ATOM     10  C   UNL     1      99.355  89.745  85.237  1.00  0.00    -0.003 C 
ATOM     11  C   UNL     1     100.613  89.532  86.077  1.00  0.00     0.004 C 
ENDBRANCH   9  10
ENDBRANCH   8   9
ENDBRANCH   7   8
ENDBRANCH   1   7
TORSDOF 7
ENDMDL
MODEL 6
REMARK VINA RESULT:    -3.902     12.117     13.037
REMARK INTER + INTRA:          -6.095
REMARK INTER:                  -5.627
REMARK INTRA:                  -0.468
REMARK UNBOUND:                -0.597
REMARK SMILES CCCCCCCCC(=O)[O-]
REMARK SMILES IDX 6 1 7 2 8 3 9 4 10 5 11 6 5 7 4 8 3 9 2 10 1 11
REMARK H PARENT
REMARK Flexibility Score: inf
ROOT
ATOM      1  C   UNL     1     105.584  97.058  96.385  1.00  0.00     0.000 C 
ENDROOT
BRANCH   1   2
ATOM      2  C   UNL     1     105.131  97.613  95.025  1.00  0.00     0.006 C 
BRANCH   2   3
ATOM      3  C   UNL     1     103.758  98.293  95.091  1.00  0.00     0.053 C 
BRANCH   3   4
ATOM      4  C   UNL     1     103.879  99.746  94.753  1.00  0.00     0.041 C 
ATOM      5  O   UNL     1     104.959 100.357  94.965  1.00  0.00    -0.550 OA
ATOM      6  O   UNL     1     102.784 100.436  94.249  1.00  0.00    -0.550 OA
ENDBRANCH   3   4
ENDBRANCH   2   3
ENDBRANCH   1   2
BRANCH   1   7
ATOM      7  C   UNL     1     104.445  97.024  97.418  1.00  0.00     0.000 C 
BRANCH   7   8
ATOM      8  C   UNL     1     104.218  95.619  98.002  1.00  0.00    -0.000 C 
BRANCH   8   9
ATOM      9  C   UNL     1     102.963  95.543  98.889  1.00  0.00    -0.000 C 
BRANCH   9  10
ATOM     10  C   UNL     1     102.052  96.770  98.725  1.00  0.00    -0.003 C 
ATOM     11  C   UNL     1     100.697  96.426  98.108  1.00  0.00     0.004 C 
ENDBRANCH   9  10
ENDBRANCH   8   9
ENDBRANCH   7   8
ENDBRANCH   1   7
TORSDOF 7
ENDMDL
MODEL 7
REMARK VINA RESULT:    -3.816      2.366      4.744
REMARK INTER + INTRA:          -5.975
REMARK INTER:                  -5.415
REMARK INTRA:                  -0.560
REMARK UNBOUND:                -0.597
REMARK SMILES CCCCCCCCC(=O)[O-]
REMARK SMILES IDX 6 1 7 2 8 3 9 4 10 5 11 6 5 7 4 8 3 9 2 10 1 11
REMARK H PARENT
REMARK Flexibility Score: inf
ROOT
ATOM      1  C   UNL     1      99.313  88.804  87.493  1.00  0.00     0.000 C 
ENDROOT
BRANCH   1   2
ATOM      2  C   UNL     1     100.060  88.628  86.161  1.00  0.00     0.006 C 
BRANCH   2   3
ATOM      3  C   UNL     1      99.504  89.523  85.047  1.00  0.00     0.053 C 
BRANCH   3   4
ATOM      4  C   UNL     1      99.957  90.936  85.238  1.00  0.00     0.041 C 
ATOM      5  O   UNL     1     101.123  91.177  85.649  1.00  0.00    -0.550 OA
ATOM      6  O   UNL     1      99.077  91.985  85.009  1.00  0.00    -0.550 OA
ENDBRANCH   3   4
ENDBRANCH   2   3
ENDBRANCH   1   2
BRANCH   1   7
ATOM      7  C   UNL     1     100.206  89.396  88.597  1.00  0.00     0.000 C 
BRANCH   7   8
ATOM      8  C   UNL     1      99.426  89.702  89.887  1.00  0.00    -0.000 C 
BRANCH   8   9
ATOM      9  C   UNL     1      98.799  91.107  89.879  1.00  0.00    -0.000 C 
BRANCH   9  10
ATOM     10  C   UNL     1      99.567  92.089  88.981  1.00  0.00    -0.003 C 
ATOM     11  C   UNL     1      98.649  93.061  88.242  1.00  0.00     0.004 C 
ENDBRANCH   9  10
ENDBRANCH   8   9
ENDBRANCH   7   8
ENDBRANCH   1   7
TORSDOF 7
ENDMDL
MODEL 8
REMARK VINA RESULT:    -3.806      2.206      4.328
REMARK INTER + INTRA:          -5.961
REMARK INTER:                  -5.574
REMARK INTRA:                  -0.387
REMARK UNBOUND:                -0.597
REMARK SMILES CCCCCCCCC(=O)[O-]
REMARK SMILES IDX 6 1 7 2 8 3 9 4 10 5 11 6 5 7 4 8 3 9 2 10 1 11
REMARK H PARENT
REMARK Flexibility Score: inf
ROOT
ATOM      1  C   UNL     1     100.322  88.573  86.188  1.00  0.00     0.000 C 
ENDROOT
BRANCH   1   2
ATOM      2  C   UNL     1      99.292  89.507  85.533  1.00  0.00     0.006 C 
BRANCH   2   3
ATOM      3  C   UNL     1      99.936  90.746  84.898  1.00  0.00     0.053 C 
BRANCH   3   4
ATOM      4  C   UNL     1     100.639  91.560  85.938  1.00  0.00     0.041 C 
ATOM      5  O   UNL     1     101.894  91.658  85.924  1.00  0.00    -0.550 OA
ATOM      6  O   UNL     1      99.913  92.169  86.953  1.00  0.00    -0.550 OA
ENDBRANCH   3   4
ENDBRANCH   2   3
ENDBRANCH   1   2
BRANCH   1   7
ATOM      7  C   UNL     1      99.771  87.873  87.443  1.00  0.00     0.000 C 
BRANCH   7   8
ATOM      8  C   UNL     1     100.389  88.418  88.741  1.00  0.00    -0.000 C 
BRANCH   8   9
ATOM      9  C   UNL     1      99.639  89.648  89.283  1.00  0.00    -0.000 C 
BRANCH   9  10
ATOM     10  C   UNL     1      99.686  89.737  90.816  1.00  0.00    -0.003 C 
ATOM     11  C   UNL     1      98.380  90.251  91.421  1.00  0.00     0.004 C 
ENDBRANCH   9  10
ENDBRANCH   8   9
ENDBRANCH   7   8
ENDBRANCH   1   7
TORSDOF 7
ENDMDL
MODEL 9
REMARK VINA RESULT:    -3.770     10.779     12.734
REMARK INTER + INTRA:          -5.910
REMARK INTER:                  -5.511
REMARK INTRA:                  -0.398
REMARK UNBOUND:                -0.597
REMARK SMILES CCCCCCCCC(=O)[O-]
REMARK SMILES IDX 6 1 7 2 8 3 9 4 10 5 11 6 5 7 4 8 3 9 2 10 1 11
REMARK H PARENT
REMARK Flexibility Score: inf
ROOT
ATOM      1  C   UNL     1     104.065  95.587  98.047  1.00  0.00     0.000 C 
ENDROOT
BRANCH   1   2
ATOM      2  C   UNL     1     104.328  97.006  97.517  1.00  0.00     0.006 C 
BRANCH   2   3
ATOM      3  C   UNL     1     105.232  97.018  96.278  1.00  0.00     0.053 C 
BRANCH   3   4
ATOM      4  C   UNL     1     104.852  98.142  95.366  1.00  0.00     0.041 C 
ATOM      5  O   UNL     1     105.715  98.985  95.007  1.00  0.00    -0.550 OA
ATOM      6  O   UNL     1     103.535  98.286  94.951  1.00  0.00    -0.550 OA
ENDBRANCH   3   4
ENDBRANCH   2   3
ENDBRANCH   1   2
BRANCH   1   7
ATOM      7  C   UNL     1     102.848  95.524  98.986  1.00  0.00     0.000 C 
BRANCH   7   8
ATOM      8  C   UNL     1     101.859  96.677  98.749  1.00  0.00    -0.000 C 
BRANCH   8   9
ATOM      9  C   UNL     1     100.602  96.230  97.982  1.00  0.00    -0.000 C 
BRANCH   9  10
ATOM     10  C   UNL     1     100.364  97.060  96.711  1.00  0.00    -0.003 C 
ATOM     11  C   UNL     1      99.378  96.401  95.746  1.00  0.00     0.004 C 
ENDBRANCH   9  10
ENDBRANCH   8   9
ENDBRANCH   7   8
ENDBRANCH   1   7
TORSDOF 7
ENDMDL
