MODEL 1
REMARK VINA RESULT:    -4.802      0.000      0.000
REMARK INTER + INTRA:          -5.849
REMARK INTER:                  -5.504
REMARK INTRA:                  -0.345
REMARK UNBOUND:                -0.345
REMARK SMILES COc1ccc(C(C)=O)c(O)c1
REMARK SMILES IDX 6 1 10 2 12 3 3 4 4 5 5 6 7 7 8 8 9 9 11 10 2 12 1 13
REMARK H PARENT 11 11
REMARK Flexibility Score: inf
ROOT
ATOM      1  C   UNL     1     -12.813   1.499  -9.688  1.00  0.00     0.059 A 
ATOM      2  C   UNL     1     -11.860   0.453  -9.648  1.00  0.00     0.130 A 
ATOM      3  C   UNL     1     -12.281  -0.877  -9.778  1.00  0.00     0.093 A 
ATOM      4  C   UNL     1     -13.636  -1.188  -9.982  1.00  0.00     0.122 A 
ATOM      5  C   UNL     1     -14.569  -0.150 -10.051  1.00  0.00     0.047 A 
ATOM      6  C   UNL     1     -14.165   1.179  -9.906  1.00  0.00     0.019 A 
ENDROOT
BRANCH   1   7
ATOM      7  C   UNL     1     -12.435   2.916  -9.471  1.00  0.00     0.163 C 
ATOM      8  C   UNL     1     -13.158   3.765  -8.471  1.00  0.00     0.093 C 
ATOM      9  O   UNL     1     -11.440   3.401 -10.073  1.00  0.00    -0.294 OA
ENDBRANCH   1   7
BRANCH   2  10
ATOM     10  O   UNL     1     -10.491   0.692  -9.511  1.00  0.00    -0.507 OA
ATOM     11  H   UNL     1     -10.055   1.574  -9.744  1.00  0.00     0.293 HD
ENDBRANCH   2  10
BRANCH   4  12
ATOM     12  O   UNL     1     -14.095  -2.506 -10.124  1.00  0.00    -0.497 OA
ATOM     13  C   UNL     1     -15.188  -3.060  -9.400  1.00  0.00     0.278 C 
ENDBRANCH   4  12
TORSDOF 3
ENDMDL
MODEL 2
REMARK VINA RESULT:    -4.732     16.058     17.355
REMARK INTER + INTRA:          -5.769
REMARK INTER:                  -5.454
REMARK INTRA:                  -0.314
REMARK UNBOUND:                -0.345
REMARK SMILES COc1ccc(C(C)=O)c(O)c1
REMARK SMILES IDX 6 1 10 2 12 3 3 4 4 5 5 6 7 7 8 8 9 9 11 10 2 12 1 13
REMARK H PARENT 11 11
REMARK Flexibility Score: inf
ROOT
ATOM      1  C   UNL     1     -10.582   4.880   6.272  1.00  0.00     0.059 A 
ATOM      2  C   UNL     1     -11.250   3.638   6.140  1.00  0.00     0.130 A 
ATOM      3  C   UNL     1     -11.762   3.000   7.278  1.00  0.00     0.093 A 
ATOM      4  C   UNL     1     -11.650   3.592   8.548  1.00  0.00     0.122 A 
ATOM      5  C   UNL     1     -11.016   4.831   8.667  1.00  0.00     0.047 A 
ATOM      6  C   UNL     1     -10.487   5.470   7.544  1.00  0.00     0.019 A 
ENDROOT
BRANCH   1   7
ATOM      7  C   UNL     1      -9.947   5.557   5.115  1.00  0.00     0.163 C 
ATOM      8  C   UNL     1      -9.635   7.021   5.151  1.00  0.00     0.093 C 
ATOM      9  O   UNL     1      -9.587   4.884   4.113  1.00  0.00    -0.294 OA
ENDBRANCH   1   7
BRANCH   2  10
ATOM     10  O   UNL     1     -11.453   3.024   4.903  1.00  0.00    -0.507 OA
ATOM     11  H   UNL     1     -12.166   2.327   4.738  1.00  0.00     0.293 HD
ENDBRANCH   2  10
BRANCH   4  12
ATOM     12  O   UNL     1     -12.155   2.988   9.709  1.00  0.00    -0.497 OA
ATOM     13  C   UNL     1     -12.383   1.590   9.855  1.00  0.00     0.278 C 
ENDBRANCH   4  12
TORSDOF 3
ENDMDL
MODEL 3
REMARK VINA RESULT:    -4.695      1.548      2.007
REMARK INTER + INTRA:          -5.726
REMARK INTER:                  -5.396
REMARK INTRA:                  -0.329
REMARK UNBOUND:                -0.345
REMARK SMILES COc1ccc(C(C)=O)c(O)c1
REMARK SMILES IDX 6 1 10 2 12 3 3 4 4 5 5 6 7 7 8 8 9 9 11 10 2 12 1 13
REMARK H PARENT 11 11
REMARK Flexibility Score: inf
ROOT
ATOM      1  C   UNL     1     -12.408   1.781  -9.515  1.00  0.00     0.059 A 
ATOM      2  C   UNL     1     -11.052   1.373  -9.557  1.00  0.00     0.130 A 
ATOM      3  C   UNL     1     -10.738   0.019  -9.737  1.00  0.00     0.093 A 
ATOM      4  C   UNL     1     -11.751  -0.939  -9.910  1.00  0.00     0.122 A 
ATOM      5  C   UNL     1     -13.086  -0.527  -9.897  1.00  0.00     0.047 A 
ATOM      6  C   UNL     1     -13.414   0.816  -9.702  1.00  0.00     0.019 A 
ENDROOT
BRANCH   1   7
ATOM      7  C   UNL     1     -12.799   3.185  -9.243  1.00  0.00     0.163 C 
ATOM      8  C   UNL     1     -13.566   3.549  -8.009  1.00  0.00     0.093 C 
ATOM      9  O   UNL     1     -12.416   4.105 -10.014  1.00  0.00    -0.294 OA
ENDBRANCH   1   7
BRANCH   2  10
ATOM     10  O   UNL     1      -9.995   2.280  -9.455  1.00  0.00    -0.507 OA
ATOM     11  H   UNL     1      -9.741   2.743  -8.594  1.00  0.00     0.293 HD
ENDBRANCH   2  10
BRANCH   4  12
ATOM     12  O   UNL     1     -11.476  -2.301 -10.099  1.00  0.00    -0.497 OA
ATOM     13  C   UNL     1     -10.223  -2.915  -9.822  1.00  0.00     0.278 C 
ENDBRANCH   4  12
TORSDOF 3
ENDMDL
MODEL 4
REMARK VINA RESULT:    -4.613     15.971     17.638
REMARK INTER + INTRA:          -5.632
REMARK INTER:                  -5.323
REMARK INTRA:                  -0.309
REMARK UNBOUND:                -0.345
REMARK SMILES COc1ccc(C(C)=O)c(O)c1
REMARK SMILES IDX 6 1 10 2 12 3 3 4 4 5 5 6 7 7 8 8 9 9 11 10 2 12 1 13
REMARK H PARENT 11 11
REMARK Flexibility Score: inf
ROOT
ATOM      1  C   UNL     1     -11.407   3.781   7.662  1.00  0.00     0.059 A 
ATOM      2  C   UNL     1     -11.677   3.416   6.320  1.00  0.00     0.130 A 
ATOM      3  C   UNL     1     -11.145   4.178   5.272  1.00  0.00     0.093 A 
ATOM      4  C   UNL     1     -10.319   5.284   5.532  1.00  0.00     0.122 A 
ATOM      5  C   UNL     1     -10.032   5.622   6.857  1.00  0.00     0.047 A 
ATOM      6  C   UNL     1     -10.568   4.881   7.912  1.00  0.00     0.019 A 
ENDROOT
BRANCH   1   7
ATOM      7  C   UNL     1     -12.012   3.062   8.809  1.00  0.00     0.163 C 
ATOM      8  C   UNL     1     -12.227   3.746  10.124  1.00  0.00     0.093 C 
ATOM      9  O   UNL     1     -12.428   1.882   8.662  1.00  0.00    -0.294 OA
ENDBRANCH   1   7
BRANCH   2  10
ATOM     10  O   UNL     1     -12.437   2.292   5.989  1.00  0.00    -0.507 OA
ATOM     11  H   UNL     1     -12.080   1.520   5.443  1.00  0.00     0.293 HD
ENDBRANCH   2  10
BRANCH   4  12
ATOM     12  O   UNL     1      -9.763   6.067   4.509  1.00  0.00    -0.497 OA
ATOM     13  C   UNL     1      -9.322   7.411   4.673  1.00  0.00     0.278 C 
ENDBRANCH   4  12
TORSDOF 3
ENDMDL
MODEL 5
REMARK VINA RESULT:    -4.254     16.612     17.512
REMARK INTER + INTRA:          -5.220
REMARK INTER:                  -4.893
REMARK INTRA:                  -0.326
REMARK UNBOUND:                -0.345
REMARK SMILES COc1ccc(C(C)=O)c(O)c1
REMARK SMILES IDX 6 1 10 2 12 3 3 4 4 5 5 6 7 7 8 8 9 9 11 10 2 12 1 13
REMARK H PARENT 11 11
REMARK Flexibility Score: inf
ROOT
ATOM      1  C   UNL     1     -11.739   4.635   6.647  1.00  0.00     0.059 A 
ATOM      2  C   UNL     1     -12.416   5.705   6.012  1.00  0.00     0.130 A 
ATOM      3  C   UNL     1     -11.688   6.800   5.530  1.00  0.00     0.093 A 
ATOM      4  C   UNL     1     -10.287   6.838   5.637  1.00  0.00     0.122 A 
ATOM      5  C   UNL     1      -9.622   5.766   6.237  1.00  0.00     0.047 A 
ATOM      6  C   UNL     1     -10.336   4.676   6.738  1.00  0.00     0.019 A 
ENDROOT
BRANCH   1   7
ATOM      7  C   UNL     1     -12.466   3.493   7.251  1.00  0.00     0.163 C 
ATOM      8  C   UNL     1     -12.020   2.890   8.548  1.00  0.00     0.093 C 
ATOM      9  O   UNL     1     -13.523   3.066   6.715  1.00  0.00    -0.294 OA
ENDBRANCH   1   7
BRANCH   2  10
ATOM     10  O   UNL     1     -13.799   5.704   5.816  1.00  0.00    -0.507 OA
ATOM     11  H   UNL     1     -14.459   5.372   6.506  1.00  0.00     0.293 HD
ENDBRANCH   2  10
BRANCH   4  12
ATOM     12  O   UNL     1      -9.523   7.913   5.160  1.00  0.00    -0.497 OA
ATOM     13  C   UNL     1      -9.902   9.281   5.271  1.00  0.00     0.278 C 
ENDBRANCH   4  12
TORSDOF 3
ENDMDL
MODEL 6
REMARK VINA RESULT:    -4.211     16.674     17.423
REMARK INTER + INTRA:          -5.171
REMARK INTER:                  -4.835
REMARK INTRA:                  -0.336
REMARK UNBOUND:                -0.345
REMARK SMILES COc1ccc(C(C)=O)c(O)c1
REMARK SMILES IDX 6 1 10 2 12 3 3 4 4 5 5 6 7 7 8 8 9 9 11 10 2 12 1 13
REMARK H PARENT 11 11
REMARK Flexibility Score: inf
ROOT
ATOM      1  C   UNL     1     -11.887   5.777   6.412  1.00  0.00     0.059 A 
ATOM      2  C   UNL     1     -10.901   5.280   7.298  1.00  0.00     0.130 A 
ATOM      3  C   UNL     1     -11.100   4.051   7.941  1.00  0.00     0.093 A 
ATOM      4  C   UNL     1     -12.252   3.286   7.692  1.00  0.00     0.122 A 
ATOM      5  C   UNL     1     -13.207   3.767   6.794  1.00  0.00     0.047 A 
ATOM      6  C   UNL     1     -13.031   4.998   6.159  1.00  0.00     0.019 A 
ENDROOT
BRANCH   1   7
ATOM      7  C   UNL     1     -11.769   7.109   5.771  1.00  0.00     0.163 C 
ATOM      8  C   UNL     1     -12.930   8.055   5.732  1.00  0.00     0.093 C 
ATOM      9  O   UNL     1     -10.657   7.494   5.321  1.00  0.00    -0.294 OA
ENDBRANCH   1   7
BRANCH   2  10
ATOM     10  O   UNL     1      -9.705   5.958   7.542  1.00  0.00    -0.507 OA
ATOM     11  H   UNL     1      -9.096   6.294   6.808  1.00  0.00     0.293 HD
ENDBRANCH   2  10
BRANCH   4  12
ATOM     12  O   UNL     1     -12.483   2.048   8.310  1.00  0.00    -0.497 OA
ATOM     13  C   UNL     1     -12.376   1.815   9.711  1.00  0.00     0.278 C 
ENDBRANCH   4  12
TORSDOF 3
ENDMDL
MODEL 7
REMARK VINA RESULT:    -4.209     17.566     20.069
REMARK INTER + INTRA:          -5.169
REMARK INTER:                  -4.830
REMARK INTRA:                  -0.339
REMARK UNBOUND:                -0.345
REMARK SMILES COc1ccc(C(C)=O)c(O)c1
REMARK SMILES IDX 6 1 10 2 12 3 3 4 4 5 5 6 7 7 8 8 9 9 11 10 2 12 1 13
REMARK H PARENT 11 11
REMARK Flexibility Score: inf
ROOT
ATOM      1  C   UNL     1      -8.741   9.733   5.789  1.00  0.00     0.059 A 
ATOM      2  C   UNL     1      -9.206  10.650   6.762  1.00  0.00     0.130 A 
ATOM      3  C   UNL     1      -8.287  11.408   7.499  1.00  0.00     0.093 A 
ATOM      4  C   UNL     1      -6.906  11.296   7.261  1.00  0.00     0.122 A 
ATOM      5  C   UNL     1      -6.455  10.411   6.279  1.00  0.00     0.047 A 
ATOM      6  C   UNL     1      -7.359   9.637   5.549  1.00  0.00     0.019 A 
ENDROOT
BRANCH   1   7
ATOM      7  C   UNL     1      -9.664   8.844   5.042  1.00  0.00     0.163 C 
ATOM      8  C   UNL     1      -9.381   7.380   4.897  1.00  0.00     0.093 C 
ATOM      9  O   UNL     1     -10.746   9.301   4.586  1.00  0.00    -0.294 OA
ENDBRANCH   1   7
BRANCH   2  10
ATOM     10  O   UNL     1     -10.566  10.858   7.006  1.00  0.00    -0.507 OA
ATOM     11  H   UNL     1     -11.245  11.009   6.272  1.00  0.00     0.293 HD
ENDBRANCH   2  10
BRANCH   4  12
ATOM     12  O   UNL     1      -5.956  12.043   7.973  1.00  0.00    -0.497 OA
ATOM     13  C   UNL     1      -6.055  12.365   9.356  1.00  0.00     0.278 C 
ENDBRANCH   4  12
TORSDOF 3
ENDMDL
MODEL 8
REMARK VINA RESULT:    -4.191     15.799     16.645
REMARK INTER + INTRA:          -5.148
REMARK INTER:                  -4.822
REMARK INTRA:                  -0.326
REMARK UNBOUND:                -0.345
REMARK SMILES COc1ccc(C(C)=O)c(O)c1
REMARK SMILES IDX 6 1 10 2 12 3 3 4 4 5 5 6 7 7 8 8 9 9 11 10 2 12 1 13
REMARK H PARENT 11 11
REMARK Flexibility Score: inf
ROOT
ATOM      1  C   UNL     1     -10.326   7.623   5.275  1.00  0.00     0.059 A 
ATOM      2  C   UNL     1     -11.614   7.339   5.791  1.00  0.00     0.130 A 
ATOM      3  C   UNL     1     -12.074   6.015   5.821  1.00  0.00     0.093 A 
ATOM      4  C   UNL     1     -11.260   4.959   5.376  1.00  0.00     0.122 A 
ATOM      5  C   UNL     1      -9.980   5.243   4.896  1.00  0.00     0.047 A 
ATOM      6  C   UNL     1      -9.514   6.558   4.845  1.00  0.00     0.019 A 
ENDROOT
BRANCH   1   7
ATOM      7  C   UNL     1      -9.822   9.011   5.140  1.00  0.00     0.163 C 
ATOM      8  C   UNL     1      -8.354   9.308   5.163  1.00  0.00     0.093 C 
ATOM      9  O   UNL     1     -10.629   9.954   4.923  1.00  0.00    -0.294 OA
ENDBRANCH   1   7
BRANCH   2  10
ATOM     10  O   UNL     1     -12.449   8.331   6.307  1.00  0.00    -0.507 OA
ATOM     11  H   UNL     1     -12.258   9.320   6.220  1.00  0.00     0.293 HD
ENDBRANCH   2  10
BRANCH   4  12
ATOM     12  O   UNL     1     -11.683   3.622   5.397  1.00  0.00    -0.497 OA
ATOM     13  C   UNL     1     -12.381   3.015   6.479  1.00  0.00     0.278 C 
ENDBRANCH   4  12
TORSDOF 3
ENDMDL
MODEL 9
REMARK VINA RESULT:    -3.993      5.447      6.385
REMARK INTER + INTRA:          -4.922
REMARK INTER:                  -4.604
REMARK INTRA:                  -0.318
REMARK UNBOUND:                -0.345
REMARK SMILES COc1ccc(C(C)=O)c(O)c1
REMARK SMILES IDX 6 1 10 2 12 3 3 4 4 5 5 6 7 7 8 8 9 9 11 10 2 12 1 13
REMARK H PARENT 11 11
REMARK Flexibility Score: inf
ROOT
ATOM      1  C   UNL     1     -10.138  -4.603  -9.305  1.00  0.00     0.059 A 
ATOM      2  C   UNL     1     -10.006  -5.525  -8.239  1.00  0.00     0.130 A 
ATOM      3  C   UNL     1     -11.084  -6.354  -7.899  1.00  0.00     0.093 A 
ATOM      4  C   UNL     1     -12.286  -6.306  -8.624  1.00  0.00     0.122 A 
ATOM      5  C   UNL     1     -12.400  -5.415  -9.694  1.00  0.00     0.047 A 
ATOM      6  C   UNL     1     -11.341  -4.572 -10.033  1.00  0.00     0.019 A 
ENDROOT
BRANCH   1   7
ATOM      7  C   UNL     1      -9.062  -3.644  -9.653  1.00  0.00     0.163 C 
ATOM      8  C   UNL     1      -9.382  -2.258 -10.125  1.00  0.00     0.093 C 
ATOM      9  O   UNL     1      -7.856  -3.961  -9.476  1.00  0.00    -0.294 OA
ENDBRANCH   1   7
BRANCH   2  10
ATOM     10  O   UNL     1      -8.819  -5.670  -7.517  1.00  0.00    -0.507 OA
ATOM     11  H   UNL     1      -8.060  -5.003  -7.556  1.00  0.00     0.293 HD
ENDBRANCH   2  10
BRANCH   4  12
ATOM     12  O   UNL     1     -13.384  -7.124  -8.318  1.00  0.00    -0.497 OA
ATOM     13  C   UNL     1     -14.474  -6.733  -7.491  1.00  0.00     0.278 C 
ENDBRANCH   4  12
TORSDOF 3
ENDMDL
