MODEL 1
REMARK VINA RESULT:    -4.711      0.000      0.000
REMARK INTER + INTRA:          -5.348
REMARK INTER:                  -5.262
REMARK INTRA:                  -0.086
REMARK UNBOUND:                -0.086
REMARK SMILES CCc1ccc(O)cc1O
REMARK SMILES IDX 3 1 9 2 8 3 6 4 5 5 4 6 2 7 1 8 10 9 7 11
REMARK H PARENT 10 10 7 12
REMARK Flexibility Score: inf
ROOT
ATOM      1  C   UNL     1     -29.598  -9.862   3.751  1.00  0.00    -0.006 A 
ATOM      2  C   UNL     1     -30.285  -9.821   2.522  1.00  0.00     0.122 A 
ATOM      3  C   UNL     1     -29.823 -10.583   1.438  1.00  0.00     0.092 A 
ATOM      4  C   UNL     1     -28.691 -11.392   1.572  1.00  0.00     0.119 A 
ATOM      5  C   UNL     1     -28.016 -11.444   2.797  1.00  0.00     0.047 A 
ATOM      6  C   UNL     1     -28.469 -10.689   3.882  1.00  0.00     0.011 A 
ENDROOT
BRANCH   1   7
ATOM      7  C   UNL     1     -30.090  -9.078   4.942  1.00  0.00     0.036 C 
ATOM      8  C   UNL     1     -29.452  -9.591   6.228  1.00  0.00     0.009 C 
ENDBRANCH   1   7
BRANCH   2   9
ATOM      9  O   UNL     1     -31.423  -9.028   2.380  1.00  0.00    -0.508 OA
ATOM     10  H   UNL     1     -31.871  -8.592   3.178  1.00  0.00     0.293 HD
ENDBRANCH   2   9
BRANCH   4  11
ATOM     11  O   UNL     1     -28.248 -12.141   0.484  1.00  0.00    -0.508 OA
ATOM     12  H   UNL     1     -28.877 -12.410  -0.263  1.00  0.00     0.293 HD
ENDBRANCH   4  11
TORSDOF 3
ENDMDL
MODEL 2
REMARK VINA RESULT:    -4.683      1.743      3.035
REMARK INTER + INTRA:          -5.316
REMARK INTER:                  -5.231
REMARK INTRA:                  -0.085
REMARK UNBOUND:                -0.086
REMARK SMILES CCc1ccc(O)cc1O
REMARK SMILES IDX 3 1 9 2 8 3 6 4 5 5 4 6 2 7 1 8 10 9 7 11
REMARK H PARENT 10 10 7 12
REMARK Flexibility Score: inf
ROOT
ATOM      1  C   UNL     1     -30.085  -9.762   2.556  1.00  0.00    -0.006 A 
ATOM      2  C   UNL     1     -29.759  -9.767   3.927  1.00  0.00     0.122 A 
ATOM      3  C   UNL     1     -28.622 -10.461   4.371  1.00  0.00     0.092 A 
ATOM      4  C   UNL     1     -27.805 -11.138   3.462  1.00  0.00     0.119 A 
ATOM      5  C   UNL     1     -28.120 -11.122   2.098  1.00  0.00     0.047 A 
ATOM      6  C   UNL     1     -29.250 -10.434   1.647  1.00  0.00     0.011 A 
ENDROOT
BRANCH   1   7
ATOM      7  C   UNL     1     -31.283  -9.001   2.046  1.00  0.00     0.036 C 
ATOM      8  C   UNL     1     -31.528  -9.303   0.571  1.00  0.00     0.009 C 
ENDBRANCH   1   7
BRANCH   2   9
ATOM      9  O   UNL     1     -30.559  -9.085   4.841  1.00  0.00    -0.508 OA
ATOM     10  H   UNL     1     -30.726  -9.444   5.775  1.00  0.00     0.293 HD
ENDBRANCH   2   9
BRANCH   4  11
ATOM     11  O   UNL     1     -26.681 -11.820   3.923  1.00  0.00    -0.508 OA
ATOM     12  H   UNL     1     -26.471 -11.885   4.912  1.00  0.00     0.293 HD
ENDBRANCH   4  11
TORSDOF 3
ENDMDL
MODEL 3
REMARK VINA RESULT:    -4.540      1.718      3.683
REMARK INTER + INTRA:          -5.157
REMARK INTER:                  -5.058
REMARK INTRA:                  -0.099
REMARK UNBOUND:                -0.086
REMARK SMILES CCc1ccc(O)cc1O
REMARK SMILES IDX 3 1 9 2 8 3 6 4 5 5 4 6 2 7 1 8 10 9 7 11
REMARK H PARENT 10 10 7 12
REMARK Flexibility Score: inf
ROOT
ATOM      1  C   UNL     1     -28.913 -10.523   2.400  1.00  0.00    -0.006 A 
ATOM      2  C   UNL     1     -29.954  -9.678   2.834  1.00  0.00     0.122 A 
ATOM      3  C   UNL     1     -30.139  -9.446   4.206  1.00  0.00     0.092 A 
ATOM      4  C   UNL     1     -29.291 -10.039   5.145  1.00  0.00     0.119 A 
ATOM      5  C   UNL     1     -28.247 -10.867   4.715  1.00  0.00     0.047 A 
ATOM      6  C   UNL     1     -28.056 -11.104   3.351  1.00  0.00     0.011 A 
ENDROOT
BRANCH   1   7
ATOM      7  C   UNL     1     -28.672 -10.766   0.931  1.00  0.00     0.036 C 
ATOM      8  C   UNL     1     -29.024 -12.202   0.557  1.00  0.00     0.009 C 
ENDBRANCH   1   7
BRANCH   2   9
ATOM      9  O   UNL     1     -30.799  -9.071   1.905  1.00  0.00    -0.508 OA
ATOM     10  H   UNL     1     -31.493  -9.601   1.391  1.00  0.00     0.293 HD
ENDBRANCH   2   9
BRANCH   4  11
ATOM     11  O   UNL     1     -29.491  -9.795   6.502  1.00  0.00    -0.508 OA
ATOM     12  H   UNL     1     -30.370  -9.431   6.850  1.00  0.00     0.293 HD
ENDBRANCH   4  11
TORSDOF 3
ENDMDL
MODEL 4
REMARK VINA RESULT:    -4.449      1.999      4.346
REMARK INTER + INTRA:          -5.056
REMARK INTER:                  -4.949
REMARK INTRA:                  -0.107
REMARK UNBOUND:                -0.086
REMARK SMILES CCc1ccc(O)cc1O
REMARK SMILES IDX 3 1 9 2 8 3 6 4 5 5 4 6 2 7 1 8 10 9 7 11
REMARK H PARENT 10 10 7 12
REMARK Flexibility Score: inf
ROOT
ATOM      1  C   UNL     1     -28.826 -10.596   2.653  1.00  0.00    -0.006 A 
ATOM      2  C   UNL     1     -27.938 -11.024   3.660  1.00  0.00     0.122 A 
ATOM      3  C   UNL     1     -28.215 -10.731   5.005  1.00  0.00     0.092 A 
ATOM      4  C   UNL     1     -29.372 -10.029   5.353  1.00  0.00     0.119 A 
ATOM      5  C   UNL     1     -30.262  -9.616   4.354  1.00  0.00     0.047 A 
ATOM      6  C   UNL     1     -29.993  -9.902   3.013  1.00  0.00     0.011 A 
ENDROOT
BRANCH   1   7
ATOM      7  C   UNL     1     -28.569 -10.922   1.203  1.00  0.00     0.036 C 
ATOM      8  C   UNL     1     -29.436 -12.092   0.750  1.00  0.00     0.009 C 
ENDBRANCH   1   7
BRANCH   2   9
ATOM      9  O   UNL     1     -26.788 -11.737   3.326  1.00  0.00    -0.508 OA
ATOM     10  H   UNL     1     -26.821 -12.545   2.716  1.00  0.00     0.293 HD
ENDBRANCH   2   9
BRANCH   4  11
ATOM     11  O   UNL     1     -29.630  -9.750   6.693  1.00  0.00    -0.508 OA
ATOM     12  H   UNL     1     -30.553  -9.877   7.092  1.00  0.00     0.293 HD
ENDBRANCH   4  11
TORSDOF 3
ENDMDL
MODEL 5
REMARK VINA RESULT:    -4.442      1.814      2.417
REMARK INTER + INTRA:          -5.047
REMARK INTER:                  -4.948
REMARK INTRA:                  -0.099
REMARK UNBOUND:                -0.086
REMARK SMILES CCc1ccc(O)cc1O
REMARK SMILES IDX 3 1 9 2 8 3 6 4 5 5 4 6 2 7 1 8 10 9 7 11
REMARK H PARENT 10 10 7 12
REMARK Flexibility Score: inf
ROOT
ATOM      1  C   UNL     1     -30.495  -9.932   3.401  1.00  0.00    -0.006 A 
ATOM      2  C   UNL     1     -29.740 -10.308   2.272  1.00  0.00     0.122 A 
ATOM      3  C   UNL     1     -28.466 -10.871   2.440  1.00  0.00     0.092 A 
ATOM      4  C   UNL     1     -27.943 -11.072   3.720  1.00  0.00     0.119 A 
ATOM      5  C   UNL     1     -28.698 -10.712   4.843  1.00  0.00     0.047 A 
ATOM      6  C   UNL     1     -29.967 -10.151   4.685  1.00  0.00     0.011 A 
ENDROOT
BRANCH   1   7
ATOM      7  C   UNL     1     -31.879  -9.353   3.252  1.00  0.00     0.036 C 
ATOM      8  C   UNL     1     -31.895  -7.881   3.651  1.00  0.00     0.009 C 
ENDBRANCH   1   7
BRANCH   2   9
ATOM      9  O   UNL     1     -30.257 -10.125   0.990  1.00  0.00    -0.508 OA
ATOM     10  H   UNL     1     -30.761  -9.283   0.735  1.00  0.00     0.293 HD
ENDBRANCH   2   9
BRANCH   4  11
ATOM     11  O   UNL     1     -26.676 -11.633   3.866  1.00  0.00    -0.508 OA
ATOM     12  H   UNL     1     -25.837 -11.071   3.788  1.00  0.00     0.293 HD
ENDBRANCH   4  11
TORSDOF 3
ENDMDL
MODEL 6
REMARK VINA RESULT:    -4.396      1.623      2.427
REMARK INTER + INTRA:          -4.996
REMARK INTER:                  -4.907
REMARK INTRA:                  -0.088
REMARK UNBOUND:                -0.086
REMARK SMILES CCc1ccc(O)cc1O
REMARK SMILES IDX 3 1 9 2 8 3 6 4 5 5 4 6 2 7 1 8 10 9 7 11
REMARK H PARENT 10 10 7 12
REMARK Flexibility Score: inf
ROOT
ATOM      1  C   UNL     1     -29.144 -10.476   3.974  1.00  0.00    -0.006 A 
ATOM      2  C   UNL     1     -27.959 -11.175   3.666  1.00  0.00     0.122 A 
ATOM      3  C   UNL     1     -27.787 -11.726   2.387  1.00  0.00     0.092 A 
ATOM      4  C   UNL     1     -28.777 -11.577   1.412  1.00  0.00     0.119 A 
ATOM      5  C   UNL     1     -29.948 -10.871   1.713  1.00  0.00     0.047 A 
ATOM      6  C   UNL     1     -30.128 -10.320   2.984  1.00  0.00     0.011 A 
ENDROOT
BRANCH   1   7
ATOM      7  C   UNL     1     -29.343  -9.848   5.331  1.00  0.00     0.036 C 
ATOM      8  C   UNL     1     -30.045  -8.500   5.204  1.00  0.00     0.009 C 
ENDBRANCH   1   7
BRANCH   2   9
ATOM      9  O   UNL     1     -26.958 -11.318   4.626  1.00  0.00    -0.508 OA
ATOM     10  H   UNL     1     -25.996 -11.066   4.433  1.00  0.00     0.293 HD
ENDBRANCH   2   9
BRANCH   4  11
ATOM     11  O   UNL     1     -28.587 -12.131   0.148  1.00  0.00    -0.508 OA
ATOM     12  H   UNL     1     -29.203 -12.849  -0.213  1.00  0.00     0.293 HD
ENDBRANCH   4  11
TORSDOF 3
ENDMDL
MODEL 7
REMARK VINA RESULT:    -4.264      1.937      4.246
REMARK INTER + INTRA:          -4.849
REMARK INTER:                  -4.759
REMARK INTRA:                  -0.089
REMARK UNBOUND:                -0.086
REMARK SMILES CCc1ccc(O)cc1O
REMARK SMILES IDX 3 1 9 2 8 3 6 4 5 5 4 6 2 7 1 8 10 9 7 11
REMARK H PARENT 10 10 7 12
REMARK Flexibility Score: inf
ROOT
ATOM      1  C   UNL     1     -29.540 -10.218   2.263  1.00  0.00    -0.006 A 
ATOM      2  C   UNL     1     -29.705  -9.964   3.640  1.00  0.00     0.122 A 
ATOM      3  C   UNL     1     -30.785  -9.185   4.081  1.00  0.00     0.092 A 
ATOM      4  C   UNL     1     -31.707  -8.668   3.166  1.00  0.00     0.119 A 
ATOM      5  C   UNL     1     -31.553  -8.932   1.800  1.00  0.00     0.047 A 
ATOM      6  C   UNL     1     -30.479  -9.706   1.352  1.00  0.00     0.011 A 
ENDROOT
BRANCH   1   7
ATOM      7  C   UNL     1     -28.406 -11.076   1.763  1.00  0.00     0.036 C 
ATOM      8  C   UNL     1     -28.887 -12.023   0.668  1.00  0.00     0.009 C 
ENDBRANCH   1   7
BRANCH   2   9
ATOM      9  O   UNL     1     -28.799 -10.484   4.563  1.00  0.00    -0.508 OA
ATOM     10  H   UNL     1     -29.033 -10.574   5.545  1.00  0.00     0.293 HD
ENDBRANCH   2   9
BRANCH   4  11
ATOM     11  O   UNL     1     -32.773  -7.898   3.625  1.00  0.00    -0.508 OA
ATOM     12  H   UNL     1     -32.656  -7.225   4.373  1.00  0.00     0.293 HD
ENDBRANCH   4  11
TORSDOF 3
ENDMDL
MODEL 8
REMARK VINA RESULT:    -4.245      1.255      3.352
REMARK INTER + INTRA:          -4.827
REMARK INTER:                  -4.742
REMARK INTRA:                  -0.085
REMARK UNBOUND:                -0.086
REMARK SMILES CCc1ccc(O)cc1O
REMARK SMILES IDX 3 1 9 2 8 3 6 4 5 5 4 6 2 7 1 8 10 9 7 11
REMARK H PARENT 10 10 7 12
REMARK Flexibility Score: inf
ROOT
ATOM      1  C   UNL     1     -28.626 -10.600   3.391  1.00  0.00    -0.006 A 
ATOM      2  C   UNL     1     -29.350 -10.308   2.218  1.00  0.00     0.122 A 
ATOM      3  C   UNL     1     -30.608  -9.693   2.308  1.00  0.00     0.092 A 
ATOM      4  C   UNL     1     -31.145  -9.358   3.555  1.00  0.00     0.119 A 
ATOM      5  C   UNL     1     -30.421  -9.635   4.720  1.00  0.00     0.047 A 
ATOM      6  C   UNL     1     -29.167 -10.247   4.639  1.00  0.00     0.011 A 
ENDROOT
BRANCH   1   7
ATOM      7  C   UNL     1     -27.259 -11.232   3.323  1.00  0.00     0.036 C 
ATOM      8  C   UNL     1     -26.867 -11.820   4.675  1.00  0.00     0.009 C 
ENDBRANCH   1   7
BRANCH   2   9
ATOM      9  O   UNL     1     -28.819 -10.625   0.968  1.00  0.00    -0.508 OA
ATOM     10  H   UNL     1     -28.604  -9.909   0.284  1.00  0.00     0.293 HD
ENDBRANCH   2   9
BRANCH   4  11
ATOM     11  O   UNL     1     -32.396  -8.748   3.623  1.00  0.00    -0.508 OA
ATOM     12  H   UNL     1     -33.240  -9.244   3.363  1.00  0.00     0.293 HD
ENDBRANCH   4  11
TORSDOF 3
ENDMDL
MODEL 9
REMARK VINA RESULT:    -4.203      2.152      3.115
REMARK INTER + INTRA:          -4.780
REMARK INTER:                  -4.694
REMARK INTRA:                  -0.086
REMARK UNBOUND:                -0.086
REMARK SMILES CCc1ccc(O)cc1O
REMARK SMILES IDX 3 1 9 2 8 3 6 4 5 5 4 6 2 7 1 8 10 9 7 11
REMARK H PARENT 10 10 7 12
REMARK Flexibility Score: inf
ROOT
ATOM      1  C   UNL     1     -29.411 -10.137   3.275  1.00  0.00    -0.006 A 
ATOM      2  C   UNL     1     -30.208  -9.048   3.680  1.00  0.00     0.122 A 
ATOM      3  C   UNL     1     -31.076  -8.438   2.761  1.00  0.00     0.092 A 
ATOM      4  C   UNL     1     -31.164  -8.911   1.449  1.00  0.00     0.119 A 
ATOM      5  C   UNL     1     -30.382 -10.002   1.049  1.00  0.00     0.047 A 
ATOM      6  C   UNL     1     -29.515 -10.614   1.958  1.00  0.00     0.011 A 
ENDROOT
BRANCH   1   7
ATOM      7  C   UNL     1     -28.492 -10.830   4.249  1.00  0.00     0.036 C 
ATOM      8  C   UNL     1     -27.219 -11.299   3.551  1.00  0.00     0.009 C 
ENDBRANCH   1   7
BRANCH   2   9
ATOM      9  O   UNL     1     -30.140  -8.576   4.991  1.00  0.00    -0.508 OA
ATOM     10  H   UNL     1     -29.446  -7.894   5.275  1.00  0.00     0.293 HD
ENDBRANCH   2   9
BRANCH   4  11
ATOM     11  O   UNL     1     -32.032  -8.293   0.552  1.00  0.00    -0.508 OA
ATOM     12  H   UNL     1     -32.028  -7.288   0.419  1.00  0.00     0.293 HD
ENDBRANCH   4  11
TORSDOF 3
ENDMDL
