MODEL 1
REMARK VINA RESULT:    -4.238      0.000      0.000
REMARK INTER + INTRA:          -4.890
REMARK INTER:                  -4.857
REMARK INTRA:                  -0.032
REMARK UNBOUND:                -0.032
REMARK SMILES CC(C)[C@@H]([NH3+])C(=O)[O-]
REMARK SMILES IDX 4 1 5 2 6 6 7 7 8 8 2 9 1 10 3 11
REMARK H PARENT 5 3 5 4 5 5
REMARK Flexibility Score: inf
ROOT
ATOM      1  C   UNL     1      34.411   4.057  -8.356  1.00  0.00     0.230 C 
ENDROOT
BRANCH   1   2
ATOM      2  N   UNL     1      34.277   2.790  -7.621  1.00  0.00    -0.350 N 
ATOM      3  H   UNL     1      34.072   2.990  -6.615  1.00  0.00     0.345 HD
ATOM      4  H   UNL     1      33.483   2.233  -8.009  1.00  0.00     0.345 HD
ATOM      5  H   UNL     1      35.153   2.223  -7.674  1.00  0.00     0.345 HD
ENDBRANCH   1   2
BRANCH   1   6
ATOM      6  C   UNL     1      33.555   5.133  -7.731  1.00  0.00     0.099 C 
ATOM      7  O   UNL     1      33.130   6.101  -8.418  1.00  0.00    -0.544 OA
ATOM      8  O   UNL     1      33.204   5.045  -6.389  1.00  0.00    -0.544 OA
ENDBRANCH   1   6
BRANCH   1   9
ATOM      9  C   UNL     1      35.901   4.484  -8.506  1.00  0.00     0.047 C 
ATOM     10  C   UNL     1      36.420   5.341  -7.338  1.00  0.00     0.014 C 
ATOM     11  C   UNL     1      36.143   5.211  -9.838  1.00  0.00     0.014 C 
ENDBRANCH   1   9
TORSDOF 3
ENDMDL
MODEL 2
REMARK VINA RESULT:    -4.205      1.585      2.213
REMARK INTER + INTRA:          -4.852
REMARK INTER:                  -4.799
REMARK INTRA:                  -0.053
REMARK UNBOUND:                -0.032
REMARK SMILES CC(C)[C@@H]([NH3+])C(=O)[O-]
REMARK SMILES IDX 4 1 5 2 6 6 7 7 8 8 2 9 1 10 3 11
REMARK H PARENT 5 3 5 4 5 5
REMARK Flexibility Score: inf
ROOT
ATOM      1  C   UNL     1      35.338   4.497  -7.294  1.00  0.00     0.230 C 
ENDROOT
BRANCH   1   2
ATOM      2  N   UNL     1      36.405   5.388  -6.813  1.00  0.00    -0.350 N 
ATOM      3  H   UNL     1      36.047   6.370  -6.771  1.00  0.00     0.345 HD
ATOM      4  H   UNL     1      36.697   5.109  -5.849  1.00  0.00     0.345 HD
ATOM      5  H   UNL     1      37.237   5.365  -7.445  1.00  0.00     0.345 HD
ENDBRANCH   1   2
BRANCH   1   6
ATOM      6  C   UNL     1      33.977   5.083  -7.002  1.00  0.00     0.099 C 
ATOM      7  O   UNL     1      33.477   5.012  -5.847  1.00  0.00    -0.544 OA
ATOM      8  O   UNL     1      33.275   5.735  -8.008  1.00  0.00    -0.544 OA
ENDBRANCH   1   6
BRANCH   1   9
ATOM      9  C   UNL     1      35.526   4.128  -8.796  1.00  0.00     0.047 C 
ATOM     10  C   UNL     1      35.285   2.640  -9.102  1.00  0.00     0.014 C 
ATOM     11  C   UNL     1      36.911   4.553  -9.307  1.00  0.00     0.014 C 
ENDBRANCH   1   9
TORSDOF 3
ENDMDL
MODEL 3
REMARK VINA RESULT:    -4.175      2.122      2.545
REMARK INTER + INTRA:          -4.818
REMARK INTER:                  -4.809
REMARK INTRA:                  -0.009
REMARK UNBOUND:                -0.032
REMARK SMILES CC(C)[C@@H]([NH3+])C(=O)[O-]
REMARK SMILES IDX 4 1 5 2 6 6 7 7 8 8 2 9 1 10 3 11
REMARK H PARENT 5 3 5 4 5 5
REMARK Flexibility Score: inf
ROOT
ATOM      1  C   UNL     1      33.814   5.638  -7.907  1.00  0.00     0.230 C 
ENDROOT
BRANCH   1   2
ATOM      2  N   UNL     1      32.530   5.619  -7.189  1.00  0.00    -0.350 N 
ATOM      3  H   UNL     1      31.805   6.113  -7.758  1.00  0.00     0.345 HD
ATOM      4  H   UNL     1      32.215   4.632  -7.047  1.00  0.00     0.345 HD
ATOM      5  H   UNL     1      32.604   6.093  -6.261  1.00  0.00     0.345 HD
ENDBRANCH   1   2
BRANCH   1   6
ATOM      6  C   UNL     1      34.915   5.053  -7.055  1.00  0.00     0.099 C 
ATOM      7  O   UNL     1      36.110   5.429  -7.196  1.00  0.00    -0.544 OA
ATOM      8  O   UNL     1      34.609   4.109  -6.083  1.00  0.00    -0.544 OA
ENDBRANCH   1   6
BRANCH   1   9
ATOM      9  C   UNL     1      33.706   4.957  -9.304  1.00  0.00     0.047 C 
ATOM     10  C   UNL     1      34.211   3.504  -9.325  1.00  0.00     0.014 C 
ATOM     11  C   UNL     1      34.426   5.779 -10.384  1.00  0.00     0.014 C 
ENDBRANCH   1   9
TORSDOF 3
ENDMDL
MODEL 4
REMARK VINA RESULT:    -4.156      2.594      3.573
REMARK INTER + INTRA:          -4.796
REMARK INTER:                  -4.741
REMARK INTRA:                  -0.055
REMARK UNBOUND:                -0.032
REMARK SMILES CC(C)[C@@H]([NH3+])C(=O)[O-]
REMARK SMILES IDX 4 1 5 2 6 6 7 7 8 8 2 9 1 10 3 11
REMARK H PARENT 5 3 5 4 5 5
REMARK Flexibility Score: inf
ROOT
ATOM      1  C   UNL     1      35.506   5.103  -8.066  1.00  0.00     0.230 C 
ENDROOT
BRANCH   1   2
ATOM      2  N   UNL     1      36.333   5.293  -6.865  1.00  0.00    -0.350 N 
ATOM      3  H   UNL     1      35.957   4.705  -6.085  1.00  0.00     0.345 HD
ATOM      4  H   UNL     1      37.315   4.990  -7.054  1.00  0.00     0.345 HD
ATOM      5  H   UNL     1      36.335   6.291  -6.555  1.00  0.00     0.345 HD
ENDBRANCH   1   2
BRANCH   1   6
ATOM      6  C   UNL     1      36.024   3.954  -8.899  1.00  0.00     0.099 C 
ATOM      7  O   UNL     1      35.469   2.823  -8.855  1.00  0.00    -0.544 OA
ATOM      8  O   UNL     1      37.107   4.149  -9.747  1.00  0.00    -0.544 OA
ENDBRANCH   1   6
BRANCH   1   9
ATOM      9  C   UNL     1      33.996   4.957  -7.711  1.00  0.00     0.047 C 
ATOM     10  C   UNL     1      33.088   5.955  -8.450  1.00  0.00     0.014 C 
ATOM     11  C   UNL     1      33.765   5.058  -6.196  1.00  0.00     0.014 C 
ENDBRANCH   1   9
TORSDOF 3
ENDMDL
MODEL 5
REMARK VINA RESULT:    -4.154      2.181      2.928
REMARK INTER + INTRA:          -4.794
REMARK INTER:                  -4.724
REMARK INTRA:                  -0.069
REMARK UNBOUND:                -0.032
REMARK SMILES CC(C)[C@@H]([NH3+])C(=O)[O-]
REMARK SMILES IDX 4 1 5 2 6 6 7 7 8 8 2 9 1 10 3 11
REMARK H PARENT 5 3 5 4 5 5
REMARK Flexibility Score: inf
ROOT
ATOM      1  C   UNL     1      34.284   5.706  -8.254  1.00  0.00     0.230 C 
ENDROOT
BRANCH   1   2
ATOM      2  N   UNL     1      32.874   5.904  -7.887  1.00  0.00    -0.350 N 
ATOM      3  H   UNL     1      32.365   4.993  -7.953  1.00  0.00     0.345 HD
ATOM      4  H   UNL     1      32.804   6.244  -6.901  1.00  0.00     0.345 HD
ATOM      5  H   UNL     1      32.407   6.592  -8.520  1.00  0.00     0.345 HD
ENDBRANCH   1   2
BRANCH   1   6
ATOM      6  C   UNL     1      35.094   5.269  -7.056  1.00  0.00     0.099 C 
ATOM      7  O   UNL     1      34.531   4.978  -5.967  1.00  0.00    -0.544 OA
ATOM      8  O   UNL     1      36.475   5.157  -7.160  1.00  0.00    -0.544 OA
ENDBRANCH   1   6
BRANCH   1   9
ATOM      9  C   UNL     1      34.436   4.741  -9.468  1.00  0.00     0.047 C 
ATOM     10  C   UNL     1      33.559   5.121 -10.673  1.00  0.00     0.014 C 
ATOM     11  C   UNL     1      34.168   3.285  -9.061  1.00  0.00     0.014 C 
ENDBRANCH   1   9
TORSDOF 3
ENDMDL
MODEL 6
REMARK VINA RESULT:    -4.141      2.120      2.634
REMARK INTER + INTRA:          -4.778
REMARK INTER:                  -4.739
REMARK INTRA:                  -0.039
REMARK UNBOUND:                -0.032
REMARK SMILES CC(C)[C@@H]([NH3+])C(=O)[O-]
REMARK SMILES IDX 4 1 5 2 6 6 7 7 8 8 2 9 1 10 3 11
REMARK H PARENT 5 3 5 4 5 5
REMARK Flexibility Score: inf
ROOT
ATOM      1  C   UNL     1      35.308   4.728  -8.550  1.00  0.00     0.230 C 
ENDROOT
BRANCH   1   2
ATOM      2  N   UNL     1      36.312   5.504  -7.806  1.00  0.00    -0.350 N 
ATOM      3  H   UNL     1      37.090   4.871  -7.506  1.00  0.00     0.345 HD
ATOM      4  H   UNL     1      36.716   6.247  -8.419  1.00  0.00     0.345 HD
ATOM      5  H   UNL     1      35.898   5.947  -6.955  1.00  0.00     0.345 HD
ENDBRANCH   1   2
BRANCH   1   6
ATOM      6  C   UNL     1      34.636   3.717  -7.652  1.00  0.00     0.099 C 
ATOM      7  O   UNL     1      34.106   2.679  -8.132  1.00  0.00    -0.544 OA
ATOM      8  O   UNL     1      34.626   3.913  -6.276  1.00  0.00    -0.544 OA
ENDBRANCH   1   6
BRANCH   1   9
ATOM      9  C   UNL     1      34.290   5.652  -9.284  1.00  0.00     0.047 C 
ATOM     10  C   UNL     1      33.046   5.991  -8.445  1.00  0.00     0.014 C 
ATOM     11  C   UNL     1      33.867   5.056 -10.634  1.00  0.00     0.014 C 
ENDBRANCH   1   9
TORSDOF 3
ENDMDL
MODEL 7
REMARK VINA RESULT:    -4.138      1.726      2.396
REMARK INTER + INTRA:          -4.776
REMARK INTER:                  -4.726
REMARK INTRA:                  -0.049
REMARK UNBOUND:                -0.032
REMARK SMILES CC(C)[C@@H]([NH3+])C(=O)[O-]
REMARK SMILES IDX 4 1 5 2 6 6 7 7 8 8 2 9 1 10 3 11
REMARK H PARENT 5 3 5 4 5 5
REMARK Flexibility Score: inf
ROOT
ATOM      1  C   UNL     1      34.067   4.177  -7.806  1.00  0.00     0.230 C 
ENDROOT
BRANCH   1   2
ATOM      2  N   UNL     1      34.187   2.764  -7.415  1.00  0.00    -0.350 N 
ATOM      3  H   UNL     1      35.032   2.347  -7.870  1.00  0.00     0.345 HD
ATOM      4  H   UNL     1      34.305   2.688  -6.379  1.00  0.00     0.345 HD
ATOM      5  H   UNL     1      33.348   2.214  -7.707  1.00  0.00     0.345 HD
ENDBRANCH   1   2
BRANCH   1   6
ATOM      6  C   UNL     1      34.810   5.067  -6.838  1.00  0.00     0.099 C 
ATOM      7  O   UNL     1      34.266   5.454  -5.769  1.00  0.00    -0.544 OA
ATOM      8  O   UNL     1      36.120   5.442  -7.110  1.00  0.00    -0.544 OA
ENDBRANCH   1   6
BRANCH   1   9
ATOM      9  C   UNL     1      34.496   4.406  -9.286  1.00  0.00     0.047 C 
ATOM     10  C   UNL     1      33.529   5.302 -10.079  1.00  0.00     0.014 C 
ATOM     11  C   UNL     1      34.700   3.073 -10.022  1.00  0.00     0.014 C 
ENDBRANCH   1   9
TORSDOF 3
ENDMDL
MODEL 8
REMARK VINA RESULT:    -4.078      2.346      2.766
REMARK INTER + INTRA:          -4.706
REMARK INTER:                  -4.726
REMARK INTRA:                   0.019
REMARK UNBOUND:                -0.032
REMARK SMILES CC(C)[C@@H]([NH3+])C(=O)[O-]
REMARK SMILES IDX 4 1 5 2 6 6 7 7 8 8 2 9 1 10 3 11
REMARK H PARENT 5 3 5 4 5 5
REMARK Flexibility Score: inf
ROOT
ATOM      1  C   UNL     1      35.224   3.914  -7.582  1.00  0.00     0.230 C 
ENDROOT
BRANCH   1   2
ATOM      2  N   UNL     1      34.353   3.742  -6.410  1.00  0.00    -0.350 N 
ATOM      3  H   UNL     1      34.906   3.332  -5.622  1.00  0.00     0.345 HD
ATOM      4  H   UNL     1      33.984   4.669  -6.098  1.00  0.00     0.345 HD
ATOM      5  H   UNL     1      33.551   3.105  -6.618  1.00  0.00     0.345 HD
ENDBRANCH   1   2
BRANCH   1   6
ATOM      6  C   UNL     1      34.892   2.900  -8.651  1.00  0.00     0.099 C 
ATOM      7  O   UNL     1      33.784   2.299  -8.650  1.00  0.00    -0.544 OA
ATOM      8  O   UNL     1      35.805   2.644  -9.667  1.00  0.00    -0.544 OA
ENDBRANCH   1   6
BRANCH   1   9
ATOM      9  C   UNL     1      35.196   5.379  -8.113  1.00  0.00     0.047 C 
ATOM     10  C   UNL     1      33.996   5.683  -9.026  1.00  0.00     0.014 C 
ATOM     11  C   UNL     1      36.506   5.739  -8.830  1.00  0.00     0.014 C 
ENDBRANCH   1   9
TORSDOF 3
ENDMDL
MODEL 9
REMARK VINA RESULT:    -3.982      2.511      3.098
REMARK INTER + INTRA:          -4.597
REMARK INTER:                  -4.541
REMARK INTRA:                  -0.056
REMARK UNBOUND:                -0.032
REMARK SMILES CC(C)[C@@H]([NH3+])C(=O)[O-]
REMARK SMILES IDX 4 1 5 2 6 6 7 7 8 8 2 9 1 10 3 11
REMARK H PARENT 5 3 5 4 5 5
REMARK Flexibility Score: inf
ROOT
ATOM      1  C   UNL     1      33.795   5.053  -8.808  1.00  0.00     0.230 C 
ENDROOT
BRANCH   1   2
ATOM      2  N   UNL     1      33.014   6.069  -8.087  1.00  0.00    -0.350 N 
ATOM      3  H   UNL     1      33.656   6.650  -7.500  1.00  0.00     0.345 HD
ATOM      4  H   UNL     1      32.536   6.703  -8.767  1.00  0.00     0.345 HD
ATOM      5  H   UNL     1      32.299   5.632  -7.464  1.00  0.00     0.345 HD
ENDBRANCH   1   2
BRANCH   1   6
ATOM      6  C   UNL     1      34.646   5.690  -9.881  1.00  0.00     0.099 C 
ATOM      7  O   UNL     1      34.117   6.220 -10.895  1.00  0.00    -0.544 OA
ATOM      8  O   UNL     1      36.028   5.720  -9.740  1.00  0.00    -0.544 OA
ENDBRANCH   1   6
BRANCH   1   9
ATOM      9  C   UNL     1      34.622   4.160  -7.835  1.00  0.00     0.047 C 
ATOM     10  C   UNL     1      34.418   2.651  -8.055  1.00  0.00     0.014 C 
ATOM     11  C   UNL     1      34.337   4.520  -6.369  1.00  0.00     0.014 C 
ENDBRANCH   1   9
TORSDOF 3
ENDMDL
