MODEL 1
REMARK VINA RESULT:    -4.608      0.000      0.000
REMARK INTER + INTRA:          -5.012
REMARK INTER:                  -5.012
REMARK INTRA:                   0.000
REMARK UNBOUND:                 0.000
REMARK SMILES Cc1cc(O)c2c(c1)C(=O)c1cc(O)cc(O)c1C2=O
REMARK SMILES IDX 1 1 2 2 8 3 7 4 6 5 4 6 3 7 19 8 20 9 18 10 11 11 9 12 10 13
REMARK SMILES IDX 12 14 13 15 15 16 16 17 5 18 17 20 14 22
REMARK H PARENT 5 19 17 21 14 23
REMARK Flexibility Score: inf
ROOT
ATOM      1  C   UNL     1      46.877  -8.396  -6.250  1.00  0.00     0.044 C 
ATOM      2  C   UNL     1      47.293  -8.486  -4.810  1.00  0.00    -0.047 A 
ATOM      3  C   UNL     1      46.485  -7.936  -3.809  1.00  0.00     0.016 A 
ATOM      4  C   UNL     1      46.850  -8.040  -2.456  1.00  0.00     0.038 A 
ATOM      5  C   UNL     1      48.045  -8.705  -2.100  1.00  0.00     0.076 A 
ATOM      6  C   UNL     1      48.816  -9.333  -3.112  1.00  0.00     0.127 A 
ATOM      7  C   UNL     1      48.442  -9.199  -4.452  1.00  0.00     0.050 A 
ATOM      8  C   UNL     1      48.472  -8.666  -0.678  1.00  0.00     0.201 C 
ATOM      9  O   UNL     1      49.699  -8.704  -0.391  1.00  0.00    -0.288 OA
ATOM     10  C   UNL     1      47.472  -8.394   0.387  1.00  0.00     0.076 A 
ATOM     11  C   UNL     1      46.278  -7.730   0.027  1.00  0.00     0.041 A 
ATOM     12  C   UNL     1      45.984  -7.462  -1.401  1.00  0.00     0.194 C 
ATOM     13  O   UNL     1      44.984  -6.761  -1.719  1.00  0.00    -0.289 OA
ATOM     14  C   UNL     1      45.370  -7.333   1.023  1.00  0.00     0.059 A 
ATOM     15  C   UNL     1      45.634  -7.602   2.370  1.00  0.00     0.120 A 
ATOM     16  C   UNL     1      46.792  -8.292   2.725  1.00  0.00     0.093 A 
ATOM     17  C   UNL     1      47.701  -8.716   1.751  1.00  0.00     0.131 A 
ENDROOT
BRANCH   6  18
ATOM     18  O   UNL     1      49.931 -10.125  -2.830  1.00  0.00    -0.507 OA
ATOM     19  H   UNL     1      50.508 -10.552  -3.542  1.00  0.00     0.293 HD
ENDBRANCH   6  18
BRANCH  17  20
ATOM     20  O   UNL     1      48.790  -9.480   2.175  1.00  0.00    -0.507 OA
ATOM     21  H   UNL     1      49.651  -9.080   2.522  1.00  0.00     0.293 HD
ENDBRANCH  17  20
BRANCH  15  22
ATOM     22  O   UNL     1      44.742  -7.198   3.361  1.00  0.00    -0.508 OA
ATOM     23  H   UNL     1      43.775  -7.500   3.360  1.00  0.00     0.293 HD
ENDBRANCH  15  22
TORSDOF 3
ENDMDL
MODEL 2
REMARK VINA RESULT:    -4.497     21.187     22.184
REMARK INTER + INTRA:          -4.891
REMARK INTER:                  -4.891
REMARK INTRA:                   0.000
REMARK UNBOUND:                 0.000
REMARK SMILES Cc1cc(O)c2c(c1)C(=O)c1cc(O)cc(O)c1C2=O
REMARK SMILES IDX 1 1 2 2 8 3 7 4 6 5 4 6 3 7 19 8 20 9 18 10 11 11 9 12 10 13
REMARK SMILES IDX 12 14 13 15 15 16 16 17 5 18 17 20 14 22
REMARK H PARENT 5 19 17 21 14 23
REMARK Flexibility Score: inf
ROOT
ATOM      1  C   UNL     1      53.229  10.125  -5.991  1.00  0.00     0.044 C 
ATOM      2  C   UNL     1      54.688   9.857  -5.759  1.00  0.00    -0.047 A 
ATOM      3  C   UNL     1      55.549   9.663  -6.844  1.00  0.00     0.016 A 
ATOM      4  C   UNL     1      56.921   9.441  -6.639  1.00  0.00     0.038 A 
ATOM      5  C   UNL     1      57.439   9.410  -5.325  1.00  0.00     0.076 A 
ATOM      6  C   UNL     1      56.576   9.691  -4.234  1.00  0.00     0.127 A 
ATOM      7  C   UNL     1      55.212   9.890  -4.463  1.00  0.00     0.050 A 
ATOM      8  C   UNL     1      58.863   9.026  -5.140  1.00  0.00     0.201 C 
ATOM      9  O   UNL     1      59.221   8.441  -4.083  1.00  0.00    -0.288 OA
ATOM     10  C   UNL     1      59.817   9.160  -6.271  1.00  0.00     0.076 A 
ATOM     11  C   UNL     1      59.295   9.191  -7.585  1.00  0.00     0.041 A 
ATOM     12  C   UNL     1      57.828   9.244  -7.795  1.00  0.00     0.194 C 
ATOM     13  O   UNL     1      57.354   9.146  -8.960  1.00  0.00    -0.289 OA
ATOM     14  C   UNL     1      60.169   9.179  -8.685  1.00  0.00     0.059 A 
ATOM     15  C   UNL     1      61.552   9.149  -8.491  1.00  0.00     0.120 A 
ATOM     16  C   UNL     1      62.071   9.159  -7.197  1.00  0.00     0.093 A 
ATOM     17  C   UNL     1      61.224   9.192  -6.085  1.00  0.00     0.131 A 
ENDROOT
BRANCH   6  18
ATOM     18  O   UNL     1      57.036   9.818  -2.921  1.00  0.00    -0.507 OA
ATOM     19  H   UNL     1      56.609   9.350  -2.132  1.00  0.00     0.293 HD
ENDBRANCH   6  18
BRANCH  17  20
ATOM     20  O   UNL     1      61.817   9.292  -4.825  1.00  0.00    -0.507 OA
ATOM     21  H   UNL     1      61.540   9.971  -4.130  1.00  0.00     0.293 HD
ENDBRANCH  17  20
BRANCH  15  22
ATOM     22  O   UNL     1      62.421   9.124  -9.579  1.00  0.00    -0.508 OA
ATOM     23  H   UNL     1      62.736   8.251  -9.987  1.00  0.00     0.293 HD
ENDBRANCH  15  22
TORSDOF 3
ENDMDL
MODEL 3
REMARK VINA RESULT:    -4.469      1.460      3.156
REMARK INTER + INTRA:          -4.861
REMARK INTER:                  -4.861
REMARK INTRA:                   0.000
REMARK UNBOUND:                 0.000
REMARK SMILES Cc1cc(O)c2c(c1)C(=O)c1cc(O)cc(O)c1C2=O
REMARK SMILES IDX 1 1 2 2 8 3 7 4 6 5 4 6 3 7 19 8 20 9 18 10 11 11 9 12 10 13
REMARK SMILES IDX 12 14 13 15 15 16 16 17 5 18 17 20 14 22
REMARK H PARENT 5 19 17 21 14 23
REMARK Flexibility Score: inf
ROOT
ATOM      1  C   UNL     1      49.037  -9.751  -5.514  1.00  0.00     0.044 C 
ATOM      2  C   UNL     1      48.149  -9.522  -4.326  1.00  0.00    -0.047 A 
ATOM      3  C   UNL     1      48.706  -9.336  -3.056  1.00  0.00     0.016 A 
ATOM      4  C   UNL     1      47.885  -9.092  -1.942  1.00  0.00     0.038 A 
ATOM      5  C   UNL     1      46.482  -9.035  -2.102  1.00  0.00     0.076 A 
ATOM      6  C   UNL     1      45.929  -9.141  -3.405  1.00  0.00     0.127 A 
ATOM      7  C   UNL     1      46.765  -9.403  -4.494  1.00  0.00     0.050 A 
ATOM      8  C   UNL     1      45.641  -8.925  -0.883  1.00  0.00     0.201 C 
ATOM      9  O   UNL     1      44.483  -9.424  -0.873  1.00  0.00    -0.288 OA
ATOM     10  C   UNL     1      46.229  -8.396   0.375  1.00  0.00     0.076 A 
ATOM     11  C   UNL     1      47.633  -8.453   0.531  1.00  0.00     0.041 A 
ATOM     12  C   UNL     1      48.484  -8.888  -0.602  1.00  0.00     0.194 C 
ATOM     13  O   UNL     1      49.722  -9.061  -0.431  1.00  0.00    -0.289 OA
ATOM     14  C   UNL     1      48.215  -8.091   1.757  1.00  0.00     0.059 A 
ATOM     15  C   UNL     1      47.418  -7.661   2.822  1.00  0.00     0.120 A 
ATOM     16  C   UNL     1      46.037  -7.566   2.659  1.00  0.00     0.093 A 
ATOM     17  C   UNL     1      45.434  -7.900   1.442  1.00  0.00     0.131 A 
ENDROOT
BRANCH   6  18
ATOM     18  O   UNL     1      44.569  -8.957  -3.665  1.00  0.00    -0.507 OA
ATOM     19  H   UNL     1      43.929  -9.717  -3.853  1.00  0.00     0.293 HD
ENDBRANCH   6  18
BRANCH  17  20
ATOM     20  O   UNL     1      44.058  -7.692   1.325  1.00  0.00    -0.507 OA
ATOM     21  H   UNL     1      43.388  -8.440   1.211  1.00  0.00     0.293 HD
ENDBRANCH  17  20
BRANCH  15  22
ATOM     22  O   UNL     1      47.991  -7.314   4.043  1.00  0.00    -0.508 OA
ATOM     23  H   UNL     1      48.160  -6.347   4.294  1.00  0.00     0.293 HD
ENDBRANCH  15  22
TORSDOF 3
ENDMDL
MODEL 4
REMARK VINA RESULT:    -4.311      1.934      5.721
REMARK INTER + INTRA:          -4.689
REMARK INTER:                  -4.689
REMARK INTRA:                   0.000
REMARK UNBOUND:                 0.000
REMARK SMILES Cc1cc(O)c2c(c1)C(=O)c1cc(O)cc(O)c1C2=O
REMARK SMILES IDX 1 1 2 2 8 3 7 4 6 5 4 6 3 7 19 8 20 9 18 10 11 11 9 12 10 13
REMARK SMILES IDX 12 14 13 15 15 16 16 17 5 18 17 20 14 22
REMARK H PARENT 5 19 17 21 14 23
REMARK Flexibility Score: inf
ROOT
ATOM      1  C   UNL     1      46.116  -7.827   2.589  1.00  0.00     0.044 C 
ATOM      2  C   UNL     1      46.805  -8.253   1.326  1.00  0.00    -0.047 A 
ATOM      3  C   UNL     1      46.054  -8.607   0.200  1.00  0.00     0.016 A 
ATOM      4  C   UNL     1      46.690  -8.980  -0.997  1.00  0.00     0.038 A 
ATOM      5  C   UNL     1      48.101  -8.999  -1.067  1.00  0.00     0.076 A 
ATOM      6  C   UNL     1      48.855  -8.558   0.051  1.00  0.00     0.127 A 
ATOM      7  C   UNL     1      48.200  -8.211   1.237  1.00  0.00     0.050 A 
ATOM      8  C   UNL     1      48.735  -9.539  -2.297  1.00  0.00     0.201 C 
ATOM      9  O   UNL     1      49.861 -10.103  -2.225  1.00  0.00    -0.288 OA
ATOM     10  C   UNL     1      47.966  -9.581  -3.567  1.00  0.00     0.076 A 
ATOM     11  C   UNL     1      46.555  -9.561  -3.493  1.00  0.00     0.041 A 
ATOM     12  C   UNL     1      45.887  -9.346  -2.188  1.00  0.00     0.194 C 
ATOM     13  O   UNL     1      44.633  -9.451  -2.096  1.00  0.00    -0.289 OA
ATOM     14  C   UNL     1      45.791  -9.737  -4.660  1.00  0.00     0.059 A 
ATOM     15  C   UNL     1      46.417  -9.920  -5.896  1.00  0.00     0.120 A 
ATOM     16  C   UNL     1      47.808  -9.901  -5.978  1.00  0.00     0.093 A 
ATOM     17  C   UNL     1      48.591  -9.706  -4.836  1.00  0.00     0.131 A 
ENDROOT
BRANCH   6  18
ATOM     18  O   UNL     1      50.244  -8.415   0.016  1.00  0.00    -0.507 OA
ATOM     19  H   UNL     1      50.853  -8.677   0.780  1.00  0.00     0.293 HD
ENDBRANCH   6  18
BRANCH  17  20
ATOM     20  O   UNL     1      49.973  -9.608  -5.011  1.00  0.00    -0.507 OA
ATOM     21  H   UNL     1      50.454  -9.917  -5.845  1.00  0.00     0.293 HD
ENDBRANCH  17  20
BRANCH  15  22
ATOM     22  O   UNL     1      45.663 -10.109  -7.052  1.00  0.00    -0.508 OA
ATOM     23  H   UNL     1      44.870 -10.739  -7.071  1.00  0.00     0.293 HD
ENDBRANCH  15  22
TORSDOF 3
ENDMDL
MODEL 5
REMARK VINA RESULT:    -3.736      2.342      2.894
REMARK INTER + INTRA:          -4.064
REMARK INTER:                  -4.064
REMARK INTRA:                   0.000
REMARK UNBOUND:                 0.000
REMARK SMILES Cc1cc(O)c2c(c1)C(=O)c1cc(O)cc(O)c1C2=O
REMARK SMILES IDX 1 1 2 2 8 3 7 4 6 5 4 6 3 7 19 8 20 9 18 10 11 11 9 12 10 13
REMARK SMILES IDX 12 14 13 15 15 16 16 17 5 18 17 20 14 22
REMARK H PARENT 5 19 17 21 14 23
REMARK Flexibility Score: inf
ROOT
ATOM      1  C   UNL     1      43.888 -10.123  -4.446  1.00  0.00     0.044 C 
ATOM      2  C   UNL     1      44.656  -9.339  -3.422  1.00  0.00    -0.047 A 
ATOM      3  C   UNL     1      44.539  -9.651  -2.064  1.00  0.00     0.016 A 
ATOM      4  C   UNL     1      45.275  -8.942  -1.099  1.00  0.00     0.038 A 
ATOM      5  C   UNL     1      46.142  -7.902  -1.502  1.00  0.00     0.076 A 
ATOM      6  C   UNL     1      46.320  -7.647  -2.887  1.00  0.00     0.127 A 
ATOM      7  C   UNL     1      45.562  -8.352  -3.825  1.00  0.00     0.050 A 
ATOM      8  C   UNL     1      46.789  -7.079  -0.448  1.00  0.00     0.201 C 
ATOM      9  O   UNL     1      47.072  -5.873  -0.680  1.00  0.00    -0.288 OA
ATOM     10  C   UNL     1      46.929  -7.620   0.929  1.00  0.00     0.076 A 
ATOM     11  C   UNL     1      46.060  -8.661   1.328  1.00  0.00     0.041 A 
ATOM     12  C   UNL     1      45.152  -9.285   0.337  1.00  0.00     0.194 C 
ATOM     13  O   UNL     1      44.289 -10.125   0.714  1.00  0.00    -0.289 OA
ATOM     14  C   UNL     1      46.068  -9.105   2.661  1.00  0.00     0.059 A 
ATOM     15  C   UNL     1      46.937  -8.533   3.594  1.00  0.00     0.120 A 
ATOM     16  C   UNL     1      47.823  -7.533   3.195  1.00  0.00     0.093 A 
ATOM     17  C   UNL     1      47.850  -7.088   1.869  1.00  0.00     0.131 A 
ENDROOT
BRANCH   6  18
ATOM     18  O   UNL     1      47.260  -6.734  -3.372  1.00  0.00    -0.507 OA
ATOM     19  H   UNL     1      47.856  -6.914  -4.168  1.00  0.00     0.293 HD
ENDBRANCH   6  18
BRANCH  17  20
ATOM     20  O   UNL     1      48.826  -6.150   1.525  1.00  0.00    -0.507 OA
ATOM     21  H   UNL     1      49.591  -5.892   2.132  1.00  0.00     0.293 HD
ENDBRANCH  17  20
BRANCH  15  22
ATOM     22  O   UNL     1      46.937  -8.962   4.920  1.00  0.00    -0.508 OA
ATOM     23  H   UNL     1      47.541  -9.712   5.235  1.00  0.00     0.293 HD
ENDBRANCH  15  22
TORSDOF 3
ENDMDL
MODEL 6
REMARK VINA RESULT:    -3.508      1.956      6.417
REMARK INTER + INTRA:          -3.816
REMARK INTER:                  -3.816
REMARK INTRA:                   0.000
REMARK UNBOUND:                 0.000
REMARK SMILES Cc1cc(O)c2c(c1)C(=O)c1cc(O)cc(O)c1C2=O
REMARK SMILES IDX 1 1 2 2 8 3 7 4 6 5 4 6 3 7 19 8 20 9 18 10 11 11 9 12 10 13
REMARK SMILES IDX 12 14 13 15 15 16 16 17 5 18 17 20 14 22
REMARK H PARENT 5 19 17 21 14 23
REMARK Flexibility Score: inf
ROOT
ATOM      1  C   UNL     1      45.161  -9.023   1.869  1.00  0.00     0.044 C 
ATOM      2  C   UNL     1      45.609  -8.548   0.517  1.00  0.00    -0.047 A 
ATOM      3  C   UNL     1      46.730  -9.119  -0.093  1.00  0.00     0.016 A 
ATOM      4  C   UNL     1      47.141  -8.702  -1.371  1.00  0.00     0.038 A 
ATOM      5  C   UNL     1      46.417  -7.694  -2.048  1.00  0.00     0.076 A 
ATOM      6  C   UNL     1      45.232  -7.179  -1.459  1.00  0.00     0.127 A 
ATOM      7  C   UNL     1      44.856  -7.597  -0.179  1.00  0.00     0.050 A 
ATOM      8  C   UNL     1      46.965  -7.175  -3.327  1.00  0.00     0.201 C 
ATOM      9  O   UNL     1      46.741  -5.982  -3.667  1.00  0.00    -0.288 OA
ATOM     10  C   UNL     1      47.925  -7.998  -4.107  1.00  0.00     0.076 A 
ATOM     11  C   UNL     1      48.646  -9.006  -3.428  1.00  0.00     0.041 A 
ATOM     12  C   UNL     1      48.325  -9.317  -2.014  1.00  0.00     0.194 C 
ATOM     13  O   UNL     1      49.047 -10.125  -1.367  1.00  0.00    -0.289 OA
ATOM     14  C   UNL     1      49.660  -9.712  -4.097  1.00  0.00     0.059 A 
ATOM     15  C   UNL     1      49.952  -9.435  -5.435  1.00  0.00     0.120 A 
ATOM     16  C   UNL     1      49.215  -8.470  -6.120  1.00  0.00     0.093 A 
ATOM     17  C   UNL     1      48.188  -7.768  -5.484  1.00  0.00     0.131 A 
ENDROOT
BRANCH   6  18
ATOM     18  O   UNL     1      44.387  -6.287  -2.122  1.00  0.00    -0.507 OA
ATOM     19  H   UNL     1      44.678  -5.719  -2.907  1.00  0.00     0.293 HD
ENDBRANCH   6  18
BRANCH  17  20
ATOM     20  O   UNL     1      47.435  -6.883  -6.259  1.00  0.00    -0.507 OA
ATOM     21  H   UNL     1      47.745  -6.519  -7.150  1.00  0.00     0.293 HD
ENDBRANCH  17  20
BRANCH  15  22
ATOM     22  O   UNL     1      50.965 -10.125  -6.098  1.00  0.00    -0.508 OA
ATOM     23  H   UNL     1      51.841  -9.676  -6.341  1.00  0.00     0.293 HD
ENDBRANCH  15  22
TORSDOF 3
ENDMDL
MODEL 7
REMARK VINA RESULT:    -3.249      3.396      6.014
REMARK INTER + INTRA:          -3.534
REMARK INTER:                  -3.534
REMARK INTRA:                   0.000
REMARK UNBOUND:                 0.000
REMARK SMILES Cc1cc(O)c2c(c1)C(=O)c1cc(O)cc(O)c1C2=O
REMARK SMILES IDX 1 1 2 2 8 3 7 4 6 5 4 6 3 7 19 8 20 9 18 10 11 11 9 12 10 13
REMARK SMILES IDX 12 14 13 15 15 16 16 17 5 18 17 20 14 22
REMARK H PARENT 5 19 17 21 14 23
REMARK Flexibility Score: inf
ROOT
ATOM      1  C   UNL     1      49.886  -6.407 -10.124  1.00  0.00     0.044 C 
ATOM      2  C   UNL     1      49.000  -7.152  -9.169  1.00  0.00    -0.047 A 
ATOM      3  C   UNL     1      49.486  -7.540  -7.916  1.00  0.00     0.016 A 
ATOM      4  C   UNL     1      48.657  -8.213  -7.003  1.00  0.00     0.038 A 
ATOM      5  C   UNL     1      47.318  -8.504  -7.351  1.00  0.00     0.076 A 
ATOM      6  C   UNL     1      46.808  -8.034  -8.589  1.00  0.00     0.127 A 
ATOM      7  C   UNL     1      47.658  -7.384  -9.488  1.00  0.00     0.050 A 
ATOM      8  C   UNL     1      46.518  -9.345  -6.424  1.00  0.00     0.201 C 
ATOM      9  O   UNL     1      45.607 -10.087  -6.880  1.00  0.00    -0.288 OA
ATOM     10  C   UNL     1      46.914  -9.451  -4.996  1.00  0.00     0.076 A 
ATOM     11  C   UNL     1      48.253  -9.158  -4.651  1.00  0.00     0.041 A 
ATOM     12  C   UNL     1      49.177  -8.614  -5.674  1.00  0.00     0.194 C 
ATOM     13  O   UNL     1      50.401  -8.470  -5.406  1.00  0.00    -0.289 OA
ATOM     14  C   UNL     1      48.700  -9.378  -3.337  1.00  0.00     0.059 A 
ATOM     15  C   UNL     1      47.827  -9.872  -2.364  1.00  0.00     0.120 A 
ATOM     16  C   UNL     1      46.495 -10.124  -2.691  1.00  0.00     0.093 A 
ATOM     17  C   UNL     1      46.020  -9.894  -3.986  1.00  0.00     0.131 A 
ENDROOT
BRANCH   6  18
ATOM     18  O   UNL     1      45.463  -8.157  -8.947  1.00  0.00    -0.507 OA
ATOM     19  H   UNL     1      45.128  -8.811  -9.641  1.00  0.00     0.293 HD
ENDBRANCH   6  18
BRANCH  17  20
ATOM     20  O   UNL     1      44.655 -10.083  -4.214  1.00  0.00    -0.507 OA
ATOM     21  H   UNL     1      43.995 -10.322  -3.486  1.00  0.00     0.293 HD
ENDBRANCH  17  20
BRANCH  15  22
ATOM     22  O   UNL     1      48.271 -10.104  -1.064  1.00  0.00    -0.508 OA
ATOM     23  H   UNL     1      48.514 -11.034  -0.744  1.00  0.00     0.293 HD
ENDBRANCH  15  22
TORSDOF 3
ENDMDL
