MODEL 1
REMARK VINA RESULT:    -2.815      0.000      0.000
REMARK INTER + INTRA:          -3.169
REMARK INTER:                  -3.144
REMARK INTRA:                  -0.025
REMARK UNBOUND:                -0.025
REMARK SMILES CCCC(=O)[O-]
REMARK SMILES IDX 3 1 4 2 5 3 6 4 2 5 1 6
REMARK H PARENT
REMARK Flexibility Score: inf
ROOT
ATOM      1  C   UNL     1       7.665 -16.317  23.698  1.00  0.00     0.052 C 
ENDROOT
BRANCH   1   2
ATOM      2  C   UNL     1       8.703 -15.813  24.652  1.00  0.00     0.041 C 
ATOM      3  O   UNL     1       9.649 -15.093  24.237  1.00  0.00    -0.550 OA
ATOM      4  O   UNL     1       8.609 -16.110  26.007  1.00  0.00    -0.550 OA
ENDBRANCH   1   2
BRANCH   1   5
ATOM      5  C   UNL     1       7.135 -15.199  22.792  1.00  0.00     0.003 C 
ATOM      6  C   UNL     1       7.022 -15.637  21.332  1.00  0.00     0.004 C 
ENDBRANCH   1   5
TORSDOF 2
ENDMDL
MODEL 2
REMARK VINA RESULT:    -2.809      0.144      1.330
REMARK INTER + INTRA:          -3.162
REMARK INTER:                  -3.137
REMARK INTRA:                  -0.026
REMARK UNBOUND:                -0.025
REMARK SMILES CCCC(=O)[O-]
REMARK SMILES IDX 3 1 4 2 5 3 6 4 2 5 1 6
REMARK H PARENT
REMARK Flexibility Score: inf
ROOT
ATOM      1  C   UNL     1       7.651 -16.301  23.691  1.00  0.00     0.052 C 
ENDROOT
BRANCH   1   2
ATOM      2  C   UNL     1       8.715 -15.759  24.595  1.00  0.00     0.041 C 
ATOM      3  O   UNL     1       8.667 -15.981  25.833  1.00  0.00    -0.550 OA
ATOM      4  O   UNL     1       9.779 -15.038  24.066  1.00  0.00    -0.550 OA
ENDBRANCH   1   2
BRANCH   1   5
ATOM      5  C   UNL     1       7.123 -15.231  22.727  1.00  0.00     0.003 C 
ATOM      6  C   UNL     1       7.079 -15.720  21.280  1.00  0.00     0.004 C 
ENDBRANCH   1   5
TORSDOF 2
ENDMDL
MODEL 3
REMARK VINA RESULT:    -2.743     11.394     12.085
REMARK INTER + INTRA:          -3.089
REMARK INTER:                  -3.049
REMARK INTRA:                  -0.040
REMARK UNBOUND:                -0.025
REMARK SMILES CCCC(=O)[O-]
REMARK SMILES IDX 3 1 4 2 5 3 6 4 2 5 1 6
REMARK H PARENT
REMARK Flexibility Score: inf
ROOT
ATOM      1  C   UNL     1      18.297 -21.802  23.631  1.00  0.00     0.052 C 
ENDROOT
BRANCH   1   2
ATOM      2  C   UNL     1      18.504 -22.026  25.097  1.00  0.00     0.041 C 
ATOM      3  O   UNL     1      17.567 -21.813  25.910  1.00  0.00    -0.550 OA
ATOM      4  O   UNL     1      19.723 -22.505  25.564  1.00  0.00    -0.550 OA
ENDBRANCH   1   2
BRANCH   1   5
ATOM      5  C   UNL     1      18.169 -20.311  23.296  1.00  0.00     0.003 C 
ATOM      6  C   UNL     1      19.513 -19.677  22.940  1.00  0.00     0.004 C 
ENDBRANCH   1   5
TORSDOF 2
ENDMDL
MODEL 4
REMARK VINA RESULT:    -2.692     10.043     10.807
REMARK INTER + INTRA:          -3.032
REMARK INTER:                  -3.027
REMARK INTRA:                  -0.005
REMARK UNBOUND:                -0.025
REMARK SMILES CCCC(=O)[O-]
REMARK SMILES IDX 3 1 4 2 5 3 6 4 2 5 1 6
REMARK H PARENT
REMARK Flexibility Score: inf
ROOT
ATOM      1  C   UNL     1      17.444 -19.809  22.826  1.00  0.00     0.052 C 
ENDROOT
BRANCH   1   2
ATOM      2  C   UNL     1      16.467 -20.733  23.488  1.00  0.00     0.041 C 
ATOM      3  O   UNL     1      16.107 -21.792  22.910  1.00  0.00    -0.550 OA
ATOM      4  O   UNL     1      15.982 -20.442  24.757  1.00  0.00    -0.550 OA
ENDBRANCH   1   2
BRANCH   1   5
ATOM      5  C   UNL     1      18.894 -20.186  23.152  1.00  0.00     0.003 C 
ATOM      6  C   UNL     1      19.899 -19.194  22.567  1.00  0.00     0.004 C 
ENDBRANCH   1   5
TORSDOF 2
ENDMDL
MODEL 5
REMARK VINA RESULT:    -2.689      6.737      7.156
REMARK INTER + INTRA:          -3.029
REMARK INTER:                  -3.022
REMARK INTRA:                  -0.007
REMARK UNBOUND:                -0.025
REMARK SMILES CCCC(=O)[O-]
REMARK SMILES IDX 3 1 4 2 5 3 6 4 2 5 1 6
REMARK H PARENT
REMARK Flexibility Score: inf
ROOT
ATOM      1  C   UNL     1       7.018 -21.497  21.349  1.00  0.00     0.052 C 
ENDROOT
BRANCH   1   2
ATOM      2  C   UNL     1       8.000 -22.351  20.609  1.00  0.00     0.041 C 
ATOM      3  O   UNL     1       8.321 -22.066  19.425  1.00  0.00    -0.550 OA
ATOM      4  O   UNL     1       8.589 -23.442  21.237  1.00  0.00    -0.550 OA
ENDBRANCH   1   2
BRANCH   1   5
ATOM      5  C   UNL     1       7.485 -21.201  22.779  1.00  0.00     0.003 C 
ATOM      6  C   UNL     1       6.427 -20.458  23.596  1.00  0.00     0.004 C 
ENDBRANCH   1   5
TORSDOF 2
ENDMDL
MODEL 6
REMARK VINA RESULT:    -2.629      2.116      3.128
REMARK INTER + INTRA:          -2.961
REMARK INTER:                  -2.940
REMARK INTRA:                  -0.022
REMARK UNBOUND:                -0.025
REMARK SMILES CCCC(=O)[O-]
REMARK SMILES IDX 3 1 4 2 5 3 6 4 2 5 1 6
REMARK H PARENT
REMARK Flexibility Score: inf
ROOT
ATOM      1  C   UNL     1       9.149 -15.372  24.574  1.00  0.00     0.052 C 
ENDROOT
BRANCH   1   2
ATOM      2  C   UNL     1       7.951 -15.575  23.699  1.00  0.00     0.041 C 
ATOM      3  O   UNL     1       7.522 -14.632  22.983  1.00  0.00    -0.550 OA
ATOM      4  O   UNL     1       7.328 -16.816  23.645  1.00  0.00    -0.550 OA
ENDBRANCH   1   2
BRANCH   1   5
ATOM      5  C   UNL     1      10.454 -15.401  23.769  1.00  0.00     0.003 C 
ATOM      6  C   UNL     1      11.328 -16.604  24.121  1.00  0.00     0.004 C 
ENDBRANCH   1   5
TORSDOF 2
ENDMDL
MODEL 7
REMARK VINA RESULT:    -2.618      3.796      4.433
REMARK INTER + INTRA:          -2.949
REMARK INTER:                  -2.941
REMARK INTRA:                  -0.008
REMARK UNBOUND:                -0.025
REMARK SMILES CCCC(=O)[O-]
REMARK SMILES IDX 3 1 4 2 5 3 6 4 2 5 1 6
REMARK H PARENT
REMARK Flexibility Score: inf
ROOT
ATOM      1  C   UNL     1       6.739 -19.215  24.166  1.00  0.00     0.052 C 
ENDROOT
BRANCH   1   2
ATOM      2  C   UNL     1       7.017 -18.862  25.595  1.00  0.00     0.041 C 
ATOM      3  O   UNL     1       7.493 -17.733  25.887  1.00  0.00    -0.550 OA
ATOM      4  O   UNL     1       6.720 -19.765  26.608  1.00  0.00    -0.550 OA
ENDBRANCH   1   2
BRANCH   1   5
ATOM      5  C   UNL     1       6.706 -20.733  23.951  1.00  0.00     0.003 C 
ATOM      6  C   UNL     1       7.116 -21.130  22.534  1.00  0.00     0.004 C 
ENDBRANCH   1   5
TORSDOF 2
ENDMDL
MODEL 8
REMARK VINA RESULT:    -2.580      1.673      2.411
REMARK INTER + INTRA:          -2.907
REMARK INTER:                  -2.869
REMARK INTRA:                  -0.038
REMARK UNBOUND:                -0.025
REMARK SMILES CCCC(=O)[O-]
REMARK SMILES IDX 3 1 4 2 5 3 6 4 2 5 1 6
REMARK H PARENT
REMARK Flexibility Score: inf
ROOT
ATOM      1  C   UNL     1       6.993 -17.638  24.033  1.00  0.00     0.052 C 
ENDROOT
BRANCH   1   2
ATOM      2  C   UNL     1       7.555 -17.728  25.418  1.00  0.00     0.041 C 
ATOM      3  O   UNL     1       7.486 -18.808  26.061  1.00  0.00    -0.550 OA
ATOM      4  O   UNL     1       8.186 -16.628  25.987  1.00  0.00    -0.550 OA
ENDBRANCH   1   2
BRANCH   1   5
ATOM      5  C   UNL     1       7.797 -16.673  23.153  1.00  0.00     0.003 C 
ATOM      6  C   UNL     1       6.983 -15.449  22.735  1.00  0.00     0.004 C 
ENDBRANCH   1   5
TORSDOF 2
ENDMDL
MODEL 9
REMARK VINA RESULT:    -2.511      5.988      6.521
REMARK INTER + INTRA:          -2.829
REMARK INTER:                  -2.791
REMARK INTRA:                  -0.039
REMARK UNBOUND:                -0.025
REMARK SMILES CCCC(=O)[O-]
REMARK SMILES IDX 3 1 4 2 5 3 6 4 2 5 1 6
REMARK H PARENT
REMARK Flexibility Score: inf
ROOT
ATOM      1  C   UNL     1       7.562 -21.572  21.513  1.00  0.00     0.052 C 
ENDROOT
BRANCH   1   2
ATOM      2  C   UNL     1       7.417 -20.860  22.822  1.00  0.00     0.041 C 
ATOM      3  O   UNL     1       6.281 -20.723  23.346  1.00  0.00    -0.550 OA
ATOM      4  O   UNL     1       8.541 -20.378  23.482  1.00  0.00    -0.550 OA
ENDBRANCH   1   2
BRANCH   1   5
ATOM      5  C   UNL     1       8.175 -22.967  21.688  1.00  0.00     0.003 C 
ATOM      6  C   UNL     1       9.655 -23.005  21.307  1.00  0.00     0.004 C 
ENDBRANCH   1   5
TORSDOF 2
ENDMDL
