MODEL 1
REMARK VINA RESULT:    -4.420      0.000      0.000
REMARK INTER + INTRA:          -6.211
REMARK INTER:                  -5.971
REMARK INTRA:                  -0.240
REMARK UNBOUND:                -0.240
REMARK SMILES CCCCCCCC(=O)[O-]
REMARK SMILES IDX 5 1 6 2 7 3 8 4 9 5 10 6 4 7 3 8 2 9 1 10
REMARK H PARENT
REMARK Flexibility Score: inf
ROOT
ATOM      1  C   UNL     1       3.053 -29.224   3.172  1.00  0.00     0.000 C 
ENDROOT
BRANCH   1   2
ATOM      2  C   UNL     1       3.821 -29.784   4.382  1.00  0.00     0.006 C 
BRANCH   2   3
ATOM      3  C   UNL     1       3.091 -29.517   5.705  1.00  0.00     0.053 C 
BRANCH   3   4
ATOM      4  C   UNL     1       2.050 -30.558   5.983  1.00  0.00     0.041 C 
ATOM      5  O   UNL     1       0.914 -30.220   6.410  1.00  0.00    -0.550 OA
ATOM      6  O   UNL     1       2.346 -31.903   5.803  1.00  0.00    -0.550 OA
ENDBRANCH   3   4
ENDBRANCH   2   3
ENDBRANCH   1   2
BRANCH   1   7
ATOM      7  C   UNL     1       3.853 -29.327   1.864  1.00  0.00     0.000 C 
BRANCH   7   8
ATOM      8  C   UNL     1       3.183 -28.579   0.701  1.00  0.00    -0.000 C 
BRANCH   8   9
ATOM      9  C   UNL     1       1.794 -28.071   1.104  1.00  0.00    -0.003 C 
ATOM     10  C   UNL     1       1.084 -27.413  -0.075  1.00  0.00     0.004 C 
ENDBRANCH   8   9
ENDBRANCH   7   8
ENDBRANCH   1   7
TORSDOF 6
ENDMDL
MODEL 2
REMARK VINA RESULT:    -4.411      0.945      1.195
REMARK INTER + INTRA:          -6.198
REMARK INTER:                  -6.009
REMARK INTRA:                  -0.189
REMARK UNBOUND:                -0.240
REMARK SMILES CCCCCCCC(=O)[O-]
REMARK SMILES IDX 5 1 6 2 7 3 8 4 9 5 10 6 4 7 3 8 2 9 1 10
REMARK H PARENT
REMARK Flexibility Score: inf
ROOT
ATOM      1  C   UNL     1       4.170 -29.552   2.455  1.00  0.00     0.000 C 
ENDROOT
BRANCH   1   2
ATOM      2  C   UNL     1       3.241 -29.222   3.636  1.00  0.00     0.006 C 
BRANCH   2   3
ATOM      3  C   UNL     1       3.756 -29.806   4.958  1.00  0.00     0.053 C 
BRANCH   3   4
ATOM      4  C   UNL     1       2.676 -29.867   5.994  1.00  0.00     0.041 C 
ATOM      5  O   UNL     1       2.458 -28.878   6.743  1.00  0.00    -0.550 OA
ATOM      6  O   UNL     1       1.932 -31.029   6.156  1.00  0.00    -0.550 OA
ENDBRANCH   3   4
ENDBRANCH   2   3
ENDBRANCH   1   2
BRANCH   1   7
ATOM      7  C   UNL     1       3.649 -28.998   1.119  1.00  0.00     0.000 C 
BRANCH   7   8
ATOM      8  C   UNL     1       2.262 -28.349   1.251  1.00  0.00    -0.000 C 
BRANCH   8   9
ATOM      9  C   UNL     1       1.647 -28.090  -0.129  1.00  0.00    -0.003 C 
ATOM     10  C   UNL     1       0.488 -27.100  -0.039  1.00  0.00     0.004 C 
ENDBRANCH   8   9
ENDBRANCH   7   8
ENDBRANCH   1   7
TORSDOF 6
ENDMDL
MODEL 3
REMARK VINA RESULT:    -4.329      6.040      7.604
REMARK INTER + INTRA:          -6.087
REMARK INTER:                  -5.816
REMARK INTRA:                  -0.271
REMARK UNBOUND:                -0.240
REMARK SMILES CCCCCCCC(=O)[O-]
REMARK SMILES IDX 5 1 6 2 7 3 8 4 9 5 10 6 4 7 3 8 2 9 1 10
REMARK H PARENT
REMARK Flexibility Score: inf
ROOT
ATOM      1  C   UNL     1      -1.457 -26.635   0.105  1.00  0.00     0.000 C 
ENDROOT
BRANCH   1   2
ATOM      2  C   UNL     1      -2.308 -25.379  -0.151  1.00  0.00     0.006 C 
BRANCH   2   3
ATOM      3  C   UNL     1      -1.445 -24.151  -0.471  1.00  0.00     0.053 C 
BRANCH   3   4
ATOM      4  C   UNL     1      -1.765 -22.999   0.432  1.00  0.00     0.041 C 
ATOM      5  O   UNL     1      -0.909 -22.099   0.639  1.00  0.00    -0.550 OA
ATOM      6  O   UNL     1      -2.997 -22.937   1.071  1.00  0.00    -0.550 OA
ENDBRANCH   3   4
ENDBRANCH   2   3
ENDBRANCH   1   2
BRANCH   1   7
ATOM      7  C   UNL     1       0.025 -26.428  -0.244  1.00  0.00     0.000 C 
BRANCH   7   8
ATOM      8  C   UNL     1       0.947 -27.422   0.478  1.00  0.00    -0.000 C 
BRANCH   8   9
ATOM      9  C   UNL     1       2.177 -27.749  -0.376  1.00  0.00    -0.003 C 
ATOM     10  C   UNL     1       2.177 -26.944  -1.673  1.00  0.00     0.004 C 
ENDBRANCH   8   9
ENDBRANCH   7   8
ENDBRANCH   1   7
TORSDOF 6
ENDMDL
MODEL 4
REMARK VINA RESULT:    -4.296      4.988      7.421
REMARK INTER + INTRA:          -6.042
REMARK INTER:                  -5.893
REMARK INTRA:                  -0.150
REMARK UNBOUND:                -0.240
REMARK SMILES CCCCCCCC(=O)[O-]
REMARK SMILES IDX 5 1 6 2 7 3 8 4 9 5 10 6 4 7 3 8 2 9 1 10
REMARK H PARENT
REMARK Flexibility Score: inf
ROOT
ATOM      1  C   UNL     1      -0.365 -26.373  -0.250  1.00  0.00     0.000 C 
ENDROOT
BRANCH   1   2
ATOM      2  C   UNL     1      -0.682 -25.483  -1.466  1.00  0.00     0.006 C 
BRANCH   2   3
ATOM      3  C   UNL     1      -2.100 -24.902  -1.403  1.00  0.00     0.053 C 
BRANCH   3   4
ATOM      4  C   UNL     1      -2.295 -24.048  -0.187  1.00  0.00     0.041 C 
ATOM      5  O   UNL     1      -3.315 -24.199   0.537  1.00  0.00    -0.550 OA
ATOM      6  O   UNL     1      -1.368 -23.063   0.126  1.00  0.00    -0.550 OA
ENDBRANCH   3   4
ENDBRANCH   2   3
ENDBRANCH   1   2
BRANCH   1   7
ATOM      7  C   UNL     1       1.099 -26.839  -0.224  1.00  0.00     0.000 C 
BRANCH   7   8
ATOM      8  C   UNL     1       1.401 -27.771   0.959  1.00  0.00    -0.000 C 
BRANCH   8   9
ATOM      9  C   UNL     1       2.759 -28.458   0.782  1.00  0.00    -0.003 C 
ATOM     10  C   UNL     1       3.314 -28.938   2.121  1.00  0.00     0.004 C 
ENDBRANCH   8   9
ENDBRANCH   7   8
ENDBRANCH   1   7
TORSDOF 6
ENDMDL
MODEL 5
REMARK VINA RESULT:    -4.291      1.471      2.337
REMARK INTER + INTRA:          -6.036
REMARK INTER:                  -5.839
REMARK INTRA:                  -0.198
REMARK UNBOUND:                -0.240
REMARK SMILES CCCCCCCC(=O)[O-]
REMARK SMILES IDX 5 1 6 2 7 3 8 4 9 5 10 6 4 7 3 8 2 9 1 10
REMARK H PARENT
REMARK Flexibility Score: inf
ROOT
ATOM      1  C   UNL     1       3.012 -28.891   1.257  1.00  0.00     0.000 C 
ENDROOT
BRANCH   1   2
ATOM      2  C   UNL     1       2.928 -29.883   2.430  1.00  0.00     0.006 C 
BRANCH   2   3
ATOM      3  C   UNL     1       3.526 -29.305   3.719  1.00  0.00     0.053 C 
BRANCH   3   4
ATOM      4  C   UNL     1       2.979 -29.986   4.937  1.00  0.00     0.041 C 
ATOM      5  O   UNL     1       2.669 -31.206   4.896  1.00  0.00    -0.550 OA
ATOM      6  O   UNL     1       2.780 -29.264   6.107  1.00  0.00    -0.550 OA
ENDBRANCH   3   4
ENDBRANCH   2   3
ENDBRANCH   1   2
BRANCH   1   7
ATOM      7  C   UNL     1       1.771 -27.990   1.154  1.00  0.00     0.000 C 
BRANCH   7   8
ATOM      8  C   UNL     1       1.587 -27.396  -0.251  1.00  0.00    -0.000 C 
BRANCH   8   9
ATOM      9  C   UNL     1       2.763 -27.768  -1.161  1.00  0.00    -0.003 C 
ATOM     10  C   UNL     1       2.654 -27.073  -2.516  1.00  0.00     0.004 C 
ENDBRANCH   8   9
ENDBRANCH   7   8
ENDBRANCH   1   7
TORSDOF 6
ENDMDL
MODEL 6
REMARK VINA RESULT:    -4.224      5.105      7.311
REMARK INTER + INTRA:          -5.945
REMARK INTER:                  -5.701
REMARK INTRA:                  -0.244
REMARK UNBOUND:                -0.240
REMARK SMILES CCCCCCCC(=O)[O-]
REMARK SMILES IDX 5 1 6 2 7 3 8 4 9 5 10 6 4 7 3 8 2 9 1 10
REMARK H PARENT
REMARK Flexibility Score: inf
ROOT
ATOM      1  C   UNL     1      -1.927 -25.249  -0.512  1.00  0.00     0.000 C 
ENDROOT
BRANCH   1   2
ATOM      2  C   UNL     1      -0.526 -25.844  -0.743  1.00  0.00     0.006 C 
BRANCH   2   3
ATOM      3  C   UNL     1      -0.277 -27.087   0.120  1.00  0.00     0.053 C 
BRANCH   3   4
ATOM      4  C   UNL     1       1.166 -27.491   0.105  1.00  0.00     0.041 C 
ATOM      5  O   UNL     1       1.778 -27.619  -0.988  1.00  0.00    -0.550 OA
ATOM      6  O   UNL     1       1.825 -27.760   1.298  1.00  0.00    -0.550 OA
ENDBRANCH   3   4
ENDBRANCH   2   3
ENDBRANCH   1   2
BRANCH   1   7
ATOM      7  C   UNL     1      -2.766 -26.076   0.474  1.00  0.00     0.000 C 
BRANCH   7   8
ATOM      8  C   UNL     1      -4.080 -25.380   0.860  1.00  0.00    -0.000 C 
BRANCH   8   9
ATOM      9  C   UNL     1      -3.913 -23.857   0.862  1.00  0.00    -0.003 C 
ATOM     10  C   UNL     1      -4.859 -23.199   1.863  1.00  0.00     0.004 C 
ENDBRANCH   8   9
ENDBRANCH   7   8
ENDBRANCH   1   7
TORSDOF 6
ENDMDL
MODEL 7
REMARK VINA RESULT:    -4.216      3.972      6.156
REMARK INTER + INTRA:          -5.935
REMARK INTER:                  -5.728
REMARK INTRA:                  -0.207
REMARK UNBOUND:                -0.240
REMARK SMILES CCCCCCCC(=O)[O-]
REMARK SMILES IDX 5 1 6 2 7 3 8 4 9 5 10 6 4 7 3 8 2 9 1 10
REMARK H PARENT
REMARK Flexibility Score: inf
ROOT
ATOM      1  C   UNL     1       1.923 -27.732  -0.548  1.00  0.00     0.000 C 
ENDROOT
BRANCH   1   2
ATOM      2  C   UNL     1       0.721 -27.315   0.318  1.00  0.00     0.006 C 
BRANCH   2   3
ATOM      3  C   UNL     1       0.113 -25.983  -0.138  1.00  0.00     0.053 C 
BRANCH   3   4
ATOM      4  C   UNL     1      -1.385 -26.032  -0.148  1.00  0.00     0.041 C 
ATOM      5  O   UNL     1      -1.993 -26.952   0.461  1.00  0.00    -0.550 OA
ATOM      6  O   UNL     1      -2.107 -25.082  -0.858  1.00  0.00    -0.550 OA
ENDBRANCH   3   4
ENDBRANCH   2   3
ENDBRANCH   1   2
BRANCH   1   7
ATOM      7  C   UNL     1       2.983 -28.510   0.246  1.00  0.00     0.000 C 
BRANCH   7   8
ATOM      8  C   UNL     1       2.726 -28.481   1.761  1.00  0.00    -0.000 C 
BRANCH   8   9
ATOM      9  C   UNL     1       3.553 -29.553   2.478  1.00  0.00    -0.003 C 
ATOM     10  C   UNL     1       3.500 -29.370   3.992  1.00  0.00     0.004 C 
ENDBRANCH   8   9
ENDBRANCH   7   8
ENDBRANCH   1   7
TORSDOF 6
ENDMDL
MODEL 8
REMARK VINA RESULT:    -4.199      5.712      8.151
REMARK INTER + INTRA:          -5.911
REMARK INTER:                  -5.727
REMARK INTRA:                  -0.185
REMARK UNBOUND:                -0.240
REMARK SMILES CCCCCCCC(=O)[O-]
REMARK SMILES IDX 5 1 6 2 7 3 8 4 9 5 10 6 4 7 3 8 2 9 1 10
REMARK H PARENT
REMARK Flexibility Score: inf
ROOT
ATOM      1  C   UNL     1      -1.242 -25.117  -1.424  1.00  0.00     0.000 C 
ENDROOT
BRANCH   1   2
ATOM      2  C   UNL     1      -2.606 -24.442  -1.197  1.00  0.00     0.006 C 
BRANCH   2   3
ATOM      3  C   UNL     1      -2.708 -23.797   0.191  1.00  0.00     0.053 C 
BRANCH   3   4
ATOM      4  C   UNL     1      -4.104 -23.869   0.734  1.00  0.00     0.041 C 
ATOM      5  O   UNL     1      -4.927 -24.695   0.258  1.00  0.00    -0.550 OA
ATOM      6  O   UNL     1      -4.503 -23.001   1.741  1.00  0.00    -0.550 OA
ENDBRANCH   3   4
ENDBRANCH   2   3
ENDBRANCH   1   2
BRANCH   1   7
ATOM      7  C   UNL     1      -0.914 -26.165  -0.349  1.00  0.00     0.000 C 
BRANCH   7   8
ATOM      8  C   UNL     1       0.596 -26.307  -0.104  1.00  0.00    -0.000 C 
BRANCH   8   9
ATOM      9  C   UNL     1       1.025 -27.777  -0.169  1.00  0.00    -0.003 C 
ATOM     10  C   UNL     1       1.884 -28.155   1.034  1.00  0.00     0.004 C 
ENDBRANCH   8   9
ENDBRANCH   7   8
ENDBRANCH   1   7
TORSDOF 6
ENDMDL
MODEL 9
REMARK VINA RESULT:    -4.157      6.336      8.674
REMARK INTER + INTRA:          -5.855
REMARK INTER:                  -5.559
REMARK INTRA:                  -0.296
REMARK UNBOUND:                -0.240
REMARK SMILES CCCCCCCC(=O)[O-]
REMARK SMILES IDX 5 1 6 2 7 3 8 4 9 5 10 6 4 7 3 8 2 9 1 10
REMARK H PARENT
REMARK Flexibility Score: inf
ROOT
ATOM      1  C   UNL     1      -3.377 -24.478  -1.463  1.00  0.00     0.000 C 
ENDROOT
BRANCH   1   2
ATOM      2  C   UNL     1      -2.042 -24.335  -0.711  1.00  0.00     0.006 C 
BRANCH   2   3
ATOM      3  C   UNL     1      -0.959 -25.263  -1.274  1.00  0.00     0.053 C 
BRANCH   3   4
ATOM      4  C   UNL     1      -0.665 -26.400  -0.344  1.00  0.00     0.041 C 
ATOM      5  O   UNL     1       0.493 -26.895  -0.292  1.00  0.00    -0.550 OA
ATOM      6  O   UNL     1      -1.677 -26.936   0.441  1.00  0.00    -0.550 OA
ENDBRANCH   3   4
ENDBRANCH   2   3
ENDBRANCH   1   2
BRANCH   1   7
ATOM      7  C   UNL     1      -4.567 -24.709  -0.518  1.00  0.00     0.000 C 
BRANCH   7   8
ATOM      8  C   UNL     1      -4.195 -24.507   0.959  1.00  0.00    -0.000 C 
BRANCH   8   9
ATOM      9  C   UNL     1      -4.595 -23.106   1.438  1.00  0.00    -0.003 C 
ATOM     10  C   UNL     1      -5.513 -23.180   2.655  1.00  0.00     0.004 C 
ENDBRANCH   8   9
ENDBRANCH   7   8
ENDBRANCH   1   7
TORSDOF 6
ENDMDL
