MODEL 1
REMARK VINA RESULT:    -3.354      0.000      0.000
REMARK INTER + INTRA:          -5.500
REMARK INTER:                  -4.824
REMARK INTRA:                  -0.676
REMARK UNBOUND:                -0.676
REMARK SMILES CCCCCCCCCO
REMARK SMILES IDX 6 1 5 2 4 3 3 4 2 5 1 6 7 7 8 8 9 9 10 10
REMARK H PARENT 10 11
REMARK Flexibility Score: inf
ROOT
ATOM      1  C   UNL     1     128.186 143.105 105.490  1.00  0.00     0.000 C 
ENDROOT
BRANCH   1   2
ATOM      2  C   UNL     1     127.573 144.379 104.886  1.00  0.00     0.000 C 
BRANCH   2   3
ATOM      3  C   UNL     1     127.899 145.639 105.707  1.00  0.00    -0.000 C 
BRANCH   3   4
ATOM      4  C   UNL     1     128.984 145.389 106.766  1.00  0.00    -0.000 C 
BRANCH   4   5
ATOM      5  C   UNL     1     128.503 145.707 108.189  1.00  0.00    -0.003 C 
ATOM      6  C   UNL     1     126.979 145.776 108.252  1.00  0.00     0.004 C 
ENDBRANCH   4   5
ENDBRANCH   3   4
ENDBRANCH   2   3
ENDBRANCH   1   2
BRANCH   1   7
ATOM      7  C   UNL     1     127.135 142.202 106.154  1.00  0.00     0.002 C 
BRANCH   7   8
ATOM      8  C   UNL     1     127.495 141.929 107.621  1.00  0.00     0.028 C 
BRANCH   8   9
ATOM      9  C   UNL     1     128.113 140.541 107.804  1.00  0.00     0.156 C 
BRANCH   9  10
ATOM     10  O   UNL     1     127.104 139.572 107.889  1.00  0.00    -0.396 OA
ATOM     11  H   UNL     1     127.333 139.005 108.671  1.00  0.00     0.210 HD
ENDBRANCH   9  10
ENDBRANCH   8   9
ENDBRANCH   7   8
ENDBRANCH   1   7
TORSDOF 8
ENDMDL
MODEL 2
REMARK VINA RESULT:    -3.318      0.895      1.088
REMARK INTER + INTRA:          -5.448
REMARK INTER:                  -5.002
REMARK INTRA:                  -0.446
REMARK UNBOUND:                -0.676
REMARK SMILES CCCCCCCCCO
REMARK SMILES IDX 6 1 5 2 4 3 3 4 2 5 1 6 7 7 8 8 9 9 10 10
REMARK H PARENT 10 11
REMARK Flexibility Score: inf
ROOT
ATOM      1  C   UNL     1     127.980 143.144 105.320  1.00  0.00     0.000 C 
ENDROOT
BRANCH   1   2
ATOM      2  C   UNL     1     127.487 144.548 104.935  1.00  0.00     0.000 C 
BRANCH   2   3
ATOM      3  C   UNL     1     128.230 145.663 105.692  1.00  0.00    -0.000 C 
BRANCH   3   4
ATOM      4  C   UNL     1     129.701 145.313 105.964  1.00  0.00    -0.000 C 
BRANCH   4   5
ATOM      5  C   UNL     1     130.164 145.757 107.360  1.00  0.00    -0.003 C 
ATOM      6  C   UNL     1     129.000 145.773 108.346  1.00  0.00     0.004 C 
ENDBRANCH   4   5
ENDBRANCH   3   4
ENDBRANCH   2   3
ENDBRANCH   1   2
BRANCH   1   7
ATOM      7  C   UNL     1     127.212 142.554 106.513  1.00  0.00     0.002 C 
BRANCH   7   8
ATOM      8  C   UNL     1     127.162 141.023 106.430  1.00  0.00     0.028 C 
BRANCH   8   9
ATOM      9  C   UNL     1     127.809 140.367 107.651  1.00  0.00     0.156 C 
BRANCH   9  10
ATOM     10  O   UNL     1     127.126 139.190 107.984  1.00  0.00    -0.396 OA
ATOM     11  H   UNL     1     126.703 138.870 107.145  1.00  0.00     0.210 HD
ENDBRANCH   9  10
ENDBRANCH   8   9
ENDBRANCH   7   8
ENDBRANCH   1   7
TORSDOF 8
ENDMDL
MODEL 3
REMARK VINA RESULT:    -3.313      0.617      1.037
REMARK INTER + INTRA:          -5.442
REMARK INTER:                  -4.889
REMARK INTRA:                  -0.552
REMARK UNBOUND:                -0.676
REMARK SMILES CCCCCCCCCO
REMARK SMILES IDX 6 1 5 2 4 3 3 4 2 5 1 6 7 7 8 8 9 9 10 10
REMARK H PARENT 10 11
REMARK Flexibility Score: inf
ROOT
ATOM      1  C   UNL     1     128.165 143.181 105.482  1.00  0.00     0.000 C 
ENDROOT
BRANCH   1   2
ATOM      2  C   UNL     1     127.604 144.481 104.883  1.00  0.00     0.000 C 
BRANCH   2   3
ATOM      3  C   UNL     1     127.902 145.711 105.759  1.00  0.00    -0.000 C 
BRANCH   3   4
ATOM      4  C   UNL     1     126.876 145.896 106.887  1.00  0.00    -0.000 C 
BRANCH   4   5
ATOM      5  C   UNL     1     127.537 146.099 108.258  1.00  0.00    -0.003 C 
ATOM      6  C   UNL     1     128.986 145.621 108.246  1.00  0.00     0.004 C 
ENDBRANCH   4   5
ENDBRANCH   3   4
ENDBRANCH   2   3
ENDBRANCH   1   2
BRANCH   1   7
ATOM      7  C   UNL     1     127.068 142.281 106.072  1.00  0.00     0.002 C 
BRANCH   7   8
ATOM      8  C   UNL     1     127.545 141.615 107.369  1.00  0.00     0.028 C 
BRANCH   8   9
ATOM      9  C   UNL     1     127.900 140.142 107.153  1.00  0.00     0.156 C 
BRANCH   9  10
ATOM     10  O   UNL     1     127.081 139.328 107.947  1.00  0.00    -0.396 OA
ATOM     11  H   UNL     1     127.042 138.448 107.489  1.00  0.00     0.210 HD
ENDBRANCH   9  10
ENDBRANCH   8   9
ENDBRANCH   7   8
ENDBRANCH   1   7
TORSDOF 8
ENDMDL
MODEL 4
REMARK VINA RESULT:    -3.306      1.718      3.281
REMARK INTER + INTRA:          -5.430
REMARK INTER:                  -4.624
REMARK INTRA:                  -0.807
REMARK UNBOUND:                -0.676
REMARK SMILES CCCCCCCCCO
REMARK SMILES IDX 6 1 5 2 4 3 3 4 2 5 1 6 7 7 8 8 9 9 10 10
REMARK H PARENT 10 11
REMARK Flexibility Score: inf
ROOT
ATOM      1  C   UNL     1     126.981 145.307 107.962  1.00  0.00     0.000 C 
ENDROOT
BRANCH   1   2
ATOM      2  C   UNL     1     126.937 145.980 106.581  1.00  0.00     0.000 C 
BRANCH   2   3
ATOM      3  C   UNL     1     128.039 145.464 105.637  1.00  0.00    -0.000 C 
BRANCH   3   4
ATOM      4  C   UNL     1     127.661 144.139 104.958  1.00  0.00    -0.000 C 
BRANCH   4   5
ATOM      5  C   UNL     1     128.600 142.988 105.349  1.00  0.00    -0.003 C 
ATOM      6  C   UNL     1     129.960 143.516 105.797  1.00  0.00     0.004 C 
ENDBRANCH   4   5
ENDBRANCH   3   4
ENDBRANCH   2   3
ENDBRANCH   1   2
BRANCH   1   7
ATOM      7  C   UNL     1     128.364 145.409 108.625  1.00  0.00     0.002 C 
BRANCH   7   8
ATOM      8  C   UNL     1     128.691 144.131 109.409  1.00  0.00     0.028 C 
BRANCH   8   9
ATOM      9  C   UNL     1     127.789 142.966 108.998  1.00  0.00     0.156 C 
BRANCH   9  10
ATOM     10  O   UNL     1     127.315 142.299 110.135  1.00  0.00    -0.396 OA
ATOM     11  H   UNL     1     126.363 142.564 110.233  1.00  0.00     0.210 HD
ENDBRANCH   9  10
ENDBRANCH   8   9
ENDBRANCH   7   8
ENDBRANCH   1   7
TORSDOF 8
ENDMDL
MODEL 5
REMARK VINA RESULT:    -3.242      1.462      1.649
REMARK INTER + INTRA:          -5.339
REMARK INTER:                  -4.675
REMARK INTRA:                  -0.664
REMARK UNBOUND:                -0.676
REMARK SMILES CCCCCCCCCO
REMARK SMILES IDX 6 1 5 2 4 3 3 4 2 5 1 6 7 7 8 8 9 9 10 10
REMARK H PARENT 10 11
REMARK Flexibility Score: inf
ROOT
ATOM      1  C   UNL     1     127.867 142.688 105.746  1.00  0.00     0.000 C 
ENDROOT
BRANCH   1   2
ATOM      2  C   UNL     1     127.640 144.001 104.980  1.00  0.00     0.000 C 
BRANCH   2   3
ATOM      3  C   UNL     1     127.880 145.245 105.854  1.00  0.00    -0.000 C 
BRANCH   3   4
ATOM      4  C   UNL     1     129.373 145.556 106.039  1.00  0.00    -0.000 C 
BRANCH   4   5
ATOM      5  C   UNL     1     129.797 145.555 107.515  1.00  0.00    -0.003 C 
ATOM      6  C   UNL     1     128.624 145.912 108.424  1.00  0.00     0.004 C 
ENDBRANCH   4   5
ENDBRANCH   3   4
ENDBRANCH   2   3
ENDBRANCH   1   2
BRANCH   1   7
ATOM      7  C   UNL     1     127.250 142.711 107.153  1.00  0.00     0.002 C 
BRANCH   7   8
ATOM      8  C   UNL     1     127.970 141.725 108.083  1.00  0.00     0.028 C 
BRANCH   8   9
ATOM      9  C   UNL     1     128.282 142.352 109.443  1.00  0.00     0.156 C 
BRANCH   9  10
ATOM     10  O   UNL     1     127.146 142.313 110.263  1.00  0.00    -0.396 OA
ATOM     11  H   UNL     1     127.173 143.142 110.809  1.00  0.00     0.210 HD
ENDBRANCH   9  10
ENDBRANCH   8   9
ENDBRANCH   7   8
ENDBRANCH   1   7
TORSDOF 8
ENDMDL
MODEL 6
REMARK VINA RESULT:    -3.137      2.975      4.426
REMARK INTER + INTRA:          -5.188
REMARK INTER:                  -4.558
REMARK INTRA:                  -0.630
REMARK UNBOUND:                -0.676
REMARK SMILES CCCCCCCCCO
REMARK SMILES IDX 6 1 5 2 4 3 3 4 2 5 1 6 7 7 8 8 9 9 10 10
REMARK H PARENT 10 11
REMARK Flexibility Score: inf
ROOT
ATOM      1  C   UNL     1     126.878 145.280 107.401  1.00  0.00     0.000 C 
ENDROOT
BRANCH   1   2
ATOM      2  C   UNL     1     126.952 146.042 106.068  1.00  0.00     0.000 C 
BRANCH   2   3
ATOM      3  C   UNL     1     127.409 145.148 104.901  1.00  0.00    -0.000 C 
BRANCH   3   4
ATOM      4  C   UNL     1     127.549 143.673 105.307  1.00  0.00    -0.000 C 
BRANCH   4   5
ATOM      5  C   UNL     1     129.002 143.182 105.251  1.00  0.00    -0.003 C 
ATOM      6  C   UNL     1     129.367 142.398 106.509  1.00  0.00     0.004 C 
ENDBRANCH   4   5
ENDBRANCH   3   4
ENDBRANCH   2   3
ENDBRANCH   1   2
BRANCH   1   7
ATOM      7  C   UNL     1     127.687 145.961 108.516  1.00  0.00     0.002 C 
BRANCH   7   8
ATOM      8  C   UNL     1     129.193 145.760 108.301  1.00  0.00     0.028 C 
BRANCH   8   9
ATOM      9  C   UNL     1     129.934 145.567 109.626  1.00  0.00     0.156 C 
BRANCH   9  10
ATOM     10  O   UNL     1     130.277 146.811 110.172  1.00  0.00    -0.396 OA
ATOM     11  H   UNL     1     129.438 147.343 110.191  1.00  0.00     0.210 HD
ENDBRANCH   9  10
ENDBRANCH   8   9
ENDBRANCH   7   8
ENDBRANCH   1   7
TORSDOF 8
ENDMDL
MODEL 7
REMARK VINA RESULT:    -3.135      1.553      3.408
REMARK INTER + INTRA:          -5.185
REMARK INTER:                  -4.465
REMARK INTRA:                  -0.720
REMARK UNBOUND:                -0.676
REMARK SMILES CCCCCCCCCO
REMARK SMILES IDX 6 1 5 2 4 3 3 4 2 5 1 6 7 7 8 8 9 9 10 10
REMARK H PARENT 10 11
REMARK Flexibility Score: inf
ROOT
ATOM      1  C   UNL     1     129.529 145.301 107.911  1.00  0.00     0.000 C 
ENDROOT
BRANCH   1   2
ATOM      2  C   UNL     1     129.600 145.139 106.384  1.00  0.00     0.000 C 
BRANCH   2   3
ATOM      3  C   UNL     1     128.323 145.628 105.678  1.00  0.00    -0.000 C 
BRANCH   3   4
ATOM      4  C   UNL     1     127.547 144.487 105.003  1.00  0.00    -0.000 C 
BRANCH   4   5
ATOM      5  C   UNL     1     128.143 143.106 105.314  1.00  0.00    -0.003 C 
ATOM      6  C   UNL     1     127.201 142.286 106.193  1.00  0.00     0.004 C 
ENDBRANCH   4   5
ENDBRANCH   3   4
ENDBRANCH   2   3
ENDBRANCH   1   2
BRANCH   1   7
ATOM      7  C   UNL     1     128.239 145.995 108.372  1.00  0.00     0.002 C 
BRANCH   7   8
ATOM      8  C   UNL     1     127.315 145.008 109.097  1.00  0.00     0.028 C 
BRANCH   8   9
ATOM      9  C   UNL     1     128.079 143.784 109.605  1.00  0.00     0.156 C 
BRANCH   9  10
ATOM     10  O   UNL     1     127.217 142.683 109.698  1.00  0.00    -0.396 OA
ATOM     11  H   UNL     1     126.408 143.006 110.173  1.00  0.00     0.210 HD
ENDBRANCH   9  10
ENDBRANCH   8   9
ENDBRANCH   7   8
ENDBRANCH   1   7
TORSDOF 8
ENDMDL
MODEL 8
REMARK VINA RESULT:    -3.086      3.712      5.268
REMARK INTER + INTRA:          -5.114
REMARK INTER:                  -4.771
REMARK INTRA:                  -0.343
REMARK UNBOUND:                -0.676
REMARK SMILES CCCCCCCCCO
REMARK SMILES IDX 6 1 5 2 4 3 3 4 2 5 1 6 7 7 8 8 9 9 10 10
REMARK H PARENT 10 11
REMARK Flexibility Score: inf
ROOT
ATOM      1  C   UNL     1     129.923 144.991 106.141  1.00  0.00     0.000 C 
ENDROOT
BRANCH   1   2
ATOM      2  C   UNL     1     128.567 145.598 105.745  1.00  0.00     0.000 C 
BRANCH   2   3
ATOM      3  C   UNL     1     127.630 144.572 105.083  1.00  0.00    -0.000 C 
BRANCH   3   4
ATOM      4  C   UNL     1     128.109 143.126 105.276  1.00  0.00    -0.000 C 
BRANCH   4   5
ATOM      5  C   UNL     1     127.180 142.314 106.190  1.00  0.00    -0.003 C 
ATOM      6  C   UNL     1     127.620 142.412 107.648  1.00  0.00     0.004 C 
ENDBRANCH   4   5
ENDBRANCH   3   4
ENDBRANCH   2   3
ENDBRANCH   1   2
BRANCH   1   7
ATOM      7  C   UNL     1     131.058 146.026 106.133  1.00  0.00     0.002 C 
BRANCH   7   8
ATOM      8  C   UNL     1     131.835 145.996 107.456  1.00  0.00     0.028 C 
BRANCH   8   9
ATOM      9  C   UNL     1     133.304 146.376 107.260  1.00  0.00     0.156 C 
BRANCH   9  10
ATOM     10  O   UNL     1     133.758 147.125 108.354  1.00  0.00    -0.396 OA
ATOM     11  H   UNL     1     133.029 147.095 109.028  1.00  0.00     0.210 HD
ENDBRANCH   9  10
ENDBRANCH   8   9
ENDBRANCH   7   8
ENDBRANCH   1   7
TORSDOF 8
ENDMDL
MODEL 9
REMARK VINA RESULT:    -2.423      3.430      4.722
REMARK INTER + INTRA:          -4.160
REMARK INTER:                  -3.517
REMARK INTRA:                  -0.644
REMARK UNBOUND:                -0.676
REMARK SMILES CCCCCCCCCO
REMARK SMILES IDX 6 1 5 2 4 3 3 4 2 5 1 6 7 7 8 8 9 9 10 10
REMARK H PARENT 10 11
REMARK Flexibility Score: inf
ROOT
ATOM      1  C   UNL     1     129.977 143.540 106.640  1.00  0.00     0.000 C 
ENDROOT
BRANCH   1   2
ATOM      2  C   UNL     1     129.026 142.960 105.580  1.00  0.00     0.000 C 
BRANCH   2   3
ATOM      3  C   UNL     1     127.631 143.609 105.621  1.00  0.00    -0.000 C 
BRANCH   3   4
ATOM      4  C   UNL     1     127.527 144.842 104.710  1.00  0.00    -0.000 C 
BRANCH   4   5
ATOM      5  C   UNL     1     126.887 146.045 105.418  1.00  0.00    -0.003 C 
ATOM      6  C   UNL     1     126.875 145.850 106.932  1.00  0.00     0.004 C 
ENDBRANCH   4   5
ENDBRANCH   3   4
ENDBRANCH   2   3
ENDBRANCH   1   2
BRANCH   1   7
ATOM      7  C   UNL     1     131.084 144.411 106.026  1.00  0.00     0.002 C 
BRANCH   7   8
ATOM      8  C   UNL     1     130.764 145.902 106.194  1.00  0.00     0.028 C 
BRANCH   8   9
ATOM      9  C   UNL     1     132.027 146.763 106.139  1.00  0.00     0.156 C 
BRANCH   9  10
ATOM     10  O   UNL     1     132.482 147.036 107.437  1.00  0.00    -0.396 OA
ATOM     11  H   UNL     1     132.838 146.178 107.789  1.00  0.00     0.210 HD
ENDBRANCH   9  10
ENDBRANCH   8   9
ENDBRANCH   7   8
ENDBRANCH   1   7
TORSDOF 8
ENDMDL
