MODEL 1
REMARK VINA RESULT:    -4.167      0.000      0.000
REMARK INTER + INTRA:          -5.508
REMARK INTER:                  -5.141
REMARK INTRA:                  -0.367
REMARK UNBOUND:                -0.367
REMARK SMILES C=CC[C@H](C)C(=O)CC
REMARK SMILES IDX 4 1 5 2 6 3 7 4 8 5 9 6 3 7 2 8 1 9
REMARK H PARENT
REMARK Flexibility Score: inf
ROOT
ATOM      1  C   UNL     1      28.770  59.015  12.536  1.00  0.00     0.057 C 
ATOM      2  C   UNL     1      28.868  59.381  14.024  1.00  0.00     0.016 C 
ENDROOT
BRANCH   1   3
ATOM      3  C   UNL     1      28.315  57.580  12.353  1.00  0.00     0.135 C 
ATOM      4  O   UNL     1      28.228  56.840  13.322  1.00  0.00    -0.299 OA
BRANCH   3   5
ATOM      5  C   UNL     1      27.957  57.045  10.991  1.00  0.00     0.072 C 
ATOM      6  C   UNL     1      28.407  55.595  10.846  1.00  0.00     0.012 C 
ENDBRANCH   3   5
ENDBRANCH   1   3
BRANCH   1   7
ATOM      7  C   UNL     1      30.084  59.296  11.776  1.00  0.00     0.038 C 
BRANCH   7   8
ATOM      8  C   UNL     1      31.140  58.243  11.992  1.00  0.00    -0.034 C 
ATOM      9  C   UNL     1      31.684  57.570  10.973  1.00  0.00     0.004 C 
ENDBRANCH   7   8
ENDBRANCH   1   7
TORSDOF 4
ENDMDL
MODEL 2
REMARK VINA RESULT:    -4.148      8.346      9.485
REMARK INTER + INTRA:          -5.484
REMARK INTER:                  -5.237
REMARK INTRA:                  -0.247
REMARK UNBOUND:                -0.367
REMARK SMILES C=CC[C@H](C)C(=O)CC
REMARK SMILES IDX 4 1 5 2 6 3 7 4 8 5 9 6 3 7 2 8 1 9
REMARK H PARENT
REMARK Flexibility Score: inf
ROOT
ATOM      1  C   UNL     1      29.878  49.375  17.033  1.00  0.00     0.057 C 
ATOM      2  C   UNL     1      31.326  49.884  17.076  1.00  0.00     0.016 C 
ENDROOT
BRANCH   1   3
ATOM      3  C   UNL     1      29.674  48.400  15.890  1.00  0.00     0.135 C 
ATOM      4  O   UNL     1      30.499  47.520  15.685  1.00  0.00    -0.299 OA
BRANCH   3   5
ATOM      5  C   UNL     1      28.463  48.487  14.999  1.00  0.00     0.072 C 
ATOM      6  C   UNL     1      28.666  47.667  13.730  1.00  0.00     0.012 C 
ENDBRANCH   3   5
ENDBRANCH   1   3
BRANCH   1   7
ATOM      7  C   UNL     1      28.852  50.528  16.986  1.00  0.00     0.038 C 
BRANCH   7   8
ATOM      8  C   UNL     1      29.424  51.820  16.461  1.00  0.00    -0.034 C 
ATOM      9  C   UNL     1      28.996  53.009  16.895  1.00  0.00     0.004 C 
ENDBRANCH   7   8
ENDBRANCH   1   7
TORSDOF 4
ENDMDL
MODEL 3
REMARK VINA RESULT:    -4.138      1.736      3.589
REMARK INTER + INTRA:          -5.472
REMARK INTER:                  -5.248
REMARK INTRA:                  -0.223
REMARK UNBOUND:                -0.367
REMARK SMILES C=CC[C@H](C)C(=O)CC
REMARK SMILES IDX 4 1 5 2 6 3 7 4 8 5 9 6 3 7 2 8 1 9
REMARK H PARENT
REMARK Flexibility Score: inf
ROOT
ATOM      1  C   UNL     1      29.844  57.674  10.741  1.00  0.00     0.057 C 
ATOM      2  C   UNL     1      31.359  57.445  10.657  1.00  0.00     0.016 C 
ENDROOT
BRANCH   1   3
ATOM      3  C   UNL     1      29.507  58.744  11.761  1.00  0.00     0.135 C 
ATOM      4  O   UNL     1      30.155  59.781  11.793  1.00  0.00    -0.299 OA
BRANCH   3   5
ATOM      5  C   UNL     1      28.375  58.560  12.738  1.00  0.00     0.072 C 
ATOM      6  C   UNL     1      28.581  59.431  13.973  1.00  0.00     0.012 C 
ENDBRANCH   3   5
ENDBRANCH   1   3
BRANCH   1   7
ATOM      7  C   UNL     1      29.067  56.367  11.012  1.00  0.00     0.038 C 
BRANCH   7   8
ATOM      8  C   UNL     1      29.947  55.144  11.050  1.00  0.00    -0.034 C 
ATOM      9  C   UNL     1      29.437  53.908  11.061  1.00  0.00     0.004 C 
ENDBRANCH   7   8
ENDBRANCH   1   7
TORSDOF 4
ENDMDL
MODEL 4
REMARK VINA RESULT:    -4.125      9.068      9.924
REMARK INTER + INTRA:          -5.456
REMARK INTER:                  -5.045
REMARK INTRA:                  -0.411
REMARK UNBOUND:                -0.367
REMARK SMILES C=CC[C@H](C)C(=O)CC
REMARK SMILES IDX 4 1 5 2 6 3 7 4 8 5 9 6 3 7 2 8 1 9
REMARK H PARENT
REMARK Flexibility Score: inf
ROOT
ATOM      1  C   UNL     1      24.742  53.627  20.674  1.00  0.00     0.057 C 
ATOM      2  C   UNL     1      25.643  52.982  21.736  1.00  0.00     0.016 C 
ENDROOT
BRANCH   1   3
ATOM      3  C   UNL     1      24.233  52.595  19.687  1.00  0.00     0.135 C 
ATOM      4  O   UNL     1      23.391  52.908  18.858  1.00  0.00    -0.299 OA
BRANCH   3   5
ATOM      5  C   UNL     1      24.754  51.182  19.701  1.00  0.00     0.072 C 
ATOM      6  C   UNL     1      25.674  50.934  18.510  1.00  0.00     0.012 C 
ENDBRANCH   3   5
ENDBRANCH   1   3
BRANCH   1   7
ATOM      7  C   UNL     1      25.432  54.807  19.958  1.00  0.00     0.038 C 
BRANCH   7   8
ATOM      8  C   UNL     1      26.775  54.451  19.371  1.00  0.00    -0.034 C 
ATOM      9  C   UNL     1      27.858  55.207  19.579  1.00  0.00     0.004 C 
ENDBRANCH   7   8
ENDBRANCH   1   7
TORSDOF 4
ENDMDL
MODEL 5
REMARK VINA RESULT:    -4.100      1.036      2.746
REMARK INTER + INTRA:          -5.426
REMARK INTER:                  -5.034
REMARK INTRA:                  -0.392
REMARK UNBOUND:                -0.367
REMARK SMILES C=CC[C@H](C)C(=O)CC
REMARK SMILES IDX 4 1 5 2 6 3 7 4 8 5 9 6 3 7 2 8 1 9
REMARK H PARENT
REMARK Flexibility Score: inf
ROOT
ATOM      1  C   UNL     1      28.527  56.750  11.305  1.00  0.00     0.057 C 
ATOM      2  C   UNL     1      27.213  56.518  10.545  1.00  0.00     0.016 C 
ENDROOT
BRANCH   1   3
ATOM      3  C   UNL     1      28.264  57.217  12.723  1.00  0.00     0.135 C 
ATOM      4  O   UNL     1      28.480  56.465  13.662  1.00  0.00    -0.299 OA
BRANCH   3   5
ATOM      5  C   UNL     1      27.746  58.604  13.002  1.00  0.00     0.072 C 
ATOM      6  C   UNL     1      28.747  59.396  13.837  1.00  0.00     0.012 C 
ENDBRANCH   3   5
ENDBRANCH   1   3
BRANCH   1   7
ATOM      7  C   UNL     1      29.476  57.710  10.556  1.00  0.00     0.038 C 
BRANCH   7   8
ATOM      8  C   UNL     1      30.932  57.345  10.696  1.00  0.00    -0.034 C 
ATOM      9  C   UNL     1      31.686  57.824  11.691  1.00  0.00     0.004 C 
ENDBRANCH   7   8
ENDBRANCH   1   7
TORSDOF 4
ENDMDL
MODEL 6
REMARK VINA RESULT:    -4.095      1.570      2.197
REMARK INTER + INTRA:          -5.419
REMARK INTER:                  -4.932
REMARK INTRA:                  -0.487
REMARK UNBOUND:                -0.367
REMARK SMILES C=CC[C@H](C)C(=O)CC
REMARK SMILES IDX 4 1 5 2 6 3 7 4 8 5 9 6 3 7 2 8 1 9
REMARK H PARENT
REMARK Flexibility Score: inf
ROOT
ATOM      1  C   UNL     1      29.304  58.734  11.681  1.00  0.00     0.057 C 
ATOM      2  C   UNL     1      30.712  59.073  12.191  1.00  0.00     0.016 C 
ENDROOT
BRANCH   1   3
ATOM      3  C   UNL     1      28.362  58.435  12.830  1.00  0.00     0.135 C 
ATOM      4  O   UNL     1      28.210  59.255  13.724  1.00  0.00    -0.299 OA
BRANCH   3   5
ATOM      5  C   UNL     1      27.596  57.139  12.891  1.00  0.00     0.072 C 
ATOM      6  C   UNL     1      28.228  56.184  13.898  1.00  0.00     0.012 C 
ENDBRANCH   3   5
ENDBRANCH   1   3
BRANCH   1   7
ATOM      7  C   UNL     1      29.316  57.592  10.642  1.00  0.00     0.038 C 
BRANCH   7   8
ATOM      8  C   UNL     1      30.550  56.730  10.712  1.00  0.00    -0.034 C 
ATOM      9  C   UNL     1      30.485  55.428  11.012  1.00  0.00     0.004 C 
ENDBRANCH   7   8
ENDBRANCH   1   7
TORSDOF 4
ENDMDL
MODEL 7
REMARK VINA RESULT:    -4.080      8.344      9.745
REMARK INTER + INTRA:          -5.401
REMARK INTER:                  -5.058
REMARK INTRA:                  -0.343
REMARK UNBOUND:                -0.367
REMARK SMILES C=CC[C@H](C)C(=O)CC
REMARK SMILES IDX 4 1 5 2 6 3 7 4 8 5 9 6 3 7 2 8 1 9
REMARK H PARENT
REMARK Flexibility Score: inf
ROOT
ATOM      1  C   UNL     1      28.828  48.125  15.131  1.00  0.00     0.057 C 
ATOM      2  C   UNL     1      28.989  47.753  13.650  1.00  0.00     0.016 C 
ENDROOT
BRANCH   1   3
ATOM      3  C   UNL     1      28.278  49.529  15.286  1.00  0.00     0.135 C 
ATOM      4  O   UNL     1      28.255  50.285  14.326  1.00  0.00    -0.299 OA
BRANCH   3   5
ATOM      5  C   UNL     1      27.744  50.014  16.609  1.00  0.00     0.072 C 
ATOM      6  C   UNL     1      28.223  51.433  16.897  1.00  0.00     0.012 C 
ENDBRANCH   3   5
ENDBRANCH   1   3
BRANCH   1   7
ATOM      7  C   UNL     1      30.136  47.936  15.929  1.00  0.00     0.038 C 
BRANCH   7   8
ATOM      8  C   UNL     1      31.072  49.113  15.835  1.00  0.00    -0.034 C 
ATOM      9  C   UNL     1      31.561  49.715  16.924  1.00  0.00     0.004 C 
ENDBRANCH   7   8
ENDBRANCH   1   7
TORSDOF 4
ENDMDL
MODEL 8
REMARK VINA RESULT:    -4.079      5.560      7.527
REMARK INTER + INTRA:          -5.399
REMARK INTER:                  -4.989
REMARK INTRA:                  -0.410
REMARK UNBOUND:                -0.367
REMARK SMILES C=CC[C@H](C)C(=O)CC
REMARK SMILES IDX 4 1 5 2 6 3 7 4 8 5 9 6 3 7 2 8 1 9
REMARK H PARENT
REMARK Flexibility Score: inf
ROOT
ATOM      1  C   UNL     1      24.630  53.704   6.971  1.00  0.00     0.057 C 
ATOM      2  C   UNL     1      25.553  54.312   5.906  1.00  0.00     0.016 C 
ENDROOT
BRANCH   1   3
ATOM      3  C   UNL     1      24.163  54.757   7.957  1.00  0.00     0.135 C 
ATOM      4  O   UNL     1      23.248  54.507   8.728  1.00  0.00    -0.299 OA
BRANCH   3   5
ATOM      5  C   UNL     1      24.814  56.114   8.013  1.00  0.00     0.072 C 
ATOM      6  C   UNL     1      25.603  56.282   9.307  1.00  0.00     0.012 C 
ENDBRANCH   3   5
ENDBRANCH   1   3
BRANCH   1   7
ATOM      7  C   UNL     1      25.276  52.500   7.689  1.00  0.00     0.038 C 
BRANCH   7   8
ATOM      8  C   UNL     1      26.623  52.812   8.289  1.00  0.00    -0.034 C 
ATOM      9  C   UNL     1      27.682  52.020   8.096  1.00  0.00     0.004 C 
ENDBRANCH   7   8
ENDBRANCH   1   7
TORSDOF 4
ENDMDL
MODEL 9
REMARK VINA RESULT:    -3.964      1.566      2.920
REMARK INTER + INTRA:          -5.258
REMARK INTER:                  -4.878
REMARK INTRA:                  -0.379
REMARK UNBOUND:                -0.367
REMARK SMILES C=CC[C@H](C)C(=O)CC
REMARK SMILES IDX 4 1 5 2 6 3 7 4 8 5 9 6 3 7 2 8 1 9
REMARK H PARENT
REMARK Flexibility Score: inf
ROOT
ATOM      1  C   UNL     1      30.558  57.354  11.433  1.00  0.00     0.057 C 
ATOM      2  C   UNL     1      31.838  57.442  10.591  1.00  0.00     0.016 C 
ENDROOT
BRANCH   1   3
ATOM      3  C   UNL     1      29.735  56.139  11.053  1.00  0.00     0.135 C 
ATOM      4  O   UNL     1      30.277  55.050  10.924  1.00  0.00    -0.299 OA
BRANCH   3   5
ATOM      5  C   UNL     1      28.248  56.243  10.836  1.00  0.00     0.072 C 
ATOM      6  C   UNL     1      27.488  55.766  12.070  1.00  0.00     0.012 C 
ENDBRANCH   3   5
ENDBRANCH   1   3
BRANCH   1   7
ATOM      7  C   UNL     1      29.722  58.650  11.367  1.00  0.00     0.038 C 
BRANCH   7   8
ATOM      8  C   UNL     1      29.694  59.413  12.666  1.00  0.00    -0.034 C 
ATOM      9  C   UNL     1      28.687  59.285  13.537  1.00  0.00     0.004 C 
ENDBRANCH   7   8
ENDBRANCH   1   7
TORSDOF 4
ENDMDL
