MODEL 1
REMARK VINA RESULT:    -3.825      0.000      0.000
REMARK INTER + INTRA:          -6.223
REMARK INTER:                  -5.278
REMARK INTRA:                  -0.945
REMARK UNBOUND:                -0.945
REMARK SMILES OC[C@@H](O)[C@H](O)[C@@H](O)CO
REMARK SMILES IDX 5 1 7 2 9 3 10 4 8 6 3 8 2 9 1 10 4 12 6 14
REMARK H PARENT 10 5 8 7 1 11 4 13 6 15
REMARK Flexibility Score: inf
ROOT
ATOM      1  C   UNL     1      14.035 264.462  40.306  1.00  0.00     0.176 C 
ENDROOT
BRANCH   1   2
ATOM      2  C   UNL     1      14.974 265.324  39.413  1.00  0.00     0.171 C 
BRANCH   2   3
ATOM      3  C   UNL     1      15.735 264.541  38.324  1.00  0.00     0.190 C 
BRANCH   3   4
ATOM      4  O   UNL     1      16.467 263.485  38.883  1.00  0.00    -0.394 OA
ATOM      5  H   UNL     1      17.418 263.769  38.867  1.00  0.00     0.210 HD
ENDBRANCH   3   4
ENDBRANCH   2   3
BRANCH   2   6
ATOM      6  O   UNL     1      15.871 266.049  40.215  1.00  0.00    -0.388 OA
ATOM      7  H   UNL     1      16.751 265.592  40.154  1.00  0.00     0.211 HD
ENDBRANCH   2   6
ENDBRANCH   1   2
BRANCH   1   8
ATOM      8  C   UNL     1      13.021 265.236  41.198  1.00  0.00     0.171 C 
BRANCH   8   9
ATOM      9  C   UNL     1      13.328 265.137  42.703  1.00  0.00     0.190 C 
BRANCH   9  10
ATOM     10  O   UNL     1      14.606 265.643  42.978  1.00  0.00    -0.394 OA
ATOM     11  H   UNL     1      14.528 266.631  42.929  1.00  0.00     0.210 HD
ENDBRANCH   9  10
ENDBRANCH   8   9
BRANCH   8  12
ATOM     12  O   UNL     1      13.036 266.589  40.819  1.00  0.00    -0.388 OA
ATOM     13  H   UNL     1      13.170 267.123  41.646  1.00  0.00     0.211 HD
ENDBRANCH   8  12
ENDBRANCH   1   8
BRANCH   1  14
ATOM     14  O   UNL     1      14.801 263.577  41.088  1.00  0.00    -0.388 OA
ATOM     15  H   UNL     1      14.950 264.000  41.973  1.00  0.00     0.211 HD
ENDBRANCH   1  14
TORSDOF 9
ENDMDL
MODEL 2
REMARK VINA RESULT:    -3.797      9.026     10.008
REMARK INTER + INTRA:          -6.184
REMARK INTER:                  -5.524
REMARK INTRA:                  -0.661
REMARK UNBOUND:                -0.945
REMARK SMILES OC[C@@H](O)[C@H](O)[C@@H](O)CO
REMARK SMILES IDX 5 1 7 2 9 3 10 4 8 6 3 8 2 9 1 10 4 12 6 14
REMARK H PARENT 10 5 8 7 1 11 4 13 6 15
REMARK Flexibility Score: inf
ROOT
ATOM      1  C   UNL     1      13.006 262.301  32.144  1.00  0.00     0.176 C 
ENDROOT
BRANCH   1   2
ATOM      2  C   UNL     1      13.320 263.808  32.367  1.00  0.00     0.171 C 
BRANCH   2   3
ATOM      3  C   UNL     1      12.095 264.743  32.315  1.00  0.00     0.190 C 
BRANCH   3   4
ATOM      4  O   UNL     1      11.860 265.192  31.009  1.00  0.00    -0.394 OA
ATOM      5  H   UNL     1      10.908 264.991  30.814  1.00  0.00     0.210 HD
ENDBRANCH   3   4
ENDBRANCH   2   3
BRANCH   2   6
ATOM      6  O   UNL     1      14.304 264.236  31.459  1.00  0.00    -0.388 OA
ATOM      7  H   UNL     1      15.099 264.499  31.993  1.00  0.00     0.211 HD
ENDBRANCH   2   6
ENDBRANCH   1   2
BRANCH   1   8
ATOM      8  C   UNL     1      14.211 261.388  31.771  1.00  0.00     0.171 C 
BRANCH   8   9
ATOM      9  C   UNL     1      14.080 259.951  32.306  1.00  0.00     0.190 C 
BRANCH   9  10
ATOM     10  O   UNL     1      12.991 259.302  31.707  1.00  0.00    -0.394 OA
ATOM     11  H   UNL     1      12.339 259.130  32.434  1.00  0.00     0.210 HD
ENDBRANCH   9  10
ENDBRANCH   8   9
BRANCH   8  12
ATOM     12  O   UNL     1      14.322 261.344  30.371  1.00  0.00    -0.388 OA
ATOM     13  H   UNL     1      13.530 260.849  30.031  1.00  0.00     0.211 HD
ENDBRANCH   8  12
ENDBRANCH   1   8
BRANCH   1  14
ATOM     14  O   UNL     1      11.974 262.164  31.196  1.00  0.00    -0.388 OA
ATOM     15  H   UNL     1      11.482 263.023  31.153  1.00  0.00     0.211 HD
ENDBRANCH   1  14
TORSDOF 9
ENDMDL
MODEL 3
REMARK VINA RESULT:    -3.767      8.428      9.340
REMARK INTER + INTRA:          -6.143
REMARK INTER:                  -5.455
REMARK INTRA:                  -0.689
REMARK UNBOUND:                -0.945
REMARK SMILES OC[C@@H](O)[C@H](O)[C@@H](O)CO
REMARK SMILES IDX 5 1 7 2 9 3 10 4 8 6 3 8 2 9 1 10 4 12 6 14
REMARK H PARENT 10 5 8 7 1 11 4 13 6 15
REMARK Flexibility Score: inf
ROOT
ATOM      1  C   UNL     1      14.213 262.845  32.238  1.00  0.00     0.176 C 
ENDROOT
BRANCH   1   2
ATOM      2  C   UNL     1      13.028 261.837  32.264  1.00  0.00     0.171 C 
BRANCH   2   3
ATOM      3  C   UNL     1      13.436 260.351  32.208  1.00  0.00     0.190 C 
BRANCH   3   4
ATOM      4  O   UNL     1      14.028 260.038  30.978  1.00  0.00    -0.394 OA
ATOM      5  H   UNL     1      13.339 260.215  30.286  1.00  0.00     0.210 HD
ENDBRANCH   3   4
ENDBRANCH   2   3
BRANCH   2   6
ATOM      6  O   UNL     1      12.117 262.136  31.236  1.00  0.00    -0.388 OA
ATOM      7  H   UNL     1      11.430 261.419  31.239  1.00  0.00     0.211 HD
ENDBRANCH   2   6
ENDBRANCH   1   2
BRANCH   1   8
ATOM      8  C   UNL     1      13.881 264.317  32.618  1.00  0.00     0.171 C 
BRANCH   8   9
ATOM      9  C   UNL     1      15.114 265.131  33.051  1.00  0.00     0.190 C 
BRANCH   9  10
ATOM     10  O   UNL     1      15.969 265.345  31.962  1.00  0.00    -0.394 OA
ATOM     11  H   UNL     1      15.617 264.788  31.221  1.00  0.00     0.210 HD
ENDBRANCH   9  10
ENDBRANCH   8   9
BRANCH   8  12
ATOM     12  O   UNL     1      13.291 264.943  31.506  1.00  0.00    -0.388 OA
ATOM     13  H   UNL     1      12.901 264.225  30.941  1.00  0.00     0.211 HD
ENDBRANCH   8  12
ENDBRANCH   1   8
BRANCH   1  14
ATOM     14  O   UNL     1      14.856 262.793  30.987  1.00  0.00    -0.388 OA
ATOM     15  H   UNL     1      15.614 263.432  31.004  1.00  0.00     0.211 HD
ENDBRANCH   1  14
TORSDOF 9
ENDMDL
MODEL 4
REMARK VINA RESULT:    -3.756      9.082      9.695
REMARK INTER + INTRA:          -6.127
REMARK INTER:                  -5.166
REMARK INTRA:                  -0.961
REMARK UNBOUND:                -0.945
REMARK SMILES OC[C@@H](O)[C@H](O)[C@@H](O)CO
REMARK SMILES IDX 5 1 7 2 9 3 10 4 8 6 3 8 2 9 1 10 4 12 6 14
REMARK H PARENT 10 5 8 7 1 11 4 13 6 15
REMARK Flexibility Score: inf
ROOT
ATOM      1  C   UNL     1      13.921 262.834  32.344  1.00  0.00     0.176 C 
ENDROOT
BRANCH   1   2
ATOM      2  C   UNL     1      14.474 261.381  32.283  1.00  0.00     0.171 C 
BRANCH   2   3
ATOM      3  C   UNL     1      15.252 261.034  30.997  1.00  0.00     0.190 C 
BRANCH   3   4
ATOM      4  O   UNL     1      14.433 261.150  29.867  1.00  0.00    -0.394 OA
ATOM      5  H   UNL     1      14.978 260.840  29.098  1.00  0.00     0.210 HD
ENDBRANCH   3   4
ENDBRANCH   2   3
BRANCH   2   6
ATOM      6  O   UNL     1      13.434 260.458  32.492  1.00  0.00    -0.388 OA
ATOM      7  H   UNL     1      12.608 260.861  32.115  1.00  0.00     0.211 HD
ENDBRANCH   2   6
ENDBRANCH   1   2
BRANCH   1   8
ATOM      8  C   UNL     1      12.373 262.990  32.288  1.00  0.00     0.171 C 
BRANCH   8   9
ATOM      9  C   UNL     1      11.905 264.456  32.317  1.00  0.00     0.190 C 
BRANCH   9  10
ATOM     10  O   UNL     1      11.979 265.021  31.036  1.00  0.00    -0.394 OA
ATOM     11  H   UNL     1      11.640 265.949  31.124  1.00  0.00     0.210 HD
ENDBRANCH   9  10
ENDBRANCH   8   9
BRANCH   8  12
ATOM     12  O   UNL     1      11.905 262.386  31.109  1.00  0.00    -0.388 OA
ATOM     13  H   UNL     1      11.348 261.610  31.380  1.00  0.00     0.211 HD
ENDBRANCH   8  12
ENDBRANCH   1   8
BRANCH   1  14
ATOM     14  O   UNL     1      14.531 263.618  31.346  1.00  0.00    -0.388 OA
ATOM     15  H   UNL     1      14.420 263.151  30.479  1.00  0.00     0.211 HD
ENDBRANCH   1  14
TORSDOF 9
ENDMDL
MODEL 5
REMARK VINA RESULT:    -3.678      1.346      3.900
REMARK INTER + INTRA:          -6.020
REMARK INTER:                  -5.094
REMARK INTRA:                  -0.926
REMARK UNBOUND:                -0.945
REMARK SMILES OC[C@@H](O)[C@H](O)[C@@H](O)CO
REMARK SMILES IDX 5 1 7 2 9 3 10 4 8 6 3 8 2 9 1 10 4 12 6 14
REMARK H PARENT 10 5 8 7 1 11 4 13 6 15
REMARK Flexibility Score: inf
ROOT
ATOM      1  C   UNL     1      13.639 265.668  39.988  1.00  0.00     0.176 C 
ENDROOT
BRANCH   1   2
ATOM      2  C   UNL     1      13.579 264.581  41.099  1.00  0.00     0.171 C 
BRANCH   2   3
ATOM      3  C   UNL     1      13.372 265.121  42.529  1.00  0.00     0.190 C 
BRANCH   3   4
ATOM      4  O   UNL     1      14.549 265.699  43.023  1.00  0.00    -0.394 OA
ATOM      5  H   UNL     1      15.127 265.867  42.234  1.00  0.00     0.210 HD
ENDBRANCH   3   4
ENDBRANCH   2   3
BRANCH   2   6
ATOM      6  O   UNL     1      14.724 263.768  41.042  1.00  0.00    -0.388 OA
ATOM      7  H   UNL     1      15.474 264.295  41.426  1.00  0.00     0.211 HD
ENDBRANCH   2   6
ENDBRANCH   1   2
BRANCH   1   8
ATOM      8  C   UNL     1      15.019 265.887  39.303  1.00  0.00     0.171 C 
BRANCH   8   9
ATOM      9  C   UNL     1      15.008 267.004  38.245  1.00  0.00     0.190 C 
BRANCH   9  10
ATOM     10  O   UNL     1      13.741 267.108  37.653  1.00  0.00    -0.394 OA
ATOM     11  H   UNL     1      13.239 266.300  37.934  1.00  0.00     0.210 HD
ENDBRANCH   9  10
ENDBRANCH   8   9
BRANCH   8  12
ATOM     12  O   UNL     1      15.963 266.208  40.294  1.00  0.00    -0.388 OA
ATOM     13  H   UNL     1      15.503 266.785  40.959  1.00  0.00     0.211 HD
ENDBRANCH   8  12
ENDBRANCH   1   8
BRANCH   1  14
ATOM     14  O   UNL     1      13.139 266.887  40.487  1.00  0.00    -0.388 OA
ATOM     15  H   UNL     1      13.303 266.909  41.465  1.00  0.00     0.211 HD
ENDBRANCH   1  14
TORSDOF 9
ENDMDL
MODEL 6
REMARK VINA RESULT:    -3.671      7.945      9.070
REMARK INTER + INTRA:          -6.011
REMARK INTER:                  -5.688
REMARK INTRA:                  -0.323
REMARK UNBOUND:                -0.945
REMARK SMILES OC[C@@H](O)[C@H](O)[C@@H](O)CO
REMARK SMILES IDX 5 1 7 2 9 3 10 4 8 6 3 8 2 9 1 10 4 12 6 14
REMARK H PARENT 10 5 8 7 1 11 4 13 6 15
REMARK Flexibility Score: inf
ROOT
ATOM      1  C   UNL     1      12.349 257.836  38.577  1.00  0.00     0.176 C 
ENDROOT
BRANCH   1   2
ATOM      2  C   UNL     1      11.973 257.576  37.090  1.00  0.00     0.171 C 
BRANCH   2   3
ATOM      3  C   UNL     1      10.554 258.026  36.689  1.00  0.00     0.190 C 
BRANCH   3   4
ATOM      4  O   UNL     1       9.590 257.122  37.152  1.00  0.00    -0.394 OA
ATOM      5  H   UNL     1       9.736 257.038  38.130  1.00  0.00     0.210 HD
ENDBRANCH   3   4
ENDBRANCH   2   3
BRANCH   2   6
ATOM      6  O   UNL     1      12.167 256.221  36.772  1.00  0.00    -0.388 OA
ATOM      7  H   UNL     1      11.426 255.714  37.197  1.00  0.00     0.211 HD
ENDBRANCH   2   6
ENDBRANCH   1   2
BRANCH   1   8
ATOM      8  C   UNL     1      12.928 256.627  39.369  1.00  0.00     0.171 C 
BRANCH   8   9
ATOM      9  C   UNL     1      14.436 256.746  39.652  1.00  0.00     0.190 C 
BRANCH   9  10
ATOM     10  O   UNL     1      14.938 255.537  40.153  1.00  0.00    -0.394 OA
ATOM     11  H   UNL     1      14.379 255.311  40.940  1.00  0.00     0.210 HD
ENDBRANCH   9  10
ENDBRANCH   8   9
BRANCH   8  12
ATOM     12  O   UNL     1      12.243 256.524  40.591  1.00  0.00    -0.388 OA
ATOM     13  H   UNL     1      12.276 257.420  41.021  1.00  0.00     0.211 HD
ENDBRANCH   8  12
ENDBRANCH   1   8
BRANCH   1  14
ATOM     14  O   UNL     1      11.246 258.386  39.259  1.00  0.00    -0.388 OA
ATOM     15  H   UNL     1      10.492 258.452  38.619  1.00  0.00     0.211 HD
ENDBRANCH   1  14
TORSDOF 9
ENDMDL
MODEL 7
REMARK VINA RESULT:    -3.662      8.224      9.193
REMARK INTER + INTRA:          -5.999
REMARK INTER:                  -5.308
REMARK INTRA:                  -0.691
REMARK UNBOUND:                -0.945
REMARK SMILES OC[C@@H](O)[C@H](O)[C@@H](O)CO
REMARK SMILES IDX 5 1 7 2 9 3 10 4 8 6 3 8 2 9 1 10 4 12 6 14
REMARK H PARENT 10 5 8 7 1 11 4 13 6 15
REMARK Flexibility Score: inf
ROOT
ATOM      1  C   UNL     1      12.785 257.180  37.845  1.00  0.00     0.176 C 
ENDROOT
BRANCH   1   2
ATOM      2  C   UNL     1      13.090 257.148  39.370  1.00  0.00     0.171 C 
BRANCH   2   3
ATOM      3  C   UNL     1      14.458 256.544  39.749  1.00  0.00     0.190 C 
BRANCH   3   4
ATOM      4  O   UNL     1      14.458 255.154  39.577  1.00  0.00    -0.394 OA
ATOM      5  H   UNL     1      13.966 254.779  40.353  1.00  0.00     0.210 HD
ENDBRANCH   3   4
ENDBRANCH   2   3
BRANCH   2   6
ATOM      6  O   UNL     1      12.055 256.489  40.056  1.00  0.00    -0.388 OA
ATOM      7  H   UNL     1      11.616 257.162  40.638  1.00  0.00     0.211 HD
ENDBRANCH   2   6
ENDBRANCH   1   2
BRANCH   1   8
ATOM      8  C   UNL     1      11.654 258.144  37.382  1.00  0.00     0.171 C 
BRANCH   8   9
ATOM      9  C   UNL     1      10.777 257.565  36.258  1.00  0.00     0.190 C 
BRANCH   9  10
ATOM     10  O   UNL     1       9.695 256.854  36.796  1.00  0.00    -0.394 OA
ATOM     11  H   UNL     1       8.939 256.985  36.167  1.00  0.00     0.210 HD
ENDBRANCH   9  10
ENDBRANCH   8   9
BRANCH   8  12
ATOM     12  O   UNL     1      10.839 258.439  38.488  1.00  0.00    -0.388 OA
ATOM     13  H   UNL     1      10.069 258.969  38.151  1.00  0.00     0.211 HD
ENDBRANCH   8  12
ENDBRANCH   1   8
BRANCH   1  14
ATOM     14  O   UNL     1      12.538 255.874  37.381  1.00  0.00    -0.388 OA
ATOM     15  H   UNL     1      13.272 255.290  37.702  1.00  0.00     0.211 HD
ENDBRANCH   1  14
TORSDOF 9
ENDMDL
MODEL 8
REMARK VINA RESULT:    -3.656      9.649     10.816
REMARK INTER + INTRA:          -5.991
REMARK INTER:                  -5.056
REMARK INTRA:                  -0.935
REMARK UNBOUND:                -0.945
REMARK SMILES OC[C@@H](O)[C@H](O)[C@@H](O)CO
REMARK SMILES IDX 5 1 7 2 9 3 10 4 8 6 3 8 2 9 1 10 4 12 6 14
REMARK H PARENT 10 5 8 7 1 11 4 13 6 15
REMARK Flexibility Score: inf
ROOT
ATOM      1  C   UNL     1      20.366 266.681  33.370  1.00  0.00     0.176 C 
ENDROOT
BRANCH   1   2
ATOM      2  C   UNL     1      21.682 267.428  33.729  1.00  0.00     0.171 C 
BRANCH   2   3
ATOM      3  C   UNL     1      21.579 268.967  33.726  1.00  0.00     0.190 C 
BRANCH   3   4
ATOM      4  O   UNL     1      21.839 269.486  32.451  1.00  0.00    -0.394 OA
ATOM      5  H   UNL     1      21.014 269.963  32.173  1.00  0.00     0.210 HD
ENDBRANCH   3   4
ENDBRANCH   2   3
BRANCH   2   6
ATOM      6  O   UNL     1      22.724 267.004  32.887  1.00  0.00    -0.388 OA
ATOM      7  H   UNL     1      23.250 266.330  33.392  1.00  0.00     0.211 HD
ENDBRANCH   2   6
ENDBRANCH   1   2
BRANCH   1   8
ATOM      8  C   UNL     1      20.434 265.126  33.348  1.00  0.00     0.171 C 
BRANCH   8   9
ATOM      9  C   UNL     1      20.463 264.535  31.927  1.00  0.00     0.190 C 
BRANCH   9  10
ATOM     10  O   UNL     1      21.640 264.909  31.264  1.00  0.00    -0.394 OA
ATOM     11  H   UNL     1      21.355 265.399  30.450  1.00  0.00     0.210 HD
ENDBRANCH   9  10
ENDBRANCH   8   9
BRANCH   8  12
ATOM     12  O   UNL     1      21.590 264.720  34.034  1.00  0.00    -0.388 OA
ATOM     13  H   UNL     1      21.903 265.498  34.566  1.00  0.00     0.211 HD
ENDBRANCH   8  12
ENDBRANCH   1   8
BRANCH   1  14
ATOM     14  O   UNL     1      19.858 267.169  32.151  1.00  0.00    -0.388 OA
ATOM     15  H   UNL     1      19.670 268.136  32.261  1.00  0.00     0.211 HD
ENDBRANCH   1  14
TORSDOF 9
ENDMDL
MODEL 9
REMARK VINA RESULT:    -3.649      8.569      9.551
REMARK INTER + INTRA:          -5.981
REMARK INTER:                  -5.491
REMARK INTRA:                  -0.489
REMARK UNBOUND:                -0.945
REMARK SMILES OC[C@@H](O)[C@H](O)[C@@H](O)CO
REMARK SMILES IDX 5 1 7 2 9 3 10 4 8 6 3 8 2 9 1 10 4 12 6 14
REMARK H PARENT 10 5 8 7 1 11 4 13 6 15
REMARK Flexibility Score: inf
ROOT
ATOM      1  C   UNL     1      13.937 256.023  38.633  1.00  0.00     0.176 C 
ENDROOT
BRANCH   1   2
ATOM      2  C   UNL     1      15.198 255.433  39.327  1.00  0.00     0.171 C 
BRANCH   2   3
ATOM      3  C   UNL     1      15.625 254.039  38.825  1.00  0.00     0.190 C 
BRANCH   3   4
ATOM      4  O   UNL     1      14.821 253.036  39.381  1.00  0.00    -0.394 OA
ATOM      5  H   UNL     1      15.384 252.573  40.056  1.00  0.00     0.210 HD
ENDBRANCH   3   4
ENDBRANCH   2   3
BRANCH   2   6
ATOM      6  O   UNL     1      15.022 255.420  40.721  1.00  0.00    -0.388 OA
ATOM      7  H   UNL     1      15.746 254.856  41.101  1.00  0.00     0.211 HD
ENDBRANCH   2   6
ENDBRANCH   1   2
BRANCH   1   8
ATOM      8  C   UNL     1      13.187 257.152  39.399  1.00  0.00     0.171 C 
BRANCH   8   9
ATOM      9  C   UNL     1      12.299 258.022  38.493  1.00  0.00     0.190 C 
BRANCH   9  10
ATOM     10  O   UNL     1      11.112 258.368  39.153  1.00  0.00    -0.394 OA
ATOM     11  H   UNL     1      10.811 257.549  39.625  1.00  0.00     0.210 HD
ENDBRANCH   9  10
ENDBRANCH   8   9
BRANCH   8  12
ATOM     12  O   UNL     1      12.385 256.562  40.391  1.00  0.00    -0.388 OA
ATOM     13  H   UNL     1      12.983 256.329  41.149  1.00  0.00     0.211 HD
ENDBRANCH   8  12
ENDBRANCH   1   8
BRANCH   1  14
ATOM     14  O   UNL     1      13.049 254.984  38.296  1.00  0.00    -0.388 OA
ATOM     15  H   UNL     1      12.319 254.975  38.966  1.00  0.00     0.211 HD
ENDBRANCH   1  14
TORSDOF 9
ENDMDL
