MODEL 1
REMARK VINA RESULT:    -4.417      0.000      0.000
REMARK INTER + INTRA:          -4.546
REMARK INTER:                  -4.546
REMARK INTRA:                   0.000
REMARK UNBOUND:                 0.000
REMARK SMILES Cc1cccc(O)c1C
REMARK SMILES IDX 1 1 2 2 8 3 6 4 5 5 4 6 3 7 9 8 7 9
REMARK H PARENT 7 10
REMARK Flexibility Score: inf
ROOT
ATOM      1  C   UNL     1      26.996  47.305  33.712  1.00  0.00     0.045 C 
ATOM      2  C   UNL     1      26.031  46.958  32.608  1.00  0.00    -0.045 A 
ATOM      3  C   UNL     1      24.638  47.229  32.710  1.00  0.00    -0.006 A 
ATOM      4  C   UNL     1      23.787  46.875  31.632  1.00  0.00     0.118 A 
ATOM      5  C   UNL     1      24.319  46.271  30.490  1.00  0.00     0.046 A 
ATOM      6  C   UNL     1      25.682  46.009  30.396  1.00  0.00     0.004 A 
ATOM      7  C   UNL     1      26.533  46.349  31.445  1.00  0.00     0.004 A 
ATOM      8  C   UNL     1      24.041  47.882  33.937  1.00  0.00     0.048 C 
ENDROOT
BRANCH   4   9
ATOM      9  O   UNL     1      22.410  47.111  31.662  1.00  0.00    -0.508 OA
ATOM     10  H   UNL     1      21.740  46.458  32.049  1.00  0.00     0.293 HD
ENDBRANCH   4   9
TORSDOF 1
ENDMDL
MODEL 2
REMARK VINA RESULT:    -4.206     12.301     13.579
REMARK INTER + INTRA:          -4.329
REMARK INTER:                  -4.329
REMARK INTRA:                   0.000
REMARK UNBOUND:                 0.000
REMARK SMILES Cc1cccc(O)c1C
REMARK SMILES IDX 1 1 2 2 8 3 6 4 5 5 4 6 3 7 9 8 7 9
REMARK H PARENT 7 10
REMARK Flexibility Score: inf
ROOT
ATOM      1  C   UNL     1      21.988  49.839  44.083  1.00  0.00     0.045 C 
ATOM      2  C   UNL     1      21.410  48.459  44.269  1.00  0.00    -0.045 A 
ATOM      3  C   UNL     1      20.699  48.091  45.445  1.00  0.00    -0.006 A 
ATOM      4  C   UNL     1      20.182  46.775  45.553  1.00  0.00     0.118 A 
ATOM      5  C   UNL     1      20.373  45.860  44.514  1.00  0.00     0.046 A 
ATOM      6  C   UNL     1      21.069  46.227  43.366  1.00  0.00     0.004 A 
ATOM      7  C   UNL     1      21.584  47.515  43.242  1.00  0.00     0.004 A 
ATOM      8  C   UNL     1      20.480  49.064  46.582  1.00  0.00     0.048 C 
ENDROOT
BRANCH   4   9
ATOM      9  O   UNL     1      19.473  46.343  46.677  1.00  0.00    -0.508 OA
ATOM     10  H   UNL     1      19.182  45.385  46.819  1.00  0.00     0.293 HD
ENDBRANCH   4   9
TORSDOF 1
ENDMDL
MODEL 3
REMARK VINA RESULT:    -4.120     12.411     13.782
REMARK INTER + INTRA:          -4.240
REMARK INTER:                  -4.240
REMARK INTRA:                   0.000
REMARK UNBOUND:                 0.000
REMARK SMILES Cc1cccc(O)c1C
REMARK SMILES IDX 1 1 2 2 8 3 6 4 5 5 4 6 3 7 9 8 7 9
REMARK H PARENT 7 10
REMARK Flexibility Score: inf
ROOT
ATOM      1  C   UNL     1      20.719  45.603  43.695  1.00  0.00     0.045 C 
ATOM      2  C   UNL     1      20.958  47.016  44.161  1.00  0.00    -0.045 A 
ATOM      3  C   UNL     1      20.469  47.493  45.409  1.00  0.00    -0.006 A 
ATOM      4  C   UNL     1      20.731  48.835  45.783  1.00  0.00     0.118 A 
ATOM      5  C   UNL     1      21.460  49.670  44.933  1.00  0.00     0.046 A 
ATOM      6  C   UNL     1      21.936  49.197  43.713  1.00  0.00     0.004 A 
ATOM      7  C   UNL     1      21.688  47.882  43.328  1.00  0.00     0.004 A 
ATOM      8  C   UNL     1      19.677  46.608  46.345  1.00  0.00     0.048 C 
ENDROOT
BRANCH   4   9
ATOM      9  O   UNL     1      20.282  49.372  46.993  1.00  0.00    -0.508 OA
ATOM     10  H   UNL     1      19.568  48.941  47.564  1.00  0.00     0.293 HD
ENDBRANCH   4   9
TORSDOF 1
ENDMDL
MODEL 4
REMARK VINA RESULT:    -4.078     12.148     13.878
REMARK INTER + INTRA:          -4.197
REMARK INTER:                  -4.197
REMARK INTRA:                   0.000
REMARK UNBOUND:                 0.000
REMARK SMILES Cc1cccc(O)c1C
REMARK SMILES IDX 1 1 2 2 8 3 6 4 5 5 4 6 3 7 9 8 7 9
REMARK H PARENT 7 10
REMARK Flexibility Score: inf
ROOT
ATOM      1  C   UNL     1      19.521  47.100  47.189  1.00  0.00     0.045 C 
ATOM      2  C   UNL     1      20.197  47.403  45.876  1.00  0.00    -0.045 A 
ATOM      3  C   UNL     1      20.657  48.708  45.547  1.00  0.00    -0.006 A 
ATOM      4  C   UNL     1      21.284  48.921  44.293  1.00  0.00     0.118 A 
ATOM      5  C   UNL     1      21.444  47.858  43.400  1.00  0.00     0.046 A 
ATOM      6  C   UNL     1      20.991  46.583  43.729  1.00  0.00     0.004 A 
ATOM      7  C   UNL     1      20.373  46.355  44.955  1.00  0.00     0.004 A 
ATOM      8  C   UNL     1      20.495  49.874  46.497  1.00  0.00     0.048 C 
ENDROOT
BRANCH   4   9
ATOM      9  O   UNL     1      21.761  50.175  43.902  1.00  0.00    -0.508 OA
ATOM     10  H   UNL     1      22.150  50.364  42.987  1.00  0.00     0.293 HD
ENDBRANCH   4   9
TORSDOF 1
ENDMDL
MODEL 5
REMARK VINA RESULT:    -4.075     11.849     12.745
REMARK INTER + INTRA:          -4.194
REMARK INTER:                  -4.194
REMARK INTRA:                   0.000
REMARK UNBOUND:                 0.000
REMARK SMILES Cc1cccc(O)c1C
REMARK SMILES IDX 1 1 2 2 8 3 6 4 5 5 4 6 3 7 9 8 7 9
REMARK H PARENT 7 10
REMARK Flexibility Score: inf
ROOT
ATOM      1  C   UNL     1      21.702  45.193  43.907  1.00  0.00     0.045 C 
ATOM      2  C   UNL     1      21.098  46.574  43.955  1.00  0.00    -0.045 A 
ATOM      3  C   UNL     1      19.980  46.937  43.155  1.00  0.00    -0.006 A 
ATOM      4  C   UNL     1      19.463  48.254  43.251  1.00  0.00     0.118 A 
ATOM      5  C   UNL     1      20.051  49.174  44.123  1.00  0.00     0.046 A 
ATOM      6  C   UNL     1      21.145  48.813  44.904  1.00  0.00     0.004 A 
ATOM      7  C   UNL     1      21.666  47.524  44.822  1.00  0.00     0.004 A 
ATOM      8  C   UNL     1      19.328  45.957  42.204  1.00  0.00     0.048 C 
ENDROOT
BRANCH   4   9
ATOM      9  O   UNL     1      18.367  48.682  42.497  1.00  0.00    -0.508 OA
ATOM     10  H   UNL     1      18.450  49.098  41.579  1.00  0.00     0.293 HD
ENDBRANCH   4   9
TORSDOF 1
ENDMDL
MODEL 6
REMARK VINA RESULT:    -4.064     12.204     14.168
REMARK INTER + INTRA:          -4.183
REMARK INTER:                  -4.183
REMARK INTRA:                   0.000
REMARK UNBOUND:                 0.000
REMARK SMILES Cc1cccc(O)c1C
REMARK SMILES IDX 1 1 2 2 8 3 6 4 5 5 4 6 3 7 9 8 7 9
REMARK H PARENT 7 10
REMARK Flexibility Score: inf
ROOT
ATOM      1  C   UNL     1      21.440  45.561  44.135  1.00  0.00     0.045 C 
ATOM      2  C   UNL     1      20.782  46.690  44.886  1.00  0.00    -0.045 A 
ATOM      3  C   UNL     1      20.969  48.051  44.518  1.00  0.00    -0.006 A 
ATOM      4  C   UNL     1      20.319  49.063  45.271  1.00  0.00     0.118 A 
ATOM      5  C   UNL     1      19.507  48.717  46.354  1.00  0.00     0.046 A 
ATOM      6  C   UNL     1      19.327  47.383  46.708  1.00  0.00     0.004 A 
ATOM      7  C   UNL     1      19.959  46.376  45.981  1.00  0.00     0.004 A 
ATOM      8  C   UNL     1      21.843  48.449  43.350  1.00  0.00     0.048 C 
ENDROOT
BRANCH   4   9
ATOM      9  O   UNL     1      20.456  50.420  44.968  1.00  0.00    -0.508 OA
ATOM     10  H   UNL     1      20.759  51.113  45.639  1.00  0.00     0.293 HD
ENDBRANCH   4   9
TORSDOF 1
ENDMDL
MODEL 7
REMARK VINA RESULT:    -4.029     12.106     13.794
REMARK INTER + INTRA:          -4.147
REMARK INTER:                  -4.147
REMARK INTRA:                   0.000
REMARK UNBOUND:                 0.000
REMARK SMILES Cc1cccc(O)c1C
REMARK SMILES IDX 1 1 2 2 8 3 6 4 5 5 4 6 3 7 9 8 7 9
REMARK H PARENT 7 10
REMARK Flexibility Score: inf
ROOT
ATOM      1  C   UNL     1      20.325  49.397  47.087  1.00  0.00     0.045 C 
ATOM      2  C   UNL     1      20.621  48.702  45.782  1.00  0.00    -0.045 A 
ATOM      3  C   UNL     1      20.049  47.443  45.451  1.00  0.00    -0.006 A 
ATOM      4  C   UNL     1      20.372  46.846  44.205  1.00  0.00     0.118 A 
ATOM      5  C   UNL     1      21.239  47.496  43.322  1.00  0.00     0.046 A 
ATOM      6  C   UNL     1      21.793  48.729  43.652  1.00  0.00     0.004 A 
ATOM      7  C   UNL     1      21.489  49.329  44.871  1.00  0.00     0.004 A 
ATOM      8  C   UNL     1      19.109  46.721  46.391  1.00  0.00     0.048 C 
ENDROOT
BRANCH   4   9
ATOM      9  O   UNL     1      19.849  45.612  43.812  1.00  0.00    -0.508 OA
ATOM     10  H   UNL     1      19.246  45.049  44.398  1.00  0.00     0.293 HD
ENDBRANCH   4   9
TORSDOF 1
ENDMDL
MODEL 8
REMARK VINA RESULT:    -4.028     12.226     14.282
REMARK INTER + INTRA:          -4.145
REMARK INTER:                  -4.145
REMARK INTRA:                   0.000
REMARK UNBOUND:                 0.000
REMARK SMILES Cc1cccc(O)c1C
REMARK SMILES IDX 1 1 2 2 8 3 6 4 5 5 4 6 3 7 9 8 7 9
REMARK H PARENT 7 10
REMARK Flexibility Score: inf
ROOT
ATOM      1  C   UNL     1      22.804  49.777  44.445  1.00  0.00     0.045 C 
ATOM      2  C   UNL     1      21.662  49.124  45.182  1.00  0.00    -0.045 A 
ATOM      3  C   UNL     1      20.984  47.985  44.667  1.00  0.00    -0.006 A 
ATOM      4  C   UNL     1      19.917  47.423  45.414  1.00  0.00     0.118 A 
ATOM      5  C   UNL     1      19.546  47.986  46.637  1.00  0.00     0.046 A 
ATOM      6  C   UNL     1      20.214  49.101  47.136  1.00  0.00     0.004 A 
ATOM      7  C   UNL     1      21.263  49.667  46.416  1.00  0.00     0.004 A 
ATOM      8  C   UNL     1      21.368  47.358  43.345  1.00  0.00     0.048 C 
ENDROOT
BRANCH   4   9
ATOM      9  O   UNL     1      19.206  46.304  44.971  1.00  0.00    -0.508 OA
ATOM     10  H   UNL     1      18.873  46.194  44.022  1.00  0.00     0.293 HD
ENDBRANCH   4   9
TORSDOF 1
ENDMDL
MODEL 9
REMARK VINA RESULT:    -4.025     12.267     12.696
REMARK INTER + INTRA:          -4.143
REMARK INTER:                  -4.143
REMARK INTRA:                   0.000
REMARK UNBOUND:                 0.000
REMARK SMILES Cc1cccc(O)c1C
REMARK SMILES IDX 1 1 2 2 8 3 6 4 5 5 4 6 3 7 9 8 7 9
REMARK H PARENT 7 10
REMARK Flexibility Score: inf
ROOT
ATOM      1  C   UNL     1      19.262  49.475  43.731  1.00  0.00     0.045 C 
ATOM      2  C   UNL     1      19.876  48.098  43.728  1.00  0.00    -0.045 A 
ATOM      3  C   UNL     1      19.280  47.007  43.036  1.00  0.00    -0.006 A 
ATOM      4  C   UNL     1      19.913  45.738  43.077  1.00  0.00     0.118 A 
ATOM      5  C   UNL     1      21.105  45.573  43.787  1.00  0.00     0.046 A 
ATOM      6  C   UNL     1      21.683  46.645  44.462  1.00  0.00     0.004 A 
ATOM      7  C   UNL     1      21.075  47.898  44.434  1.00  0.00     0.004 A 
ATOM      8  C   UNL     1      17.991  47.163  42.261  1.00  0.00     0.048 C 
ENDROOT
BRANCH   4   9
ATOM      9  O   UNL     1      19.387  44.622  42.421  1.00  0.00    -0.508 OA
ATOM     10  H   UNL     1      18.541  44.151  42.714  1.00  0.00     0.293 HD
ENDBRANCH   4   9
TORSDOF 1
ENDMDL
