MODEL 1
REMARK VINA RESULT:     4.164      0.000      0.000
REMARK INTER + INTRA:          16.923
REMARK INTER:                  10.981
REMARK INTRA:                   5.941
REMARK UNBOUND:                 5.941
REMARK SMILES CCCCCCCCCCCCCCCCCCCCCCCCCCCCCC(=O)[O-]
REMARK SMILES IDX 16 1 17 2 18 3 19 4 20 5 21 6 22 7 23 8 24 9 25 10 26 11
REMARK SMILES IDX 27 12 28 13 29 14 30 15 31 16 32 17 15 18 14 19 13 20 12 21
REMARK SMILES IDX 11 22 10 23 9 24 8 25 7 26 6 27 5 28 4 29 3 30 2 31 1 32
REMARK H PARENT
REMARK Flexibility Score: inf
ROOT
ATOM      1  C   UNL     1       3.285   7.722   8.473  1.00  0.00     0.000 C 
ENDROOT
BRANCH   1   2
ATOM      2  C   UNL     1       4.778   8.043   8.309  1.00  0.00     0.000 C 
BRANCH   2   3
ATOM      3  C   UNL     1       5.230   9.251   9.152  1.00  0.00     0.000 C 
BRANCH   3   4
ATOM      4  C   UNL     1       6.347  10.104   8.525  1.00  0.00     0.000 C 
BRANCH   4   5
ATOM      5  C   UNL     1       5.870  11.219   7.573  1.00  0.00     0.000 C 
BRANCH   5   6
ATOM      6  C   UNL     1       6.175  12.646   8.076  1.00  0.00     0.000 C 
BRANCH   6   7
ATOM      7  C   UNL     1       7.641  13.052   7.855  1.00  0.00     0.000 C 
BRANCH   7   8
ATOM      8  C   UNL     1       8.568  12.327   8.837  1.00  0.00     0.000 C 
BRANCH   8   9
ATOM      9  C   UNL     1       9.948  12.083   8.209  1.00  0.00     0.000 C 
BRANCH   9  10
ATOM     10  C   UNL     1      10.079  12.686   6.799  1.00  0.00     0.000 C 
BRANCH  10  11
ATOM     11  C   UNL     1       9.279  11.959   5.699  1.00  0.00     0.000 C 
BRANCH  11  12
ATOM     12  C   UNL     1       9.235  12.670   4.334  1.00  0.00     0.000 C 
BRANCH  12  13
ATOM     13  C   UNL     1       8.017  12.331   3.451  1.00  0.00     0.006 C 
BRANCH  13  14
ATOM     14  C   UNL     1       7.257  11.070   3.893  1.00  0.00     0.053 C 
BRANCH  14  15
ATOM     15  C   UNL     1       5.770  11.263   3.890  1.00  0.00     0.041 C 
ATOM     16  O   UNL     1       5.008  10.296   3.629  1.00  0.00    -0.550 OA
ATOM     17  O   UNL     1       5.228  12.501   4.212  1.00  0.00    -0.550 OA
ENDBRANCH  14  15
ENDBRANCH  13  14
ENDBRANCH  12  13
ENDBRANCH  11  12
ENDBRANCH  10  11
ENDBRANCH   9  10
ENDBRANCH   8   9
ENDBRANCH   7   8
ENDBRANCH   6   7
ENDBRANCH   5   6
ENDBRANCH   4   5
ENDBRANCH   3   4
ENDBRANCH   2   3
ENDBRANCH   1   2
BRANCH   1  18
ATOM     18  C   UNL     1       2.423   8.665   7.620  1.00  0.00     0.000 C 
BRANCH  18  19
ATOM     19  C   UNL     1       3.238   9.389   6.536  1.00  0.00     0.000 C 
BRANCH  19  20
ATOM     20  C   UNL     1       3.191  10.917   6.682  1.00  0.00     0.000 C 
BRANCH  20  21
ATOM     21  C   UNL     1       2.009  11.348   7.558  1.00  0.00     0.000 C 
BRANCH  21  22
ATOM     22  C   UNL     1       1.920  10.485   8.826  1.00  0.00     0.000 C 
BRANCH  22  23
ATOM     23  C   UNL     1       3.049  10.781   9.828  1.00  0.00     0.000 C 
BRANCH  23  24
ATOM     24  C   UNL     1       3.385  12.279   9.915  1.00  0.00    -0.000 C 
BRANCH  24  25
ATOM     25  C   UNL     1       2.191  13.123  10.387  1.00  0.00    -0.000 C 
BRANCH  25  26
ATOM     26  C   UNL     1       0.850  12.379  10.257  1.00  0.00    -0.000 C 
BRANCH  26  27
ATOM     27  C   UNL     1      -0.161  13.123   9.366  1.00  0.00    -0.000 C 
BRANCH  27  28
ATOM     28  C   UNL     1      -1.535  12.440   9.235  1.00  0.00    -0.000 C 
BRANCH  28  29
ATOM     29  C   UNL     1      -1.718  11.718   7.892  1.00  0.00    -0.000 C 
BRANCH  29  30
ATOM     30  C   UNL     1      -2.958  12.245   7.153  1.00  0.00    -0.000 C 
BRANCH  30  31
ATOM     31  C   UNL     1      -3.900  13.040   8.070  1.00  0.00    -0.003 C 
ATOM     32  C   UNL     1      -3.585  12.845   9.553  1.00  0.00     0.004 C 
ENDBRANCH  30  31
ENDBRANCH  29  30
ENDBRANCH  28  29
ENDBRANCH  27  28
ENDBRANCH  26  27
ENDBRANCH  25  26
ENDBRANCH  24  25
ENDBRANCH  23  24
ENDBRANCH  22  23
ENDBRANCH  21  22
ENDBRANCH  20  21
ENDBRANCH  19  20
ENDBRANCH  18  19
ENDBRANCH   1  18
TORSDOF 28
ENDMDL
MODEL 2
REMARK VINA RESULT:     4.368      9.556     11.894
REMARK INTER + INTRA:          17.459
REMARK INTER:                  18.886
REMARK INTRA:                  -1.427
REMARK UNBOUND:                 5.941
REMARK SMILES CCCCCCCCCCCCCCCCCCCCCCCCCCCCCC(=O)[O-]
REMARK SMILES IDX 16 1 17 2 18 3 19 4 20 5 21 6 22 7 23 8 24 9 25 10 26 11
REMARK SMILES IDX 27 12 28 13 29 14 30 15 31 16 32 17 15 18 14 19 13 20 12 21
REMARK SMILES IDX 11 22 10 23 9 24 8 25 7 26 6 27 5 28 4 29 3 30 2 31 1 32
REMARK H PARENT
REMARK Flexibility Score: inf
ROOT
ATOM      1  C   UNL     1       2.335  12.218  -1.674  1.00  0.00     0.000 C 
ENDROOT
BRANCH   1   2
ATOM      2  C   UNL     1       3.835  12.034  -1.397  1.00  0.00     0.000 C 
BRANCH   2   3
ATOM      3  C   UNL     1       4.117  11.072  -0.227  1.00  0.00     0.000 C 
BRANCH   3   4
ATOM      4  C   UNL     1       4.461  11.753   1.110  1.00  0.00     0.000 C 
BRANCH   4   5
ATOM      5  C   UNL     1       5.192  10.864   2.134  1.00  0.00     0.000 C 
BRANCH   5   6
ATOM      6  C   UNL     1       4.932  11.256   3.604  1.00  0.00     0.000 C 
BRANCH   6   7
ATOM      7  C   UNL     1       6.094  10.874   4.535  1.00  0.00     0.000 C 
BRANCH   7   8
ATOM      8  C   UNL     1       7.446  11.176   3.880  1.00  0.00     0.000 C 
BRANCH   8   9
ATOM      9  C   UNL     1       8.304  12.074   4.785  1.00  0.00     0.000 C 
BRANCH   9  10
ATOM     10  C   UNL     1       8.889  11.321   5.993  1.00  0.00     0.000 C 
BRANCH  10  11
ATOM     11  C   UNL     1       8.639  11.986   7.362  1.00  0.00     0.000 C 
BRANCH  11  12
ATOM     12  C   UNL     1       7.162  12.248   7.711  1.00  0.00     0.000 C 
BRANCH  12  13
ATOM     13  C   UNL     1       6.465  11.130   8.513  1.00  0.00     0.006 C 
BRANCH  13  14
ATOM     14  C   UNL     1       5.131  11.557   9.148  1.00  0.00     0.053 C 
BRANCH  14  15
ATOM     15  C   UNL     1       3.953  10.867   8.530  1.00  0.00     0.041 C 
ATOM     16  O   UNL     1       3.989  10.513   7.323  1.00  0.00    -0.550 OA
ATOM     17  O   UNL     1       2.830  10.581   9.298  1.00  0.00    -0.550 OA
ENDBRANCH  14  15
ENDBRANCH  13  14
ENDBRANCH  12  13
ENDBRANCH  11  12
ENDBRANCH  10  11
ENDBRANCH   9  10
ENDBRANCH   8   9
ENDBRANCH   7   8
ENDBRANCH   6   7
ENDBRANCH   5   6
ENDBRANCH   4   5
ENDBRANCH   3   4
ENDBRANCH   2   3
ENDBRANCH   1   2
BRANCH   1  18
ATOM     18  C   UNL     1       2.047  12.184  -3.182  1.00  0.00     0.000 C 
BRANCH  18  19
ATOM     19  C   UNL     1       0.651  11.628  -3.505  1.00  0.00     0.000 C 
BRANCH  19  20
ATOM     20  C   UNL     1       0.336  11.653  -5.008  1.00  0.00     0.000 C 
BRANCH  20  21
ATOM     21  C   UNL     1      -0.757  10.636  -5.356  1.00  0.00     0.000 C 
BRANCH  21  22
ATOM     22  C   UNL     1      -2.091  11.341  -5.647  1.00  0.00     0.000 C 
BRANCH  22  23
ATOM     23  C   UNL     1      -2.278  11.672  -7.136  1.00  0.00     0.000 C 
BRANCH  23  24
ATOM     24  C   UNL     1      -3.758  11.703  -7.555  1.00  0.00    -0.000 C 
BRANCH  24  25
ATOM     25  C   UNL     1      -4.099  10.619  -8.589  1.00  0.00    -0.000 C 
BRANCH  25  26
ATOM     26  C   UNL     1      -5.608  10.537  -8.887  1.00  0.00    -0.000 C 
BRANCH  26  27
ATOM     27  C   UNL     1      -6.326   9.471  -8.041  1.00  0.00    -0.000 C 
BRANCH  27  28
ATOM     28  C   UNL     1      -6.399   9.780  -6.534  1.00  0.00    -0.000 C 
BRANCH  28  29
ATOM     29  C   UNL     1      -7.338  10.952  -6.209  1.00  0.00    -0.000 C 
BRANCH  29  30
ATOM     30  C   UNL     1      -8.800  10.482  -6.158  1.00  0.00    -0.000 C 
BRANCH  30  31
ATOM     31  C   UNL     1      -9.020   9.340  -5.154  1.00  0.00    -0.003 C 
ATOM     32  C   UNL     1      -9.156   7.976  -5.831  1.00  0.00     0.004 C 
ENDBRANCH  30  31
ENDBRANCH  29  30
ENDBRANCH  28  29
ENDBRANCH  27  28
ENDBRANCH  26  27
ENDBRANCH  25  26
ENDBRANCH  24  25
ENDBRANCH  23  24
ENDBRANCH  22  23
ENDBRANCH  21  22
ENDBRANCH  20  21
ENDBRANCH  19  20
ENDBRANCH  18  19
ENDBRANCH   1  18
TORSDOF 28
ENDMDL
MODEL 3
REMARK VINA RESULT:     4.383      2.668      7.572
REMARK INTER + INTRA:          17.500
REMARK INTER:                  16.309
REMARK INTRA:                   1.191
REMARK UNBOUND:                 5.941
REMARK SMILES CCCCCCCCCCCCCCCCCCCCCCCCCCCCCC(=O)[O-]
REMARK SMILES IDX 16 1 17 2 18 3 19 4 20 5 21 6 22 7 23 8 24 9 25 10 26 11
REMARK SMILES IDX 27 12 28 13 29 14 30 15 31 16 32 17 15 18 14 19 13 20 12 21
REMARK SMILES IDX 11 22 10 23 9 24 8 25 7 26 6 27 5 28 4 29 3 30 2 31 1 32
REMARK H PARENT
REMARK Flexibility Score: inf
ROOT
ATOM      1  C   UNL     1       6.841  10.579   7.735  1.00  0.00     0.000 C 
ENDROOT
BRANCH   1   2
ATOM      2  C   UNL     1       6.441  11.983   7.256  1.00  0.00     0.000 C 
BRANCH   2   3
ATOM      3  C   UNL     1       6.989  13.105   8.158  1.00  0.00     0.000 C 
BRANCH   3   4
ATOM      4  C   UNL     1       7.460  12.651   9.552  1.00  0.00     0.000 C 
BRANCH   4   5
ATOM      5  C   UNL     1       6.338  12.398  10.577  1.00  0.00     0.000 C 
BRANCH   5   6
ATOM      6  C   UNL     1       5.015  13.122  10.251  1.00  0.00     0.000 C 
BRANCH   6   7
ATOM      7  C   UNL     1       4.260  12.478   9.078  1.00  0.00     0.000 C 
BRANCH   7   8
ATOM      8  C   UNL     1       2.822  13.004   8.992  1.00  0.00     0.000 C 
BRANCH   8   9
ATOM      9  C   UNL     1       2.179  13.067  10.385  1.00  0.00     0.000 C 
BRANCH   9  10
ATOM     10  C   UNL     1       0.641  13.017  10.337  1.00  0.00     0.000 C 
BRANCH  10  11
ATOM     11  C   UNL     1       0.040  12.677   8.958  1.00  0.00     0.000 C 
BRANCH  11  12
ATOM     12  C   UNL     1      -1.473  12.927   8.816  1.00  0.00     0.000 C 
BRANCH  12  13
ATOM     13  C   UNL     1      -2.128  12.324   7.557  1.00  0.00     0.006 C 
BRANCH  13  14
ATOM     14  C   UNL     1      -3.533  12.873   7.259  1.00  0.00     0.053 C 
BRANCH  14  15
ATOM     15  C   UNL     1      -4.072  12.393   5.946  1.00  0.00     0.041 C 
ATOM     16  O   UNL     1      -4.869  13.112   5.289  1.00  0.00    -0.550 OA
ATOM     17  O   UNL     1      -3.664  11.169   5.430  1.00  0.00    -0.550 OA
ENDBRANCH  14  15
ENDBRANCH  13  14
ENDBRANCH  12  13
ENDBRANCH  11  12
ENDBRANCH  10  11
ENDBRANCH   9  10
ENDBRANCH   8   9
ENDBRANCH   7   8
ENDBRANCH   6   7
ENDBRANCH   5   6
ENDBRANCH   4   5
ENDBRANCH   3   4
ENDBRANCH   2   3
ENDBRANCH   1   2
BRANCH   1  18
ATOM     18  C   UNL     1       8.354  10.360   7.588  1.00  0.00     0.000 C 
BRANCH  18  19
ATOM     19  C   UNL     1       8.837  10.531   6.139  1.00  0.00     0.000 C 
BRANCH  19  20
ATOM     20  C   UNL     1      10.012  11.513   6.019  1.00  0.00     0.000 C 
BRANCH  20  21
ATOM     21  C   UNL     1       9.509  12.955   5.878  1.00  0.00     0.000 C 
BRANCH  21  22
ATOM     22  C   UNL     1       8.273  13.020   4.967  1.00  0.00     0.000 C 
BRANCH  22  23
ATOM     23  C   UNL     1       8.362  12.055   3.773  1.00  0.00     0.000 C 
BRANCH  23  24
ATOM     24  C   UNL     1       7.107  11.179   3.625  1.00  0.00    -0.000 C 
BRANCH  24  25
ATOM     25  C   UNL     1       5.962  11.631   4.546  1.00  0.00    -0.000 C 
BRANCH  25  26
ATOM     26  C   UNL     1       5.046  10.468   4.967  1.00  0.00    -0.000 C 
BRANCH  26  27
ATOM     27  C   UNL     1       3.689  10.945   5.516  1.00  0.00    -0.000 C 
BRANCH  27  28
ATOM     28  C   UNL     1       3.215  10.223   6.790  1.00  0.00    -0.000 C 
BRANCH  28  29
ATOM     29  C   UNL     1       3.887   8.857   6.990  1.00  0.00    -0.000 C 
BRANCH  29  30
ATOM     30  C   UNL     1       3.397   8.191   8.284  1.00  0.00    -0.000 C 
BRANCH  30  31
ATOM     31  C   UNL     1       2.919   9.210   9.331  1.00  0.00    -0.003 C 
ATOM     32  C   UNL     1       4.065   9.773  10.173  1.00  0.00     0.004 C 
ENDBRANCH  30  31
ENDBRANCH  29  30
ENDBRANCH  28  29
ENDBRANCH  27  28
ENDBRANCH  26  27
ENDBRANCH  25  26
ENDBRANCH  24  25
ENDBRANCH  23  24
ENDBRANCH  22  23
ENDBRANCH  21  22
ENDBRANCH  20  21
ENDBRANCH  19  20
ENDBRANCH  18  19
ENDBRANCH   1  18
TORSDOF 28
ENDMDL
MODEL 4
REMARK VINA RESULT:     4.444      9.296     12.650
REMARK INTER + INTRA:          17.659
REMARK INTER:                  19.545
REMARK INTRA:                  -1.887
REMARK UNBOUND:                 5.941
REMARK SMILES CCCCCCCCCCCCCCCCCCCCCCCCCCCCCC(=O)[O-]
REMARK SMILES IDX 16 1 17 2 18 3 19 4 20 5 21 6 22 7 23 8 24 9 25 10 26 11
REMARK SMILES IDX 27 12 28 13 29 14 30 15 31 16 32 17 15 18 14 19 13 20 12 21
REMARK SMILES IDX 11 22 10 23 9 24 8 25 7 26 6 27 5 28 4 29 3 30 2 31 1 32
REMARK H PARENT
REMARK Flexibility Score: inf
ROOT
ATOM      1  C   UNL     1       4.544  11.344  -0.297  1.00  0.00     0.000 C 
ENDROOT
BRANCH   1   2
ATOM      2  C   UNL     1       3.139  11.549  -0.883  1.00  0.00     0.000 C 
BRANCH   2   3
ATOM      3  C   UNL     1       3.152  12.298  -2.229  1.00  0.00     0.000 C 
BRANCH   3   4
ATOM      4  C   UNL     1       1.779  12.443  -2.910  1.00  0.00     0.000 C 
BRANCH   4   5
ATOM      5  C   UNL     1       1.623  11.690  -4.246  1.00  0.00     0.000 C 
BRANCH   5   6
ATOM      6  C   UNL     1       0.368  12.094  -5.050  1.00  0.00     0.000 C 
BRANCH   6   7
ATOM      7  C   UNL     1      -0.729  11.018  -5.016  1.00  0.00     0.000 C 
BRANCH   7   8
ATOM      8  C   UNL     1      -1.512  10.987  -6.333  1.00  0.00     0.000 C 
BRANCH   8   9
ATOM      9  C   UNL     1      -2.892  11.639  -6.166  1.00  0.00     0.000 C 
BRANCH   9  10
ATOM     10  C   UNL     1      -3.546  12.011  -7.508  1.00  0.00     0.000 C 
BRANCH  10  11
ATOM     11  C   UNL     1      -3.677  10.851  -8.516  1.00  0.00     0.000 C 
BRANCH  11  12
ATOM     12  C   UNL     1      -5.095  10.271  -8.676  1.00  0.00     0.000 C 
BRANCH  12  13
ATOM     13  C   UNL     1      -6.018  10.434  -7.451  1.00  0.00     0.006 C 
BRANCH  13  14
ATOM     14  C   UNL     1      -7.029   9.289  -7.274  1.00  0.00     0.053 C 
BRANCH  14  15
ATOM     15  C   UNL     1      -8.047   9.581  -6.214  1.00  0.00     0.041 C 
ATOM     16  O   UNL     1      -8.334   8.706  -5.355  1.00  0.00    -0.550 OA
ATOM     17  O   UNL     1      -8.653  10.830  -6.152  1.00  0.00    -0.550 OA
ENDBRANCH  14  15
ENDBRANCH  13  14
ENDBRANCH  12  13
ENDBRANCH  11  12
ENDBRANCH  10  11
ENDBRANCH   9  10
ENDBRANCH   8   9
ENDBRANCH   7   8
ENDBRANCH   6   7
ENDBRANCH   5   6
ENDBRANCH   4   5
ENDBRANCH   3   4
ENDBRANCH   2   3
ENDBRANCH   1   2
BRANCH   1  18
ATOM     18  C   UNL     1       4.471  10.658   1.075  1.00  0.00     0.000 C 
BRANCH  18  19
ATOM     19  C   UNL     1       5.156  11.477   2.182  1.00  0.00     0.000 C 
BRANCH  19  20
ATOM     20  C   UNL     1       5.236  10.721   3.515  1.00  0.00     0.000 C 
BRANCH  20  21
ATOM     21  C   UNL     1       5.829  11.609   4.616  1.00  0.00     0.000 C 
BRANCH  21  22
ATOM     22  C   UNL     1       7.353  11.731   4.462  1.00  0.00     0.000 C 
BRANCH  22  23
ATOM     23  C   UNL     1       8.123  10.833   5.444  1.00  0.00     0.000 C 
BRANCH  23  24
ATOM     24  C   UNL     1       9.181  11.606   6.250  1.00  0.00    -0.000 C 
BRANCH  24  25
ATOM     25  C   UNL     1       8.690  11.981   7.657  1.00  0.00    -0.000 C 
BRANCH  25  26
ATOM     26  C   UNL     1       7.406  12.831   7.631  1.00  0.00    -0.000 C 
BRANCH  26  27
ATOM     27  C   UNL     1       6.246  12.183   8.408  1.00  0.00    -0.000 C 
BRANCH  27  28
ATOM     28  C   UNL     1       6.337  10.653   8.552  1.00  0.00    -0.000 C 
BRANCH  28  29
ATOM     29  C   UNL     1       5.262   9.911   7.744  1.00  0.00    -0.000 C 
BRANCH  29  30
ATOM     30  C   UNL     1       3.970  10.739   7.664  1.00  0.00    -0.000 C 
BRANCH  30  31
ATOM     31  C   UNL     1       3.076  10.562   8.901  1.00  0.00    -0.003 C 
ATOM     32  C   UNL     1       2.729  11.890   9.575  1.00  0.00     0.004 C 
ENDBRANCH  30  31
ENDBRANCH  29  30
ENDBRANCH  28  29
ENDBRANCH  27  28
ENDBRANCH  26  27
ENDBRANCH  25  26
ENDBRANCH  24  25
ENDBRANCH  23  24
ENDBRANCH  22  23
ENDBRANCH  21  22
ENDBRANCH  20  21
ENDBRANCH  19  20
ENDBRANCH  18  19
ENDBRANCH   1  18
TORSDOF 28
ENDMDL
MODEL 5
REMARK VINA RESULT:     5.042      3.512      9.114
REMARK INTER + INTRA:          19.238
REMARK INTER:                  18.945
REMARK INTRA:                   0.293
REMARK UNBOUND:                 5.941
REMARK SMILES CCCCCCCCCCCCCCCCCCCCCCCCCCCCCC(=O)[O-]
REMARK SMILES IDX 16 1 17 2 18 3 19 4 20 5 21 6 22 7 23 8 24 9 25 10 26 11
REMARK SMILES IDX 27 12 28 13 29 14 30 15 31 16 32 17 15 18 14 19 13 20 12 21
REMARK SMILES IDX 11 22 10 23 9 24 8 25 7 26 6 27 5 28 4 29 3 30 2 31 1 32
REMARK H PARENT
REMARK Flexibility Score: inf
ROOT
ATOM      1  C   UNL     1       4.137   9.866  10.486  1.00  0.00     0.000 C 
ENDROOT
BRANCH   1   2
ATOM      2  C   UNL     1       4.717   9.041   9.326  1.00  0.00     0.000 C 
BRANCH   2   3
ATOM      3  C   UNL     1       4.011   9.313   7.984  1.00  0.00     0.000 C 
BRANCH   3   4
ATOM      4  C   UNL     1       2.494   9.049   7.978  1.00  0.00     0.000 C 
BRANCH   4   5
ATOM      5  C   UNL     1       1.684   9.881   6.965  1.00  0.00     0.000 C 
BRANCH   5   6
ATOM      6  C   UNL     1       0.946  11.084   7.591  1.00  0.00     0.000 C 
BRANCH   6   7
ATOM      7  C   UNL     1       1.178  11.200   9.105  1.00  0.00     0.000 C 
BRANCH   7   8
ATOM      8  C   UNL     1       1.057  12.656   9.571  1.00  0.00     0.000 C 
BRANCH   8   9
ATOM      9  C   UNL     1      -0.404  13.008   9.889  1.00  0.00     0.000 C 
BRANCH   9  10
ATOM     10  C   UNL     1      -1.329  12.892   8.664  1.00  0.00     0.000 C 
BRANCH  10  11
ATOM     11  C   UNL     1      -2.680  12.198   8.928  1.00  0.00     0.000 C 
BRANCH  11  12
ATOM     12  C   UNL     1      -3.089  12.086  10.408  1.00  0.00     0.000 C 
BRANCH  12  13
ATOM     13  C   UNL     1      -3.556  10.688  10.862  1.00  0.00     0.006 C 
BRANCH  13  14
ATOM     14  C   UNL     1      -4.856  10.216  10.191  1.00  0.00     0.053 C 
BRANCH  14  15
ATOM     15  C   UNL     1      -5.158   8.775  10.473  1.00  0.00     0.041 C 
ATOM     16  O   UNL     1      -4.230   7.924  10.478  1.00  0.00    -0.550 OA
ATOM     17  O   UNL     1      -6.457   8.378  10.764  1.00  0.00    -0.550 OA
ENDBRANCH  14  15
ENDBRANCH  13  14
ENDBRANCH  12  13
ENDBRANCH  11  12
ENDBRANCH  10  11
ENDBRANCH   9  10
ENDBRANCH   8   9
ENDBRANCH   7   8
ENDBRANCH   6   7
ENDBRANCH   5   6
ENDBRANCH   4   5
ENDBRANCH   3   4
ENDBRANCH   2   3
ENDBRANCH   1   2
BRANCH   1  18
ATOM     18  C   UNL     1       4.459  11.358  10.313  1.00  0.00     0.000 C 
BRANCH  18  19
ATOM     19  C   UNL     1       3.870  11.942   9.019  1.00  0.00     0.000 C 
BRANCH  19  20
ATOM     20  C   UNL     1       4.688  13.124   8.478  1.00  0.00     0.000 C 
BRANCH  20  21
ATOM     21  C   UNL     1       6.078  12.666   8.020  1.00  0.00     0.000 C 
BRANCH  21  22
ATOM     22  C   UNL     1       7.114  12.851   9.139  1.00  0.00     0.000 C 
BRANCH  22  23
ATOM     23  C   UNL     1       8.508  12.332   8.751  1.00  0.00     0.000 C 
BRANCH  23  24
ATOM     24  C   UNL     1       9.099  13.071   7.539  1.00  0.00    -0.000 C 
BRANCH  24  25
ATOM     25  C   UNL     1       9.896  12.139   6.613  1.00  0.00    -0.000 C 
BRANCH  25  26
ATOM     26  C   UNL     1      10.125  12.744   5.215  1.00  0.00    -0.000 C 
BRANCH  26  27
ATOM     27  C   UNL     1       8.812  13.122   4.507  1.00  0.00    -0.000 C 
BRANCH  27  28
ATOM     28  C   UNL     1       8.382  12.161   3.383  1.00  0.00    -0.000 C 
BRANCH  28  29
ATOM     29  C   UNL     1       7.185  11.282   3.772  1.00  0.00    -0.000 C 
BRANCH  29  30
ATOM     30  C   UNL     1       7.431  10.593   5.123  1.00  0.00    -0.000 C 
BRANCH  30  31
ATOM     31  C   UNL     1       6.126  10.276   5.871  1.00  0.00    -0.003 C 
ATOM     32  C   UNL     1       4.991  11.236   5.513  1.00  0.00     0.004 C 
ENDBRANCH  30  31
ENDBRANCH  29  30
ENDBRANCH  28  29
ENDBRANCH  27  28
ENDBRANCH  26  27
ENDBRANCH  25  26
ENDBRANCH  24  25
ENDBRANCH  23  24
ENDBRANCH  22  23
ENDBRANCH  21  22
ENDBRANCH  20  21
ENDBRANCH  19  20
ENDBRANCH  18  19
ENDBRANCH   1  18
TORSDOF 28
ENDMDL
MODEL 6
REMARK VINA RESULT:     5.859     14.387     17.410
REMARK INTER + INTRA:          21.392
REMARK INTER:                  22.707
REMARK INTRA:                  -1.315
REMARK UNBOUND:                 5.941
REMARK SMILES CCCCCCCCCCCCCCCCCCCCCCCCCCCCCC(=O)[O-]
REMARK SMILES IDX 16 1 17 2 18 3 19 4 20 5 21 6 22 7 23 8 24 9 25 10 26 11
REMARK SMILES IDX 27 12 28 13 29 14 30 15 31 16 32 17 15 18 14 19 13 20 12 21
REMARK SMILES IDX 11 22 10 23 9 24 8 25 7 26 6 27 5 28 4 29 3 30 2 31 1 32
REMARK H PARENT
REMARK Flexibility Score: inf
ROOT
ATOM      1  C   UNL     1      -1.569  10.656  -4.702  1.00  0.00     0.000 C 
ENDROOT
BRANCH   1   2
ATOM      2  C   UNL     1      -2.969  10.255  -4.211  1.00  0.00     0.000 C 
BRANCH   2   3
ATOM      3  C   UNL     1      -2.931   9.228  -3.063  1.00  0.00     0.000 C 
BRANCH   3   4
ATOM      4  C   UNL     1      -4.186   8.345  -2.935  1.00  0.00     0.000 C 
BRANCH   4   5
ATOM      5  C   UNL     1      -4.123   7.263  -1.840  1.00  0.00     0.000 C 
BRANCH   5   6
ATOM      6  C   UNL     1      -2.689   6.809  -1.490  1.00  0.00     0.000 C 
BRANCH   6   7
ATOM      7  C   UNL     1      -2.612   5.318  -1.127  1.00  0.00     0.000 C 
BRANCH   7   8
ATOM      8  C   UNL     1      -2.209   4.474  -2.341  1.00  0.00     0.000 C 
BRANCH   8   9
ATOM      9  C   UNL     1      -2.428   2.979  -2.066  1.00  0.00     0.000 C 
BRANCH   9  10
ATOM     10  C   UNL     1      -3.913   2.613  -1.893  1.00  0.00     0.000 C 
BRANCH  10  11
ATOM     11  C   UNL     1      -4.263   1.141  -2.187  1.00  0.00     0.000 C 
BRANCH  11  12
ATOM     12  C   UNL     1      -4.427   0.784  -3.676  1.00  0.00     0.000 C 
BRANCH  12  13
ATOM     13  C   UNL     1      -3.953   1.864  -4.670  1.00  0.00     0.006 C 
BRANCH  13  14
ATOM     14  C   UNL     1      -4.467   1.662  -6.105  1.00  0.00     0.053 C 
BRANCH  14  15
ATOM     15  C   UNL     1      -5.778   0.937  -6.149  1.00  0.00     0.041 C 
ATOM     16  O   UNL     1      -6.704   1.257  -5.359  1.00  0.00    -0.550 OA
ATOM     17  O   UNL     1      -5.989  -0.067  -7.087  1.00  0.00    -0.550 OA
ENDBRANCH  14  15
ENDBRANCH  13  14
ENDBRANCH  12  13
ENDBRANCH  11  12
ENDBRANCH  10  11
ENDBRANCH   9  10
ENDBRANCH   8   9
ENDBRANCH   7   8
ENDBRANCH   6   7
ENDBRANCH   5   6
ENDBRANCH   4   5
ENDBRANCH   3   4
ENDBRANCH   2   3
ENDBRANCH   1   2
BRANCH   1  18
ATOM     18  C   UNL     1      -1.643  11.327  -6.081  1.00  0.00     0.000 C 
BRANCH  18  19
ATOM     19  C   UNL     1      -3.090  11.554  -6.551  1.00  0.00     0.000 C 
BRANCH  19  20
ATOM     20  C   UNL     1      -3.169  12.356  -7.857  1.00  0.00     0.000 C 
BRANCH  20  21
ATOM     21  C   UNL     1      -3.738  11.498  -8.995  1.00  0.00     0.000 C 
BRANCH  21  22
ATOM     22  C   UNL     1      -4.203  10.131  -8.471  1.00  0.00     0.000 C 
BRANCH  22  23
ATOM     23  C   UNL     1      -5.654   9.806  -8.863  1.00  0.00     0.000 C 
BRANCH  23  24
ATOM     24  C   UNL     1      -6.673  10.744  -8.193  1.00  0.00    -0.000 C 
BRANCH  24  25
ATOM     25  C   UNL     1      -7.143  10.222  -6.826  1.00  0.00    -0.000 C 
BRANCH  25  26
ATOM     26  C   UNL     1      -8.244  11.099  -6.202  1.00  0.00    -0.000 C 
BRANCH  26  27
ATOM     27  C   UNL     1      -9.523  10.308  -5.875  1.00  0.00    -0.000 C 
BRANCH  27  28
ATOM     28  C   UNL     1      -9.372   9.269  -4.749  1.00  0.00    -0.000 C 
BRANCH  28  29
ATOM     29  C   UNL     1      -9.232   7.833  -5.275  1.00  0.00    -0.000 C 
BRANCH  29  30
ATOM     30  C   UNL     1      -9.349   7.798  -6.806  1.00  0.00    -0.000 C 
BRANCH  30  31
ATOM     31  C   UNL     1     -10.017   6.514  -7.320  1.00  0.00    -0.003 C 
ATOM     32  C   UNL     1     -10.117   5.429  -6.246  1.00  0.00     0.004 C 
ENDBRANCH  30  31
ENDBRANCH  29  30
ENDBRANCH  28  29
ENDBRANCH  27  28
ENDBRANCH  26  27
ENDBRANCH  25  26
ENDBRANCH  24  25
ENDBRANCH  23  24
ENDBRANCH  22  23
ENDBRANCH  21  22
ENDBRANCH  20  21
ENDBRANCH  19  20
ENDBRANCH  18  19
ENDBRANCH   1  18
TORSDOF 28
ENDMDL
MODEL 7
REMARK VINA RESULT:     6.347      4.450     10.265
REMARK INTER + INTRA:          22.678
REMARK INTER:                  23.151
REMARK INTRA:                  -0.473
REMARK UNBOUND:                 5.941
REMARK SMILES CCCCCCCCCCCCCCCCCCCCCCCCCCCCCC(=O)[O-]
REMARK SMILES IDX 16 1 17 2 18 3 19 4 20 5 21 6 22 7 23 8 24 9 25 10 26 11
REMARK SMILES IDX 27 12 28 13 29 14 30 15 31 16 32 17 15 18 14 19 13 20 12 21
REMARK SMILES IDX 11 22 10 23 9 24 8 25 7 26 6 27 5 28 4 29 3 30 2 31 1 32
REMARK H PARENT
REMARK Flexibility Score: inf
ROOT
ATOM      1  C   UNL     1       4.410  10.513   9.201  1.00  0.00     0.000 C 
ENDROOT
BRANCH   1   2
ATOM      2  C   UNL     1       3.710   9.155   9.034  1.00  0.00     0.000 C 
BRANCH   2   3
ATOM      3  C   UNL     1       2.235   9.286   8.610  1.00  0.00     0.000 C 
BRANCH   3   4
ATOM      4  C   UNL     1       1.962  10.327   7.509  1.00  0.00     0.000 C 
BRANCH   4   5
ATOM      5  C   UNL     1       1.292  11.631   7.985  1.00  0.00     0.000 C 
BRANCH   5   6
ATOM      6  C   UNL     1      -0.144  11.439   8.517  1.00  0.00     0.000 C 
BRANCH   6   7
ATOM      7  C   UNL     1      -1.006  12.702   8.369  1.00  0.00     0.000 C 
BRANCH   7   8
ATOM      8  C   UNL     1      -2.336  12.554   9.116  1.00  0.00     0.000 C 
BRANCH   8   9
ATOM      9  C   UNL     1      -3.515  12.514   8.133  1.00  0.00     0.000 C 
BRANCH   9  10
ATOM     10  C   UNL     1      -4.051  11.091   7.897  1.00  0.00     0.000 C 
BRANCH  10  11
ATOM     11  C   UNL     1      -4.168  10.218   9.163  1.00  0.00     0.000 C 
BRANCH  11  12
ATOM     12  C   UNL     1      -5.059   8.969   9.025  1.00  0.00     0.000 C 
BRANCH  12  13
ATOM     13  C   UNL     1      -6.556   9.189   9.322  1.00  0.00     0.006 C 
BRANCH  13  14
ATOM     14  C   UNL     1      -7.463   9.061   8.087  1.00  0.00     0.053 C 
BRANCH  14  15
ATOM     15  C   UNL     1      -8.919   9.039   8.442  1.00  0.00     0.041 C 
ATOM     16  O   UNL     1      -9.647  10.033   8.186  1.00  0.00    -0.550 OA
ATOM     17  O   UNL     1      -9.478   7.907   9.022  1.00  0.00    -0.550 OA
ENDBRANCH  14  15
ENDBRANCH  13  14
ENDBRANCH  12  13
ENDBRANCH  11  12
ENDBRANCH  10  11
ENDBRANCH   9  10
ENDBRANCH   8   9
ENDBRANCH   7   8
ENDBRANCH   6   7
ENDBRANCH   5   6
ENDBRANCH   4   5
ENDBRANCH   3   4
ENDBRANCH   2   3
ENDBRANCH   1   2
BRANCH   1  18
ATOM     18  C   UNL     1       3.499  11.513   9.929  1.00  0.00     0.000 C 
BRANCH  18  19
ATOM     19  C   UNL     1       3.993  12.963   9.801  1.00  0.00     0.000 C 
BRANCH  19  20
ATOM     20  C   UNL     1       5.152  13.108   8.805  1.00  0.00     0.000 C 
BRANCH  20  21
ATOM     21  C   UNL     1       6.276  12.113   9.123  1.00  0.00     0.000 C 
BRANCH  21  22
ATOM     22  C   UNL     1       7.649  12.798   9.065  1.00  0.00     0.000 C 
BRANCH  22  23
ATOM     23  C   UNL     1       8.573  12.192   7.996  1.00  0.00     0.000 C 
BRANCH  23  24
ATOM     24  C   UNL     1       8.768  13.121   6.786  1.00  0.00    -0.000 C 
BRANCH  24  25
ATOM     25  C   UNL     1      10.042  12.792   5.992  1.00  0.00    -0.000 C 
BRANCH  25  26
ATOM     26  C   UNL     1       9.889  13.068   4.484  1.00  0.00    -0.000 C 
BRANCH  26  27
ATOM     27  C   UNL     1       8.430  12.967   4.005  1.00  0.00    -0.000 C 
BRANCH  27  28
ATOM     28  C   UNL     1       8.001  11.569   3.523  1.00  0.00    -0.000 C 
BRANCH  28  29
ATOM     29  C   UNL     1       8.188  10.484   4.593  1.00  0.00    -0.000 C 
BRANCH  29  30
ATOM     30  C   UNL     1       6.864  10.193   5.314  1.00  0.00    -0.000 C 
BRANCH  30  31
ATOM     31  C   UNL     1       5.655  10.831   4.612  1.00  0.00    -0.003 C 
ATOM     32  C   UNL     1       4.722  11.556   5.582  1.00  0.00     0.004 C 
ENDBRANCH  30  31
ENDBRANCH  29  30
ENDBRANCH  28  29
ENDBRANCH  27  28
ENDBRANCH  26  27
ENDBRANCH  25  26
ENDBRANCH  24  25
ENDBRANCH  23  24
ENDBRANCH  22  23
ENDBRANCH  21  22
ENDBRANCH  20  21
ENDBRANCH  19  20
ENDBRANCH  18  19
ENDBRANCH   1  18
TORSDOF 28
ENDMDL
