MODEL 1
REMARK VINA RESULT:    -4.484      0.000      0.000
REMARK INTER + INTRA:          -7.494
REMARK INTER:                  -6.581
REMARK INTRA:                  -0.912
REMARK UNBOUND:                -0.912
REMARK SMILES O=C([O-])CCCCCCCC(=O)[O-]
REMARK SMILES IDX 7 1 6 2 5 3 4 4 2 5 1 6 3 7 8 8 9 9 10 10 11 11 12 12 13 13
REMARK H PARENT
REMARK Flexibility Score: inf
ROOT
ATOM      1  C   UNL     1      13.500  16.769 163.629  1.00  0.00     0.000 C 
ENDROOT
BRANCH   1   2
ATOM      2  C   UNL     1      14.181  15.565 162.953  1.00  0.00     0.000 C 
BRANCH   2   3
ATOM      3  C   UNL     1      13.776  14.226 163.587  1.00  0.00     0.006 C 
BRANCH   3   4
ATOM      4  C   UNL     1      13.436  13.157 162.539  1.00  0.00     0.053 C 
BRANCH   4   5
ATOM      5  C   UNL     1      11.961  12.914 162.504  1.00  0.00     0.041 C 
ATOM      6  O   UNL     1      11.388  12.649 161.415  1.00  0.00    -0.550 OA
ATOM      7  O   UNL     1      11.209  13.027 163.667  1.00  0.00    -0.550 OA
ENDBRANCH   4   5
ENDBRANCH   3   4
ENDBRANCH   2   3
ENDBRANCH   1   2
BRANCH   1   8
ATOM      8  C   UNL     1      11.983  16.576 163.788  1.00  0.00     0.000 C 
BRANCH   8   9
ATOM      9  C   UNL     1      11.183  17.235 162.652  1.00  0.00     0.006 C 
BRANCH   9  10
ATOM     10  C   UNL     1      10.754  16.223 161.582  1.00  0.00     0.053 C 
BRANCH  10  11
ATOM     11  C   UNL     1      11.531  16.395 160.313  1.00  0.00     0.041 C 
ATOM     12  O   UNL     1      12.381  15.533 159.966  1.00  0.00    -0.550 OA
ATOM     13  O   UNL     1      11.341  17.526 159.530  1.00  0.00    -0.550 OA
ENDBRANCH  10  11
ENDBRANCH   9  10
ENDBRANCH   8   9
ENDBRANCH   1   8
TORSDOF 8
ENDMDL
MODEL 2
REMARK VINA RESULT:    -4.470      0.886      3.855
REMARK INTER + INTRA:          -7.473
REMARK INTER:                  -6.515
REMARK INTRA:                  -0.959
REMARK UNBOUND:                -0.912
REMARK SMILES O=C([O-])CCCCCCCC(=O)[O-]
REMARK SMILES IDX 7 1 6 2 5 3 4 4 2 5 1 6 3 7 8 8 9 9 10 10 11 11 12 12 13 13
REMARK H PARENT
REMARK Flexibility Score: inf
ROOT
ATOM      1  C   UNL     1      13.564  16.466 163.383  1.00  0.00     0.000 C 
ENDROOT
BRANCH   1   2
ATOM      2  C   UNL     1      12.252  16.193 164.140  1.00  0.00     0.000 C 
BRANCH   2   3
ATOM      3  C   UNL     1      11.008  16.548 163.310  1.00  0.00     0.006 C 
BRANCH   3   4
ATOM      4  C   UNL     1      11.362  17.189 161.961  1.00  0.00     0.053 C 
BRANCH   4   5
ATOM      5  C   UNL     1      11.119  16.223 160.846  1.00  0.00     0.041 C 
ATOM      6  O   UNL     1       9.966  15.757 160.652  1.00  0.00    -0.550 OA
ATOM      7  O   UNL     1      12.176  15.799 160.049  1.00  0.00    -0.550 OA
ENDBRANCH   4   5
ENDBRANCH   3   4
ENDBRANCH   2   3
ENDBRANCH   1   2
BRANCH   1   8
ATOM      8  C   UNL     1      14.312  15.174 163.016  1.00  0.00     0.000 C 
BRANCH   8   9
ATOM      9  C   UNL     1      13.539  13.908 163.422  1.00  0.00     0.006 C 
BRANCH   9  10
ATOM     10  C   UNL     1      13.051  13.111 162.205  1.00  0.00     0.053 C 
BRANCH  10  11
ATOM     11  C   UNL     1      11.575  12.860 162.263  1.00  0.00     0.041 C 
ATOM     12  O   UNL     1      10.956  12.958 163.355  1.00  0.00    -0.550 OA
ATOM     13  O   UNL     1      10.890  12.482 161.115  1.00  0.00    -0.550 OA
ENDBRANCH  10  11
ENDBRANCH   9  10
ENDBRANCH   8   9
ENDBRANCH   1   8
TORSDOF 8
ENDMDL
MODEL 3
REMARK VINA RESULT:    -4.447      1.962      4.023
REMARK INTER + INTRA:          -7.440
REMARK INTER:                  -6.579
REMARK INTRA:                  -0.861
REMARK UNBOUND:                -0.912
REMARK SMILES O=C([O-])CCCCCCCC(=O)[O-]
REMARK SMILES IDX 7 1 6 2 5 3 4 4 2 5 1 6 3 7 8 8 9 9 10 10 11 11 12 12 13 13
REMARK H PARENT
REMARK Flexibility Score: inf
ROOT
ATOM      1  C   UNL     1      13.879  14.999 161.581  1.00  0.00     0.000 C 
ENDROOT
BRANCH   1   2
ATOM      2  C   UNL     1      14.176  15.253 163.070  1.00  0.00     0.000 C 
BRANCH   2   3
ATOM      3  C   UNL     1      13.485  16.519 163.601  1.00  0.00     0.006 C 
BRANCH   3   4
ATOM      4  C   UNL     1      12.309  16.200 164.534  1.00  0.00     0.053 C 
BRANCH   4   5
ATOM      5  C   UNL     1      11.023  16.662 163.926  1.00  0.00     0.041 C 
ATOM      6  O   UNL     1      10.065  17.014 164.663  1.00  0.00    -0.550 OA
ATOM      7  O   UNL     1      10.865  16.657 162.546  1.00  0.00    -0.550 OA
ENDBRANCH   4   5
ENDBRANCH   3   4
ENDBRANCH   2   3
ENDBRANCH   1   2
BRANCH   1   8
ATOM      8  C   UNL     1      12.790  13.934 161.370  1.00  0.00     0.000 C 
BRANCH   8   9
ATOM      9  C   UNL     1      12.660  12.978 162.569  1.00  0.00     0.006 C 
BRANCH   9  10
ATOM     10  C   UNL     1      11.244  12.979 163.159  1.00  0.00     0.053 C 
BRANCH  10  11
ATOM     11  C   UNL     1      10.201  12.821 162.095  1.00  0.00     0.041 C 
ATOM     12  O   UNL     1       9.363  13.738 161.887  1.00  0.00    -0.550 OA
ATOM     13  O   UNL     1      10.133  11.647 161.357  1.00  0.00    -0.550 OA
ENDBRANCH  10  11
ENDBRANCH   9  10
ENDBRANCH   8   9
ENDBRANCH   1   8
TORSDOF 8
ENDMDL
MODEL 4
REMARK VINA RESULT:    -4.426      2.314      3.482
REMARK INTER + INTRA:          -7.408
REMARK INTER:                  -6.483
REMARK INTRA:                  -0.925
REMARK UNBOUND:                -0.912
REMARK SMILES O=C([O-])CCCCCCCC(=O)[O-]
REMARK SMILES IDX 7 1 6 2 5 3 4 4 2 5 1 6 3 7 8 8 9 9 10 10 11 11 12 12 13 13
REMARK H PARENT
REMARK Flexibility Score: inf
ROOT
ATOM      1  C   UNL     1      10.909  12.730 163.253  1.00  0.00     0.000 C 
ENDROOT
BRANCH   1   2
ATOM      2  C   UNL     1      12.324  13.319 163.398  1.00  0.00     0.000 C 
BRANCH   2   3
ATOM      3  C   UNL     1      13.155  13.180 162.113  1.00  0.00     0.006 C 
BRANCH   3   4
ATOM      4  C   UNL     1      13.776  14.510 161.666  1.00  0.00     0.053 C 
BRANCH   4   5
ATOM      5  C   UNL     1      14.552  15.125 162.787  1.00  0.00     0.041 C 
ATOM      6  O   UNL     1      14.194  16.229 163.274  1.00  0.00    -0.550 OA
ATOM      7  O   UNL     1      15.699  14.502 163.263  1.00  0.00    -0.550 OA
ENDBRANCH   4   5
ENDBRANCH   3   4
ENDBRANCH   2   3
ENDBRANCH   1   2
BRANCH   1   8
ATOM      8  C   UNL     1      10.290  13.015 161.876  1.00  0.00     0.000 C 
BRANCH   8   9
ATOM      9  C   UNL     1       9.471  14.317 161.855  1.00  0.00     0.006 C 
BRANCH   9  10
ATOM     10  C   UNL     1      10.209  15.453 161.135  1.00  0.00     0.053 C 
BRANCH  10  11
ATOM     11  C   UNL     1      10.748  16.464 162.101  1.00  0.00     0.041 C 
ATOM     12  O   UNL     1      11.475  17.408 161.693  1.00  0.00    -0.550 OA
ATOM     13  O   UNL     1      10.474  16.344 163.457  1.00  0.00    -0.550 OA
ENDBRANCH  10  11
ENDBRANCH   9  10
ENDBRANCH   8   9
ENDBRANCH   1   8
TORSDOF 8
ENDMDL
MODEL 5
REMARK VINA RESULT:    -4.382      1.537      3.191
REMARK INTER + INTRA:          -7.344
REMARK INTER:                  -6.372
REMARK INTRA:                  -0.972
REMARK UNBOUND:                -0.912
REMARK SMILES O=C([O-])CCCCCCCC(=O)[O-]
REMARK SMILES IDX 7 1 6 2 5 3 4 4 2 5 1 6 3 7 8 8 9 9 10 10 11 11 12 12 13 13
REMARK H PARENT
REMARK Flexibility Score: inf
ROOT
ATOM      1  C   UNL     1      10.880  17.070 162.869  1.00  0.00     0.000 C 
ENDROOT
BRANCH   1   2
ATOM      2  C   UNL     1      12.260  17.354 163.489  1.00  0.00     0.000 C 
BRANCH   2   3
ATOM      3  C   UNL     1      13.003  16.070 163.888  1.00  0.00     0.006 C 
BRANCH   3   4
ATOM      4  C   UNL     1      14.242  15.812 163.021  1.00  0.00     0.053 C 
BRANCH   4   5
ATOM      5  C   UNL     1      14.046  14.588 162.183  1.00  0.00     0.041 C 
ATOM      6  O   UNL     1      13.755  14.695 160.964  1.00  0.00    -0.550 OA
ATOM      7  O   UNL     1      14.138  13.328 162.762  1.00  0.00    -0.550 OA
ENDBRANCH   4   5
ENDBRANCH   3   4
ENDBRANCH   2   3
ENDBRANCH   1   2
BRANCH   1   8
ATOM      8  C   UNL     1      10.955  16.810 161.356  1.00  0.00     0.000 C 
BRANCH   8   9
ATOM      9  C   UNL     1      10.354  15.450 160.960  1.00  0.00     0.006 C 
BRANCH   9  10
ATOM     10  C   UNL     1       9.918  14.632 162.183  1.00  0.00     0.053 C 
BRANCH  10  11
ATOM     11  C   UNL     1      10.605  13.301 162.233  1.00  0.00     0.041 C 
ATOM     12  O   UNL     1      10.917  12.789 163.341  1.00  0.00    -0.550 OA
ATOM     13  O   UNL     1      10.931  12.643 161.055  1.00  0.00    -0.550 OA
ENDBRANCH  10  11
ENDBRANCH   9  10
ENDBRANCH   8   9
ENDBRANCH   1   8
TORSDOF 8
ENDMDL
MODEL 6
REMARK VINA RESULT:    -4.375      1.673      3.180
REMARK INTER + INTRA:          -7.333
REMARK INTER:                  -6.489
REMARK INTRA:                  -0.844
REMARK UNBOUND:                -0.912
REMARK SMILES O=C([O-])CCCCCCCC(=O)[O-]
REMARK SMILES IDX 7 1 6 2 5 3 4 4 2 5 1 6 3 7 8 8 9 9 10 10 11 11 12 12 13 13
REMARK H PARENT
REMARK Flexibility Score: inf
ROOT
ATOM      1  C   UNL     1      11.114  17.166 161.384  1.00  0.00     0.000 C 
ENDROOT
BRANCH   1   2
ATOM      2  C   UNL     1      10.410  15.866 160.956  1.00  0.00     0.000 C 
BRANCH   2   3
ATOM      3  C   UNL     1       9.934  15.031 162.155  1.00  0.00     0.006 C 
BRANCH   3   4
ATOM      4  C   UNL     1       9.935  13.524 161.861  1.00  0.00     0.053 C 
BRANCH   4   5
ATOM      5  C   UNL     1      11.115  12.868 162.504  1.00  0.00     0.041 C 
ATOM      6  O   UNL     1      12.001  12.323 161.795  1.00  0.00    -0.550 OA
ATOM      7  O   UNL     1      11.214  12.817 163.889  1.00  0.00    -0.550 OA
ENDBRANCH   4   5
ENDBRANCH   3   4
ENDBRANCH   2   3
ENDBRANCH   1   2
BRANCH   1   8
ATOM      8  C   UNL     1      11.340  17.242 162.903  1.00  0.00     0.000 C 
BRANCH   8   9
ATOM      9  C   UNL     1      12.829  17.159 163.282  1.00  0.00     0.006 C 
BRANCH   9  10
ATOM     10  C   UNL     1      13.258  15.728 163.632  1.00  0.00     0.053 C 
BRANCH  10  11
ATOM     11  C   UNL     1      14.198  15.166 162.610  1.00  0.00     0.041 C 
ATOM     12  O   UNL     1      13.835  15.047 161.410  1.00  0.00    -0.550 OA
ATOM     13  O   UNL     1      15.465  14.741 162.990  1.00  0.00    -0.550 OA
ENDBRANCH  10  11
ENDBRANCH   9  10
ENDBRANCH   8   9
ENDBRANCH   1   8
TORSDOF 8
ENDMDL
MODEL 7
REMARK VINA RESULT:    -4.365      2.116      3.538
REMARK INTER + INTRA:          -7.319
REMARK INTER:                  -6.342
REMARK INTRA:                  -0.976
REMARK UNBOUND:                -0.912
REMARK SMILES O=C([O-])CCCCCCCC(=O)[O-]
REMARK SMILES IDX 7 1 6 2 5 3 4 4 2 5 1 6 3 7 8 8 9 9 10 10 11 11 12 12 13 13
REMARK H PARENT
REMARK Flexibility Score: inf
ROOT
ATOM      1  C   UNL     1       9.727  14.640 162.080  1.00  0.00     0.000 C 
ENDROOT
BRANCH   1   2
ATOM      2  C   UNL     1      10.277  13.206 161.973  1.00  0.00     0.000 C 
BRANCH   2   3
ATOM      3  C   UNL     1      11.470  12.961 162.909  1.00  0.00     0.006 C 
BRANCH   3   4
ATOM      4  C   UNL     1      12.791  12.782 162.147  1.00  0.00     0.053 C 
BRANCH   4   5
ATOM      5  C   UNL     1      13.733  13.897 162.468  1.00  0.00     0.041 C 
ATOM      6  O   UNL     1      13.955  14.803 161.623  1.00  0.00    -0.550 OA
ATOM      7  O   UNL     1      14.404  13.913 163.685  1.00  0.00    -0.550 OA
ENDBRANCH   4   5
ENDBRANCH   3   4
ENDBRANCH   2   3
ENDBRANCH   1   2
BRANCH   1   8
ATOM      8  C   UNL     1      10.466  15.626 161.161  1.00  0.00     0.000 C 
BRANCH   8   9
ATOM      9  C   UNL     1      11.041  16.829 161.928  1.00  0.00     0.006 C 
BRANCH   9  10
ATOM     10  C   UNL     1      10.778  16.734 163.437  1.00  0.00     0.053 C 
BRANCH  10  11
ATOM     11  C   UNL     1      12.047  16.537 164.209  1.00  0.00     0.041 C 
ATOM     12  O   UNL     1      13.106  17.115 163.848  1.00  0.00    -0.550 OA
ATOM     13  O   UNL     1      12.067  15.688 165.307  1.00  0.00    -0.550 OA
ENDBRANCH  10  11
ENDBRANCH   9  10
ENDBRANCH   8   9
ENDBRANCH   1   8
TORSDOF 8
ENDMDL
MODEL 8
REMARK VINA RESULT:    -4.352      2.251      3.282
REMARK INTER + INTRA:          -7.300
REMARK INTER:                  -6.562
REMARK INTRA:                  -0.738
REMARK UNBOUND:                -0.912
REMARK SMILES O=C([O-])CCCCCCCC(=O)[O-]
REMARK SMILES IDX 7 1 6 2 5 3 4 4 2 5 1 6 3 7 8 8 9 9 10 10 11 11 12 12 13 13
REMARK H PARENT
REMARK Flexibility Score: inf
ROOT
ATOM      1  C   UNL     1      14.622  14.397 163.315  1.00  0.00     0.000 C 
ENDROOT
BRANCH   1   2
ATOM      2  C   UNL     1      13.908  13.100 162.895  1.00  0.00     0.000 C 
BRANCH   2   3
ATOM      3  C   UNL     1      12.590  13.367 162.151  1.00  0.00     0.006 C 
BRANCH   3   4
ATOM      4  C   UNL     1      11.356  13.046 163.004  1.00  0.00     0.053 C 
BRANCH   4   5
ATOM      5  C   UNL     1      10.135  12.965 162.145  1.00  0.00     0.041 C 
ATOM      6  O   UNL     1       9.796  11.869 161.628  1.00  0.00    -0.550 OA
ATOM      7  O   UNL     1       9.397  14.111 161.875  1.00  0.00    -0.550 OA
ENDBRANCH   4   5
ENDBRANCH   3   4
ENDBRANCH   2   3
ENDBRANCH   1   2
BRANCH   1   8
ATOM      8  C   UNL     1      14.047  15.640 162.616  1.00  0.00     0.000 C 
BRANCH   8   9
ATOM      9  C   UNL     1      13.542  16.696 163.614  1.00  0.00     0.006 C 
BRANCH   9  10
ATOM     10  C   UNL     1      12.050  17.004 163.426  1.00  0.00     0.053 C 
BRANCH  10  11
ATOM     11  C   UNL     1      11.217  16.391 164.510  1.00  0.00     0.041 C 
ATOM     12  O   UNL     1       9.964  16.511 164.492  1.00  0.00    -0.550 OA
ATOM     13  O   UNL     1      11.828  15.717 165.559  1.00  0.00    -0.550 OA
ENDBRANCH  10  11
ENDBRANCH   9  10
ENDBRANCH   8   9
ENDBRANCH   1   8
TORSDOF 8
ENDMDL
MODEL 9
REMARK VINA RESULT:    -4.334      2.213      4.343
REMARK INTER + INTRA:          -7.273
REMARK INTER:                  -6.394
REMARK INTRA:                  -0.879
REMARK UNBOUND:                -0.912
REMARK SMILES O=C([O-])CCCCCCCC(=O)[O-]
REMARK SMILES IDX 7 1 6 2 5 3 4 4 2 5 1 6 3 7 8 8 9 9 10 10 11 11 12 12 13 13
REMARK H PARENT
REMARK Flexibility Score: inf
ROOT
ATOM      1  C   UNL     1       9.729  14.256 162.029  1.00  0.00     0.000 C 
ENDROOT
BRANCH   1   2
ATOM      2  C   UNL     1      10.462  15.288 161.154  1.00  0.00     0.000 C 
BRANCH   2   3
ATOM      3  C   UNL     1      10.970  16.492 161.962  1.00  0.00     0.006 C 
BRANCH   3   4
ATOM      4  C   UNL     1      10.580  16.414 163.445  1.00  0.00     0.053 C 
BRANCH   4   5
ATOM      5  C   UNL     1      11.803  16.364 164.303  1.00  0.00     0.041 C 
ATOM      6  O   UNL     1      12.839  16.994 163.967  1.00  0.00    -0.550 OA
ATOM      7  O   UNL     1      11.815  15.582 165.452  1.00  0.00    -0.550 OA
ENDBRANCH   4   5
ENDBRANCH   3   4
ENDBRANCH   2   3
ENDBRANCH   1   2
BRANCH   1   8
ATOM      8  C   UNL     1      10.491  12.924 162.133  1.00  0.00     0.000 C 
BRANCH   8   9
ATOM      9  C   UNL     1      11.983  13.069 161.788  1.00  0.00     0.006 C 
BRANCH   9  10
ATOM     10  C   UNL     1      12.868  13.084 163.041  1.00  0.00     0.053 C 
BRANCH  10  11
ATOM     11  C   UNL     1      14.104  13.905 162.837  1.00  0.00     0.041 C 
ATOM     12  O   UNL     1      15.063  13.823 163.650  1.00  0.00    -0.550 OA
ATOM     13  O   UNL     1      14.184  14.786 161.767  1.00  0.00    -0.550 OA
ENDBRANCH  10  11
ENDBRANCH   9  10
ENDBRANCH   8   9
ENDBRANCH   1   8
TORSDOF 8
ENDMDL
