MODEL 1
REMARK VINA RESULT:    -4.261      0.000      0.000
REMARK INTER + INTRA:          -6.358
REMARK INTER:                  -5.756
REMARK INTRA:                  -0.602
REMARK UNBOUND:                -0.602
REMARK SMILES CCCCCCCC(=O)[O-]
REMARK SMILES IDX 5 1 6 2 7 3 8 4 9 5 10 6 4 7 3 8 2 9 1 10
REMARK H PARENT
REMARK Flexibility Score: inf
ROOT
ATOM      1  C   UNL     1      50.072  57.628  93.042  1.00  0.00     0.000 C 
ENDROOT
BRANCH   1   2
ATOM      2  C   UNL     1      51.250  56.713  92.660  1.00  0.00     0.006 C 
BRANCH   2   3
ATOM      3  C   UNL     1      52.122  57.323  91.554  1.00  0.00     0.053 C 
BRANCH   3   4
ATOM      4  C   UNL     1      53.043  58.375  92.093  1.00  0.00     0.041 C 
ATOM      5  O   UNL     1      53.463  58.304  93.277  1.00  0.00    -0.550 OA
ATOM      6  O   UNL     1      53.462  59.416  91.275  1.00  0.00    -0.550 OA
ENDBRANCH   3   4
ENDBRANCH   2   3
ENDBRANCH   1   2
BRANCH   1   7
ATOM      7  C   UNL     1      50.098  58.035  94.523  1.00  0.00     0.000 C 
BRANCH   7   8
ATOM      8  C   UNL     1      49.914  59.549  94.724  1.00  0.00    -0.000 C 
BRANCH   8   9
ATOM      9  C   UNL     1      50.064  60.339  93.415  1.00  0.00    -0.003 C 
ATOM     10  C   UNL     1      51.258  61.292  93.434  1.00  0.00     0.004 C 
ENDBRANCH   8   9
ENDBRANCH   7   8
ENDBRANCH   1   7
TORSDOF 6
ENDMDL
MODEL 2
REMARK VINA RESULT:    -4.108      1.193      1.511
REMARK INTER + INTRA:          -6.151
REMARK INTER:                  -5.682
REMARK INTRA:                  -0.470
REMARK UNBOUND:                -0.602
REMARK SMILES CCCCCCCC(=O)[O-]
REMARK SMILES IDX 5 1 6 2 7 3 8 4 9 5 10 6 4 7 3 8 2 9 1 10
REMARK H PARENT
REMARK Flexibility Score: inf
ROOT
ATOM      1  C   UNL     1      50.203  58.018  93.992  1.00  0.00     0.000 C 
ENDROOT
BRANCH   1   2
ATOM      2  C   UNL     1      51.546  57.316  94.264  1.00  0.00     0.006 C 
BRANCH   2   3
ATOM      3  C   UNL     1      52.736  58.105  93.703  1.00  0.00     0.053 C 
BRANCH   3   4
ATOM      4  C   UNL     1      52.744  58.104  92.205  1.00  0.00     0.041 C 
ATOM      5  O   UNL     1      53.320  59.027  91.573  1.00  0.00    -0.550 OA
ATOM      6  O   UNL     1      52.142  57.064  91.508  1.00  0.00    -0.550 OA
ENDBRANCH   3   4
ENDBRANCH   2   3
ENDBRANCH   1   2
BRANCH   1   7
ATOM      7  C   UNL     1      49.722  58.854  95.188  1.00  0.00     0.000 C 
BRANCH   7   8
ATOM      8  C   UNL     1      49.619  60.354  94.859  1.00  0.00    -0.000 C 
BRANCH   8   9
ATOM      9  C   UNL     1      50.062  60.673  93.424  1.00  0.00    -0.003 C 
ATOM     10  C   UNL     1      51.373  61.456  93.371  1.00  0.00     0.004 C 
ENDBRANCH   8   9
ENDBRANCH   7   8
ENDBRANCH   1   7
TORSDOF 6
ENDMDL
MODEL 3
REMARK VINA RESULT:    -4.072      2.118      3.793
REMARK INTER + INTRA:          -6.103
REMARK INTER:                  -5.572
REMARK INTRA:                  -0.530
REMARK UNBOUND:                -0.602
REMARK SMILES CCCCCCCC(=O)[O-]
REMARK SMILES IDX 5 1 6 2 7 3 8 4 9 5 10 6 4 7 3 8 2 9 1 10
REMARK H PARENT
REMARK Flexibility Score: inf
ROOT
ATOM      1  C   UNL     1      51.260  57.654  95.113  1.00  0.00     0.000 C 
ENDROOT
BRANCH   1   2
ATOM      2  C   UNL     1      50.028  58.244  94.404  1.00  0.00     0.006 C 
BRANCH   2   3
ATOM      3  C   UNL     1      49.765  59.699  94.813  1.00  0.00     0.053 C 
BRANCH   3   4
ATOM      4  C   UNL     1      50.058  60.650  93.693  1.00  0.00     0.041 C 
ATOM      5  O   UNL     1      51.229  61.071  93.508  1.00  0.00    -0.550 OA
ATOM      6  O   UNL     1      49.041  61.045  92.833  1.00  0.00    -0.550 OA
ENDBRANCH   3   4
ENDBRANCH   2   3
ENDBRANCH   1   2
BRANCH   1   7
ATOM      7  C   UNL     1      52.259  57.022  94.131  1.00  0.00     0.000 C 
BRANCH   7   8
ATOM      8  C   UNL     1      53.176  58.064  93.466  1.00  0.00    -0.000 C 
BRANCH   8   9
ATOM      9  C   UNL     1      52.820  58.305  91.992  1.00  0.00    -0.003 C 
ATOM     10  C   UNL     1      51.964  57.186  91.400  1.00  0.00     0.004 C 
ENDBRANCH   8   9
ENDBRANCH   7   8
ENDBRANCH   1   7
TORSDOF 6
ENDMDL
MODEL 4
REMARK VINA RESULT:    -3.975      1.977      4.420
REMARK INTER + INTRA:          -5.971
REMARK INTER:                  -5.484
REMARK INTRA:                  -0.488
REMARK UNBOUND:                -0.602
REMARK SMILES CCCCCCCC(=O)[O-]
REMARK SMILES IDX 5 1 6 2 7 3 8 4 9 5 10 6 4 7 3 8 2 9 1 10
REMARK H PARENT
REMARK Flexibility Score: inf
ROOT
ATOM      1  C   UNL     1      50.407  57.034  92.560  1.00  0.00     0.000 C 
ENDROOT
BRANCH   1   2
ATOM      2  C   UNL     1      50.503  58.318  93.403  1.00  0.00     0.006 C 
BRANCH   2   3
ATOM      3  C   UNL     1      50.854  58.024  94.867  1.00  0.00     0.053 C 
BRANCH   3   4
ATOM      4  C   UNL     1      52.207  57.392  94.995  1.00  0.00     0.041 C 
ATOM      5  O   UNL     1      52.365  56.371  95.714  1.00  0.00    -0.550 OA
ATOM      6  O   UNL     1      53.286  57.914  94.294  1.00  0.00    -0.550 OA
ENDBRANCH   3   4
ENDBRANCH   2   3
ENDBRANCH   1   2
BRANCH   1   7
ATOM      7  C   UNL     1      51.351  57.052  91.348  1.00  0.00     0.000 C 
BRANCH   7   8
ATOM      8  C   UNL     1      52.086  55.715  91.151  1.00  0.00    -0.000 C 
BRANCH   8   9
ATOM      9  C   UNL     1      52.004  54.810  92.388  1.00  0.00    -0.003 C 
ATOM     10  C   UNL     1      51.751  53.345  92.032  1.00  0.00     0.004 C 
ENDBRANCH   8   9
ENDBRANCH   7   8
ENDBRANCH   1   7
TORSDOF 6
ENDMDL
MODEL 5
REMARK VINA RESULT:    -3.954      2.013      3.506
REMARK INTER + INTRA:          -5.944
REMARK INTER:                  -5.478
REMARK INTRA:                  -0.466
REMARK UNBOUND:                -0.602
REMARK SMILES CCCCCCCC(=O)[O-]
REMARK SMILES IDX 5 1 6 2 7 3 8 4 9 5 10 6 4 7 3 8 2 9 1 10
REMARK H PARENT
REMARK Flexibility Score: inf
ROOT
ATOM      1  C   UNL     1      52.078  57.454  91.530  1.00  0.00     0.000 C 
ENDROOT
BRANCH   1   2
ATOM      2  C   UNL     1      51.132  56.797  92.552  1.00  0.00     0.006 C 
BRANCH   2   3
ATOM      3  C   UNL     1      50.113  57.793  93.121  1.00  0.00     0.053 C 
BRANCH   3   4
ATOM      4  C   UNL     1      50.308  58.004  94.592  1.00  0.00     0.041 C 
ATOM      5  O   UNL     1      49.430  58.598  95.269  1.00  0.00    -0.550 OA
ATOM      6  O   UNL     1      51.447  57.514  95.219  1.00  0.00    -0.550 OA
ENDBRANCH   3   4
ENDBRANCH   2   3
ENDBRANCH   1   2
BRANCH   1   7
ATOM      7  C   UNL     1      53.078  58.417  92.187  1.00  0.00     0.000 C 
BRANCH   7   8
ATOM      8  C   UNL     1      53.501  59.561  91.249  1.00  0.00    -0.000 C 
BRANCH   8   9
ATOM      9  C   UNL     1      52.989  60.929  91.723  1.00  0.00    -0.003 C 
ATOM     10  C   UNL     1      52.178  60.842  93.015  1.00  0.00     0.004 C 
ENDBRANCH   8   9
ENDBRANCH   7   8
ENDBRANCH   1   7
TORSDOF 6
ENDMDL
MODEL 6
REMARK VINA RESULT:    -3.950      2.782      4.273
REMARK INTER + INTRA:          -5.938
REMARK INTER:                  -5.485
REMARK INTRA:                  -0.453
REMARK UNBOUND:                -0.602
REMARK SMILES CCCCCCCC(=O)[O-]
REMARK SMILES IDX 5 1 6 2 7 3 8 4 9 5 10 6 4 7 3 8 2 9 1 10
REMARK H PARENT
REMARK Flexibility Score: inf
ROOT
ATOM      1  C   UNL     1      53.366  57.582  94.118  1.00  0.00     0.000 C 
ENDROOT
BRANCH   1   2
ATOM      2  C   UNL     1      52.762  58.739  93.301  1.00  0.00     0.006 C 
BRANCH   2   3
ATOM      3  C   UNL     1      52.582  58.370  91.822  1.00  0.00     0.053 C 
BRANCH   3   4
ATOM      4  C   UNL     1      51.651  57.208  91.651  1.00  0.00     0.041 C 
ATOM      5  O   UNL     1      50.515  57.221  92.191  1.00  0.00    -0.550 OA
ATOM      6  O   UNL     1      52.030  56.125  90.868  1.00  0.00    -0.550 OA
ENDBRANCH   3   4
ENDBRANCH   2   3
ENDBRANCH   1   2
BRANCH   1   7
ATOM      7  C   UNL     1      52.410  57.066  95.205  1.00  0.00     0.000 C 
BRANCH   7   8
ATOM      8  C   UNL     1      52.509  55.544  95.406  1.00  0.00    -0.000 C 
BRANCH   8   9
ATOM      9  C   UNL     1      53.072  54.823  94.173  1.00  0.00    -0.003 C 
ATOM     10  C   UNL     1      54.239  53.895  94.512  1.00  0.00     0.004 C 
ENDBRANCH   8   9
ENDBRANCH   7   8
ENDBRANCH   1   7
TORSDOF 6
ENDMDL
MODEL 7
REMARK VINA RESULT:    -3.945      2.151      3.018
REMARK INTER + INTRA:          -5.931
REMARK INTER:                  -5.495
REMARK INTRA:                  -0.436
REMARK UNBOUND:                -0.602
REMARK SMILES CCCCCCCC(=O)[O-]
REMARK SMILES IDX 5 1 6 2 7 3 8 4 9 5 10 6 4 7 3 8 2 9 1 10
REMARK H PARENT
REMARK Flexibility Score: inf
ROOT
ATOM      1  C   UNL     1      52.566  60.140  92.426  1.00  0.00     0.000 C 
ENDROOT
BRANCH   1   2
ATOM      2  C   UNL     1      52.289  58.660  92.747  1.00  0.00     0.006 C 
BRANCH   2   3
ATOM      3  C   UNL     1      53.272  58.099  93.783  1.00  0.00     0.053 C 
BRANCH   3   4
ATOM      4  C   UNL     1      52.750  56.846  94.419  1.00  0.00     0.041 C 
ATOM      5  O   UNL     1      52.333  56.863  95.606  1.00  0.00    -0.550 OA
ATOM      6  O   UNL     1      52.694  55.667  93.687  1.00  0.00    -0.550 OA
ENDBRANCH   3   4
ENDBRANCH   2   3
ENDBRANCH   1   2
BRANCH   1   7
ATOM      7  C   UNL     1      51.760  61.097  93.318  1.00  0.00     0.000 C 
BRANCH   7   8
ATOM      8  C   UNL     1      50.251  60.795  93.297  1.00  0.00    -0.000 C 
BRANCH   8   9
ATOM      9  C   UNL     1      49.669  60.610  94.706  1.00  0.00    -0.003 C 
ATOM     10  C   UNL     1      49.636  59.147  95.145  1.00  0.00     0.004 C 
ENDBRANCH   8   9
ENDBRANCH   7   8
ENDBRANCH   1   7
TORSDOF 6
ENDMDL
MODEL 8
REMARK VINA RESULT:    -3.908      2.286      4.392
REMARK INTER + INTRA:          -5.881
REMARK INTER:                  -5.523
REMARK INTRA:                  -0.357
REMARK UNBOUND:                -0.602
REMARK SMILES CCCCCCCC(=O)[O-]
REMARK SMILES IDX 5 1 6 2 7 3 8 4 9 5 10 6 4 7 3 8 2 9 1 10
REMARK H PARENT
REMARK Flexibility Score: inf
ROOT
ATOM      1  C   UNL     1      50.131  57.644  93.204  1.00  0.00     0.000 C 
ENDROOT
BRANCH   1   2
ATOM      2  C   UNL     1      50.466  58.290  94.561  1.00  0.00     0.006 C 
BRANCH   2   3
ATOM      3  C   UNL     1      49.720  59.614  94.771  1.00  0.00     0.053 C 
BRANCH   3   4
ATOM      4  C   UNL     1      50.042  60.608  93.696  1.00  0.00     0.041 C 
ATOM      5  O   UNL     1      49.120  61.128  93.017  1.00  0.00    -0.550 OA
ATOM      6  O   UNL     1      51.360  60.982  93.470  1.00  0.00    -0.550 OA
ENDBRANCH   3   4
ENDBRANCH   2   3
ENDBRANCH   1   2
BRANCH   1   7
ATOM      7  C   UNL     1      51.309  56.847  92.624  1.00  0.00     0.000 C 
BRANCH   7   8
ATOM      8  C   UNL     1      52.371  56.503  93.684  1.00  0.00    -0.000 C 
BRANCH   8   9
ATOM      9  C   UNL     1      52.701  55.004  93.723  1.00  0.00    -0.003 C 
ATOM     10  C   UNL     1      52.083  54.234  92.556  1.00  0.00     0.004 C 
ENDBRANCH   8   9
ENDBRANCH   7   8
ENDBRANCH   1   7
TORSDOF 6
ENDMDL
MODEL 9
REMARK VINA RESULT:    -3.898      2.229      2.503
REMARK INTER + INTRA:          -5.867
REMARK INTER:                  -5.529
REMARK INTRA:                  -0.338
REMARK UNBOUND:                -0.602
REMARK SMILES CCCCCCCC(=O)[O-]
REMARK SMILES IDX 5 1 6 2 7 3 8 4 9 5 10 6 4 7 3 8 2 9 1 10
REMARK H PARENT
REMARK Flexibility Score: inf
ROOT
ATOM      1  C   UNL     1      50.129  57.626  92.967  1.00  0.00     0.000 C 
ENDROOT
BRANCH   1   2
ATOM      2  C   UNL     1      51.341  56.840  92.435  1.00  0.00     0.006 C 
BRANCH   2   3
ATOM      3  C   UNL     1      52.593  57.055  93.295  1.00  0.00     0.053 C 
BRANCH   3   4
ATOM      4  C   UNL     1      52.627  56.121  94.466  1.00  0.00     0.041 C 
ATOM      5  O   UNL     1      52.303  56.530  95.612  1.00  0.00    -0.550 OA
ATOM      6  O   UNL     1      52.985  54.792  94.285  1.00  0.00    -0.550 OA
ENDBRANCH   3   4
ENDBRANCH   2   3
ENDBRANCH   1   2
BRANCH   1   7
ATOM      7  C   UNL     1      50.522  58.994  93.547  1.00  0.00     0.000 C 
BRANCH   7   8
ATOM      8  C   UNL     1      49.800  59.306  94.869  1.00  0.00    -0.000 C 
BRANCH   8   9
ATOM      9  C   UNL     1      49.439  60.792  95.007  1.00  0.00    -0.003 C 
ATOM     10  C   UNL     1      49.757  61.595  93.746  1.00  0.00     0.004 C 
ENDBRANCH   8   9
ENDBRANCH   7   8
ENDBRANCH   1   7
TORSDOF 6
ENDMDL
