MODEL 1
REMARK VINA RESULT:    -3.199      0.000      0.000
REMARK INTER + INTRA:         -12.681
REMARK INTER:                  -8.061
REMARK INTRA:                  -4.620
REMARK UNBOUND:                -4.620
REMARK SMILES CCCCCCCCCCCCCCCCCCCCCCCCCCCC(=O)[O-]
REMARK SMILES IDX 15 1 16 2 17 3 18 4 19 5 20 6 21 7 22 8 23 9 24 10 25 11
REMARK SMILES IDX 26 12 27 13 28 14 29 15 30 16 14 17 13 18 12 19 11 20 10 21
REMARK SMILES IDX 9 22 8 23 7 24 6 25 5 26 4 27 3 28 2 29 1 30
REMARK H PARENT
REMARK Flexibility Score: inf
ROOT
ATOM      1  C   UNL     1    -103.361  27.312  20.858  1.00  0.00     0.000 C 
ENDROOT
BRANCH   1   2
ATOM      2  C   UNL     1    -104.011  28.072  22.026  1.00  0.00     0.000 C 
BRANCH   2   3
ATOM      3  C   UNL     1    -105.374  28.680  21.655  1.00  0.00     0.000 C 
BRANCH   3   4
ATOM      4  C   UNL     1    -106.375  27.626  21.163  1.00  0.00     0.000 C 
BRANCH   4   5
ATOM      5  C   UNL     1    -106.997  28.032  19.819  1.00  0.00     0.000 C 
BRANCH   5   6
ATOM      6  C   UNL     1    -107.465  26.815  19.003  1.00  0.00     0.000 C 
BRANCH   6   7
ATOM      7  C   UNL     1    -107.935  27.205  17.591  1.00  0.00     0.000 C 
BRANCH   7   8
ATOM      8  C   UNL     1    -109.179  26.419  17.147  1.00  0.00     0.000 C 
BRANCH   8   9
ATOM      9  C   UNL     1    -110.443  27.294  17.078  1.00  0.00     0.000 C 
BRANCH   9  10
ATOM     10  C   UNL     1    -110.968  27.669  18.474  1.00  0.00     0.000 C 
BRANCH  10  11
ATOM     11  C   UNL     1    -111.129  26.444  19.390  1.00  0.00     0.000 C 
BRANCH  11  12
ATOM     12  C   UNL     1    -111.387  26.829  20.858  1.00  0.00     0.006 C 
BRANCH  12  13
ATOM     13  C   UNL     1    -110.111  26.997  21.701  1.00  0.00     0.053 C 
BRANCH  13  14
ATOM     14  C   UNL     1    -110.387  26.884  23.168  1.00  0.00     0.041 C 
ATOM     15  O   UNL     1    -110.345  25.760  23.737  1.00  0.00    -0.550 OA
ATOM     16  O   UNL     1    -110.721  28.013  23.904  1.00  0.00    -0.550 OA
ENDBRANCH  13  14
ENDBRANCH  12  13
ENDBRANCH  11  12
ENDBRANCH  10  11
ENDBRANCH   9  10
ENDBRANCH   8   9
ENDBRANCH   7   8
ENDBRANCH   6   7
ENDBRANCH   5   6
ENDBRANCH   4   5
ENDBRANCH   3   4
ENDBRANCH   2   3
ENDBRANCH   1   2
BRANCH   1  17
ATOM     17  C   UNL     1    -102.112  28.025  20.313  1.00  0.00     0.000 C 
BRANCH  17  18
ATOM     18  C   UNL     1    -102.192  28.277  18.796  1.00  0.00     0.000 C 
BRANCH  18  19
ATOM     19  C   UNL     1    -103.589  28.708  18.310  1.00  0.00     0.000 C 
BRANCH  19  20
ATOM     20  C   UNL     1    -104.257  27.738  17.311  1.00  0.00     0.000 C 
BRANCH  20  21
ATOM     21  C   UNL     1    -103.637  26.328  17.212  1.00  0.00     0.000 C 
BRANCH  21  22
ATOM     22  C   UNL     1    -104.365  25.218  17.994  1.00  0.00    -0.000 C 
BRANCH  22  23
ATOM     23  C   UNL     1    -104.875  24.080  17.093  1.00  0.00    -0.000 C 
BRANCH  23  24
ATOM     24  C   UNL     1    -104.808  22.717  17.800  1.00  0.00    -0.000 C 
BRANCH  24  25
ATOM     25  C   UNL     1    -103.364  22.309  18.151  1.00  0.00    -0.000 C 
BRANCH  25  26
ATOM     26  C   UNL     1    -102.479  22.164  16.899  1.00  0.00    -0.000 C 
BRANCH  26  27
ATOM     27  C   UNL     1    -101.027  22.639  17.110  1.00  0.00    -0.000 C 
BRANCH  27  28
ATOM     28  C   UNL     1    -100.873  24.160  17.292  1.00  0.00    -0.000 C 
BRANCH  28  29
ATOM     29  C   UNL     1    -100.110  24.531  18.573  1.00  0.00    -0.003 C 
ATOM     30  C   UNL     1    -101.040  24.545  19.782  1.00  0.00     0.004 C 
ENDBRANCH  28  29
ENDBRANCH  27  28
ENDBRANCH  26  27
ENDBRANCH  25  26
ENDBRANCH  24  25
ENDBRANCH  23  24
ENDBRANCH  22  23
ENDBRANCH  21  22
ENDBRANCH  20  21
ENDBRANCH  19  20
ENDBRANCH  18  19
ENDBRANCH  17  18
ENDBRANCH   1  17
TORSDOF 26
ENDMDL
MODEL 2
REMARK VINA RESULT:    -3.051      2.545      3.621
REMARK INTER + INTRA:         -12.309
REMARK INTER:                  -8.652
REMARK INTRA:                  -3.657
REMARK UNBOUND:                -4.620
REMARK SMILES CCCCCCCCCCCCCCCCCCCCCCCCCCCC(=O)[O-]
REMARK SMILES IDX 15 1 16 2 17 3 18 4 19 5 20 6 21 7 22 8 23 9 24 10 25 11
REMARK SMILES IDX 26 12 27 13 28 14 29 15 30 16 14 17 13 18 12 19 11 20 10 21
REMARK SMILES IDX 9 22 8 23 7 24 6 25 5 26 4 27 3 28 2 29 1 30
REMARK H PARENT
REMARK Flexibility Score: inf
ROOT
ATOM      1  C   UNL     1    -103.765  27.026  20.036  1.00  0.00     0.000 C 
ENDROOT
BRANCH   1   2
ATOM      2  C   UNL     1    -103.393  27.677  21.380  1.00  0.00     0.000 C 
BRANCH   2   3
ATOM      3  C   UNL     1    -104.606  28.290  22.098  1.00  0.00     0.000 C 
BRANCH   3   4
ATOM      4  C   UNL     1    -105.937  27.685  21.629  1.00  0.00     0.000 C 
BRANCH   4   5
ATOM      5  C   UNL     1    -107.107  28.644  21.889  1.00  0.00     0.000 C 
BRANCH   5   6
ATOM      6  C   UNL     1    -108.472  27.946  21.759  1.00  0.00     0.000 C 
BRANCH   6   7
ATOM      7  C   UNL     1    -109.544  28.589  22.655  1.00  0.00     0.000 C 
BRANCH   7   8
ATOM      8  C   UNL     1    -110.921  27.927  22.492  1.00  0.00     0.000 C 
BRANCH   8   9
ATOM      9  C   UNL     1    -110.852  26.584  21.744  1.00  0.00     0.000 C 
BRANCH   9  10
ATOM     10  C   UNL     1    -111.790  26.546  20.526  1.00  0.00     0.000 C 
BRANCH  10  11
ATOM     11  C   UNL     1    -112.717  25.318  20.537  1.00  0.00     0.000 C 
BRANCH  11  12
ATOM     12  C   UNL     1    -113.310  25.009  19.150  1.00  0.00     0.006 C 
BRANCH  12  13
ATOM     13  C   UNL     1    -112.274  24.983  18.012  1.00  0.00     0.053 C 
BRANCH  13  14
ATOM     14  C   UNL     1    -112.435  23.782  17.133  1.00  0.00     0.041 C 
ATOM     15  O   UNL     1    -113.566  23.245  16.994  1.00  0.00    -0.550 OA
ATOM     16  O   UNL     1    -111.333  23.235  16.491  1.00  0.00    -0.550 OA
ENDBRANCH  13  14
ENDBRANCH  12  13
ENDBRANCH  11  12
ENDBRANCH  10  11
ENDBRANCH   9  10
ENDBRANCH   8   9
ENDBRANCH   7   8
ENDBRANCH   6   7
ENDBRANCH   5   6
ENDBRANCH   4   5
ENDBRANCH   3   4
ENDBRANCH   2   3
ENDBRANCH   1   2
BRANCH   1  17
ATOM     17  C   UNL     1    -102.990  27.630  18.853  1.00  0.00     0.000 C 
BRANCH  17  18
ATOM     18  C   UNL     1    -103.921  28.229  17.783  1.00  0.00     0.000 C 
BRANCH  18  19
ATOM     19  C   UNL     1    -105.041  29.117  18.360  1.00  0.00     0.000 C 
BRANCH  19  20
ATOM     20  C   UNL     1    -106.474  28.609  18.095  1.00  0.00     0.000 C 
BRANCH  20  21
ATOM     21  C   UNL     1    -106.596  27.330  17.239  1.00  0.00     0.000 C 
BRANCH  21  22
ATOM     22  C   UNL     1    -106.780  26.014  18.020  1.00  0.00    -0.000 C 
BRANCH  22  23
ATOM     23  C   UNL     1    -106.694  24.765  17.128  1.00  0.00    -0.000 C 
BRANCH  23  24
ATOM     24  C   UNL     1    -105.282  24.565  16.556  1.00  0.00    -0.000 C 
BRANCH  24  25
ATOM     25  C   UNL     1    -104.225  24.367  17.659  1.00  0.00    -0.000 C 
BRANCH  25  26
ATOM     26  C   UNL     1    -103.674  22.929  17.686  1.00  0.00    -0.000 C 
BRANCH  26  27
ATOM     27  C   UNL     1    -102.177  22.848  18.052  1.00  0.00    -0.000 C 
BRANCH  27  28
ATOM     28  C   UNL     1    -101.457  24.208  18.096  1.00  0.00    -0.000 C 
BRANCH  28  29
ATOM     29  C   UNL     1    -100.933  24.557  19.498  1.00  0.00    -0.003 C 
ATOM     30  C   UNL     1    -101.826  23.964  20.582  1.00  0.00     0.004 C 
ENDBRANCH  28  29
ENDBRANCH  27  28
ENDBRANCH  26  27
ENDBRANCH  25  26
ENDBRANCH  24  25
ENDBRANCH  23  24
ENDBRANCH  22  23
ENDBRANCH  21  22
ENDBRANCH  20  21
ENDBRANCH  19  20
ENDBRANCH  18  19
ENDBRANCH  17  18
ENDBRANCH   1  17
TORSDOF 26
ENDMDL
MODEL 3
REMARK VINA RESULT:    -3.006      1.183      4.821
REMARK INTER + INTRA:         -12.195
REMARK INTER:                  -7.955
REMARK INTRA:                  -4.240
REMARK UNBOUND:                -4.620
REMARK SMILES CCCCCCCCCCCCCCCCCCCCCCCCCCCC(=O)[O-]
REMARK SMILES IDX 15 1 16 2 17 3 18 4 19 5 20 6 21 7 22 8 23 9 24 10 25 11
REMARK SMILES IDX 26 12 27 13 28 14 29 15 30 16 14 17 13 18 12 19 11 20 10 21
REMARK SMILES IDX 9 22 8 23 7 24 6 25 5 26 4 27 3 28 2 29 1 30
REMARK H PARENT
REMARK Flexibility Score: inf
ROOT
ATOM      1  C   UNL     1    -105.786  23.056  16.765  1.00  0.00     0.000 C 
ENDROOT
BRANCH   1   2
ATOM      2  C   UNL     1    -105.984  24.482  17.308  1.00  0.00     0.000 C 
BRANCH   2   3
ATOM      3  C   UNL     1    -104.678  25.293  17.337  1.00  0.00     0.000 C 
BRANCH   3   4
ATOM      4  C   UNL     1    -104.754  26.499  18.283  1.00  0.00     0.000 C 
BRANCH   4   5
ATOM      5  C   UNL     1    -104.544  27.817  17.524  1.00  0.00     0.000 C 
BRANCH   5   6
ATOM      6  C   UNL     1    -105.742  28.772  17.673  1.00  0.00     0.000 C 
BRANCH   6   7
ATOM      7  C   UNL     1    -107.011  28.225  16.996  1.00  0.00     0.000 C 
BRANCH   7   8
ATOM      8  C   UNL     1    -108.161  28.010  17.991  1.00  0.00     0.000 C 
BRANCH   8   9
ATOM      9  C   UNL     1    -109.073  26.832  17.602  1.00  0.00     0.000 C 
BRANCH   9  10
ATOM     10  C   UNL     1    -110.502  26.998  18.145  1.00  0.00     0.000 C 
BRANCH  10  11
ATOM     11  C   UNL     1    -110.637  26.520  19.601  1.00  0.00     0.000 C 
BRANCH  11  12
ATOM     12  C   UNL     1    -110.746  27.685  20.601  1.00  0.00     0.006 C 
BRANCH  12  13
ATOM     13  C   UNL     1    -111.264  27.277  21.992  1.00  0.00     0.053 C 
BRANCH  13  14
ATOM     14  C   UNL     1    -110.184  26.683  22.842  1.00  0.00     0.041 C 
ATOM     15  O   UNL     1    -110.464  25.798  23.694  1.00  0.00    -0.550 OA
ATOM     16  O   UNL     1    -108.874  27.126  22.717  1.00  0.00    -0.550 OA
ENDBRANCH  13  14
ENDBRANCH  12  13
ENDBRANCH  11  12
ENDBRANCH  10  11
ENDBRANCH   9  10
ENDBRANCH   8   9
ENDBRANCH   7   8
ENDBRANCH   6   7
ENDBRANCH   5   6
ENDBRANCH   4   5
ENDBRANCH   3   4
ENDBRANCH   2   3
ENDBRANCH   1   2
BRANCH   1  17
ATOM     17  C   UNL     1    -104.408  22.859  16.112  1.00  0.00     0.000 C 
BRANCH  17  18
ATOM     18  C   UNL     1    -103.626  21.684  16.728  1.00  0.00     0.000 C 
BRANCH  18  19
ATOM     19  C   UNL     1    -102.496  22.123  17.681  1.00  0.00     0.000 C 
BRANCH  19  20
ATOM     20  C   UNL     1    -102.957  22.495  19.106  1.00  0.00     0.000 C 
BRANCH  20  21
ATOM     21  C   UNL     1    -102.257  23.709  19.754  1.00  0.00     0.000 C 
BRANCH  21  22
ATOM     22  C   UNL     1    -101.377  24.556  18.814  1.00  0.00    -0.000 C 
BRANCH  22  23
ATOM     23  C   UNL     1    -101.077  25.959  19.370  1.00  0.00    -0.000 C 
BRANCH  23  24
ATOM     24  C   UNL     1    -100.845  26.981  18.247  1.00  0.00    -0.000 C 
BRANCH  24  25
ATOM     25  C   UNL     1    -101.277  28.404  18.651  1.00  0.00    -0.000 C 
BRANCH  25  26
ATOM     26  C   UNL     1    -101.463  28.547  20.173  1.00  0.00    -0.000 C 
BRANCH  26  27
ATOM     27  C   UNL     1    -102.919  28.837  20.593  1.00  0.00    -0.000 C 
BRANCH  27  28
ATOM     28  C   UNL     1    -103.541  27.773  21.515  1.00  0.00    -0.000 C 
BRANCH  28  29
ATOM     29  C   UNL     1    -104.802  28.275  22.235  1.00  0.00    -0.003 C 
ATOM     30  C   UNL     1    -105.993  28.331  21.285  1.00  0.00     0.004 C 
ENDBRANCH  28  29
ENDBRANCH  27  28
ENDBRANCH  26  27
ENDBRANCH  25  26
ENDBRANCH  24  25
ENDBRANCH  23  24
ENDBRANCH  22  23
ENDBRANCH  21  22
ENDBRANCH  20  21
ENDBRANCH  19  20
ENDBRANCH  18  19
ENDBRANCH  17  18
ENDBRANCH   1  17
TORSDOF 26
ENDMDL
MODEL 4
REMARK VINA RESULT:    -2.926      1.908      5.889
REMARK INTER + INTRA:         -11.993
REMARK INTER:                  -7.498
REMARK INTRA:                  -4.495
REMARK UNBOUND:                -4.620
REMARK SMILES CCCCCCCCCCCCCCCCCCCCCCCCCCCC(=O)[O-]
REMARK SMILES IDX 15 1 16 2 17 3 18 4 19 5 20 6 21 7 22 8 23 9 24 10 25 11
REMARK SMILES IDX 26 12 27 13 28 14 29 15 30 16 14 17 13 18 12 19 11 20 10 21
REMARK SMILES IDX 9 22 8 23 7 24 6 25 5 26 4 27 3 28 2 29 1 30
REMARK H PARENT
REMARK Flexibility Score: inf
ROOT
ATOM      1  C   UNL     1    -104.258  22.598  17.990  1.00  0.00     0.000 C 
ENDROOT
BRANCH   1   2
ATOM      2  C   UNL     1    -104.297  23.136  16.549  1.00  0.00     0.000 C 
BRANCH   2   3
ATOM      3  C   UNL     1    -104.930  24.534  16.454  1.00  0.00     0.000 C 
BRANCH   3   4
ATOM      4  C   UNL     1    -106.124  24.706  17.402  1.00  0.00     0.000 C 
BRANCH   4   5
ATOM      5  C   UNL     1    -106.062  26.054  18.137  1.00  0.00     0.000 C 
BRANCH   5   6
ATOM      6  C   UNL     1    -105.216  27.091  17.380  1.00  0.00     0.000 C 
BRANCH   6   7
ATOM      7  C   UNL     1    -106.043  28.312  16.942  1.00  0.00     0.000 C 
BRANCH   7   8
ATOM      8  C   UNL     1    -107.534  28.165  17.284  1.00  0.00     0.000 C 
BRANCH   8   9
ATOM      9  C   UNL     1    -108.416  27.977  16.037  1.00  0.00     0.000 C 
BRANCH   9  10
ATOM     10  C   UNL     1    -109.344  26.756  16.158  1.00  0.00     0.000 C 
BRANCH  10  11
ATOM     11  C   UNL     1    -109.863  26.553  17.592  1.00  0.00     0.000 C 
BRANCH  11  12
ATOM     12  C   UNL     1    -111.329  26.989  17.760  1.00  0.00     0.006 C 
BRANCH  12  13
ATOM     13  C   UNL     1    -111.966  26.564  19.095  1.00  0.00     0.053 C 
BRANCH  13  14
ATOM     14  C   UNL     1    -112.573  25.197  19.019  1.00  0.00     0.041 C 
ATOM     15  O   UNL     1    -113.198  24.726  20.005  1.00  0.00    -0.550 OA
ATOM     16  O   UNL     1    -112.423  24.431  17.871  1.00  0.00    -0.550 OA
ENDBRANCH  13  14
ENDBRANCH  12  13
ENDBRANCH  11  12
ENDBRANCH  10  11
ENDBRANCH   9  10
ENDBRANCH   8   9
ENDBRANCH   7   8
ENDBRANCH   6   7
ENDBRANCH   5   6
ENDBRANCH   4   5
ENDBRANCH   3   4
ENDBRANCH   2   3
ENDBRANCH   1   2
BRANCH   1  17
ATOM     17  C   UNL     1    -102.825  22.360  18.492  1.00  0.00     0.000 C 
BRANCH  17  18
ATOM     18  C   UNL     1    -101.963  23.636  18.445  1.00  0.00     0.000 C 
BRANCH  18  19
ATOM     19  C   UNL     1    -101.949  24.425  19.769  1.00  0.00     0.000 C 
BRANCH  19  20
ATOM     20  C   UNL     1    -102.843  25.684  19.784  1.00  0.00     0.000 C 
BRANCH  20  21
ATOM     21  C   UNL     1    -102.111  27.037  19.906  1.00  0.00     0.000 C 
BRANCH  21  22
ATOM     22  C   UNL     1    -102.778  28.081  20.823  1.00  0.00    -0.000 C 
BRANCH  22  23
ATOM     23  C   UNL     1    -103.658  29.083  20.056  1.00  0.00    -0.000 C 
BRANCH  23  24
ATOM     24  C   UNL     1    -105.116  29.052  20.541  1.00  0.00    -0.000 C 
BRANCH  24  25
ATOM     25  C   UNL     1    -105.339  28.022  21.664  1.00  0.00    -0.000 C 
BRANCH  25  26
ATOM     26  C   UNL     1    -106.812  27.951  22.107  1.00  0.00    -0.000 C 
BRANCH  26  27
ATOM     27  C   UNL     1    -107.811  27.953  20.931  1.00  0.00    -0.000 C 
BRANCH  27  28
ATOM     28  C   UNL     1    -108.961  26.939  21.070  1.00  0.00    -0.000 C 
BRANCH  28  29
ATOM     29  C   UNL     1    -109.938  27.301  22.200  1.00  0.00    -0.003 C 
ATOM     30  C   UNL     1    -109.983  26.206  23.261  1.00  0.00     0.004 C 
ENDBRANCH  28  29
ENDBRANCH  27  28
ENDBRANCH  26  27
ENDBRANCH  25  26
ENDBRANCH  24  25
ENDBRANCH  23  24
ENDBRANCH  22  23
ENDBRANCH  21  22
ENDBRANCH  20  21
ENDBRANCH  19  20
ENDBRANCH  18  19
ENDBRANCH  17  18
ENDBRANCH   1  17
TORSDOF 26
ENDMDL
MODEL 5
REMARK VINA RESULT:    -2.925      2.378      4.722
REMARK INTER + INTRA:         -11.991
REMARK INTER:                  -8.330
REMARK INTRA:                  -3.662
REMARK UNBOUND:                -4.620
REMARK SMILES CCCCCCCCCCCCCCCCCCCCCCCCCCCC(=O)[O-]
REMARK SMILES IDX 15 1 16 2 17 3 18 4 19 5 20 6 21 7 22 8 23 9 24 10 25 11
REMARK SMILES IDX 26 12 27 13 28 14 29 15 30 16 14 17 13 18 12 19 11 20 10 21
REMARK SMILES IDX 9 22 8 23 7 24 6 25 5 26 4 27 3 28 2 29 1 30
REMARK H PARENT
REMARK Flexibility Score: inf
ROOT
ATOM      1  C   UNL     1    -108.016  26.317  17.243  1.00  0.00     0.000 C 
ENDROOT
BRANCH   1   2
ATOM      2  C   UNL     1    -107.376  27.288  18.251  1.00  0.00     0.000 C 
BRANCH   2   3
ATOM      3  C   UNL     1    -107.807  27.010  19.700  1.00  0.00     0.000 C 
BRANCH   3   4
ATOM      4  C   UNL     1    -107.790  28.272  20.572  1.00  0.00     0.000 C 
BRANCH   4   5
ATOM      5  C   UNL     1    -107.847  27.918  22.066  1.00  0.00     0.000 C 
BRANCH   5   6
ATOM      6  C   UNL     1    -109.282  27.956  22.618  1.00  0.00     0.000 C 
BRANCH   6   7
ATOM      7  C   UNL     1    -109.877  26.548  22.792  1.00  0.00     0.000 C 
BRANCH   7   8
ATOM      8  C   UNL     1    -111.153  26.342  21.961  1.00  0.00     0.000 C 
BRANCH   8   9
ATOM      9  C   UNL     1    -111.508  27.568  21.101  1.00  0.00     0.000 C 
BRANCH   9  10
ATOM     10  C   UNL     1    -111.565  27.229  19.601  1.00  0.00     0.000 C 
BRANCH  10  11
ATOM     11  C   UNL     1    -112.989  27.336  19.029  1.00  0.00     0.000 C 
BRANCH  11  12
ATOM     12  C   UNL     1    -113.682  25.968  18.902  1.00  0.00     0.006 C 
BRANCH  12  13
ATOM     13  C   UNL     1    -112.716  24.771  18.859  1.00  0.00     0.053 C 
BRANCH  13  14
ATOM     14  C   UNL     1    -112.476  24.293  17.461  1.00  0.00     0.041 C 
ATOM     15  O   UNL     1    -112.321  23.065  17.229  1.00  0.00    -0.550 OA
ATOM     16  O   UNL     1    -112.392  25.204  16.417  1.00  0.00    -0.550 OA
ENDBRANCH  13  14
ENDBRANCH  12  13
ENDBRANCH  11  12
ENDBRANCH  10  11
ENDBRANCH   9  10
ENDBRANCH   8   9
ENDBRANCH   7   8
ENDBRANCH   6   7
ENDBRANCH   5   6
ENDBRANCH   4   5
ENDBRANCH   3   4
ENDBRANCH   2   3
ENDBRANCH   1   2
BRANCH   1  17
ATOM     17  C   UNL     1    -107.003  25.319  16.660  1.00  0.00     0.000 C 
BRANCH  17  18
ATOM     18  C   UNL     1    -105.544  25.748  16.904  1.00  0.00     0.000 C 
BRANCH  18  19
ATOM     19  C   UNL     1    -104.743  24.758  17.773  1.00  0.00     0.000 C 
BRANCH  19  20
ATOM     20  C   UNL     1    -104.587  23.345  17.171  1.00  0.00     0.000 C 
BRANCH  20  21
ATOM     21  C   UNL     1    -103.840  22.312  18.041  1.00  0.00     0.000 C 
BRANCH  21  22
ATOM     22  C   UNL     1    -102.435  21.913  17.551  1.00  0.00    -0.000 C 
BRANCH  22  23
ATOM     23  C   UNL     1    -101.716  23.042  16.792  1.00  0.00    -0.000 C 
BRANCH  23  24
ATOM     24  C   UNL     1    -100.659  23.735  17.665  1.00  0.00    -0.000 C 
BRANCH  24  25
ATOM     25  C   UNL     1    -101.060  25.175  18.039  1.00  0.00    -0.000 C 
BRANCH  25  26
ATOM     26  C   UNL     1    -101.534  25.287  19.501  1.00  0.00    -0.000 C 
BRANCH  26  27
ATOM     27  C   UNL     1    -101.776  26.739  19.962  1.00  0.00    -0.000 C 
BRANCH  27  28
ATOM     28  C   UNL     1    -103.110  27.345  19.489  1.00  0.00    -0.000 C 
BRANCH  28  29
ATOM     29  C   UNL     1    -104.237  27.178  20.520  1.00  0.00    -0.003 C 
ATOM     30  C   UNL     1    -104.004  28.066  21.738  1.00  0.00     0.004 C 
ENDBRANCH  28  29
ENDBRANCH  27  28
ENDBRANCH  26  27
ENDBRANCH  25  26
ENDBRANCH  24  25
ENDBRANCH  23  24
ENDBRANCH  22  23
ENDBRANCH  21  22
ENDBRANCH  20  21
ENDBRANCH  19  20
ENDBRANCH  18  19
ENDBRANCH  17  18
ENDBRANCH   1  17
TORSDOF 26
ENDMDL
MODEL 6
REMARK VINA RESULT:    -2.903      2.189      4.353
REMARK INTER + INTRA:         -11.936
REMARK INTER:                  -8.885
REMARK INTRA:                  -3.050
REMARK UNBOUND:                -4.620
REMARK SMILES CCCCCCCCCCCCCCCCCCCCCCCCCCCC(=O)[O-]
REMARK SMILES IDX 15 1 16 2 17 3 18 4 19 5 20 6 21 7 22 8 23 9 24 10 25 11
REMARK SMILES IDX 26 12 27 13 28 14 29 15 30 16 14 17 13 18 12 19 11 20 10 21
REMARK SMILES IDX 9 22 8 23 7 24 6 25 5 26 4 27 3 28 2 29 1 30
REMARK H PARENT
REMARK Flexibility Score: inf
ROOT
ATOM      1  C   UNL     1    -109.240  27.077  22.676  1.00  0.00     0.000 C 
ENDROOT
BRANCH   1   2
ATOM      2  C   UNL     1    -110.653  27.568  23.035  1.00  0.00     0.000 C 
BRANCH   2   3
ATOM      3  C   UNL     1    -111.137  28.706  22.122  1.00  0.00     0.000 C 
BRANCH   3   4
ATOM      4  C   UNL     1    -111.969  28.197  20.936  1.00  0.00     0.000 C 
BRANCH   4   5
ATOM      5  C   UNL     1    -111.177  28.282  19.623  1.00  0.00     0.000 C 
BRANCH   5   6
ATOM      6  C   UNL     1    -110.430  26.975  19.308  1.00  0.00     0.000 C 
BRANCH   6   7
ATOM      7  C   UNL     1    -109.313  27.177  18.270  1.00  0.00     0.000 C 
BRANCH   7   8
ATOM      8  C   UNL     1    -109.844  27.179  16.828  1.00  0.00     0.000 C 
BRANCH   8   9
ATOM      9  C   UNL     1    -109.967  25.763  16.237  1.00  0.00     0.000 C 
BRANCH   9  10
ATOM     10  C   UNL     1    -111.426  25.388  15.925  1.00  0.00     0.000 C 
BRANCH  10  11
ATOM     11  C   UNL     1    -111.783  23.970  16.403  1.00  0.00     0.000 C 
BRANCH  11  12
ATOM     12  C   UNL     1    -112.716  23.973  17.627  1.00  0.00     0.006 C 
BRANCH  12  13
ATOM     13  C   UNL     1    -113.288  25.357  17.982  1.00  0.00     0.053 C 
BRANCH  13  14
ATOM     14  C   UNL     1    -113.794  25.412  19.390  1.00  0.00     0.041 C 
ATOM     15  O   UNL     1    -113.151  24.853  20.317  1.00  0.00    -0.550 OA
ATOM     16  O   UNL     1    -114.992  26.053  19.676  1.00  0.00    -0.550 OA
ENDBRANCH  13  14
ENDBRANCH  12  13
ENDBRANCH  11  12
ENDBRANCH  10  11
ENDBRANCH   9  10
ENDBRANCH   8   9
ENDBRANCH   7   8
ENDBRANCH   6   7
ENDBRANCH   5   6
ENDBRANCH   4   5
ENDBRANCH   3   4
ENDBRANCH   2   3
ENDBRANCH   1   2
BRANCH   1  17
ATOM     17  C   UNL     1    -108.342  28.205  22.143  1.00  0.00     0.000 C 
BRANCH  17  18
ATOM     18  C   UNL     1    -107.138  27.673  21.344  1.00  0.00     0.000 C 
BRANCH  18  19
ATOM     19  C   UNL     1    -105.773  28.085  21.929  1.00  0.00     0.000 C 
BRANCH  19  20
ATOM     20  C   UNL     1    -104.550  27.644  21.097  1.00  0.00     0.000 C 
BRANCH  20  21
ATOM     21  C   UNL     1    -104.854  26.930  19.763  1.00  0.00     0.000 C 
BRANCH  21  22
ATOM     22  C   UNL     1    -103.672  26.185  19.115  1.00  0.00    -0.000 C 
BRANCH  22  23
ATOM     23  C   UNL     1    -102.444  26.082  20.036  1.00  0.00    -0.000 C 
BRANCH  23  24
ATOM     24  C   UNL     1    -101.795  24.691  19.972  1.00  0.00    -0.000 C 
BRANCH  24  25
ATOM     25  C   UNL     1    -100.404  24.723  19.312  1.00  0.00    -0.000 C 
BRANCH  25  26
ATOM     26  C   UNL     1    -100.358  23.905  18.008  1.00  0.00    -0.000 C 
BRANCH  26  27
ATOM     27  C   UNL     1    -101.339  24.407  16.929  1.00  0.00    -0.000 C 
BRANCH  27  28
ATOM     28  C   UNL     1    -102.475  23.423  16.592  1.00  0.00    -0.000 C 
BRANCH  28  29
ATOM     29  C   UNL     1    -102.287  22.051  17.257  1.00  0.00    -0.003 C 
ATOM     30  C   UNL     1    -102.033  20.965  16.216  1.00  0.00     0.004 C 
ENDBRANCH  28  29
ENDBRANCH  27  28
ENDBRANCH  26  27
ENDBRANCH  25  26
ENDBRANCH  24  25
ENDBRANCH  23  24
ENDBRANCH  22  23
ENDBRANCH  21  22
ENDBRANCH  20  21
ENDBRANCH  19  20
ENDBRANCH  18  19
ENDBRANCH  17  18
ENDBRANCH   1  17
TORSDOF 26
ENDMDL
MODEL 7
REMARK VINA RESULT:    -2.879      1.431      4.412
REMARK INTER + INTRA:         -11.875
REMARK INTER:                  -7.735
REMARK INTRA:                  -4.139
REMARK UNBOUND:                -4.620
REMARK SMILES CCCCCCCCCCCCCCCCCCCCCCCCCCCC(=O)[O-]
REMARK SMILES IDX 15 1 16 2 17 3 18 4 19 5 20 6 21 7 22 8 23 9 24 10 25 11
REMARK SMILES IDX 26 12 27 13 28 14 29 15 30 16 14 17 13 18 12 19 11 20 10 21
REMARK SMILES IDX 9 22 8 23 7 24 6 25 5 26 4 27 3 28 2 29 1 30
REMARK H PARENT
REMARK Flexibility Score: inf
ROOT
ATOM      1  C   UNL     1    -107.430  26.517  18.649  1.00  0.00     0.000 C 
ENDROOT
BRANCH   1   2
ATOM      2  C   UNL     1    -108.400  27.699  18.476  1.00  0.00     0.000 C 
BRANCH   2   3
ATOM      3  C   UNL     1    -108.981  27.787  17.056  1.00  0.00     0.000 C 
BRANCH   3   4
ATOM      4  C   UNL     1    -110.419  27.256  16.973  1.00  0.00     0.000 C 
BRANCH   4   5
ATOM      5  C   UNL     1    -110.439  25.741  16.720  1.00  0.00     0.000 C 
BRANCH   5   6
ATOM      6  C   UNL     1    -111.842  25.139  16.904  1.00  0.00     0.000 C 
BRANCH   6   7
ATOM      7  C   UNL     1    -112.890  26.203  17.274  1.00  0.00     0.000 C 
BRANCH   7   8
ATOM      8  C   UNL     1    -113.874  25.711  18.346  1.00  0.00     0.000 C 
BRANCH   8   9
ATOM      9  C   UNL     1    -113.606  26.328  19.730  1.00  0.00     0.000 C 
BRANCH   9  10
ATOM     10  C   UNL     1    -113.071  27.767  19.632  1.00  0.00     0.000 C 
BRANCH  10  11
ATOM     11  C   UNL     1    -111.768  27.965  20.425  1.00  0.00     0.000 C 
BRANCH  11  12
ATOM     12  C   UNL     1    -111.112  26.632  20.830  1.00  0.00     0.006 C 
BRANCH  12  13
ATOM     13  C   UNL     1    -109.923  26.781  21.795  1.00  0.00     0.053 C 
BRANCH  13  14
ATOM     14  C   UNL     1    -110.363  26.841  23.225  1.00  0.00     0.041 C 
ATOM     15  O   UNL     1    -110.420  25.790  23.915  1.00  0.00    -0.550 OA
ATOM     16  O   UNL     1    -110.741  28.053  23.788  1.00  0.00    -0.550 OA
ENDBRANCH  13  14
ENDBRANCH  12  13
ENDBRANCH  11  12
ENDBRANCH  10  11
ENDBRANCH   9  10
ENDBRANCH   8   9
ENDBRANCH   7   8
ENDBRANCH   6   7
ENDBRANCH   5   6
ENDBRANCH   4   5
ENDBRANCH   3   4
ENDBRANCH   2   3
ENDBRANCH   1   2
BRANCH   1  17
ATOM     17  C   UNL     1    -106.738  26.124  17.335  1.00  0.00     0.000 C 
BRANCH  17  18
ATOM     18  C   UNL     1    -106.285  24.653  17.322  1.00  0.00     0.000 C 
BRANCH  18  19
ATOM     19  C   UNL     1    -104.935  24.424  16.615  1.00  0.00     0.000 C 
BRANCH  19  20
ATOM     20  C   UNL     1    -104.462  22.955  16.577  1.00  0.00     0.000 C 
BRANCH  20  21
ATOM     21  C   UNL     1    -104.392  22.226  17.936  1.00  0.00     0.000 C 
BRANCH  21  22
ATOM     22  C   UNL     1    -103.030  22.272  18.653  1.00  0.00    -0.000 C 
BRANCH  22  23
ATOM     23  C   UNL     1    -101.879  22.719  17.736  1.00  0.00    -0.000 C 
BRANCH  23  24
ATOM     24  C   UNL     1    -101.250  24.039  18.208  1.00  0.00    -0.000 C 
BRANCH  24  25
ATOM     25  C   UNL     1    -101.654  24.398  19.651  1.00  0.00    -0.000 C 
BRANCH  25  26
ATOM     26  C   UNL     1    -102.077  25.872  19.789  1.00  0.00    -0.000 C 
BRANCH  26  27
ATOM     27  C   UNL     1    -103.574  26.115  19.505  1.00  0.00    -0.000 C 
BRANCH  27  28
ATOM     28  C   UNL     1    -104.054  27.549  19.794  1.00  0.00    -0.000 C 
BRANCH  28  29
ATOM     29  C   UNL     1    -104.647  27.704  21.202  1.00  0.00    -0.003 C 
ATOM     30  C   UNL     1    -105.501  28.963  21.304  1.00  0.00     0.004 C 
ENDBRANCH  28  29
ENDBRANCH  27  28
ENDBRANCH  26  27
ENDBRANCH  25  26
ENDBRANCH  24  25
ENDBRANCH  23  24
ENDBRANCH  22  23
ENDBRANCH  21  22
ENDBRANCH  20  21
ENDBRANCH  19  20
ENDBRANCH  18  19
ENDBRANCH  17  18
ENDBRANCH   1  17
TORSDOF 26
ENDMDL
MODEL 8
REMARK VINA RESULT:    -2.836      1.262      2.835
REMARK INTER + INTRA:         -11.766
REMARK INTER:                  -8.021
REMARK INTRA:                  -3.744
REMARK UNBOUND:                -4.620
REMARK SMILES CCCCCCCCCCCCCCCCCCCCCCCCCCCC(=O)[O-]
REMARK SMILES IDX 15 1 16 2 17 3 18 4 19 5 20 6 21 7 22 8 23 9 24 10 25 11
REMARK SMILES IDX 26 12 27 13 28 14 29 15 30 16 14 17 13 18 12 19 11 20 10 21
REMARK SMILES IDX 9 22 8 23 7 24 6 25 5 26 4 27 3 28 2 29 1 30
REMARK H PARENT
REMARK Flexibility Score: inf
ROOT
ATOM      1  C   UNL     1    -106.933  28.187  22.057  1.00  0.00     0.000 C 
ENDROOT
BRANCH   1   2
ATOM      2  C   UNL     1    -107.895  28.729  20.985  1.00  0.00     0.000 C 
BRANCH   2   3
ATOM      3  C   UNL     1    -107.547  28.238  19.571  1.00  0.00     0.000 C 
BRANCH   3   4
ATOM      4  C   UNL     1    -108.443  27.079  19.112  1.00  0.00     0.000 C 
BRANCH   4   5
ATOM      5  C   UNL     1    -108.301  26.829  17.604  1.00  0.00     0.000 C 
BRANCH   5   6
ATOM      6  C   UNL     1    -109.645  26.479  16.942  1.00  0.00     0.000 C 
BRANCH   6   7
ATOM      7  C   UNL     1    -110.793  27.368  17.450  1.00  0.00     0.000 C 
BRANCH   7   8
ATOM      8  C   UNL     1    -112.162  26.678  17.343  1.00  0.00     0.000 C 
BRANCH   8   9
ATOM      9  C   UNL     1    -112.095  25.171  17.647  1.00  0.00     0.000 C 
BRANCH   9  10
ATOM     10  C   UNL     1    -113.032  24.767  18.798  1.00  0.00     0.000 C 
BRANCH  10  11
ATOM     11  C   UNL     1    -113.171  25.873  19.858  1.00  0.00     0.000 C 
BRANCH  11  12
ATOM     12  C   UNL     1    -112.114  25.764  20.972  1.00  0.00     0.006 C 
BRANCH  12  13
ATOM     13  C   UNL     1    -111.409  27.090  21.306  1.00  0.00     0.053 C 
BRANCH  13  14
ATOM     14  C   UNL     1    -110.634  27.008  22.585  1.00  0.00     0.041 C 
ATOM     15  O   UNL     1    -109.957  25.979  22.851  1.00  0.00    -0.550 OA
ATOM     16  O   UNL     1    -110.682  28.053  23.498  1.00  0.00    -0.550 OA
ENDBRANCH  13  14
ENDBRANCH  12  13
ENDBRANCH  11  12
ENDBRANCH  10  11
ENDBRANCH   9  10
ENDBRANCH   8   9
ENDBRANCH   7   8
ENDBRANCH   6   7
ENDBRANCH   5   6
ENDBRANCH   4   5
ENDBRANCH   3   4
ENDBRANCH   2   3
ENDBRANCH   1   2
BRANCH   1  17
ATOM     17  C   UNL     1    -105.646  27.604  21.453  1.00  0.00     0.000 C 
BRANCH  17  18
ATOM     18  C   UNL     1    -104.382  28.343  21.931  1.00  0.00     0.000 C 
BRANCH  18  19
ATOM     19  C   UNL     1    -103.444  28.771  20.786  1.00  0.00     0.000 C 
BRANCH  19  20
ATOM     20  C   UNL     1    -102.257  27.818  20.528  1.00  0.00     0.000 C 
BRANCH  20  21
ATOM     21  C   UNL     1    -102.616  26.400  20.035  1.00  0.00     0.000 C 
BRANCH  21  22
ATOM     22  C   UNL     1    -103.097  26.299  18.575  1.00  0.00    -0.000 C 
BRANCH  22  23
ATOM     23  C   UNL     1    -104.609  26.038  18.454  1.00  0.00    -0.000 C 
BRANCH  23  24
ATOM     24  C   UNL     1    -104.964  25.331  17.137  1.00  0.00    -0.000 C 
BRANCH  24  25
ATOM     25  C   UNL     1    -105.686  23.990  17.368  1.00  0.00    -0.000 C 
BRANCH  25  26
ATOM     26  C   UNL     1    -104.845  22.787  16.902  1.00  0.00    -0.000 C 
BRANCH  26  27
ATOM     27  C   UNL     1    -104.022  22.134  18.032  1.00  0.00    -0.000 C 
BRANCH  27  28
ATOM     28  C   UNL     1    -102.503  22.110  17.783  1.00  0.00    -0.000 C 
BRANCH  28  29
ATOM     29  C   UNL     1    -102.041  23.221  16.827  1.00  0.00    -0.003 C 
ATOM     30  C   UNL     1    -100.533  23.164  16.604  1.00  0.00     0.004 C 
ENDBRANCH  28  29
ENDBRANCH  27  28
ENDBRANCH  26  27
ENDBRANCH  25  26
ENDBRANCH  24  25
ENDBRANCH  23  24
ENDBRANCH  22  23
ENDBRANCH  21  22
ENDBRANCH  20  21
ENDBRANCH  19  20
ENDBRANCH  18  19
ENDBRANCH  17  18
ENDBRANCH   1  17
TORSDOF 26
ENDMDL
MODEL 9
REMARK VINA RESULT:    -2.777      2.661      4.806
REMARK INTER + INTRA:         -11.618
REMARK INTER:                  -7.457
REMARK INTRA:                  -4.161
REMARK UNBOUND:                -4.620
REMARK SMILES CCCCCCCCCCCCCCCCCCCCCCCCCCCC(=O)[O-]
REMARK SMILES IDX 15 1 16 2 17 3 18 4 19 5 20 6 21 7 22 8 23 9 24 10 25 11
REMARK SMILES IDX 26 12 27 13 28 14 29 15 30 16 14 17 13 18 12 19 11 20 10 21
REMARK SMILES IDX 9 22 8 23 7 24 6 25 5 26 4 27 3 28 2 29 1 30
REMARK H PARENT
REMARK Flexibility Score: inf
ROOT
ATOM      1  C   UNL     1    -109.030  28.325  17.935  1.00  0.00     0.000 C 
ENDROOT
BRANCH   1   2
ATOM      2  C   UNL     1    -108.192  28.527  19.209  1.00  0.00     0.000 C 
BRANCH   2   3
ATOM      3  C   UNL     1    -108.156  27.277  20.102  1.00  0.00     0.000 C 
BRANCH   3   4
ATOM      4  C   UNL     1    -107.884  27.612  21.575  1.00  0.00     0.000 C 
BRANCH   4   5
ATOM      5  C   UNL     1    -109.101  27.287  22.454  1.00  0.00     0.000 C 
BRANCH   5   6
ATOM      6  C   UNL     1    -110.054  28.487  22.594  1.00  0.00     0.000 C 
BRANCH   6   7
ATOM      7  C   UNL     1    -111.470  28.170  22.083  1.00  0.00     0.000 C 
BRANCH   7   8
ATOM      8  C   UNL     1    -111.754  28.800  20.710  1.00  0.00     0.000 C 
BRANCH   8   9
ATOM      9  C   UNL     1    -112.167  27.762  19.652  1.00  0.00     0.000 C 
BRANCH   9  10
ATOM     10  C   UNL     1    -112.553  26.412  20.281  1.00  0.00     0.000 C 
BRANCH  10  11
ATOM     11  C   UNL     1    -113.868  25.853  19.709  1.00  0.00     0.000 C 
BRANCH  11  12
ATOM     12  C   UNL     1    -113.718  25.345  18.264  1.00  0.00     0.006 C 
BRANCH  12  13
ATOM     13  C   UNL     1    -112.621  24.282  18.078  1.00  0.00     0.053 C 
BRANCH  13  14
ATOM     14  C   UNL     1    -112.014  24.334  16.710  1.00  0.00     0.041 C 
ATOM     15  O   UNL     1    -111.522  23.295  16.196  1.00  0.00    -0.550 OA
ATOM     16  O   UNL     1    -111.962  25.534  16.015  1.00  0.00    -0.550 OA
ENDBRANCH  13  14
ENDBRANCH  12  13
ENDBRANCH  11  12
ENDBRANCH  10  11
ENDBRANCH   9  10
ENDBRANCH   8   9
ENDBRANCH   7   8
ENDBRANCH   6   7
ENDBRANCH   5   6
ENDBRANCH   4   5
ENDBRANCH   3   4
ENDBRANCH   2   3
ENDBRANCH   1   2
BRANCH   1  17
ATOM     17  C   UNL     1    -109.066  26.857  17.480  1.00  0.00     0.000 C 
BRANCH  17  18
ATOM     18  C   UNL     1    -107.962  26.529  16.458  1.00  0.00     0.000 C 
BRANCH  18  19
ATOM     19  C   UNL     1    -107.117  25.295  16.832  1.00  0.00     0.000 C 
BRANCH  19  20
ATOM     20  C   UNL     1    -105.884  25.596  17.712  1.00  0.00     0.000 C 
BRANCH  20  21
ATOM     21  C   UNL     1    -105.055  26.838  17.324  1.00  0.00     0.000 C 
BRANCH  21  22
ATOM     22  C   UNL     1    -104.459  27.641  18.496  1.00  0.00    -0.000 C 
BRANCH  22  23
ATOM     23  C   UNL     1    -104.533  26.895  19.839  1.00  0.00    -0.000 C 
BRANCH  23  24
ATOM     24  C   UNL     1    -103.188  26.919  20.582  1.00  0.00    -0.000 C 
BRANCH  24  25
ATOM     25  C   UNL     1    -102.008  26.535  19.669  1.00  0.00    -0.000 C 
BRANCH  25  26
ATOM     26  C   UNL     1    -101.532  25.090  19.909  1.00  0.00    -0.000 C 
BRANCH  26  27
ATOM     27  C   UNL     1    -101.478  24.236  18.625  1.00  0.00    -0.000 C 
BRANCH  27  28
ATOM     28  C   UNL     1    -102.842  23.694  18.162  1.00  0.00    -0.000 C 
BRANCH  28  29
ATOM     29  C   UNL     1    -102.889  22.159  18.125  1.00  0.00    -0.003 C 
ATOM     30  C   UNL     1    -102.062  21.611  16.967  1.00  0.00     0.004 C 
ENDBRANCH  28  29
ENDBRANCH  27  28
ENDBRANCH  26  27
ENDBRANCH  25  26
ENDBRANCH  24  25
ENDBRANCH  23  24
ENDBRANCH  22  23
ENDBRANCH  21  22
ENDBRANCH  20  21
ENDBRANCH  19  20
ENDBRANCH  18  19
ENDBRANCH  17  18
ENDBRANCH   1  17
TORSDOF 26
ENDMDL
