MODEL 1
REMARK VINA RESULT:    -6.868      0.000      0.000
REMARK INTER + INTRA:          -8.645
REMARK INTER:                  -8.273
REMARK INTRA:                  -0.372
REMARK UNBOUND:                -0.372
REMARK SMILES O=c1c(O)c(-c2ccc(O)cc2O)oc2cc(O)cc(O)c12
REMARK SMILES IDX 5 1 3 2 2 3 1 4 22 5 20 6 19 7 17 8 16 9 15 10 14 11 6 12
REMARK SMILES IDX 8 13 7 14 9 15 11 16 12 17 10 18 13 20 4 22 21 24 18 26
REMARK H PARENT 10 19 13 21 4 23 21 25 18 27
REMARK Flexibility Score: inf
ROOT
ATOM      1  C   UNL     1      17.019  18.771  14.556  1.00  0.00     0.184 A 
ATOM      2  C   UNL     1      15.907  19.430  14.013  1.00  0.00     0.208 A 
ATOM      3  C   UNL     1      15.703  19.392  12.624  1.00  0.00     0.238 A 
ATOM      4  O   UNL     1      14.671  19.934  12.150  1.00  0.00    -0.285 OA
ATOM      5  C   UNL     1      16.632  18.717  11.796  1.00  0.00     0.111 A 
ATOM      6  C   UNL     1      16.548  18.646  10.373  1.00  0.00     0.134 A 
ATOM      7  C   UNL     1      17.455  17.847   9.665  1.00  0.00     0.093 A 
ATOM      8  C   UNL     1      18.483  17.169  10.324  1.00  0.00     0.123 A 
ATOM      9  C   UNL     1      18.609  17.277  11.707  1.00  0.00     0.094 A 
ATOM     10  C   UNL     1      17.698  18.037  12.443  1.00  0.00     0.146 A 
ATOM     11  O   UNL     1      17.846  18.102  13.761  1.00  0.00    -0.451 OA
ENDROOT
BRANCH   1  12
ATOM     12  C   UNL     1      17.297  18.796  16.008  1.00  0.00     0.063 A 
ATOM     13  C   UNL     1      17.959  20.060  17.981  1.00  0.00     0.047 A 
ATOM     14  C   UNL     1      17.638  20.015  16.622  1.00  0.00     0.020 A 
ATOM     15  C   UNL     1      17.953  18.887  18.743  1.00  0.00     0.119 A 
ATOM     16  C   UNL     1      17.617  17.671  18.142  1.00  0.00     0.093 A 
ATOM     17  C   UNL     1      17.283  17.614  16.784  1.00  0.00     0.130 A 
BRANCH  15  18
ATOM     18  O   UNL     1      18.277  18.919  20.098  1.00  0.00    -0.508 OA
ATOM     19  H   UNL     1      17.910  18.234  20.747  1.00  0.00     0.293 HD
ENDBRANCH  15  18
BRANCH  17  20
ATOM     20  O   UNL     1      16.920  16.377  16.245  1.00  0.00    -0.507 OA
ATOM     21  H   UNL     1      17.499  15.551  16.322  1.00  0.00     0.293 HD
ENDBRANCH  17  20
ENDBRANCH   1  12
BRANCH   2  22
ATOM     22  O   UNL     1      15.010  20.093  14.855  1.00  0.00    -0.502 OA
ATOM     23  H   UNL     1      14.033  19.830  14.921  1.00  0.00     0.293 HD
ENDBRANCH   2  22
BRANCH   6  24
ATOM     24  O   UNL     1      15.615  19.356   9.609  1.00  0.00    -0.507 OA
ATOM     25  H   UNL     1      14.775  18.961   9.214  1.00  0.00     0.293 HD
ENDBRANCH   6  24
BRANCH   8  26
ATOM     26  O   UNL     1      19.391  16.389   9.610  1.00  0.00    -0.508 OA
ATOM     27  H   UNL     1      20.190  16.801   9.143  1.00  0.00     0.293 HD
ENDBRANCH   8  26
TORSDOF 6
ENDMDL
MODEL 2
REMARK VINA RESULT:    -6.833      6.056      9.113
REMARK INTER + INTRA:          -8.604
REMARK INTER:                  -8.332
REMARK INTRA:                  -0.272
REMARK UNBOUND:                -0.372
REMARK SMILES O=c1c(O)c(-c2ccc(O)cc2O)oc2cc(O)cc(O)c12
REMARK SMILES IDX 5 1 3 2 2 3 1 4 22 5 20 6 19 7 17 8 16 9 15 10 14 11 6 12
REMARK SMILES IDX 8 13 7 14 9 15 11 16 12 17 10 18 13 20 4 22 21 24 18 26
REMARK H PARENT 10 19 13 21 4 23 21 25 18 27
REMARK Flexibility Score: inf
ROOT
ATOM      1  C   UNL     1      17.714  11.465  11.701  1.00  0.00     0.184 A 
ATOM      2  C   UNL     1      17.257  11.669  13.012  1.00  0.00     0.208 A 
ATOM      3  C   UNL     1      17.700  12.796  13.721  1.00  0.00     0.238 A 
ATOM      4  O   UNL     1      17.239  13.005  14.873  1.00  0.00    -0.285 OA
ATOM      5  C   UNL     1      18.617  13.691  13.117  1.00  0.00     0.111 A 
ATOM      6  C   UNL     1      19.164  14.844  13.755  1.00  0.00     0.134 A 
ATOM      7  C   UNL     1      19.966  15.726  13.020  1.00  0.00     0.093 A 
ATOM      8  C   UNL     1      20.295  15.459  11.689  1.00  0.00     0.123 A 
ATOM      9  C   UNL     1      19.814  14.306  11.074  1.00  0.00     0.094 A 
ATOM     10  C   UNL     1      18.981  13.428  11.770  1.00  0.00     0.146 A 
ATOM     11  O   UNL     1      18.533  12.348  11.142  1.00  0.00    -0.451 OA
ENDROOT
BRANCH   1  12
ATOM     12  C   UNL     1      17.299  10.284  10.915  1.00  0.00     0.063 A 
ATOM     13  C   UNL     1      15.507   8.928   9.978  1.00  0.00     0.047 A 
ATOM     14  C   UNL     1      15.932  10.064  10.671  1.00  0.00     0.020 A 
ATOM     15  C   UNL     1      16.443   7.990   9.527  1.00  0.00     0.119 A 
ATOM     16  C   UNL     1      17.804   8.199   9.765  1.00  0.00     0.093 A 
ATOM     17  C   UNL     1      18.243   9.339  10.449  1.00  0.00     0.130 A 
BRANCH  15  18
ATOM     18  O   UNL     1      16.031   6.850   8.840  1.00  0.00    -0.508 OA
ATOM     19  H   UNL     1      16.044   6.808   7.828  1.00  0.00     0.293 HD
ENDBRANCH  15  18
BRANCH  17  20
ATOM     20  O   UNL     1      19.617   9.513  10.627  1.00  0.00    -0.507 OA
ATOM     21  H   UNL     1      20.271   9.569   9.857  1.00  0.00     0.293 HD
ENDBRANCH  17  20
ENDBRANCH   1  12
BRANCH   2  22
ATOM     22  O   UNL     1      16.355  10.766  13.583  1.00  0.00    -0.502 OA
ATOM     23  H   UNL     1      15.819  10.110  13.027  1.00  0.00     0.293 HD
ENDBRANCH   2  22
BRANCH   6  24
ATOM     24  O   UNL     1      18.971  15.156  15.106  1.00  0.00    -0.507 OA
ATOM     25  H   UNL     1      18.744  16.073  15.458  1.00  0.00     0.293 HD
ENDBRANCH   6  24
BRANCH   8  26
ATOM     26  O   UNL     1      21.109  16.333  10.970  1.00  0.00    -0.508 OA
ATOM     27  H   UNL     1      21.262  17.287  11.275  1.00  0.00     0.293 HD
ENDBRANCH   8  26
TORSDOF 6
ENDMDL
MODEL 3
REMARK VINA RESULT:    -6.814      3.540      5.193
REMARK INTER + INTRA:          -8.581
REMARK INTER:                  -8.232
REMARK INTRA:                  -0.349
REMARK UNBOUND:                -0.372
REMARK SMILES O=c1c(O)c(-c2ccc(O)cc2O)oc2cc(O)cc(O)c12
REMARK SMILES IDX 5 1 3 2 2 3 1 4 22 5 20 6 19 7 17 8 16 9 15 10 14 11 6 12
REMARK SMILES IDX 8 13 7 14 9 15 11 16 12 17 10 18 13 20 4 22 21 24 18 26
REMARK H PARENT 10 19 13 21 4 23 21 25 18 27
REMARK Flexibility Score: inf
ROOT
ATOM      1  C   UNL     1      18.108  15.916  13.452  1.00  0.00     0.184 A 
ATOM      2  C   UNL     1      19.351  15.925  12.802  1.00  0.00     0.208 A 
ATOM      3  C   UNL     1      19.759  14.783  12.095  1.00  0.00     0.238 A 
ATOM      4  O   UNL     1      20.847  14.819  11.465  1.00  0.00    -0.285 OA
ATOM      5  C   UNL     1      18.928  13.636  12.072  1.00  0.00     0.111 A 
ATOM      6  C   UNL     1      19.256  12.410  11.420  1.00  0.00     0.134 A 
ATOM      7  C   UNL     1      18.305  11.384  11.358  1.00  0.00     0.093 A 
ATOM      8  C   UNL     1      17.062  11.516  11.979  1.00  0.00     0.123 A 
ATOM      9  C   UNL     1      16.752  12.687  12.667  1.00  0.00     0.094 A 
ATOM     10  C   UNL     1      17.666  13.742  12.716  1.00  0.00     0.146 A 
ATOM     11  O   UNL     1      17.327  14.846  13.370  1.00  0.00    -0.451 OA
ENDROOT
BRANCH   1  12
ATOM     12  C   UNL     1      17.636  17.081  14.230  1.00  0.00     0.063 A 
ATOM     13  C   UNL     1      16.924  19.409  14.273  1.00  0.00     0.047 A 
ATOM     14  C   UNL     1      17.319  18.275  13.558  1.00  0.00     0.020 A 
ATOM     15  C   UNL     1      16.848  19.367  15.669  1.00  0.00     0.119 A 
ATOM     16  C   UNL     1      17.163  18.186  16.346  1.00  0.00     0.093 A 
ATOM     17  C   UNL     1      17.550  17.040  15.641  1.00  0.00     0.130 A 
BRANCH  15  18
ATOM     18  O   UNL     1      16.460  20.493  16.393  1.00  0.00    -0.508 OA
ATOM     19  H   UNL     1      16.742  20.627  17.356  1.00  0.00     0.293 HD
ENDBRANCH  15  18
BRANCH  17  20
ATOM     20  O   UNL     1      17.817  15.877  16.368  1.00  0.00    -0.507 OA
ATOM     21  H   UNL     1      18.007  14.985  15.931  1.00  0.00     0.293 HD
ENDBRANCH  17  20
ENDBRANCH   1  12
BRANCH   2  22
ATOM     22  O   UNL     1      20.152  17.069  12.847  1.00  0.00    -0.502 OA
ATOM     23  H   UNL     1      20.215  17.718  12.071  1.00  0.00     0.293 HD
ENDBRANCH   2  22
BRANCH   6  24
ATOM     24  O   UNL     1      20.503  12.140  10.845  1.00  0.00    -0.507 OA
ATOM     25  H   UNL     1      21.311  11.809  11.351  1.00  0.00     0.293 HD
ENDBRANCH   6  24
BRANCH   8  26
ATOM     26  O   UNL     1      16.127  10.484  11.926  1.00  0.00    -0.508 OA
ATOM     27  H   UNL     1      16.352   9.587  11.511  1.00  0.00     0.293 HD
ENDBRANCH   8  26
TORSDOF 6
ENDMDL
MODEL 4
REMARK VINA RESULT:    -6.710      2.930      3.741
REMARK INTER + INTRA:          -8.455
REMARK INTER:                  -8.107
REMARK INTRA:                  -0.348
REMARK UNBOUND:                -0.372
REMARK SMILES O=c1c(O)c(-c2ccc(O)cc2O)oc2cc(O)cc(O)c12
REMARK SMILES IDX 5 1 3 2 2 3 1 4 22 5 20 6 19 7 17 8 16 9 15 10 14 11 6 12
REMARK SMILES IDX 8 13 7 14 9 15 11 16 12 17 10 18 13 20 4 22 21 24 18 26
REMARK H PARENT 10 19 13 21 4 23 21 25 18 27
REMARK Flexibility Score: inf
ROOT
ATOM      1  C   UNL     1      17.473  16.769  14.953  1.00  0.00     0.184 A 
ATOM      2  C   UNL     1      16.649  15.635  14.974  1.00  0.00     0.208 A 
ATOM      3  C   UNL     1      16.922  14.577  14.092  1.00  0.00     0.238 A 
ATOM      4  O   UNL     1      16.215  13.538  14.159  1.00  0.00    -0.285 OA
ATOM      5  C   UNL     1      18.000  14.683  13.181  1.00  0.00     0.111 A 
ATOM      6  C   UNL     1      18.345  13.690  12.215  1.00  0.00     0.134 A 
ATOM      7  C   UNL     1      19.507  13.846  11.448  1.00  0.00     0.093 A 
ATOM      8  C   UNL     1      20.300  14.990  11.567  1.00  0.00     0.123 A 
ATOM      9  C   UNL     1      19.940  15.992  12.465  1.00  0.00     0.094 A 
ATOM     10  C   UNL     1      18.808  15.847  13.270  1.00  0.00     0.146 A 
ATOM     11  O   UNL     1      18.509  16.819  14.124  1.00  0.00    -0.451 OA
ENDROOT
BRANCH   1  12
ATOM     12  C   UNL     1      17.221  17.923  15.843  1.00  0.00     0.063 A 
ATOM     13  C   UNL     1      16.564  20.253  16.097  1.00  0.00     0.047 A 
ATOM     14  C   UNL     1      16.759  19.130  15.289  1.00  0.00     0.020 A 
ATOM     15  C   UNL     1      16.835  20.187  17.468  1.00  0.00     0.119 A 
ATOM     16  C   UNL     1      17.296  18.992  18.027  1.00  0.00     0.093 A 
ATOM     17  C   UNL     1      17.486  17.857  17.230  1.00  0.00     0.130 A 
BRANCH  15  18
ATOM     18  O   UNL     1      16.650  21.303  18.283  1.00  0.00    -0.508 OA
ATOM     19  H   UNL     1      17.277  21.507  19.051  1.00  0.00     0.293 HD
ENDBRANCH  15  18
BRANCH  17  20
ATOM     20  O   UNL     1      17.913  16.680  17.849  1.00  0.00    -0.507 OA
ATOM     21  H   UNL     1      18.515  16.005  17.396  1.00  0.00     0.293 HD
ENDBRANCH  17  20
ENDBRANCH   1  12
BRANCH   2  22
ATOM     22  O   UNL     1      15.588  15.561  15.882  1.00  0.00    -0.502 OA
ATOM     23  H   UNL     1      15.014  14.732  15.979  1.00  0.00     0.293 HD
ENDBRANCH   2  22
BRANCH   6  24
ATOM     24  O   UNL     1      17.573  12.553  11.952  1.00  0.00    -0.507 OA
ATOM     25  H   UNL     1      16.655  12.565  11.535  1.00  0.00     0.293 HD
ENDBRANCH   6  24
BRANCH   8  26
ATOM     26  O   UNL     1      21.444  15.144  10.788  1.00  0.00    -0.508 OA
ATOM     27  H   UNL     1      21.579  14.618   9.933  1.00  0.00     0.293 HD
ENDBRANCH   8  26
TORSDOF 6
ENDMDL
MODEL 5
REMARK VINA RESULT:    -6.668      5.304      7.753
REMARK INTER + INTRA:          -8.405
REMARK INTER:                  -8.104
REMARK INTRA:                  -0.301
REMARK UNBOUND:                -0.372
REMARK SMILES O=c1c(O)c(-c2ccc(O)cc2O)oc2cc(O)cc(O)c12
REMARK SMILES IDX 5 1 3 2 2 3 1 4 22 5 20 6 19 7 17 8 16 9 15 10 14 11 6 12
REMARK SMILES IDX 8 13 7 14 9 15 11 16 12 17 10 18 13 20 4 22 21 24 18 26
REMARK H PARENT 10 19 13 21 4 23 21 25 18 27
REMARK Flexibility Score: inf
ROOT
ATOM      1  C   UNL     1      18.776  14.132  11.329  1.00  0.00     0.184 A 
ATOM      2  C   UNL     1      17.856  14.205  12.385  1.00  0.00     0.208 A 
ATOM      3  C   UNL     1      17.325  13.016  12.909  1.00  0.00     0.238 A 
ATOM      4  O   UNL     1      16.547  13.085  13.896  1.00  0.00    -0.285 OA
ATOM      5  C   UNL     1      17.703  11.771  12.350  1.00  0.00     0.111 A 
ATOM      6  C   UNL     1      17.200  10.505  12.775  1.00  0.00     0.134 A 
ATOM      7  C   UNL     1      17.736   9.330  12.233  1.00  0.00     0.093 A 
ATOM      8  C   UNL     1      18.711   9.378  11.234  1.00  0.00     0.123 A 
ATOM      9  C   UNL     1      19.168  10.609  10.771  1.00  0.00     0.094 A 
ATOM     10  C   UNL     1      18.679  11.797  11.318  1.00  0.00     0.146 A 
ATOM     11  O   UNL     1      19.151  12.949  10.858  1.00  0.00    -0.451 OA
ENDROOT
BRANCH   1  12
ATOM     12  C   UNL     1      19.350  15.352  10.721  1.00  0.00     0.063 A 
ATOM     13  C   UNL     1      19.636  16.767   8.761  1.00  0.00     0.047 A 
ATOM     14  C   UNL     1      19.064  15.652   9.378  1.00  0.00     0.020 A 
ATOM     15  C   UNL     1      20.508  17.595   9.477  1.00  0.00     0.119 A 
ATOM     16  C   UNL     1      20.800  17.305  10.812  1.00  0.00     0.093 A 
ATOM     17  C   UNL     1      20.225  16.196  11.445  1.00  0.00     0.130 A 
BRANCH  15  18
ATOM     18  O   UNL     1      21.089  18.707   8.870  1.00  0.00    -0.508 OA
ATOM     19  H   UNL     1      21.772  19.277   9.354  1.00  0.00     0.293 HD
ENDBRANCH  15  18
BRANCH  17  20
ATOM     20  O   UNL     1      20.523  15.976  12.791  1.00  0.00    -0.507 OA
ATOM     21  H   UNL     1      21.460  15.790  13.126  1.00  0.00     0.293 HD
ENDBRANCH  17  20
ENDBRANCH   1  12
BRANCH   2  22
ATOM     22  O   UNL     1      17.498  15.449  12.913  1.00  0.00    -0.502 OA
ATOM     23  H   UNL     1      16.551  15.662  13.205  1.00  0.00     0.293 HD
ENDBRANCH   2  22
BRANCH   6  24
ATOM     24  O   UNL     1      16.163  10.347  13.701  1.00  0.00    -0.507 OA
ATOM     25  H   UNL     1      16.289  10.080  14.666  1.00  0.00     0.293 HD
ENDBRANCH   6  24
BRANCH   8  26
ATOM     26  O   UNL     1      19.227   8.204  10.689  1.00  0.00    -0.508 OA
ATOM     27  H   UNL     1      20.025   8.216  10.064  1.00  0.00     0.293 HD
ENDBRANCH   8  26
TORSDOF 6
ENDMDL
MODEL 6
REMARK VINA RESULT:    -6.668      2.321      6.316
REMARK INTER + INTRA:          -8.404
REMARK INTER:                  -8.059
REMARK INTRA:                  -0.345
REMARK UNBOUND:                -0.372
REMARK SMILES O=c1c(O)c(-c2ccc(O)cc2O)oc2cc(O)cc(O)c12
REMARK SMILES IDX 5 1 3 2 2 3 1 4 22 5 20 6 19 7 17 8 16 9 15 10 14 11 6 12
REMARK SMILES IDX 8 13 7 14 9 15 11 16 12 17 10 18 13 20 4 22 21 24 18 26
REMARK H PARENT 10 19 13 21 4 23 21 25 18 27
REMARK Flexibility Score: inf
ROOT
ATOM      1  C   UNL     1      18.047  16.718  13.379  1.00  0.00     0.184 A 
ATOM      2  C   UNL     1      17.517  17.817  12.686  1.00  0.00     0.208 A 
ATOM      3  C   UNL     1      16.981  18.888  13.417  1.00  0.00     0.238 A 
ATOM      4  O   UNL     1      16.562  19.897  12.792  1.00  0.00    -0.285 OA
ATOM      5  C   UNL     1      16.958  18.833  14.832  1.00  0.00     0.111 A 
ATOM      6  C   UNL     1      16.404  19.844  15.674  1.00  0.00     0.134 A 
ATOM      7  C   UNL     1      16.547  19.741  17.064  1.00  0.00     0.093 A 
ATOM      8  C   UNL     1      17.166  18.631  17.643  1.00  0.00     0.123 A 
ATOM      9  C   UNL     1      17.659  17.611  16.833  1.00  0.00     0.094 A 
ATOM     10  C   UNL     1      17.564  17.703  15.443  1.00  0.00     0.146 A 
ATOM     11  O   UNL     1      18.059  16.716  14.706  1.00  0.00    -0.451 OA
ENDROOT
BRANCH   1  12
ATOM     12  C   UNL     1      18.604  15.551  12.662  1.00  0.00     0.063 A 
ATOM     13  C   UNL     1      18.414  13.206  12.035  1.00  0.00     0.047 A 
ATOM     14  C   UNL     1      17.887  14.341  12.657  1.00  0.00     0.020 A 
ATOM     15  C   UNL     1      19.668  13.263  11.417  1.00  0.00     0.119 A 
ATOM     16  C   UNL     1      20.388  14.460  11.418  1.00  0.00     0.093 A 
ATOM     17  C   UNL     1      19.867  15.607  12.028  1.00  0.00     0.130 A 
BRANCH  15  18
ATOM     18  O   UNL     1      20.206  12.135  10.799  1.00  0.00    -0.508 OA
ATOM     19  H   UNL     1      20.626  12.186   9.878  1.00  0.00     0.293 HD
ENDBRANCH  15  18
BRANCH  17  20
ATOM     20  O   UNL     1      20.614  16.785  11.966  1.00  0.00    -0.507 OA
ATOM     21  H   UNL     1      20.308  17.607  11.463  1.00  0.00     0.293 HD
ENDBRANCH  17  20
ENDBRANCH   1  12
BRANCH   2  22
ATOM     22  O   UNL     1      17.549  17.841  11.289  1.00  0.00    -0.502 OA
ATOM     23  H   UNL     1      18.414  17.917  10.768  1.00  0.00     0.293 HD
ENDBRANCH   2  22
BRANCH   6  24
ATOM     24  O   UNL     1      15.687  20.948  15.202  1.00  0.00    -0.507 OA
ATOM     25  H   UNL     1      14.803  20.896  14.718  1.00  0.00     0.293 HD
ENDBRANCH   6  24
BRANCH   8  26
ATOM     26  O   UNL     1      17.289  18.529  19.027  1.00  0.00    -0.508 OA
ATOM     27  H   UNL     1      16.831  19.183  19.650  1.00  0.00     0.293 HD
ENDBRANCH   8  26
TORSDOF 6
ENDMDL
MODEL 7
REMARK VINA RESULT:    -6.549      4.982      6.502
REMARK INTER + INTRA:          -8.262
REMARK INTER:                  -7.920
REMARK INTRA:                  -0.341
REMARK UNBOUND:                -0.372
REMARK SMILES O=c1c(O)c(-c2ccc(O)cc2O)oc2cc(O)cc(O)c12
REMARK SMILES IDX 5 1 3 2 2 3 1 4 22 5 20 6 19 7 17 8 16 9 15 10 14 11 6 12
REMARK SMILES IDX 8 13 7 14 9 15 11 16 12 17 10 18 13 20 4 22 21 24 18 26
REMARK H PARENT 10 19 13 21 4 23 21 25 18 27
REMARK Flexibility Score: inf
ROOT
ATOM      1  C   UNL     1      19.104  18.194   9.803  1.00  0.00     0.184 A 
ATOM      2  C   UNL     1      17.734  18.463   9.671  1.00  0.00     0.208 A 
ATOM      3  C   UNL     1      17.317  19.787   9.460  1.00  0.00     0.238 A 
ATOM      4  O   UNL     1      16.092  20.013   9.282  1.00  0.00    -0.285 OA
ATOM      5  C   UNL     1      18.277  20.827   9.413  1.00  0.00     0.111 A 
ATOM      6  C   UNL     1      17.966  22.210   9.245  1.00  0.00     0.134 A 
ATOM      7  C   UNL     1      19.004  23.138   9.089  1.00  0.00     0.093 A 
ATOM      8  C   UNL     1      20.341  22.741   9.163  1.00  0.00     0.123 A 
ATOM      9  C   UNL     1      20.655  21.402   9.385  1.00  0.00     0.094 A 
ATOM     10  C   UNL     1      19.642  20.449   9.507  1.00  0.00     0.146 A 
ATOM     11  O   UNL     1      19.985  19.181   9.704  1.00  0.00    -0.451 OA
ENDROOT
BRANCH   1  12
ATOM     12  C   UNL     1      19.600  16.823  10.049  1.00  0.00     0.063 A 
ATOM     13  C   UNL     1      19.842  14.525   9.281  1.00  0.00     0.047 A 
ATOM     14  C   UNL     1      19.433  15.842   9.056  1.00  0.00     0.020 A 
ATOM     15  C   UNL     1      20.416  14.168  10.506  1.00  0.00     0.119 A 
ATOM     16  C   UNL     1      20.585  15.136  11.501  1.00  0.00     0.093 A 
ATOM     17  C   UNL     1      20.189  16.461  11.283  1.00  0.00     0.130 A 
BRANCH  15  18
ATOM     18  O   UNL     1      20.823  12.857  10.745  1.00  0.00    -0.508 OA
ATOM     19  H   UNL     1      21.734  12.647  11.132  1.00  0.00     0.293 HD
ENDBRANCH  15  18
BRANCH  17  20
ATOM     20  O   UNL     1      20.415  17.392  12.299  1.00  0.00    -0.507 OA
ATOM     21  H   UNL     1      19.900  18.259  12.378  1.00  0.00     0.293 HD
ENDBRANCH  17  20
ENDBRANCH   1  12
BRANCH   2  22
ATOM     22  O   UNL     1      16.809  17.416   9.726  1.00  0.00    -0.502 OA
ATOM     23  H   UNL     1      16.929  16.619  10.341  1.00  0.00     0.293 HD
ENDBRANCH   2  22
BRANCH   6  24
ATOM     24  O   UNL     1      16.665  22.725   9.248  1.00  0.00    -0.507 OA
ATOM     25  H   UNL     1      16.079  22.811   8.431  1.00  0.00     0.293 HD
ENDBRANCH   6  24
BRANCH   8  26
ATOM     26  O   UNL     1      21.367  23.674   9.024  1.00  0.00    -0.508 OA
ATOM     27  H   UNL     1      21.369  24.541   9.548  1.00  0.00     0.293 HD
ENDBRANCH   8  26
TORSDOF 6
ENDMDL
MODEL 8
REMARK VINA RESULT:    -6.540      4.771      6.600
REMARK INTER + INTRA:          -8.250
REMARK INTER:                  -7.849
REMARK INTRA:                  -0.401
REMARK UNBOUND:                -0.372
REMARK SMILES O=c1c(O)c(-c2ccc(O)cc2O)oc2cc(O)cc(O)c12
REMARK SMILES IDX 5 1 3 2 2 3 1 4 22 5 20 6 19 7 17 8 16 9 15 10 14 11 6 12
REMARK SMILES IDX 8 13 7 14 9 15 11 16 12 17 10 18 13 20 4 22 21 24 18 26
REMARK H PARENT 10 19 13 21 4 23 21 25 18 27
REMARK Flexibility Score: inf
ROOT
ATOM      1  C   UNL     1      19.104  18.095   9.988  1.00  0.00     0.184 A 
ATOM      2  C   UNL     1      19.925  19.172   9.624  1.00  0.00     0.208 A 
ATOM      3  C   UNL     1      19.349  20.439   9.448  1.00  0.00     0.238 A 
ATOM      4  O   UNL     1      20.100  21.413   9.180  1.00  0.00    -0.285 OA
ATOM      5  C   UNL     1      17.952  20.605   9.612  1.00  0.00     0.111 A 
ATOM      6  C   UNL     1      17.254  21.835   9.421  1.00  0.00     0.134 A 
ATOM      7  C   UNL     1      15.890  21.911   9.731  1.00  0.00     0.093 A 
ATOM      8  C   UNL     1      15.186  20.785  10.163  1.00  0.00     0.123 A 
ATOM      9  C   UNL     1      15.846  19.566  10.298  1.00  0.00     0.094 A 
ATOM     10  C   UNL     1      17.213  19.467  10.031  1.00  0.00     0.146 A 
ATOM     11  O   UNL     1      17.806  18.290  10.186  1.00  0.00    -0.451 OA
ENDROOT
BRANCH   1  12
ATOM     12  C   UNL     1      19.652  16.733  10.165  1.00  0.00     0.063 A 
ATOM     13  C   UNL     1      20.011  14.498   9.268  1.00  0.00     0.047 A 
ATOM     14  C   UNL     1      19.552  15.809   9.110  1.00  0.00     0.020 A 
ATOM     15  C   UNL     1      20.569  14.091  10.485  1.00  0.00     0.119 A 
ATOM     16  C   UNL     1      20.671  15.002  11.539  1.00  0.00     0.093 A 
ATOM     17  C   UNL     1      20.225  16.321  11.391  1.00  0.00     0.130 A 
BRANCH  15  18
ATOM     18  O   UNL     1      21.024  12.786  10.655  1.00  0.00    -0.508 OA
ATOM     19  H   UNL     1      20.482  11.990  10.340  1.00  0.00     0.293 HD
ENDBRANCH  15  18
BRANCH  17  20
ATOM     20  O   UNL     1      20.386  17.197  12.467  1.00  0.00    -0.507 OA
ATOM     21  H   UNL     1      21.291  17.507  12.796  1.00  0.00     0.293 HD
ENDBRANCH  17  20
ENDBRANCH   1  12
BRANCH   2  22
ATOM     22  O   UNL     1      21.300  18.976   9.464  1.00  0.00    -0.502 OA
ATOM     23  H   UNL     1      21.780  19.184   8.596  1.00  0.00     0.293 HD
ENDBRANCH   2  22
BRANCH   6  24
ATOM     24  O   UNL     1      17.842  22.997   8.908  1.00  0.00    -0.507 OA
ATOM     25  H   UNL     1      18.546  23.014   8.185  1.00  0.00     0.293 HD
ENDBRANCH   6  24
BRANCH   8  26
ATOM     26  O   UNL     1      13.826  20.866  10.453  1.00  0.00    -0.508 OA
ATOM     27  H   UNL     1      13.156  21.193   9.767  1.00  0.00     0.293 HD
ENDBRANCH   8  26
TORSDOF 6
ENDMDL
MODEL 9
REMARK VINA RESULT:    -6.538      4.299      7.218
REMARK INTER + INTRA:          -8.248
REMARK INTER:                  -7.831
REMARK INTRA:                  -0.416
REMARK UNBOUND:                -0.372
REMARK SMILES O=c1c(O)c(-c2ccc(O)cc2O)oc2cc(O)cc(O)c12
REMARK SMILES IDX 5 1 3 2 2 3 1 4 22 5 20 6 19 7 17 8 16 9 15 10 14 11 6 12
REMARK SMILES IDX 8 13 7 14 9 15 11 16 12 17 10 18 13 20 4 22 21 24 18 26
REMARK H PARENT 10 19 13 21 4 23 21 25 18 27
REMARK Flexibility Score: inf
ROOT
ATOM      1  C   UNL     1      18.880  15.978  10.861  1.00  0.00     0.184 A 
ATOM      2  C   UNL     1      18.205  16.207  12.068  1.00  0.00     0.208 A 
ATOM      3  C   UNL     1      17.796  15.108  12.839  1.00  0.00     0.238 A 
ATOM      4  O   UNL     1      17.245  15.321  13.951  1.00  0.00    -0.285 OA
ATOM      5  C   UNL     1      18.044  13.793  12.376  1.00  0.00     0.111 A 
ATOM      6  C   UNL     1      17.640  12.604  13.055  1.00  0.00     0.134 A 
ATOM      7  C   UNL     1      18.047  11.357  12.566  1.00  0.00     0.093 A 
ATOM      8  C   UNL     1      18.788  11.252  11.387  1.00  0.00     0.123 A 
ATOM      9  C   UNL     1      19.139  12.403  10.685  1.00  0.00     0.094 A 
ATOM     10  C   UNL     1      18.779  13.664  11.168  1.00  0.00     0.146 A 
ATOM     11  O   UNL     1      19.145  14.736  10.476  1.00  0.00    -0.451 OA
ENDROOT
BRANCH   1  12
ATOM     12  C   UNL     1      19.314  17.096   9.996  1.00  0.00     0.063 A 
ATOM     13  C   UNL     1      18.849  18.589   8.130  1.00  0.00     0.047 A 
ATOM     14  C   UNL     1      18.445  17.572   8.998  1.00  0.00     0.020 A 
ATOM     15  C   UNL     1      20.130  19.141   8.243  1.00  0.00     0.119 A 
ATOM     16  C   UNL     1      21.001  18.675   9.231  1.00  0.00     0.093 A 
ATOM     17  C   UNL     1      20.605  17.663  10.113  1.00  0.00     0.130 A 
BRANCH  15  18
ATOM     18  O   UNL     1      20.545  20.153   7.380  1.00  0.00    -0.508 OA
ATOM     19  H   UNL     1      20.742  19.968   6.403  1.00  0.00     0.293 HD
ENDBRANCH  15  18
BRANCH  17  20
ATOM     20  O   UNL     1      21.504  17.261  11.104  1.00  0.00    -0.507 OA
ATOM     21  H   UNL     1      21.911  16.336  11.138  1.00  0.00     0.293 HD
ENDBRANCH  17  20
ENDBRANCH   1  12
BRANCH   2  22
ATOM     22  O   UNL     1      17.970  17.517  12.498  1.00  0.00    -0.502 OA
ATOM     23  H   UNL     1      18.696  18.091  12.910  1.00  0.00     0.293 HD
ENDBRANCH   2  22
BRANCH   6  24
ATOM     24  O   UNL     1      16.823  12.592  14.191  1.00  0.00    -0.507 OA
ATOM     25  H   UNL     1      16.137  13.297  14.414  1.00  0.00     0.293 HD
ENDBRANCH   6  24
BRANCH   8  26
ATOM     26  O   UNL     1      19.175  10.006  10.899  1.00  0.00    -0.508 OA
ATOM     27  H   UNL     1      19.909   9.467  11.343  1.00  0.00     0.293 HD
ENDBRANCH   8  26
TORSDOF 6
ENDMDL
