MODEL 1
REMARK VINA RESULT:    -5.375      0.000      0.000
REMARK INTER + INTRA:          -5.689
REMARK INTER:                  -5.689
REMARK INTRA:                   0.000
REMARK UNBOUND:                 0.000
REMARK SMILES CC1(C)[C@H]2CC[C@@]3(C)[C@@H](C=CC4=C(O)C(=O)C(=O)[C@@]43C)[C@]2(C)CC[C@@H]1O
REMARK SMILES IDX 1 1 2 2 4 3 5 4 6 5 7 6 9 7 21 8 23 9 24 10 25 11 22 12
REMARK SMILES IDX 10 13 11 14 12 15 13 16 15 17 16 18 17 19 18 20 19 21 20 22
REMARK SMILES IDX 8 23 3 24 26 25 14 27
REMARK H PARENT 26 26 14 28
REMARK Flexibility Score: inf
ROOT
ATOM      1  C   UNL     1     128.119 129.125 124.210  1.00  0.00     0.014 C 
ATOM      2  C   UNL     1     127.675 127.711 123.752  1.00  0.00    -0.006 C 
ATOM      3  C   UNL     1     127.295 126.766 124.964  1.00  0.00     0.004 C 
ATOM      4  C   UNL     1     128.455 126.462 125.946  1.00  0.00     0.005 C 
ATOM      5  C   UNL     1     128.115 125.265 126.851  1.00  0.00     0.009 C 
ATOM      6  C   UNL     1     126.807 125.459 127.669  1.00  0.00    -0.009 C 
ATOM      7  C   UNL     1     125.635 125.904 126.695  1.00  0.00     0.025 C 
ATOM      8  C   UNL     1     125.950 127.115 125.720  1.00  0.00    -0.022 C 
ATOM      9  C   UNL     1     124.816 127.212 124.646  1.00  0.00     0.010 C 
ATOM     10  C   UNL     1     125.131 128.160 123.475  1.00  0.00     0.033 C 
ATOM     11  C   UNL     1     126.461 127.840 122.770  1.00  0.00     0.120 C 
ATOM     12  C   UNL     1     125.999 128.457 126.517  1.00  0.00     0.012 C 
ATOM     13  C   UNL     1     124.298 126.001 127.430  1.00  0.00    -0.022 C 
ATOM     14  C   UNL     1     124.000 125.223 128.480  1.00  0.00     0.005 C 
ATOM     15  C   UNL     1     125.037 124.366 129.088  1.00  0.00     0.012 C 
ATOM     16  C   UNL     1     125.078 124.021 130.381  1.00  0.00     0.171 C 
ATOM     17  C   UNL     1     126.402 123.550 130.717  1.00  0.00     0.264 C 
ATOM     18  O   UNL     1     126.786 123.157 131.849  1.00  0.00    -0.282 OA
ATOM     19  C   UNL     1     127.215 123.654 129.527  1.00  0.00     0.217 C 
ATOM     20  O   UNL     1     128.437 123.352 129.459  1.00  0.00    -0.289 OA
ATOM     21  C   UNL     1     126.353 124.103 128.374  1.00  0.00     0.069 C 
ATOM     22  C   UNL     1     126.162 122.875 127.442  1.00  0.00     0.026 C 
ATOM     23  C   UNL     1     127.080 126.528 128.780  1.00  0.00     0.013 C 
ATOM     24  C   UNL     1     128.869 127.112 122.956  1.00  0.00     0.014 C 
ENDROOT
BRANCH  11  25
ATOM     25  O   UNL     1     126.317 126.712 121.937  1.00  0.00    -0.393 OA
ATOM     26  H   UNL     1     125.441 126.290 122.123  1.00  0.00     0.210 HD
ENDBRANCH  11  25
BRANCH  16  27
ATOM     27  O   UNL     1     124.047 124.171 131.308  1.00  0.00    -0.504 OA
ATOM     28  H   UNL     1     124.204 124.527 132.241  1.00  0.00     0.293 HD
ENDBRANCH  16  27
TORSDOF 2
ENDMDL
MODEL 2
REMARK VINA RESULT:    -5.326      1.575      6.833
REMARK INTER + INTRA:          -5.638
REMARK INTER:                  -5.638
REMARK INTRA:                   0.000
REMARK UNBOUND:                 0.000
REMARK SMILES CC1(C)[C@H]2CC[C@@]3(C)[C@@H](C=CC4=C(O)C(=O)C(=O)[C@@]43C)[C@]2(C)CC[C@@H]1O
REMARK SMILES IDX 1 1 2 2 4 3 5 4 6 5 7 6 9 7 21 8 23 9 24 10 25 11 22 12
REMARK SMILES IDX 10 13 11 14 12 15 13 16 15 17 16 18 17 19 18 20 19 21 20 22
REMARK SMILES IDX 8 23 3 24 26 25 14 27
REMARK H PARENT 26 26 14 28
REMARK Flexibility Score: inf
ROOT
ATOM      1  C   UNL     1     125.406 126.602 131.695  1.00  0.00     0.014 C 
ATOM      2  C   UNL     1     125.336 125.250 130.939  1.00  0.00    -0.006 C 
ATOM      3  C   UNL     1     125.742 125.378 129.415  1.00  0.00     0.004 C 
ATOM      4  C   UNL     1     124.821 126.294 128.567  1.00  0.00     0.005 C 
ATOM      5  C   UNL     1     125.047 126.066 127.063  1.00  0.00     0.009 C 
ATOM      6  C   UNL     1     126.519 126.290 126.617  1.00  0.00    -0.009 C 
ATOM      7  C   UNL     1     127.491 125.464 127.562  1.00  0.00     0.025 C 
ATOM      8  C   UNL     1     127.273 125.641 129.124  1.00  0.00    -0.022 C 
ATOM      9  C   UNL     1     128.093 124.543 129.879  1.00  0.00     0.010 C 
ATOM     10  C   UNL     1     127.760 124.422 131.377  1.00  0.00     0.033 C 
ATOM     11  C   UNL     1     126.262 124.207 131.655  1.00  0.00     0.120 C 
ATOM     12  C   UNL     1     127.776 127.046 129.587  1.00  0.00     0.012 C 
ATOM     13  C   UNL     1     128.943 125.560 127.099  1.00  0.00    -0.022 C 
ATOM     14  C   UNL     1     129.276 125.707 125.809  1.00  0.00     0.005 C 
ATOM     15  C   UNL     1     128.233 125.975 124.799  1.00  0.00     0.012 C 
ATOM     16  C   UNL     1     128.422 126.683 123.678  1.00  0.00     0.171 C 
ATOM     17  C   UNL     1     127.146 127.100 123.146  1.00  0.00     0.264 C 
ATOM     18  O   UNL     1     126.962 127.788 122.107  1.00  0.00    -0.282 OA
ATOM     19  C   UNL     1     126.122 126.623 124.046  1.00  0.00     0.217 C 
ATOM     20  O   UNL     1     124.886 126.826 123.907  1.00  0.00    -0.289 OA
ATOM     21  C   UNL     1     126.760 125.784 125.124  1.00  0.00     0.069 C 
ATOM     22  C   UNL     1     126.388 124.305 124.832  1.00  0.00     0.026 C 
ATOM     23  C   UNL     1     126.818 127.826 126.674  1.00  0.00     0.013 C 
ATOM     24  C   UNL     1     123.870 124.749 131.067  1.00  0.00     0.014 C 
ENDROOT
BRANCH  11  25
ATOM     25  O   UNL     1     125.895 122.875 131.372  1.00  0.00    -0.393 OA
ATOM     26  H   UNL     1     125.936 122.350 132.210  1.00  0.00     0.210 HD
ENDBRANCH  11  25
BRANCH  16  27
ATOM     27  O   UNL     1     129.652 127.055 123.135  1.00  0.00    -0.504 OA
ATOM     28  H   UNL     1     129.792 127.940 122.667  1.00  0.00     0.293 HD
ENDBRANCH  16  27
TORSDOF 2
ENDMDL
MODEL 3
REMARK VINA RESULT:    -5.293     16.374     19.418
REMARK INTER + INTRA:          -5.603
REMARK INTER:                  -5.603
REMARK INTRA:                   0.000
REMARK UNBOUND:                 0.000
REMARK SMILES CC1(C)[C@H]2CC[C@@]3(C)[C@@H](C=CC4=C(O)C(=O)C(=O)[C@@]43C)[C@]2(C)CC[C@@H]1O
REMARK SMILES IDX 1 1 2 2 4 3 5 4 6 5 7 6 9 7 21 8 23 9 24 10 25 11 22 12
REMARK SMILES IDX 10 13 11 14 12 15 13 16 15 17 16 18 17 19 18 20 19 21 20 22
REMARK SMILES IDX 8 23 3 24 26 25 14 27
REMARK H PARENT 26 26 14 28
REMARK Flexibility Score: inf
ROOT
ATOM      1  C   UNL     1     136.634 136.653 123.690  1.00  0.00     0.014 C 
ATOM      2  C   UNL     1     137.303 137.944 123.152  1.00  0.00    -0.006 C 
ATOM      3  C   UNL     1     137.962 138.817 124.296  1.00  0.00     0.004 C 
ATOM      4  C   UNL     1     136.972 139.360 125.358  1.00  0.00     0.005 C 
ATOM      5  C   UNL     1     137.614 140.482 126.191  1.00  0.00     0.009 C 
ATOM      6  C   UNL     1     138.925 140.049 126.907  1.00  0.00    -0.009 C 
ATOM      7  C   UNL     1     139.900 139.365 125.858  1.00  0.00     0.025 C 
ATOM      8  C   UNL     1     139.273 138.224 124.952  1.00  0.00    -0.022 C 
ATOM      9  C   UNL     1     140.271 137.887 123.795  1.00  0.00     0.010 C 
ATOM     10  C   UNL     1     139.678 136.999 122.686  1.00  0.00     0.033 C 
ATOM     11  C   UNL     1     138.381 137.561 122.080  1.00  0.00     0.120 C 
ATOM     12  C   UNL     1     139.033 136.931 125.796  1.00  0.00     0.012 C 
ATOM     13  C   UNL     1     141.250 139.021 126.486  1.00  0.00    -0.022 C 
ATOM     14  C   UNL     1     141.783 139.743 127.482  1.00  0.00     0.005 C 
ATOM     15  C   UNL     1     140.988 140.798 128.141  1.00  0.00     0.012 C 
ATOM     16  C   UNL     1     141.125 141.166 129.422  1.00  0.00     0.171 C 
ATOM     17  C   UNL     1     139.952 141.894 129.846  1.00  0.00     0.264 C 
ATOM     18  O   UNL     1     139.750 142.375 130.992  1.00  0.00    -0.282 OA
ATOM     19  C   UNL     1     139.035 141.931 128.730  1.00  0.00     0.217 C 
ATOM     20  O   UNL     1     137.895 142.466 128.750  1.00  0.00    -0.289 OA
ATOM     21  C   UNL     1     139.692 141.302 127.527  1.00  0.00     0.069 C 
ATOM     22  C   UNL     1     140.038 142.451 126.542  1.00  0.00     0.026 C 
ATOM     23  C   UNL     1     138.545 139.074 128.072  1.00  0.00     0.013 C 
ATOM     24  C   UNL     1     136.185 138.752 122.434  1.00  0.00     0.014 C 
ENDROOT
BRANCH  11  25
ATOM     25  O   UNL     1     138.669 138.625 121.200  1.00  0.00    -0.393 OA
ATOM     26  H   UNL     1     138.722 138.268 120.278  1.00  0.00     0.210 HD
ENDBRANCH  11  25
BRANCH  16  27
ATOM     27  O   UNL     1     142.183 140.833 130.267  1.00  0.00    -0.504 OA
ATOM     28  H   UNL     1     143.060 140.468 129.921  1.00  0.00     0.293 HD
ENDBRANCH  16  27
TORSDOF 2
ENDMDL
MODEL 4
REMARK VINA RESULT:    -5.270     16.126     19.115
REMARK INTER + INTRA:          -5.578
REMARK INTER:                  -5.578
REMARK INTRA:                   0.000
REMARK UNBOUND:                 0.000
REMARK SMILES CC1(C)[C@H]2CC[C@@]3(C)[C@@H](C=CC4=C(O)C(=O)C(=O)[C@@]43C)[C@]2(C)CC[C@@H]1O
REMARK SMILES IDX 1 1 2 2 4 3 5 4 6 5 7 6 9 7 21 8 23 9 24 10 25 11 22 12
REMARK SMILES IDX 10 13 11 14 12 15 13 16 15 17 16 18 17 19 18 20 19 21 20 22
REMARK SMILES IDX 8 23 3 24 26 25 14 27
REMARK H PARENT 26 26 14 28
REMARK Flexibility Score: inf
ROOT
ATOM      1  C   UNL     1     136.513 136.652 124.196  1.00  0.00     0.014 C 
ATOM      2  C   UNL     1     135.715 137.757 124.935  1.00  0.00    -0.006 C 
ATOM      3  C   UNL     1     136.622 138.632 125.892  1.00  0.00     0.004 C 
ATOM      4  C   UNL     1     137.288 137.853 127.055  1.00  0.00     0.005 C 
ATOM      5  C   UNL     1     137.824 138.814 128.130  1.00  0.00     0.009 C 
ATOM      6  C   UNL     1     138.840 139.854 127.581  1.00  0.00    -0.009 C 
ATOM      7  C   UNL     1     138.227 140.569 126.303  1.00  0.00     0.025 C 
ATOM      8  C   UNL     1     137.632 139.619 125.181  1.00  0.00    -0.022 C 
ATOM      9  C   UNL     1     136.813 140.483 124.165  1.00  0.00     0.010 C 
ATOM     10  C   UNL     1     135.955 139.663 123.185  1.00  0.00     0.033 C 
ATOM     11  C   UNL     1     135.003 138.676 123.883  1.00  0.00     0.120 C 
ATOM     12  C   UNL     1     138.785 138.900 124.409  1.00  0.00     0.012 C 
ATOM     13  C   UNL     1     139.140 141.681 125.789  1.00  0.00    -0.022 C 
ATOM     14  C   UNL     1     139.934 142.391 126.602  1.00  0.00     0.005 C 
ATOM     15  C   UNL     1     140.097 141.993 128.014  1.00  0.00     0.012 C 
ATOM     16  C   UNL     1     141.204 142.196 128.740  1.00  0.00     0.171 C 
ATOM     17  C   UNL     1     141.186 141.338 129.903  1.00  0.00     0.264 C 
ATOM     18  O   UNL     1     142.078 141.269 130.789  1.00  0.00    -0.282 OA
ATOM     19  C   UNL     1     139.981 140.543 129.839  1.00  0.00     0.217 C 
ATOM     20  O   UNL     1     139.650 139.666 130.681  1.00  0.00    -0.289 OA
ATOM     21  C   UNL     1     139.156 140.987 128.657  1.00  0.00     0.069 C 
ATOM     22  C   UNL     1     137.932 141.759 129.220  1.00  0.00     0.026 C 
ATOM     23  C   UNL     1     140.173 139.103 127.246  1.00  0.00     0.013 C 
ATOM     24  C   UNL     1     134.611 137.030 125.754  1.00  0.00     0.014 C 
ENDROOT
BRANCH  11  25
ATOM     25  O   UNL     1     133.895 139.360 124.424  1.00  0.00    -0.393 OA
ATOM     26  H   UNL     1     133.252 139.547 123.696  1.00  0.00     0.210 HD
ENDBRANCH  11  25
BRANCH  16  27
ATOM     27  O   UNL     1     142.270 143.029 128.404  1.00  0.00    -0.504 OA
ATOM     28  H   UNL     1     143.158 142.670 128.080  1.00  0.00     0.293 HD
ENDBRANCH  16  27
TORSDOF 2
ENDMDL
MODEL 5
REMARK VINA RESULT:    -5.228      2.124      3.143
REMARK INTER + INTRA:          -5.534
REMARK INTER:                  -5.534
REMARK INTRA:                   0.000
REMARK UNBOUND:                 0.000
REMARK SMILES CC1(C)[C@H]2CC[C@@]3(C)[C@@H](C=CC4=C(O)C(=O)C(=O)[C@@]43C)[C@]2(C)CC[C@@H]1O
REMARK SMILES IDX 1 1 2 2 4 3 5 4 6 5 7 6 9 7 21 8 23 9 24 10 25 11 22 12
REMARK SMILES IDX 10 13 11 14 12 15 13 16 15 17 16 18 17 19 18 20 19 21 20 22
REMARK SMILES IDX 8 23 3 24 26 25 14 27
REMARK H PARENT 26 26 14 28
REMARK Flexibility Score: inf
ROOT
ATOM      1  C   UNL     1     129.865 128.866 124.379  1.00  0.00     0.014 C 
ATOM      2  C   UNL     1     130.548 127.610 124.978  1.00  0.00    -0.006 C 
ATOM      3  C   UNL     1     129.578 126.767 125.903  1.00  0.00     0.004 C 
ATOM      4  C   UNL     1     129.062 127.512 127.161  1.00  0.00     0.005 C 
ATOM      5  C   UNL     1     128.454 126.528 128.176  1.00  0.00     0.009 C 
ATOM      6  C   UNL     1     127.294 125.674 127.592  1.00  0.00    -0.009 C 
ATOM      7  C   UNL     1     127.760 125.009 126.228  1.00  0.00     0.025 C 
ATOM      8  C   UNL     1     128.424 125.980 125.162  1.00  0.00    -0.022 C 
ATOM      9  C   UNL     1     129.087 125.120 124.035  1.00  0.00     0.010 C 
ATOM     10  C   UNL     1     130.001 125.916 123.086  1.00  0.00     0.033 C 
ATOM     11  C   UNL     1     131.096 126.712 123.816  1.00  0.00     0.120 C 
ATOM     12  C   UNL     1     127.340 126.900 124.515  1.00  0.00     0.012 C 
ATOM     13  C   UNL     1     126.695 124.068 125.667  1.00  0.00    -0.022 C 
ATOM     14  C   UNL     1     125.852 123.388 126.456  1.00  0.00     0.005 C 
ATOM     15  C   UNL     1     125.798 123.672 127.904  1.00  0.00     0.012 C 
ATOM     16  C   UNL     1     124.705 123.539 128.666  1.00  0.00     0.171 C 
ATOM     17  C   UNL     1     124.877 124.278 129.895  1.00  0.00     0.264 C 
ATOM     18  O   UNL     1     124.037 124.373 130.829  1.00  0.00    -0.282 OA
ATOM     19  C   UNL     1     126.168 124.923 129.838  1.00  0.00     0.217 C 
ATOM     20  O   UNL     1     126.640 125.673 130.734  1.00  0.00    -0.289 OA
ATOM     21  C   UNL     1     126.883 124.493 128.582  1.00  0.00     0.069 C 
ATOM     22  C   UNL     1     128.022 123.530 129.012  1.00  0.00     0.026 C 
ATOM     23  C   UNL     1     126.053 126.607 127.392  1.00  0.00     0.013 C 
ATOM     24  C   UNL     1     131.766 128.120 125.799  1.00  0.00     0.014 C 
ENDROOT
BRANCH  11  25
ATOM     25  O   UNL     1     132.130 125.852 124.239  1.00  0.00    -0.393 OA
ATOM     26  H   UNL     1     132.225 125.122 123.578  1.00  0.00     0.210 HD
ENDBRANCH  11  25
BRANCH  16  27
ATOM     27  O   UNL     1     123.530 122.875 128.314  1.00  0.00    -0.504 OA
ATOM     28  H   UNL     1     123.276 121.977 128.703  1.00  0.00     0.293 HD
ENDBRANCH  16  27
TORSDOF 2
ENDMDL
MODEL 6
REMARK VINA RESULT:    -5.193      1.730      6.784
REMARK INTER + INTRA:          -5.496
REMARK INTER:                  -5.496
REMARK INTRA:                   0.000
REMARK UNBOUND:                 0.000
REMARK SMILES CC1(C)[C@H]2CC[C@@]3(C)[C@@H](C=CC4=C(O)C(=O)C(=O)[C@@]43C)[C@]2(C)CC[C@@H]1O
REMARK SMILES IDX 1 1 2 2 4 3 5 4 6 5 7 6 9 7 21 8 23 9 24 10 25 11 22 12
REMARK SMILES IDX 10 13 11 14 12 15 13 16 15 17 16 18 17 19 18 20 19 21 20 22
REMARK SMILES IDX 8 23 3 24 26 25 14 27
REMARK H PARENT 26 26 14 28
REMARK Flexibility Score: inf
ROOT
ATOM      1  C   UNL     1     127.259 125.010 131.269  1.00  0.00     0.014 C 
ATOM      2  C   UNL     1     125.821 125.224 130.731  1.00  0.00    -0.006 C 
ATOM      3  C   UNL     1     125.797 125.852 129.278  1.00  0.00     0.004 C 
ATOM      4  C   UNL     1     126.422 127.266 129.165  1.00  0.00     0.005 C 
ATOM      5  C   UNL     1     126.024 127.943 127.842  1.00  0.00     0.009 C 
ATOM      6  C   UNL     1     126.421 127.122 126.583  1.00  0.00    -0.009 C 
ATOM      7  C   UNL     1     125.905 125.629 126.741  1.00  0.00     0.025 C 
ATOM      8  C   UNL     1     126.263 124.900 128.104  1.00  0.00    -0.022 C 
ATOM      9  C   UNL     1     125.431 123.579 128.208  1.00  0.00     0.010 C 
ATOM     10  C   UNL     1     125.469 122.914 129.595  1.00  0.00     0.033 C 
ATOM     11  C   UNL     1     125.054 123.857 130.738  1.00  0.00     0.120 C 
ATOM     12  C   UNL     1     127.782 124.538 128.144  1.00  0.00     0.012 C 
ATOM     13  C   UNL     1     126.171 124.806 125.481  1.00  0.00    -0.022 C 
ATOM     14  C   UNL     1     126.188 125.353 124.257  1.00  0.00     0.005 C 
ATOM     15  C   UNL     1     126.136 126.820 124.099  1.00  0.00     0.012 C 
ATOM     16  C   UNL     1     126.700 127.497 123.091  1.00  0.00     0.171 C 
ATOM     17  C   UNL     1     126.825 128.890 123.451  1.00  0.00     0.264 C 
ATOM     18  O   UNL     1     127.320 129.801 122.737  1.00  0.00    -0.282 OA
ATOM     19  C   UNL     1     126.318 129.039 124.796  1.00  0.00     0.217 C 
ATOM     20  O   UNL     1     126.295 130.120 125.444  1.00  0.00    -0.289 OA
ATOM     21  C   UNL     1     125.755 127.720 125.263  1.00  0.00     0.069 C 
ATOM     22  C   UNL     1     124.209 127.864 125.278  1.00  0.00     0.026 C 
ATOM     23  C   UNL     1     127.977 127.189 126.427  1.00  0.00     0.013 C 
ATOM     24  C   UNL     1     125.111 126.172 131.738  1.00  0.00     0.014 C 
ENDROOT
BRANCH  11  25
ATOM     25  O   UNL     1     123.654 124.023 130.755  1.00  0.00    -0.393 OA
ATOM     26  H   UNL     1     123.294 123.771 129.868  1.00  0.00     0.210 HD
ENDBRANCH  11  25
BRANCH  16  27
ATOM     27  O   UNL     1     127.188 126.953 121.903  1.00  0.00    -0.504 OA
ATOM     28  H   UNL     1     127.344 125.961 121.784  1.00  0.00     0.293 HD
ENDBRANCH  16  27
TORSDOF 2
ENDMDL
MODEL 7
REMARK VINA RESULT:    -5.124      7.094     10.184
REMARK INTER + INTRA:          -5.424
REMARK INTER:                  -5.424
REMARK INTRA:                   0.000
REMARK UNBOUND:                 0.000
REMARK SMILES CC1(C)[C@H]2CC[C@@]3(C)[C@@H](C=CC4=C(O)C(=O)C(=O)[C@@]43C)[C@]2(C)CC[C@@H]1O
REMARK SMILES IDX 1 1 2 2 4 3 5 4 6 5 7 6 9 7 21 8 23 9 24 10 25 11 22 12
REMARK SMILES IDX 10 13 11 14 12 15 13 16 15 17 16 18 17 19 18 20 19 21 20 22
REMARK SMILES IDX 8 23 3 24 26 25 14 27
REMARK H PARENT 26 26 14 28
REMARK Flexibility Score: inf
ROOT
ATOM      1  C   UNL     1     122.875 132.359 115.999  1.00  0.00     0.014 C 
ATOM      2  C   UNL     1     124.060 131.639 115.305  1.00  0.00    -0.006 C 
ATOM      3  C   UNL     1     125.077 130.999 116.335  1.00  0.00     0.004 C 
ATOM      4  C   UNL     1     125.789 132.013 117.267  1.00  0.00     0.005 C 
ATOM      5  C   UNL     1     127.008 131.373 117.953  1.00  0.00     0.009 C 
ATOM      6  C   UNL     1     126.658 130.101 118.776  1.00  0.00    -0.009 C 
ATOM      7  C   UNL     1     125.809 129.106 117.877  1.00  0.00     0.025 C 
ATOM      8  C   UNL     1     124.560 129.729 117.123  1.00  0.00    -0.022 C 
ATOM      9  C   UNL     1     124.038 128.698 116.067  1.00  0.00     0.010 C 
ATOM     10  C   UNL     1     123.010 129.273 115.076  1.00  0.00     0.033 C 
ATOM     11  C   UNL     1     123.503 130.533 114.343  1.00  0.00     0.120 C 
ATOM     12  C   UNL     1     123.409 130.033 118.135  1.00  0.00     0.012 C 
ATOM     13  C   UNL     1     125.533 127.789 118.602  1.00  0.00    -0.022 C 
ATOM     14  C   UNL     1     126.382 127.275 119.502  1.00  0.00     0.005 C 
ATOM     15  C   UNL     1     127.538 128.066 119.970  1.00  0.00     0.012 C 
ATOM     16  C   UNL     1     128.087 127.966 121.187  1.00  0.00     0.171 C 
ATOM     17  C   UNL     1     128.892 129.135 121.454  1.00  0.00     0.264 C 
ATOM     18  O   UNL     1     129.539 129.366 122.510  1.00  0.00    -0.282 OA
ATOM     19  C   UNL     1     128.784 130.009 120.309  1.00  0.00     0.217 C 
ATOM     20  O   UNL     1     129.338 131.136 120.206  1.00  0.00    -0.289 OA
ATOM     21  C   UNL     1     127.972 129.325 119.238  1.00  0.00     0.069 C 
ATOM     22  C   UNL     1     128.959 128.915 118.111  1.00  0.00     0.026 C 
ATOM     23  C   UNL     1     125.872 130.548 120.054  1.00  0.00     0.013 C 
ATOM     24  C   UNL     1     124.776 132.708 114.434  1.00  0.00     0.014 C 
ENDROOT
BRANCH  11  25
ATOM     25  O   UNL     1     124.421 130.185 113.331  1.00  0.00    -0.393 OA
ATOM     26  H   UNL     1     124.101 129.363 112.882  1.00  0.00     0.210 HD
ENDBRANCH  11  25
BRANCH  16  27
ATOM     27  O   UNL     1     127.859 126.949 122.113  1.00  0.00    -0.504 OA
ATOM     28  H   UNL     1     127.023 126.907 122.680  1.00  0.00     0.293 HD
ENDBRANCH  16  27
TORSDOF 2
ENDMDL
MODEL 8
REMARK VINA RESULT:    -5.033     17.338     19.663
REMARK INTER + INTRA:          -5.328
REMARK INTER:                  -5.328
REMARK INTRA:                   0.000
REMARK UNBOUND:                 0.000
REMARK SMILES CC1(C)[C@H]2CC[C@@]3(C)[C@@H](C=CC4=C(O)C(=O)C(=O)[C@@]43C)[C@]2(C)CC[C@@H]1O
REMARK SMILES IDX 1 1 2 2 4 3 5 4 6 5 7 6 9 7 21 8 23 9 24 10 25 11 22 12
REMARK SMILES IDX 10 13 11 14 12 15 13 16 15 17 16 18 17 19 18 20 19 21 20 22
REMARK SMILES IDX 8 23 3 24 26 25 14 27
REMARK H PARENT 26 26 14 28
REMARK Flexibility Score: inf
ROOT
ATOM      1  C   UNL     1     140.216 139.016 131.588  1.00  0.00     0.014 C 
ATOM      2  C   UNL     1     140.297 140.366 130.829  1.00  0.00    -0.006 C 
ATOM      3  C   UNL     1     139.904 140.236 129.301  1.00  0.00     0.004 C 
ATOM      4  C   UNL     1     140.830 139.315 128.464  1.00  0.00     0.005 C 
ATOM      5  C   UNL     1     140.617 139.540 126.958  1.00  0.00     0.009 C 
ATOM      6  C   UNL     1     139.148 139.319 126.499  1.00  0.00    -0.009 C 
ATOM      7  C   UNL     1     138.172 140.151 127.434  1.00  0.00     0.025 C 
ATOM      8  C   UNL     1     138.374 139.977 128.998  1.00  0.00    -0.022 C 
ATOM      9  C   UNL     1     137.551 141.079 129.744  1.00  0.00     0.010 C 
ATOM     10  C   UNL     1     137.872 141.203 131.244  1.00  0.00     0.033 C 
ATOM     11  C   UNL     1     139.368 141.414 131.534  1.00  0.00     0.120 C 
ATOM     12  C   UNL     1     137.863 138.574 129.459  1.00  0.00     0.012 C 
ATOM     13  C   UNL     1     136.722 140.059 126.958  1.00  0.00    -0.022 C 
ATOM     14  C   UNL     1     136.401 139.909 125.665  1.00  0.00     0.005 C 
ATOM     15  C   UNL     1     137.452 139.636 124.665  1.00  0.00     0.012 C 
ATOM     16  C   UNL     1     137.270 138.926 123.544  1.00  0.00     0.171 C 
ATOM     17  C   UNL     1     138.550 138.503 123.024  1.00  0.00     0.264 C 
ATOM     18  O   UNL     1     138.740 137.812 121.989  1.00  0.00    -0.282 OA
ATOM     19  C   UNL     1     139.567 138.979 123.933  1.00  0.00     0.217 C 
ATOM     20  O   UNL     1     140.804 138.772 123.805  1.00  0.00    -0.289 OA
ATOM     21  C   UNL     1     138.922 139.823 125.004  1.00  0.00     0.069 C 
ATOM     22  C   UNL     1     139.302 141.300 124.711  1.00  0.00     0.026 C 
ATOM     23  C   UNL     1     138.844 137.785 126.557  1.00  0.00     0.013 C 
ATOM     24  C   UNL     1     141.764 140.862 130.969  1.00  0.00     0.014 C 
ENDROOT
BRANCH  11  25
ATOM     25  O   UNL     1     139.742 142.744 131.252  1.00  0.00    -0.393 OA
ATOM     26  H   UNL     1     139.214 143.063 130.478  1.00  0.00     0.210 HD
ENDBRANCH  11  25
BRANCH  16  27
ATOM     27  O   UNL     1     136.044 138.557 122.992  1.00  0.00    -0.504 OA
ATOM     28  H   UNL     1     135.325 139.230 122.766  1.00  0.00     0.293 HD
ENDBRANCH  16  27
TORSDOF 2
ENDMDL
MODEL 9
REMARK VINA RESULT:    -4.980      1.700      6.768
REMARK INTER + INTRA:          -5.271
REMARK INTER:                  -5.271
REMARK INTRA:                   0.000
REMARK UNBOUND:                 0.000
REMARK SMILES CC1(C)[C@H]2CC[C@@]3(C)[C@@H](C=CC4=C(O)C(=O)C(=O)[C@@]43C)[C@]2(C)CC[C@@H]1O
REMARK SMILES IDX 1 1 2 2 4 3 5 4 6 5 7 6 9 7 21 8 23 9 24 10 25 11 22 12
REMARK SMILES IDX 10 13 11 14 12 15 13 16 15 17 16 18 17 19 18 20 19 21 20 22
REMARK SMILES IDX 8 23 3 24 26 25 14 27
REMARK H PARENT 26 26 14 28
REMARK Flexibility Score: inf
ROOT
ATOM      1  C   UNL     1     127.184 123.252 129.100  1.00  0.00     0.014 C 
ATOM      2  C   UNL     1     126.872 124.768 129.184  1.00  0.00    -0.006 C 
ATOM      3  C   UNL     1     127.154 125.529 127.825  1.00  0.00     0.004 C 
ATOM      4  C   UNL     1     128.633 125.507 127.358  1.00  0.00     0.005 C 
ATOM      5  C   UNL     1     128.884 126.562 126.266  1.00  0.00     0.009 C 
ATOM      6  C   UNL     1     127.965 126.397 125.023  1.00  0.00    -0.009 C 
ATOM      7  C   UNL     1     126.453 126.282 125.493  1.00  0.00     0.025 C 
ATOM      8  C   UNL     1     126.151 125.229 126.641  1.00  0.00    -0.022 C 
ATOM      9  C   UNL     1     124.700 125.466 127.179  1.00  0.00     0.010 C 
ATOM     10  C   UNL     1     124.373 124.703 128.475  1.00  0.00     0.033 C 
ATOM     11  C   UNL     1     125.377 124.968 129.611  1.00  0.00     0.120 C 
ATOM     12  C   UNL     1     126.244 123.773 126.082  1.00  0.00     0.012 C 
ATOM     13  C   UNL     1     125.496 126.230 124.303  1.00  0.00    -0.022 C 
ATOM     14  C   UNL     1     125.762 126.845 123.142  1.00  0.00     0.005 C 
ATOM     15  C   UNL     1     127.090 127.444 122.906  1.00  0.00     0.012 C 
ATOM     16  C   UNL     1     127.676 127.550 121.706  1.00  0.00     0.171 C 
ATOM     17  C   UNL     1     129.092 127.783 121.875  1.00  0.00     0.264 C 
ATOM     18  O   UNL     1     129.937 127.921 120.953  1.00  0.00    -0.282 OA
ATOM     19  C   UNL     1     129.366 127.785 123.294  1.00  0.00     0.217 C 
ATOM     20  O   UNL     1     130.506 127.935 123.808  1.00  0.00    -0.289 OA
ATOM     21  C   UNL     1     128.068 127.657 124.051  1.00  0.00     0.069 C 
ATOM     22  C   UNL     1     127.773 129.042 124.688  1.00  0.00     0.026 C 
ATOM     23  C   UNL     1     128.431 125.126 124.237  1.00  0.00     0.013 C 
ATOM     24  C   UNL     1     127.769 125.340 130.318  1.00  0.00     0.014 C 
ENDROOT
BRANCH  11  25
ATOM     25  O   UNL     1     125.144 126.233 130.188  1.00  0.00    -0.393 OA
ATOM     26  H   UNL     1     126.010 126.701 130.286  1.00  0.00     0.210 HD
ENDBRANCH  11  25
BRANCH  16  27
ATOM     27  O   UNL     1     127.058 127.374 120.469  1.00  0.00    -0.504 OA
ATOM     28  H   UNL     1     126.103 127.656 120.294  1.00  0.00     0.293 HD
ENDBRANCH  16  27
TORSDOF 2
ENDMDL
