MODEL 1
REMARK VINA RESULT:    -5.852      0.000      0.000
REMARK INTER + INTRA:          -9.977
REMARK INTER:                  -8.931
REMARK INTRA:                  -1.046
REMARK UNBOUND:                -1.046
REMARK SMILES CC(=O)CCC=C(C)CCC=C(C)CCC=C(C)C
REMARK SMILES IDX 10 1 11 2 12 3 13 4 14 5 15 6 16 7 18 8 17 9 19 10 9 11 7 12
REMARK SMILES IDX 6 13 8 14 5 15 4 16 2 17 3 18 1 19
REMARK H PARENT
REMARK Flexibility Score: inf
ROOT
ATOM      1  C   UNL     1      -8.523  36.131   2.784  1.00  0.00     0.032 C 
ENDROOT
BRANCH   1   2
ATOM      2  C   UNL     1      -9.288  35.539   1.623  1.00  0.00    -0.028 C 
ATOM      3  C   UNL     1      -8.795  35.353   0.377  1.00  0.00    -0.077 C 
ATOM      4  C   UNL     1      -9.716  34.788  -0.674  1.00  0.00     0.039 C 
BRANCH   3   5
ATOM      5  C   UNL     1      -7.349  35.626  -0.001  1.00  0.00     0.034 C 
BRANCH   5   6
ATOM      6  C   UNL     1      -7.131  37.091  -0.408  1.00  0.00     0.032 C 
BRANCH   6   7
ATOM      7  C   UNL     1      -7.789  37.416  -1.726  1.00  0.00    -0.028 C 
ATOM      8  C   UNL     1      -5.679  37.124  -3.044  1.00  0.00     0.039 C 
ATOM      9  C   UNL     1      -7.156  37.413  -2.921  1.00  0.00    -0.080 C 
ATOM     10  C   UNL     1      -7.961  37.711  -4.159  1.00  0.00     0.039 C 
ENDBRANCH   6   7
ENDBRANCH   5   6
ENDBRANCH   3   5
ENDBRANCH   1   2
BRANCH   1  11
ATOM     11  C   UNL     1      -8.321  35.111   3.914  1.00  0.00     0.034 C 
BRANCH  11  12
ATOM     12  C   UNL     1      -6.856  34.924   4.246  1.00  0.00    -0.077 C 
ATOM     13  C   UNL     1      -6.507  34.148   5.297  1.00  0.00    -0.028 C 
ATOM     14  C   UNL     1      -5.812  35.613   3.396  1.00  0.00     0.039 C 
BRANCH  13  15
ATOM     15  C   UNL     1      -5.074  33.913   5.707  1.00  0.00     0.035 C 
BRANCH  15  16
ATOM     16  C   UNL     1      -4.381  32.927   4.760  1.00  0.00     0.079 C 
BRANCH  16  17
ATOM     17  C   UNL     1      -4.714  31.507   5.134  1.00  0.00     0.130 C 
ATOM     18  O   UNL     1      -4.361  31.072   6.219  1.00  0.00    -0.300 OA
ATOM     19  C   UNL     1      -5.461  30.606   4.196  1.00  0.00     0.087 C 
ENDBRANCH  16  17
ENDBRANCH  15  16
ENDBRANCH  13  15
ENDBRANCH  11  12
ENDBRANCH   1  11
TORSDOF 9
ENDMDL
MODEL 2
REMARK VINA RESULT:    -5.827      1.343      3.296
REMARK INTER + INTRA:          -9.938
REMARK INTER:                  -8.090
REMARK INTRA:                  -1.848
REMARK UNBOUND:                -1.046
REMARK SMILES CC(=O)CCC=C(C)CCC=C(C)CCC=C(C)C
REMARK SMILES IDX 10 1 11 2 12 3 13 4 14 5 15 6 16 7 18 8 17 9 19 10 9 11 7 12
REMARK SMILES IDX 6 13 8 14 5 15 4 16 2 17 3 18 1 19
REMARK H PARENT
REMARK Flexibility Score: inf
ROOT
ATOM      1  C   UNL     1      -5.200  36.444   1.124  1.00  0.00     0.032 C 
ENDROOT
BRANCH   1   2
ATOM      2  C   UNL     1      -5.762  37.015  -0.156  1.00  0.00    -0.028 C 
ATOM      3  C   UNL     1      -6.780  36.479  -0.870  1.00  0.00    -0.077 C 
ATOM      4  C   UNL     1      -7.183  37.161  -2.152  1.00  0.00     0.039 C 
BRANCH   3   5
ATOM      5  C   UNL     1      -7.572  35.266  -0.416  1.00  0.00     0.034 C 
BRANCH   5   6
ATOM      6  C   UNL     1      -9.073  35.423  -0.703  1.00  0.00     0.032 C 
BRANCH   6   7
ATOM      7  C   UNL     1      -9.879  35.577   0.564  1.00  0.00    -0.028 C 
ATOM      8  C   UNL     1      -9.827  38.080   0.494  1.00  0.00     0.039 C 
ATOM      9  C   UNL     1     -10.245  36.762   1.102  1.00  0.00    -0.080 C 
ATOM     10  C   UNL     1     -11.093  36.753   2.347  1.00  0.00     0.039 C 
ENDBRANCH   6   7
ENDBRANCH   5   6
ENDBRANCH   3   5
ENDBRANCH   1   2
BRANCH   1  11
ATOM     11  C   UNL     1      -6.017  36.878   2.350  1.00  0.00     0.034 C 
BRANCH  11  12
ATOM     12  C   UNL     1      -6.392  35.697   3.221  1.00  0.00    -0.077 C 
ATOM     13  C   UNL     1      -5.428  34.847   3.637  1.00  0.00    -0.028 C 
ATOM     14  C   UNL     1      -7.840  35.492   3.603  1.00  0.00     0.039 C 
BRANCH  13  15
ATOM     15  C   UNL     1      -5.709  33.639   4.499  1.00  0.00     0.035 C 
BRANCH  15  16
ATOM     16  C   UNL     1      -4.414  33.047   5.063  1.00  0.00     0.079 C 
BRANCH  16  17
ATOM     17  C   UNL     1      -4.523  31.550   5.188  1.00  0.00     0.130 C 
ATOM     18  O   UNL     1      -3.848  30.966   6.022  1.00  0.00    -0.300 OA
ATOM     19  C   UNL     1      -5.434  30.755   4.302  1.00  0.00     0.087 C 
ENDBRANCH  16  17
ENDBRANCH  15  16
ENDBRANCH  13  15
ENDBRANCH  11  12
ENDBRANCH   1  11
TORSDOF 9
ENDMDL
MODEL 3
REMARK VINA RESULT:    -5.717      4.604      8.296
REMARK INTER + INTRA:          -9.771
REMARK INTER:                  -7.690
REMARK INTRA:                  -2.081
REMARK UNBOUND:                -1.046
REMARK SMILES CC(=O)CCC=C(C)CCC=C(C)CCC=C(C)C
REMARK SMILES IDX 10 1 11 2 12 3 13 4 14 5 15 6 16 7 18 8 17 9 19 10 9 11 7 12
REMARK SMILES IDX 6 13 8 14 5 15 4 16 2 17 3 18 1 19
REMARK H PARENT
REMARK Flexibility Score: inf
ROOT
ATOM      1  C   UNL     1      -4.911  37.581  -2.120  1.00  0.00     0.032 C 
ENDROOT
BRANCH   1   2
ATOM      2  C   UNL     1      -4.667  37.438  -0.637  1.00  0.00    -0.028 C 
ATOM      3  C   UNL     1      -5.399  36.672   0.206  1.00  0.00    -0.077 C 
ATOM      4  C   UNL     1      -5.039  36.683   1.669  1.00  0.00     0.039 C 
BRANCH   3   5
ATOM      5  C   UNL     1      -6.523  35.760  -0.255  1.00  0.00     0.034 C 
BRANCH   5   6
ATOM      6  C   UNL     1      -7.714  35.785   0.714  1.00  0.00     0.032 C 
BRANCH   6   7
ATOM      7  C   UNL     1      -8.966  36.317   0.060  1.00  0.00    -0.028 C 
ATOM      8  C   UNL     1      -9.854  34.038  -0.482  1.00  0.00     0.039 C 
ATOM      9  C   UNL     1      -9.946  35.546  -0.461  1.00  0.00    -0.080 C 
ATOM     10  C   UNL     1     -11.162  36.224  -1.037  1.00  0.00     0.039 C 
ENDBRANCH   6   7
ENDBRANCH   5   6
ENDBRANCH   3   5
ENDBRANCH   1   2
BRANCH   1  11
ATOM     11  C   UNL     1      -5.705  38.854  -2.448  1.00  0.00     0.034 C 
BRANCH  11  12
ATOM     12  C   UNL     1      -7.177  38.563  -2.647  1.00  0.00    -0.077 C 
ATOM     13  C   UNL     1      -7.549  37.542  -3.451  1.00  0.00    -0.028 C 
ATOM     14  C   UNL     1      -8.202  39.424  -1.944  1.00  0.00     0.039 C 
BRANCH  13  15
ATOM     15  C   UNL     1      -8.992  37.185  -3.716  1.00  0.00     0.035 C 
BRANCH  15  16
ATOM     16  C   UNL     1      -9.484  37.804  -5.028  1.00  0.00     0.079 C 
BRANCH  16  17
ATOM     17  C   UNL     1     -10.965  37.588  -5.196  1.00  0.00     0.130 C 
ATOM     18  O   UNL     1     -11.449  36.502  -4.915  1.00  0.00    -0.300 OA
ATOM     19  C   UNL     1     -11.860  38.674  -5.714  1.00  0.00     0.087 C 
ENDBRANCH  16  17
ENDBRANCH  15  16
ENDBRANCH  13  15
ENDBRANCH  11  12
ENDBRANCH   1  11
TORSDOF 9
ENDMDL
MODEL 4
REMARK VINA RESULT:    -5.687      1.814      4.744
REMARK INTER + INTRA:          -9.725
REMARK INTER:                  -7.406
REMARK INTRA:                  -2.319
REMARK UNBOUND:                -1.046
REMARK SMILES CC(=O)CCC=C(C)CCC=C(C)CCC=C(C)C
REMARK SMILES IDX 10 1 11 2 12 3 13 4 14 5 15 6 16 7 18 8 17 9 19 10 9 11 7 12
REMARK SMILES IDX 6 13 8 14 5 15 4 16 2 17 3 18 1 19
REMARK H PARENT
REMARK Flexibility Score: inf
ROOT
ATOM      1  C   UNL     1      -6.879  38.014  -2.367  1.00  0.00     0.032 C 
ENDROOT
BRANCH   1   2
ATOM      2  C   UNL     1      -7.672  37.765  -3.627  1.00  0.00    -0.028 C 
ATOM      3  C   UNL     1      -9.022  37.795  -3.720  1.00  0.00    -0.077 C 
ATOM      4  C   UNL     1      -9.650  37.476  -5.053  1.00  0.00     0.039 C 
BRANCH   3   5
ATOM      5  C   UNL     1      -9.931  38.190  -2.569  1.00  0.00     0.034 C 
BRANCH   5   6
ATOM      6  C   UNL     1     -10.755  37.000  -2.056  1.00  0.00     0.032 C 
BRANCH   6   7
ATOM      7  C   UNL     1     -10.726  36.897  -0.550  1.00  0.00    -0.028 C 
ATOM      8  C   UNL     1      -9.724  34.601  -0.558  1.00  0.00     0.039 C 
ATOM      9  C   UNL     1     -10.245  35.837   0.137  1.00  0.00    -0.080 C 
ATOM     10  C   UNL     1     -10.236  35.902   1.642  1.00  0.00     0.039 C 
ENDBRANCH   6   7
ENDBRANCH   5   6
ENDBRANCH   3   5
ENDBRANCH   1   2
BRANCH   1  11
ATOM     11  C   UNL     1      -6.604  36.713  -1.598  1.00  0.00     0.034 C 
BRANCH  11  12
ATOM     12  C   UNL     1      -6.782  36.895  -0.105  1.00  0.00    -0.077 C 
ATOM     13  C   UNL     1      -6.427  35.894   0.731  1.00  0.00    -0.028 C 
ATOM     14  C   UNL     1      -7.356  38.192   0.418  1.00  0.00     0.039 C 
BRANCH  13  15
ATOM     15  C   UNL     1      -6.576  35.983   2.231  1.00  0.00     0.035 C 
BRANCH  15  16
ATOM     16  C   UNL     1      -5.326  35.456   2.944  1.00  0.00     0.079 C 
BRANCH  16  17
ATOM     17  C   UNL     1      -5.704  34.697   4.189  1.00  0.00     0.130 C 
ATOM     18  O   UNL     1      -6.423  35.227   5.021  1.00  0.00    -0.300 OA
ATOM     19  C   UNL     1      -5.204  33.305   4.438  1.00  0.00     0.087 C 
ENDBRANCH  16  17
ENDBRANCH  15  16
ENDBRANCH  13  15
ENDBRANCH  11  12
ENDBRANCH   1  11
TORSDOF 9
ENDMDL
MODEL 5
REMARK VINA RESULT:    -5.664      2.672      7.019
REMARK INTER + INTRA:          -9.690
REMARK INTER:                  -8.440
REMARK INTRA:                  -1.250
REMARK UNBOUND:                -1.046
REMARK SMILES CC(=O)CCC=C(C)CCC=C(C)CCC=C(C)C
REMARK SMILES IDX 10 1 11 2 12 3 13 4 14 5 15 6 16 7 18 8 17 9 19 10 9 11 7 12
REMARK SMILES IDX 6 13 8 14 5 15 4 16 2 17 3 18 1 19
REMARK H PARENT
REMARK Flexibility Score: inf
ROOT
ATOM      1  C   UNL     1      -9.954  36.890   2.543  1.00  0.00     0.032 C 
ENDROOT
BRANCH   1   2
ATOM      2  C   UNL     1     -10.282  36.128   3.804  1.00  0.00    -0.028 C 
ATOM      3  C   UNL     1      -9.436  35.297   4.458  1.00  0.00    -0.077 C 
ATOM      4  C   UNL     1      -9.948  34.582   5.682  1.00  0.00     0.039 C 
BRANCH   3   5
ATOM      5  C   UNL     1      -7.985  35.096   4.057  1.00  0.00     0.034 C 
BRANCH   5   6
ATOM      6  C   UNL     1      -7.227  34.227   5.072  1.00  0.00     0.032 C 
BRANCH   6   7
ATOM      7  C   UNL     1      -5.739  34.481   5.034  1.00  0.00    -0.028 C 
ATOM      8  C   UNL     1      -5.170  32.076   4.624  1.00  0.00     0.039 C 
ATOM      9  C   UNL     1      -4.805  33.530   4.811  1.00  0.00    -0.080 C 
ATOM     10  C   UNL     1      -3.358  33.946   4.753  1.00  0.00     0.039 C 
ENDBRANCH   6   7
ENDBRANCH   5   6
ENDBRANCH   3   5
ENDBRANCH   1   2
BRANCH   1  11
ATOM     11  C   UNL     1     -10.538  36.208   1.296  1.00  0.00     0.034 C 
BRANCH  11  12
ATOM     12  C   UNL     1      -9.459  35.561   0.453  1.00  0.00    -0.077 C 
ATOM     13  C   UNL     1      -8.205  36.065   0.480  1.00  0.00    -0.028 C 
ATOM     14  C   UNL     1      -9.809  34.366  -0.404  1.00  0.00     0.039 C 
BRANCH  13  15
ATOM     15  C   UNL     1      -7.070  35.491  -0.334  1.00  0.00     0.035 C 
BRANCH  15  16
ATOM     16  C   UNL     1      -6.007  36.555  -0.628  1.00  0.00     0.079 C 
BRANCH  16  17
ATOM     17  C   UNL     1      -5.926  36.833  -2.106  1.00  0.00     0.130 C 
ATOM     18  O   UNL     1      -4.936  36.484  -2.730  1.00  0.00    -0.300 OA
ATOM     19  C   UNL     1      -7.032  37.543  -2.830  1.00  0.00     0.087 C 
ENDBRANCH  16  17
ENDBRANCH  15  16
ENDBRANCH  13  15
ENDBRANCH  11  12
ENDBRANCH   1  11
TORSDOF 9
ENDMDL
MODEL 6
REMARK VINA RESULT:    -5.624      4.008      6.951
REMARK INTER + INTRA:          -9.629
REMARK INTER:                  -7.498
REMARK INTRA:                  -2.132
REMARK UNBOUND:                -1.046
REMARK SMILES CC(=O)CCC=C(C)CCC=C(C)CCC=C(C)C
REMARK SMILES IDX 10 1 11 2 12 3 13 4 14 5 15 6 16 7 18 8 17 9 19 10 9 11 7 12
REMARK SMILES IDX 6 13 8 14 5 15 4 16 2 17 3 18 1 19
REMARK H PARENT
REMARK Flexibility Score: inf
ROOT
ATOM      1  C   UNL     1      -8.677  36.834   1.891  1.00  0.00     0.032 C 
ENDROOT
BRANCH   1   2
ATOM      2  C   UNL     1      -7.465  36.349   2.650  1.00  0.00    -0.028 C 
ATOM      3  C   UNL     1      -6.347  35.833   2.090  1.00  0.00    -0.077 C 
ATOM      4  C   UNL     1      -5.249  35.356   3.005  1.00  0.00     0.039 C 
BRANCH   3   5
ATOM      5  C   UNL     1      -6.118  35.765   0.589  1.00  0.00     0.034 C 
BRANCH   5   6
ATOM      6  C   UNL     1      -5.254  36.933   0.089  1.00  0.00     0.032 C 
BRANCH   6   7
ATOM      7  C   UNL     1      -6.061  37.939  -0.694  1.00  0.00    -0.028 C 
ATOM      8  C   UNL     1      -5.472  36.936  -2.912  1.00  0.00     0.039 C 
ATOM      9  C   UNL     1      -6.188  37.940  -2.040  1.00  0.00    -0.080 C 
ATOM     10  C   UNL     1      -7.071  38.981  -2.676  1.00  0.00     0.039 C 
ENDBRANCH   6   7
ENDBRANCH   5   6
ENDBRANCH   3   5
ENDBRANCH   1   2
BRANCH   1  11
ATOM     11  C   UNL     1      -9.612  35.677   1.509  1.00  0.00     0.034 C 
BRANCH  11  12
ATOM     12  C   UNL     1      -9.657  35.462   0.011  1.00  0.00    -0.077 C 
ATOM     13  C   UNL     1      -9.521  36.523  -0.815  1.00  0.00    -0.028 C 
ATOM     14  C   UNL     1      -9.857  34.065  -0.529  1.00  0.00     0.039 C 
BRANCH  13  15
ATOM     15  C   UNL     1      -9.562  36.406  -2.320  1.00  0.00     0.035 C 
BRANCH  15  16
ATOM     16  C   UNL     1     -10.801  37.100  -2.896  1.00  0.00     0.079 C 
BRANCH  16  17
ATOM     17  C   UNL     1     -10.766  37.089  -4.401  1.00  0.00     0.130 C 
ATOM     18  O   UNL     1     -11.677  36.560  -5.020  1.00  0.00    -0.300 OA
ATOM     19  C   UNL     1      -9.628  37.702  -5.162  1.00  0.00     0.087 C 
ENDBRANCH  16  17
ENDBRANCH  15  16
ENDBRANCH  13  15
ENDBRANCH  11  12
ENDBRANCH   1  11
TORSDOF 9
ENDMDL
MODEL 7
REMARK VINA RESULT:    -5.545      4.687      8.608
REMARK INTER + INTRA:          -9.508
REMARK INTER:                  -7.452
REMARK INTRA:                  -2.057
REMARK UNBOUND:                -1.046
REMARK SMILES CC(=O)CCC=C(C)CCC=C(C)CCC=C(C)C
REMARK SMILES IDX 10 1 11 2 12 3 13 4 14 5 15 6 16 7 18 8 17 9 19 10 9 11 7 12
REMARK SMILES IDX 6 13 8 14 5 15 4 16 2 17 3 18 1 19
REMARK H PARENT
REMARK Flexibility Score: inf
ROOT
ATOM      1  C   UNL     1      -8.413  38.595  -0.820  1.00  0.00     0.032 C 
ENDROOT
BRANCH   1   2
ATOM      2  C   UNL     1      -7.390  37.565  -0.404  1.00  0.00    -0.028 C 
ATOM      3  C   UNL     1      -7.584  36.226  -0.410  1.00  0.00    -0.077 C 
ATOM      4  C   UNL     1      -6.464  35.345   0.082  1.00  0.00     0.039 C 
BRANCH   3   5
ATOM      5  C   UNL     1      -8.844  35.564  -0.941  1.00  0.00     0.034 C 
BRANCH   5   6
ATOM      6  C   UNL     1      -9.704  34.981   0.191  1.00  0.00     0.032 C 
BRANCH   6   7
ATOM      7  C   UNL     1     -10.617  36.017   0.800  1.00  0.00    -0.028 C 
ATOM      8  C   UNL     1      -9.324  36.142   2.941  1.00  0.00     0.039 C 
ATOM      9  C   UNL     1     -10.448  36.565   2.024  1.00  0.00    -0.080 C 
ATOM     10  C   UNL     1     -11.417  37.626   2.475  1.00  0.00     0.039 C 
ENDBRANCH   6   7
ENDBRANCH   5   6
ENDBRANCH   3   5
ENDBRANCH   1   2
BRANCH   1  11
ATOM     11  C   UNL     1      -8.123  39.155  -2.220  1.00  0.00     0.034 C 
BRANCH  11  12
ATOM     12  C   UNL     1      -8.576  38.205  -3.310  1.00  0.00    -0.077 C 
ATOM     13  C   UNL     1      -9.894  37.942  -3.455  1.00  0.00    -0.028 C 
ATOM     14  C   UNL     1      -7.542  37.567  -4.210  1.00  0.00     0.039 C 
BRANCH  13  15
ATOM     15  C   UNL     1     -10.435  37.003  -4.505  1.00  0.00     0.035 C 
BRANCH  15  16
ATOM     16  C   UNL     1     -11.740  37.536  -5.106  1.00  0.00     0.079 C 
BRANCH  16  17
ATOM     17  C   UNL     1     -12.916  37.161  -4.241  1.00  0.00     0.130 C 
ATOM     18  O   UNL     1     -13.346  36.018  -4.275  1.00  0.00    -0.300 OA
ATOM     19  C   UNL     1     -13.581  38.165  -3.348  1.00  0.00     0.087 C 
ENDBRANCH  16  17
ENDBRANCH  15  16
ENDBRANCH  13  15
ENDBRANCH  11  12
ENDBRANCH   1  11
TORSDOF 9
ENDMDL
MODEL 8
REMARK VINA RESULT:    -5.531      5.085      8.438
REMARK INTER + INTRA:          -9.487
REMARK INTER:                  -6.982
REMARK INTRA:                  -2.505
REMARK UNBOUND:                -1.046
REMARK SMILES CC(=O)CCC=C(C)CCC=C(C)CCC=C(C)C
REMARK SMILES IDX 10 1 11 2 12 3 13 4 14 5 15 6 16 7 18 8 17 9 19 10 9 11 7 12
REMARK SMILES IDX 6 13 8 14 5 15 4 16 2 17 3 18 1 19
REMARK H PARENT
REMARK Flexibility Score: inf
ROOT
ATOM      1  C   UNL     1      -7.387  37.288  -0.641  1.00  0.00     0.032 C 
ENDROOT
BRANCH   1   2
ATOM      2  C   UNL     1      -8.118  35.987  -0.874  1.00  0.00    -0.028 C 
ATOM      3  C   UNL     1      -8.963  35.398   0.004  1.00  0.00    -0.077 C 
ATOM      4  C   UNL     1      -9.571  34.073  -0.378  1.00  0.00     0.039 C 
BRANCH   3   5
ATOM      5  C   UNL     1      -9.374  36.029   1.323  1.00  0.00     0.034 C 
BRANCH   5   6
ATOM      6  C   UNL     1     -10.857  36.430   1.327  1.00  0.00     0.032 C 
BRANCH   6   7
ATOM      7  C   UNL     1     -11.087  37.757   0.646  1.00  0.00    -0.028 C 
ATOM      8  C   UNL     1     -12.047  36.721  -1.422  1.00  0.00     0.039 C 
ATOM      9  C   UNL     1     -11.641  37.906  -0.578  1.00  0.00    -0.080 C 
ATOM     10  C   UNL     1     -11.852  39.301  -1.104  1.00  0.00     0.039 C 
ENDBRANCH   6   7
ENDBRANCH   5   6
ENDBRANCH   3   5
ENDBRANCH   1   2
BRANCH   1  11
ATOM     11  C   UNL     1      -7.925  38.413  -1.539  1.00  0.00     0.034 C 
BRANCH  11  12
ATOM     12  C   UNL     1      -8.136  37.943  -2.963  1.00  0.00    -0.077 C 
ATOM     13  C   UNL     1      -9.392  37.864  -3.455  1.00  0.00    -0.028 C 
ATOM     14  C   UNL     1      -6.937  37.569  -3.803  1.00  0.00     0.039 C 
BRANCH  13  15
ATOM     15  C   UNL     1      -9.699  37.397  -4.858  1.00  0.00     0.035 C 
BRANCH  15  16
ATOM     16  C   UNL     1     -10.853  38.201  -5.468  1.00  0.00     0.079 C 
BRANCH  16  17
ATOM     17  C   UNL     1     -12.179  37.697  -4.962  1.00  0.00     0.130 C 
ATOM     18  O   UNL     1     -12.358  36.495  -4.839  1.00  0.00    -0.300 OA
ATOM     19  C   UNL     1     -13.294  38.639  -4.617  1.00  0.00     0.087 C 
ENDBRANCH  16  17
ENDBRANCH  15  16
ENDBRANCH  13  15
ENDBRANCH  11  12
ENDBRANCH   1  11
TORSDOF 9
ENDMDL
MODEL 9
REMARK VINA RESULT:    -5.530      4.908      7.722
REMARK INTER + INTRA:          -9.486
REMARK INTER:                  -6.358
REMARK INTRA:                  -3.128
REMARK UNBOUND:                -1.046
REMARK SMILES CC(=O)CCC=C(C)CCC=C(C)CCC=C(C)C
REMARK SMILES IDX 10 1 11 2 12 3 13 4 14 5 15 6 16 7 18 8 17 9 19 10 9 11 7 12
REMARK SMILES IDX 6 13 8 14 5 15 4 16 2 17 3 18 1 19
REMARK H PARENT
REMARK Flexibility Score: inf
ROOT
ATOM      1  C   UNL     1     -10.390  35.758   0.528  1.00  0.00     0.032 C 
ENDROOT
BRANCH   1   2
ATOM      2  C   UNL     1      -8.899  35.606   0.708  1.00  0.00    -0.028 C 
ATOM      3  C   UNL     1      -7.970  35.829  -0.250  1.00  0.00    -0.077 C 
ATOM      4  C   UNL     1      -6.523  35.585   0.093  1.00  0.00     0.039 C 
BRANCH   3   5
ATOM      5  C   UNL     1      -8.304  36.369  -1.631  1.00  0.00     0.034 C 
BRANCH   5   6
ATOM      6  C   UNL     1      -7.529  37.658  -1.943  1.00  0.00     0.032 C 
BRANCH   6   7
ATOM      7  C   UNL     1      -8.432  38.867  -1.977  1.00  0.00    -0.028 C 
ATOM      8  C   UNL     1      -8.024  39.447   0.426  1.00  0.00     0.039 C 
ATOM      9  C   UNL     1      -8.646  39.693  -0.929  1.00  0.00    -0.080 C 
ATOM     10  C   UNL     1      -9.537  40.891  -1.130  1.00  0.00     0.039 C 
ENDBRANCH   6   7
ENDBRANCH   5   6
ENDBRANCH   3   5
ENDBRANCH   1   2
BRANCH   1  11
ATOM     11  C   UNL     1     -10.880  37.148   0.960  1.00  0.00     0.034 C 
BRANCH  11  12
ATOM     12  C   UNL     1     -11.715  37.809  -0.116  1.00  0.00    -0.077 C 
ATOM     13  C   UNL     1     -11.804  37.232  -1.335  1.00  0.00    -0.028 C 
ATOM     14  C   UNL     1     -12.431  39.104   0.195  1.00  0.00     0.039 C 
BRANCH  13  15
ATOM     15  C   UNL     1     -12.605  37.823  -2.470  1.00  0.00     0.035 C 
BRANCH  15  16
ATOM     16  C   UNL     1     -11.691  38.484  -3.507  1.00  0.00     0.079 C 
BRANCH  16  17
ATOM     17  C   UNL     1     -11.212  37.473  -4.516  1.00  0.00     0.130 C 
ATOM     18  O   UNL     1     -11.937  36.537  -4.819  1.00  0.00    -0.300 OA
ATOM     19  C   UNL     1      -9.857  37.580  -5.149  1.00  0.00     0.087 C 
ENDBRANCH  16  17
ENDBRANCH  15  16
ENDBRANCH  13  15
ENDBRANCH  11  12
ENDBRANCH   1  11
TORSDOF 9
ENDMDL
