MODEL 1
REMARK VINA RESULT:    -1.601      0.000      0.000
REMARK INTER + INTRA:          -1.853
REMARK INTER:                  -1.741
REMARK INTRA:                  -0.111
REMARK UNBOUND:                -0.111
REMARK SMILES C=C(C)[C@@H]1CC[C@H](C)C[C@@H]1O
REMARK SMILES IDX 8 1 7 2 6 3 5 4 4 5 10 6 9 7 11 8 2 10 1 11 3 12
REMARK H PARENT 11 9
REMARK Flexibility Score: inf
ROOT
ATOM      1  C   UNL     1     -39.955  21.176   8.760  1.00  0.00     0.008 C 
ATOM      2  C   UNL     1     -40.332  22.621   9.125  1.00  0.00    -0.012 C 
ATOM      3  C   UNL     1     -39.304  23.642   8.596  1.00  0.00     0.004 C 
ATOM      4  C   UNL     1     -39.478  23.937   7.100  1.00  0.00     0.011 C 
ATOM      5  C   UNL     1     -40.905  24.440   6.806  1.00  0.00     0.043 C 
ATOM      6  C   UNL     1     -41.990  23.432   7.269  1.00  0.00     0.121 C 
ATOM      7  C   UNL     1     -41.786  22.997   8.738  1.00  0.00     0.035 C 
ENDROOT
BRANCH   6   8
ATOM      8  O   UNL     1     -42.125  22.324   6.416  1.00  0.00    -0.392 OA
ATOM      9  H   UNL     1     -41.570  21.589   6.770  1.00  0.00     0.210 HD
ENDBRANCH   6   8
BRANCH   5  10
ATOM     10  C   UNL     1     -41.090  24.865   5.352  1.00  0.00    -0.075 C 
ATOM     11  C   UNL     1     -40.392  24.298   4.352  1.00  0.00     0.008 C 
ATOM     12  C   UNL     1     -42.074  25.953   5.008  1.00  0.00     0.039 C 
ENDBRANCH   5  10
TORSDOF 2
ENDMDL
MODEL 2
REMARK VINA RESULT:    -1.400      0.352      1.093
REMARK INTER + INTRA:          -1.634
REMARK INTER:                  -1.664
REMARK INTRA:                   0.029
REMARK UNBOUND:                -0.111
REMARK SMILES C=C(C)[C@@H]1CC[C@H](C)C[C@@H]1O
REMARK SMILES IDX 8 1 7 2 6 3 5 4 4 5 10 6 9 7 11 8 2 10 1 11 3 12
REMARK H PARENT 11 9
REMARK Flexibility Score: inf
ROOT
ATOM      1  C   UNL     1     -39.838  21.067   8.485  1.00  0.00     0.008 C 
ATOM      2  C   UNL     1     -40.418  22.371   9.055  1.00  0.00    -0.012 C 
ATOM      3  C   UNL     1     -39.524  23.590   8.746  1.00  0.00     0.004 C 
ATOM      4  C   UNL     1     -39.695  24.101   7.308  1.00  0.00     0.011 C 
ATOM      5  C   UNL     1     -41.168  24.456   7.028  1.00  0.00     0.043 C 
ATOM      6  C   UNL     1     -42.118  23.254   7.271  1.00  0.00     0.121 C 
ATOM      7  C   UNL     1     -41.898  22.614   8.661  1.00  0.00     0.035 C 
ENDROOT
BRANCH   6   8
ATOM      8  O   UNL     1     -42.078  22.292   6.247  1.00  0.00    -0.392 OA
ATOM      9  H   UNL     1     -42.930  21.794   6.255  1.00  0.00     0.210 HD
ENDBRANCH   6   8
BRANCH   5  10
ATOM     10  C   UNL     1     -41.368  25.085   5.652  1.00  0.00    -0.075 C 
ATOM     11  C   UNL     1     -42.125  26.183   5.476  1.00  0.00     0.008 C 
ATOM     12  C   UNL     1     -40.712  24.469   4.443  1.00  0.00     0.039 C 
ENDBRANCH   5  10
TORSDOF 2
ENDMDL
MODEL 3
REMARK VINA RESULT:    -1.388      1.540      2.218
REMARK INTER + INTRA:          -1.621
REMARK INTER:                  -1.539
REMARK INTRA:                  -0.082
REMARK UNBOUND:                -0.111
REMARK SMILES C=C(C)[C@@H]1CC[C@H](C)C[C@@H]1O
REMARK SMILES IDX 8 1 7 2 6 3 5 4 4 5 10 6 9 7 11 8 2 10 1 11 3 12
REMARK H PARENT 11 9
REMARK Flexibility Score: inf
ROOT
ATOM      1  C   UNL     1     -39.680  21.934   8.720  1.00  0.00     0.008 C 
ATOM      2  C   UNL     1     -41.093  21.807   8.127  1.00  0.00    -0.012 C 
ATOM      3  C   UNL     1     -42.081  22.814   8.754  1.00  0.00     0.004 C 
ATOM      4  C   UNL     1     -41.929  24.229   8.180  1.00  0.00     0.011 C 
ATOM      5  C   UNL     1     -42.105  24.217   6.649  1.00  0.00     0.043 C 
ATOM      6  C   UNL     1     -41.103  23.260   5.950  1.00  0.00     0.121 C 
ATOM      7  C   UNL     1     -41.119  21.847   6.577  1.00  0.00     0.035 C 
ENDROOT
BRANCH   6   8
ATOM      8  O   UNL     1     -39.798  23.776   5.870  1.00  0.00    -0.392 OA
ATOM      9  H   UNL     1     -39.715  24.280   5.026  1.00  0.00     0.210 HD
ENDBRANCH   6   8
BRANCH   5  10
ATOM     10  C   UNL     1     -42.086  25.619   6.045  1.00  0.00    -0.075 C 
ATOM     11  C   UNL     1     -42.125  26.723   6.811  1.00  0.00     0.008 C 
ATOM     12  C   UNL     1     -42.028  25.790   4.548  1.00  0.00     0.039 C 
ENDBRANCH   5  10
TORSDOF 2
ENDMDL
MODEL 4
REMARK VINA RESULT:    -1.133      1.794      4.040
REMARK INTER + INTRA:          -1.344
REMARK INTER:                  -1.173
REMARK INTRA:                  -0.171
REMARK UNBOUND:                -0.111
REMARK SMILES C=C(C)[C@@H]1CC[C@H](C)C[C@@H]1O
REMARK SMILES IDX 8 1 7 2 6 3 5 4 4 5 10 6 9 7 11 8 2 10 1 11 3 12
REMARK H PARENT 11 9
REMARK Flexibility Score: inf
ROOT
ATOM      1  C   UNL     1     -42.094  25.850   5.008  1.00  0.00     0.008 C 
ATOM      2  C   UNL     1     -41.976  24.355   5.350  1.00  0.00    -0.012 C 
ATOM      3  C   UNL     1     -40.705  23.719   4.750  1.00  0.00     0.004 C 
ATOM      4  C   UNL     1     -39.442  24.041   5.561  1.00  0.00     0.011 C 
ATOM      5  C   UNL     1     -39.605  23.589   7.025  1.00  0.00     0.043 C 
ATOM      6  C   UNL     1     -40.841  24.235   7.705  1.00  0.00     0.121 C 
ATOM      7  C   UNL     1     -42.125  24.054   6.864  1.00  0.00     0.035 C 
ENDROOT
BRANCH   6   8
ATOM      8  O   UNL     1     -40.643  25.579   8.065  1.00  0.00    -0.392 OA
ATOM      9  H   UNL     1     -39.754  25.859   7.742  1.00  0.00     0.210 HD
ENDBRANCH   6   8
BRANCH   5  10
ATOM     10  C   UNL     1     -38.329  23.774   7.842  1.00  0.00    -0.075 C 
ATOM     11  C   UNL     1     -37.351  24.611   7.453  1.00  0.00     0.008 C 
ATOM     12  C   UNL     1     -38.140  23.001   9.123  1.00  0.00     0.039 C 
ENDBRANCH   5  10
TORSDOF 2
ENDMDL
MODEL 5
REMARK VINA RESULT:    -1.020      1.550      4.305
REMARK INTER + INTRA:          -1.221
REMARK INTER:                  -1.908
REMARK INTRA:                   0.687
REMARK UNBOUND:                -0.111
REMARK SMILES C=C(C)[C@@H]1CC[C@H](C)C[C@@H]1O
REMARK SMILES IDX 8 1 7 2 6 3 5 4 4 5 10 6 9 7 11 8 2 10 1 11 3 12
REMARK H PARENT 11 9
REMARK Flexibility Score: inf
ROOT
ATOM      1  C   UNL     1     -39.905  24.193   4.174  1.00  0.00     0.008 C 
ATOM      2  C   UNL     1     -41.153  24.527   5.008  1.00  0.00    -0.012 C 
ATOM      3  C   UNL     1     -42.125  23.332   5.103  1.00  0.00     0.004 C 
ATOM      4  C   UNL     1     -41.676  22.283   6.130  1.00  0.00     0.011 C 
ATOM      5  C   UNL     1     -41.504  22.923   7.522  1.00  0.00     0.043 C 
ATOM      6  C   UNL     1     -40.496  24.102   7.506  1.00  0.00     0.121 C 
ATOM      7  C   UNL     1     -40.825  25.129   6.398  1.00  0.00     0.035 C 
ENDROOT
BRANCH   6   8
ATOM      8  O   UNL     1     -39.153  23.691   7.447  1.00  0.00    -0.392 OA
ATOM      9  H   UNL     1     -38.714  24.169   6.704  1.00  0.00     0.210 HD
ENDBRANCH   6   8
BRANCH   5  10
ATOM     10  C   UNL     1     -41.179  21.896   8.603  1.00  0.00    -0.075 C 
ATOM     11  C   UNL     1     -42.119  21.084   9.118  1.00  0.00     0.008 C 
ATOM     12  C   UNL     1     -39.769  21.777   9.125  1.00  0.00     0.039 C 
ENDBRANCH   5  10
TORSDOF 2
ENDMDL
MODEL 6
REMARK VINA RESULT:    -0.773      1.794      3.818
REMARK INTER + INTRA:          -0.953
REMARK INTER:                  -0.921
REMARK INTRA:                  -0.032
REMARK UNBOUND:                -0.111
REMARK SMILES C=C(C)[C@@H]1CC[C@H](C)C[C@@H]1O
REMARK SMILES IDX 8 1 7 2 6 3 5 4 4 5 10 6 9 7 11 8 2 10 1 11 3 12
REMARK H PARENT 11 9
REMARK Flexibility Score: inf
ROOT
ATOM      1  C   UNL     1     -42.045  22.257   5.026  1.00  0.00     0.008 C 
ATOM      2  C   UNL     1     -42.125  23.537   5.874  1.00  0.00    -0.012 C 
ATOM      3  C   UNL     1     -42.046  23.239   7.386  1.00  0.00     0.004 C 
ATOM      4  C   UNL     1     -40.612  22.970   7.863  1.00  0.00     0.011 C 
ATOM      5  C   UNL     1     -39.693  24.158   7.521  1.00  0.00     0.043 C 
ATOM      6  C   UNL     1     -39.687  24.479   6.003  1.00  0.00     0.121 C 
ATOM      7  C   UNL     1     -41.117  24.631   5.438  1.00  0.00     0.035 C 
ENDROOT
BRANCH   6   8
ATOM      8  O   UNL     1     -38.924  23.575   5.243  1.00  0.00    -0.392 OA
ATOM      9  H   UNL     1     -38.934  23.873   4.303  1.00  0.00     0.210 HD
ENDBRANCH   6   8
BRANCH   5  10
ATOM     10  C   UNL     1     -38.285  23.992   8.085  1.00  0.00    -0.075 C 
ATOM     11  C   UNL     1     -37.998  23.071   9.022  1.00  0.00     0.008 C 
ATOM     12  C   UNL     1     -37.170  24.881   7.595  1.00  0.00     0.039 C 
ENDBRANCH   5  10
TORSDOF 2
ENDMDL
MODEL 7
REMARK VINA RESULT:     0.437      1.646      3.001
REMARK INTER + INTRA:           0.364
REMARK INTER:                  -0.238
REMARK INTRA:                   0.602
REMARK UNBOUND:                -0.111
REMARK SMILES C=C(C)[C@@H]1CC[C@H](C)C[C@@H]1O
REMARK SMILES IDX 8 1 7 2 6 3 5 4 4 5 10 6 9 7 11 8 2 10 1 11 3 12
REMARK H PARENT 11 9
REMARK Flexibility Score: inf
ROOT
ATOM      1  C   UNL     1     -42.125  21.594   7.364  1.00  0.00     0.008 C 
ATOM      2  C   UNL     1     -41.938  22.960   8.044  1.00  0.00    -0.012 C 
ATOM      3  C   UNL     1     -40.818  22.933   9.105  1.00  0.00     0.004 C 
ATOM      4  C   UNL     1     -39.415  23.010   8.487  1.00  0.00     0.011 C 
ATOM      5  C   UNL     1     -39.272  24.273   7.615  1.00  0.00     0.043 C 
ATOM      6  C   UNL     1     -40.341  24.335   6.493  1.00  0.00     0.121 C 
ATOM      7  C   UNL     1     -41.771  24.132   7.043  1.00  0.00     0.035 C 
ENDROOT
BRANCH   6   8
ATOM      8  O   UNL     1     -40.074  23.472   5.416  1.00  0.00    -0.392 OA
ATOM      9  H   UNL     1     -39.946  22.561   5.773  1.00  0.00     0.210 HD
ENDBRANCH   6   8
BRANCH   5  10
ATOM     10  C   UNL     1     -37.855  24.458   7.079  1.00  0.00    -0.075 C 
ATOM     11  C   UNL     1     -36.945  25.212   7.721  1.00  0.00     0.008 C 
ATOM     12  C   UNL     1     -37.447  23.790   5.791  1.00  0.00     0.039 C 
ENDBRANCH   5  10
TORSDOF 2
ENDMDL
MODEL 8
REMARK VINA RESULT:     1.173      2.087      3.735
REMARK INTER + INTRA:           1.164
REMARK INTER:                   1.338
REMARK INTRA:                  -0.174
REMARK UNBOUND:                -0.111
REMARK SMILES C=C(C)[C@@H]1CC[C@H](C)C[C@@H]1O
REMARK SMILES IDX 8 1 7 2 6 3 5 4 4 5 10 6 9 7 11 8 2 10 1 11 3 12
REMARK H PARENT 11 9
REMARK Flexibility Score: inf
ROOT
ATOM      1  C   UNL     1     -37.241  24.143   6.826  1.00  0.00     0.008 C 
ATOM      2  C   UNL     1     -38.237  24.664   7.874  1.00  0.00    -0.012 C 
ATOM      3  C   UNL     1     -39.601  25.028   7.251  1.00  0.00     0.004 C 
ATOM      4  C   UNL     1     -40.476  23.797   6.980  1.00  0.00     0.011 C 
ATOM      5  C   UNL     1     -40.698  22.991   8.275  1.00  0.00     0.043 C 
ATOM      6  C   UNL     1     -39.362  22.548   8.927  1.00  0.00     0.121 C 
ATOM      7  C   UNL     1     -38.385  23.733   9.105  1.00  0.00     0.035 C 
ENDROOT
BRANCH   6   8
ATOM      8  O   UNL     1     -38.750  21.467   8.271  1.00  0.00    -0.392 OA
ATOM      9  H   UNL     1     -38.096  21.059   8.887  1.00  0.00     0.210 HD
ENDBRANCH   6   8
BRANCH   5  10
ATOM     10  C   UNL     1     -41.664  21.826   8.082  1.00  0.00    -0.075 C 
ATOM     11  C   UNL     1     -42.123  21.104   9.120  1.00  0.00     0.008 C 
ATOM     12  C   UNL     1     -42.125  21.454   6.695  1.00  0.00     0.039 C 
ENDBRANCH   5  10
TORSDOF 2
ENDMDL
