MODEL 1
REMARK VINA RESULT:    -4.300      0.000      0.000
REMARK INTER + INTRA:          -6.362
REMARK INTER:                  -6.563
REMARK INTRA:                   0.201
REMARK UNBOUND:                 0.201
REMARK SMILES CC1=CCC[C@@H](C)C(=O)C[C@@H](C(C)C)C(=O)C1
REMARK SMILES IDX 8 1 9 2 6 3 7 4 5 5 4 6 3 7 2 8 1 9 10 11 11 12 15 13 16 14
REMARK SMILES IDX 17 15 12 17 13 18 14 19
REMARK H PARENT
REMARK Flexibility Score: 70.00
ROOT
ATOM      1  C   UNL     1      81.929   4.676  30.328  1.00  0.00     0.136 C 
ATOM      2  O   UNL     1      82.251   4.901  31.485  1.00  0.00    -0.299 OA
ENDROOT
BRANCH   1   3
ATOM      3  C   UNL     1      81.259   3.359  29.967  1.00  0.00     0.053 C 
ATOM      4  C   UNL     1      80.275   2.959  31.075  1.00  0.00     0.016 C 
BRANCH   3   5
ATOM      5  C   UNL     1      82.263   2.203  29.737  1.00  0.00     0.015 C 
BRANCH   5   6
ATOM      6  C   UNL     1      83.052   2.280  28.421  1.00  0.00     0.028 C 
BRANCH   6   7
ATOM      7  C   UNL     1      84.512   2.601  28.642  1.00  0.00    -0.028 C 
ATOM      8  C   UNL     1      85.234   3.542  27.989  1.00  0.00    -0.070 CG0
ATOM      9  C   UNL     1      86.669   3.740  28.413  1.00  0.00     0.039 C 
ATOM     10  G   UNL     1      84.687   4.416  26.870  1.00  0.00     0.000 G0
ENDBRANCH   6   7
ENDBRANCH   5   6
ENDBRANCH   3   5
ENDBRANCH   1   3
BRANCH   1  11
ATOM     11  C   UNL     1      82.057   5.777  29.298  1.00  0.00     0.087 C 
BRANCH  11  12
ATOM     12  C   UNL     1      82.361   5.331  27.841  1.00  0.00     0.066 C 
BRANCH  12  13
ATOM     13  C   UNL     1      83.808   5.542  27.408  1.00  0.00     0.140 C 
ATOM     14  O   UNL     1      84.293   6.657  27.540  1.00  0.00    -0.299 OA
BRANCH  13  15
ATOM     15  C   UNL     1      84.678   4.426  26.873  1.00  0.00     0.106 CG0
ATOM     16  G   UNL     1      85.241   3.552  27.983  1.00  0.00     0.000 G0
ENDBRANCH  13  15
ENDBRANCH  12  13
BRANCH  12  17
ATOM     17  C   UNL     1      81.268   5.720  26.791  1.00  0.00    -0.006 C 
ATOM     18  C   UNL     1      80.681   7.132  26.925  1.00  0.00     0.008 C 
ATOM     19  C   UNL     1      81.763   5.492  25.353  1.00  0.00     0.008 C 
ENDBRANCH  12  17
ENDBRANCH  11  12
ENDBRANCH   1  11
TORSDOF 1
ENDMDL
MODEL 2
REMARK VINA RESULT:    -3.712      1.726      3.772
REMARK INTER + INTRA:          -5.464
REMARK INTER:                  -5.852
REMARK INTRA:                   0.388
REMARK UNBOUND:                 0.201
REMARK SMILES CC1=CCC[C@@H](C)C(=O)C[C@@H](C(C)C)C(=O)C1
REMARK SMILES IDX 8 1 9 2 6 3 7 4 5 5 4 6 3 7 2 8 1 9 10 11 11 12 15 13 16 14
REMARK SMILES IDX 17 15 12 17 13 18 14 19
REMARK H PARENT
REMARK Flexibility Score: 70.00
ROOT
ATOM      1  C   UNL     1      84.415   4.480  27.217  1.00  0.00     0.136 C 
ATOM      2  O   UNL     1      84.530   4.161  26.043  1.00  0.00    -0.299 OA
ENDROOT
BRANCH   1   3
ATOM      3  C   UNL     1      84.845   3.517  28.313  1.00  0.00     0.053 C 
ATOM      4  C   UNL     1      86.376   3.385  28.313  1.00  0.00     0.016 C 
BRANCH   3   5
ATOM      5  C   UNL     1      84.215   2.110  28.176  1.00  0.00     0.015 C 
BRANCH   5   6
ATOM      6  C   UNL     1      82.686   2.068  28.317  1.00  0.00     0.028 C 
BRANCH   6   7
ATOM      7  C   UNL     1      82.233   2.249  29.747  1.00  0.00    -0.028 C 
ATOM      8  C   UNL     1      81.489   3.273  30.229  1.00  0.00    -0.070 CG0
ATOM      9  C   UNL     1      81.093   3.224  31.684  1.00  0.00     0.039 C 
ATOM     10  G   UNL     1      81.020   4.456  29.395  1.00  0.00     0.000 G0
ENDBRANCH   6   7
ENDBRANCH   5   6
ENDBRANCH   3   5
ENDBRANCH   1   3
BRANCH   1  11
ATOM     11  C   UNL     1      83.995   5.893  27.561  1.00  0.00     0.087 C 
BRANCH  11  12
ATOM     12  C   UNL     1      82.493   6.108  27.894  1.00  0.00     0.066 C 
BRANCH  12  13
ATOM     13  C   UNL     1      82.060   5.543  29.243  1.00  0.00     0.140 C 
ATOM     14  O   UNL     1      82.556   6.022  30.254  1.00  0.00    -0.299 OA
BRANCH  13  15
ATOM     15  C   UNL     1      81.015   4.459  29.385  1.00  0.00     0.106 CG0
ATOM     16  G   UNL     1      81.502   3.295  30.234  1.00  0.00     0.000 G0
ENDBRANCH  13  15
ENDBRANCH  12  13
BRANCH  12  17
ATOM     17  C   UNL     1      81.511   5.858  26.701  1.00  0.00    -0.006 C 
ATOM     18  C   UNL     1      80.237   6.716  26.690  1.00  0.00     0.008 C 
ATOM     19  C   UNL     1      82.231   5.969  25.347  1.00  0.00     0.008 C 
ENDBRANCH  12  17
ENDBRANCH  11  12
ENDBRANCH   1  11
TORSDOF 1
ENDMDL
MODEL 3
REMARK VINA RESULT:    -3.680      2.034      4.333
REMARK INTER + INTRA:          -5.415
REMARK INTER:                  -6.288
REMARK INTRA:                   0.873
REMARK UNBOUND:                 0.201
REMARK SMILES CC1=CCC[C@@H](C)C(=O)C[C@@H](C(C)C)C(=O)C1
REMARK SMILES IDX 8 1 9 2 6 3 7 4 5 5 4 6 3 7 2 8 1 9 10 11 11 12 15 13 16 14
REMARK SMILES IDX 17 15 12 17 13 18 14 19
REMARK H PARENT
REMARK Flexibility Score: 70.00
ROOT
ATOM      1  C   UNL     1      81.529   5.641  26.306  1.00  0.00     0.136 C 
ATOM      2  O   UNL     1      81.941   6.351  25.401  1.00  0.00    -0.299 OA
ENDROOT
BRANCH   1   3
ATOM      3  C   UNL     1      80.859   6.267  27.519  1.00  0.00     0.053 C 
ATOM      4  C   UNL     1      79.973   7.440  27.073  1.00  0.00     0.016 C 
BRANCH   3   5
ATOM      5  C   UNL     1      81.865   6.768  28.584  1.00  0.00     0.015 C 
BRANCH   5   6
ATOM      6  C   UNL     1      82.712   5.670  29.244  1.00  0.00     0.028 C 
BRANCH   6   7
ATOM      7  C   UNL     1      81.867   4.634  29.948  1.00  0.00    -0.028 C 
ATOM      8  C   UNL     1      82.041   3.291  29.901  1.00  0.00    -0.070 CG0
ATOM      9  C   UNL     1      81.116   2.438  30.735  1.00  0.00     0.039 C 
ATOM     10  G   UNL     1      83.112   2.595  29.075  1.00  0.00     0.000 G0
ENDBRANCH   6   7
ENDBRANCH   5   6
ENDBRANCH   3   5
ENDBRANCH   1   3
BRANCH   1  11
ATOM     11  C   UNL     1      81.544   4.138  26.132  1.00  0.00     0.087 C 
BRANCH  11  12
ATOM     12  C   UNL     1      82.854   3.407  26.539  1.00  0.00     0.066 C 
BRANCH  12  13
ATOM     13  C   UNL     1      82.677   2.364  27.638  1.00  0.00     0.140 C 
ATOM     14  O   UNL     1      82.202   1.279  27.332  1.00  0.00    -0.299 OA
BRANCH  13  15
ATOM     15  C   UNL     1      83.109   2.596  29.069  1.00  0.00     0.106 CG0
ATOM     16  G   UNL     1      82.028   3.279  29.894  1.00  0.00     0.000 G0
ENDBRANCH  13  15
ENDBRANCH  12  13
BRANCH  12  17
ATOM     17  C   UNL     1      84.111   4.329  26.666  1.00  0.00    -0.006 C 
ATOM     18  C   UNL     1      85.294   3.746  27.452  1.00  0.00     0.008 C 
ATOM     19  C   UNL     1      84.588   4.825  25.291  1.00  0.00     0.008 C 
ENDBRANCH  12  17
ENDBRANCH  11  12
ENDBRANCH   1  11
TORSDOF 1
ENDMDL
MODEL 4
REMARK VINA RESULT:    -3.273     10.995     12.929
REMARK INTER + INTRA:          -4.794
REMARK INTER:                  -4.539
REMARK INTRA:                  -0.256
REMARK UNBOUND:                 0.201
REMARK SMILES CC1=CCC[C@@H](C)C(=O)C[C@@H](C(C)C)C(=O)C1
REMARK SMILES IDX 8 1 9 2 6 3 7 4 5 5 4 6 3 7 2 8 1 9 10 11 11 12 15 13 16 14
REMARK SMILES IDX 17 15 12 17 13 18 14 19
REMARK H PARENT
REMARK Flexibility Score: 70.00
ROOT
ATOM      1  C   UNL     1      84.146  -7.565  27.703  1.00  0.00     0.136 C 
ATOM      2  O   UNL     1      83.920  -7.075  26.607  1.00  0.00    -0.299 OA
ENDROOT
BRANCH   1   3
ATOM      3  C   UNL     1      83.432  -8.838  28.129  1.00  0.00     0.053 C 
ATOM      4  C   UNL     1      83.381  -9.821  26.950  1.00  0.00     0.016 C 
BRANCH   3   5
ATOM      5  C   UNL     1      81.993  -8.591  28.645  1.00  0.00     0.015 C 
BRANCH   5   6
ATOM      6  C   UNL     1      81.815  -8.740  30.164  1.00  0.00     0.028 C 
BRANCH   6   7
ATOM      7  C   UNL     1      81.391  -7.448  30.824  1.00  0.00    -0.028 C 
ATOM      8  C   UNL     1      82.161  -6.660  31.612  1.00  0.00    -0.070 CG0
ATOM      9  C   UNL     1      81.555  -5.375  32.119  1.00  0.00     0.039 C 
ATOM     10  G   UNL     1      83.596  -6.983  32.003  1.00  0.00     0.000 G0
ENDBRANCH   6   7
ENDBRANCH   5   6
ENDBRANCH   3   5
ENDBRANCH   1   3
BRANCH   1  11
ATOM     11  C   UNL     1      85.254  -6.987  28.558  1.00  0.00     0.087 C 
BRANCH  11  12
ATOM     12  C   UNL     1      85.304  -7.459  30.038  1.00  0.00     0.066 C 
BRANCH  12  13
ATOM     13  C   UNL     1      84.625  -6.513  31.023  1.00  0.00     0.140 C 
ATOM     14  O   UNL     1      84.894  -5.322  30.957  1.00  0.00    -0.299 OA
BRANCH  13  15
ATOM     15  C   UNL     1      83.601  -6.976  32.036  1.00  0.00     0.106 CG0
ATOM     16  G   UNL     1      82.178  -6.651  31.607  1.00  0.00     0.000 G0
ENDBRANCH  13  15
ENDBRANCH  12  13
BRANCH  12  17
ATOM     17  C   UNL     1      86.678  -8.051  30.494  1.00  0.00    -0.006 C 
ATOM     18  C   UNL     1      87.553  -7.130  31.356  1.00  0.00     0.008 C 
ATOM     19  C   UNL     1      86.502  -9.410  31.191  1.00  0.00     0.008 C 
ENDBRANCH  12  17
ENDBRANCH  11  12
ENDBRANCH   1  11
TORSDOF 1
ENDMDL
MODEL 5
REMARK VINA RESULT:    -3.169     12.219     14.164
REMARK INTER + INTRA:          -4.635
REMARK INTER:                  -4.568
REMARK INTRA:                  -0.067
REMARK UNBOUND:                 0.201
REMARK SMILES CC1=CCC[C@@H](C)C(=O)C[C@@H](C(C)C)C(=O)C1
REMARK SMILES IDX 8 1 9 2 6 3 7 4 5 5 4 6 3 7 2 8 1 9 10 11 11 12 15 13 16 14
REMARK SMILES IDX 17 15 12 17 13 18 14 19
REMARK H PARENT
REMARK Flexibility Score: 70.00
ROOT
ATOM      1  C   UNL     1      83.562  -9.046  26.670  1.00  0.00     0.136 C 
ATOM      2  O   UNL     1      84.504  -9.822  26.635  1.00  0.00    -0.299 OA
ENDROOT
BRANCH   1   3
ATOM      3  C   UNL     1      82.440  -9.164  25.650  1.00  0.00     0.053 C 
ATOM      4  C   UNL     1      82.732  -8.248  24.452  1.00  0.00     0.016 C 
BRANCH   3   5
ATOM      5  C   UNL     1      81.047  -8.815  26.228  1.00  0.00     0.015 C 
BRANCH   5   6
ATOM      6  C   UNL     1      80.431  -9.893  27.132  1.00  0.00     0.028 C 
BRANCH   6   7
ATOM      7  C   UNL     1      79.930  -9.331  28.442  1.00  0.00    -0.028 C 
ATOM      8  C   UNL     1      80.582  -9.359  29.629  1.00  0.00    -0.070 CG0
ATOM      9  C   UNL     1      79.923  -8.679  30.803  1.00  0.00     0.039 C 
ATOM     10  G   UNL     1      81.935 -10.019  29.845  1.00  0.00     0.000 G0
ENDBRANCH   6   7
ENDBRANCH   5   6
ENDBRANCH   3   5
ENDBRANCH   1   3
BRANCH   1  11
ATOM     11  C   UNL     1      83.444  -8.079  27.828  1.00  0.00     0.087 C 
BRANCH  11  12
ATOM     12  C   UNL     1      84.057  -8.539  29.180  1.00  0.00     0.066 C 
BRANCH  12  13
ATOM     13  C   UNL     1      83.033  -9.018  30.204  1.00  0.00     0.140 C 
ATOM     14  O   UNL     1      83.072  -8.536  31.328  1.00  0.00    -0.299 OA
BRANCH  13  15
ATOM     15  C   UNL     1      81.947 -10.018  29.876  1.00  0.00     0.106 CG0
ATOM     16  G   UNL     1      80.602  -9.350  29.634  1.00  0.00     0.000 G0
ENDBRANCH  13  15
ENDBRANCH  12  13
BRANCH  12  17
ATOM     17  C   UNL     1      85.199  -7.623  29.732  1.00  0.00    -0.006 C 
ATOM     18  C   UNL     1      86.450  -8.349  30.249  1.00  0.00     0.008 C 
ATOM     19  C   UNL     1      85.602  -6.548  28.709  1.00  0.00     0.008 C 
ENDBRANCH  12  17
ENDBRANCH  11  12
ENDBRANCH   1  11
TORSDOF 1
ENDMDL
MODEL 6
REMARK VINA RESULT:    -2.797      1.585      3.956
REMARK INTER + INTRA:          -4.068
REMARK INTER:                  -4.479
REMARK INTRA:                   0.410
REMARK UNBOUND:                 0.201
REMARK SMILES CC1=CCC[C@@H](C)C(=O)C[C@@H](C(C)C)C(=O)C1
REMARK SMILES IDX 8 1 9 2 6 3 7 4 5 5 4 6 3 7 2 8 1 9 10 11 11 12 15 13 16 14
REMARK SMILES IDX 17 15 12 17 13 18 14 19
REMARK H PARENT
REMARK Flexibility Score: 70.00
ROOT
ATOM      1  C   UNL     1      81.626   6.102  28.375  1.00  0.00     0.136 C 
ATOM      2  O   UNL     1      82.231   6.731  29.229  1.00  0.00    -0.299 OA
ENDROOT
BRANCH   1   3
ATOM      3  C   UNL     1      81.501   6.659  26.965  1.00  0.00     0.053 C 
ATOM      4  C   UNL     1      80.282   7.590  26.882  1.00  0.00     0.016 C 
BRANCH   3   5
ATOM      5  C   UNL     1      81.376   5.561  25.881  1.00  0.00     0.015 C 
BRANCH   5   6
ATOM      6  C   UNL     1      82.668   5.261  25.108  1.00  0.00     0.028 C 
BRANCH   6   7
ATOM      7  C   UNL     1      83.852   5.046  26.022  1.00  0.00    -0.028 C 
ATOM      8  C   UNL     1      84.051   3.987  26.841  1.00  0.00    -0.070 CG0
ATOM      9  C   UNL     1      85.339   3.942  27.625  1.00  0.00     0.039 C 
ATOM     10  G   UNL     1      83.066   2.839  27.009  1.00  0.00     0.000 G0
ENDBRANCH   6   7
ENDBRANCH   5   6
ENDBRANCH   3   5
ENDBRANCH   1   3
BRANCH   1  11
ATOM     11  C   UNL     1      81.145   4.701  28.689  1.00  0.00     0.087 C 
BRANCH  11  12
ATOM     12  C   UNL     1      82.176   3.750  29.359  1.00  0.00     0.066 C 
BRANCH  12  13
ATOM     13  C   UNL     1      82.668   2.622  28.457  1.00  0.00     0.140 C 
ATOM     14  O   UNL     1      82.703   1.489  28.918  1.00  0.00    -0.299 OA
BRANCH  13  15
ATOM     15  C   UNL     1      83.063   2.835  27.013  1.00  0.00     0.106 CG0
ATOM     16  G   UNL     1      84.058   3.974  26.850  1.00  0.00     0.000 G0
ENDBRANCH  13  15
ENDBRANCH  12  13
BRANCH  12  17
ATOM     17  C   UNL     1      81.843   3.351  30.834  1.00  0.00    -0.006 C 
ATOM     18  C   UNL     1      81.832   4.500  31.853  1.00  0.00     0.008 C 
ATOM     19  C   UNL     1      80.528   2.560  30.921  1.00  0.00     0.008 C 
ENDBRANCH  12  17
ENDBRANCH  11  12
ENDBRANCH   1  11
TORSDOF 1
ENDMDL
MODEL 7
REMARK VINA RESULT:    -2.686     11.992     13.447
REMARK INTER + INTRA:          -3.898
REMARK INTER:                  -3.920
REMARK INTRA:                   0.021
REMARK UNBOUND:                 0.201
REMARK SMILES CC1=CCC[C@@H](C)C(=O)C[C@@H](C(C)C)C(=O)C1
REMARK SMILES IDX 8 1 9 2 6 3 7 4 5 5 4 6 3 7 2 8 1 9 10 11 11 12 15 13 16 14
REMARK SMILES IDX 17 15 12 17 13 18 14 19
REMARK H PARENT
REMARK Flexibility Score: 70.00
ROOT
ATOM      1  C   UNL     1      82.114  -8.903  27.200  1.00  0.00     0.136 C 
ATOM      2  O   UNL     1      81.025  -8.370  27.051  1.00  0.00    -0.299 OA
ENDROOT
BRANCH   1   3
ATOM      3  C   UNL     1      83.232  -8.638  26.204  1.00  0.00     0.053 C 
ATOM      4  C   UNL     1      83.447  -9.879  25.325  1.00  0.00     0.016 C 
BRANCH   3   5
ATOM      5  C   UNL     1      84.573  -8.255  26.876  1.00  0.00     0.015 C 
BRANCH   5   6
ATOM      6  C   UNL     1      84.551  -6.937  27.665  1.00  0.00     0.028 C 
BRANCH   6   7
ATOM      7  C   UNL     1      85.561  -6.919  28.789  1.00  0.00    -0.028 C 
ATOM      8  C   UNL     1      85.292  -7.038  30.111  1.00  0.00    -0.070 CG0
ATOM      9  C   UNL     1      86.464  -7.058  31.062  1.00  0.00     0.039 C 
ATOM     10  G   UNL     1      83.892  -7.164  30.691  1.00  0.00     0.000 G0
ENDBRANCH   6   7
ENDBRANCH   5   6
ENDBRANCH   3   5
ENDBRANCH   1   3
BRANCH   1  11
ATOM     11  C   UNL     1      82.385  -9.692  28.463  1.00  0.00     0.087 C 
BRANCH  11  12
ATOM     12  C   UNL     1      82.105  -8.964  29.808  1.00  0.00     0.066 C 
BRANCH  12  13
ATOM     13  C   UNL     1      83.359  -8.589  30.591  1.00  0.00     0.140 C 
ATOM     14  O   UNL     1      83.987  -9.486  31.138  1.00  0.00    -0.299 OA
BRANCH  13  15
ATOM     15  C   UNL     1      83.883  -7.173  30.678  1.00  0.00     0.106 CG0
ATOM     16  G   UNL     1      85.293  -7.044  30.121  1.00  0.00     0.000 G0
ENDBRANCH  13  15
ENDBRANCH  12  13
BRANCH  12  17
ATOM     17  C   UNL     1      80.926  -9.558  30.646  1.00  0.00    -0.006 C 
ATOM     18  C   UNL     1      80.706  -8.933  32.031  1.00  0.00     0.008 C 
ATOM     19  C   UNL     1      79.610  -9.550  29.851  1.00  0.00     0.008 C 
ENDBRANCH  12  17
ENDBRANCH  11  12
ENDBRANCH   1  11
TORSDOF 1
ENDMDL
MODEL 8
REMARK VINA RESULT:    -2.656     18.206     19.664
REMARK INTER + INTRA:          -3.852
REMARK INTER:                  -4.504
REMARK INTRA:                   0.652
REMARK UNBOUND:                 0.201
REMARK SMILES CC1=CCC[C@@H](C)C(=O)C[C@@H](C(C)C)C(=O)C1
REMARK SMILES IDX 8 1 9 2 6 3 7 4 5 5 4 6 3 7 2 8 1 9 10 11 11 12 15 13 16 14
REMARK SMILES IDX 17 15 12 17 13 18 14 19
REMARK H PARENT
REMARK Flexibility Score: 70.00
ROOT
ATOM      1  C   UNL     1      78.158  -9.725  13.740  1.00  0.00     0.136 C 
ATOM      2  O   UNL     1      79.229 -10.044  13.248  1.00  0.00    -0.299 OA
ENDROOT
BRANCH   1   3
ATOM      3  C   UNL     1      77.084  -9.083  12.876  1.00  0.00     0.053 C 
ATOM      4  C   UNL     1      76.529 -10.118  11.886  1.00  0.00     0.016 C 
BRANCH   3   5
ATOM      5  C   UNL     1      77.588  -7.848  12.089  1.00  0.00     0.015 C 
BRANCH   5   6
ATOM      6  C   UNL     1      78.088  -6.685  12.958  1.00  0.00     0.028 C 
BRANCH   6   7
ATOM      7  C   UNL     1      79.596  -6.606  13.006  1.00  0.00    -0.028 C 
ATOM      8  C   UNL     1      80.375  -6.798  14.098  1.00  0.00    -0.070 CG0
ATOM      9  C   UNL     1      81.870  -6.735  13.908  1.00  0.00     0.039 C 
ATOM     10  G   UNL     1      79.837  -7.083  15.492  1.00  0.00     0.000 G0
ENDBRANCH   6   7
ENDBRANCH   5   6
ENDBRANCH   3   5
ENDBRANCH   1   3
BRANCH   1  11
ATOM     11  C   UNL     1      77.853 -10.122  15.169  1.00  0.00     0.087 C 
BRANCH  11  12
ATOM     12  C   UNL     1      78.536  -9.279  16.282  1.00  0.00     0.066 C 
BRANCH  12  13
ATOM     13  C   UNL     1      79.800  -8.552  15.834  1.00  0.00     0.140 C 
ATOM     14  O   UNL     1      80.828  -9.204  15.714  1.00  0.00    -0.299 OA
BRANCH  13  15
ATOM     15  C   UNL     1      79.823  -7.080  15.486  1.00  0.00     0.106 CG0
ATOM     16  G   UNL     1      80.367  -6.827  14.088  1.00  0.00     0.000 G0
ENDBRANCH  13  15
ENDBRANCH  12  13
BRANCH  12  17
ATOM     17  C   UNL     1      78.604  -9.969  17.684  1.00  0.00    -0.006 C 
ATOM     18  C   UNL     1      79.597  -9.361  18.684  1.00  0.00     0.008 C 
ATOM     19  C   UNL     1      77.211 -10.077  18.327  1.00  0.00     0.008 C 
ENDBRANCH  12  17
ENDBRANCH  11  12
ENDBRANCH   1  11
TORSDOF 1
ENDMDL
MODEL 9
REMARK VINA RESULT:    -2.487     12.309     13.904
REMARK INTER + INTRA:          -3.595
REMARK INTER:                  -3.819
REMARK INTRA:                   0.224
REMARK UNBOUND:                 0.201
REMARK SMILES CC1=CCC[C@@H](C)C(=O)C[C@@H](C(C)C)C(=O)C1
REMARK SMILES IDX 8 1 9 2 6 3 7 4 5 5 4 6 3 7 2 8 1 9 10 11 11 12 15 13 16 14
REMARK SMILES IDX 17 15 12 17 13 18 14 19
REMARK H PARENT
REMARK Flexibility Score: 70.00
ROOT
ATOM      1  C   UNL     1      84.475  -7.380  28.197  1.00  0.00     0.136 C 
ATOM      2  O   UNL     1      85.381  -6.724  27.706  1.00  0.00    -0.299 OA
ENDROOT
BRANCH   1   3
ATOM      3  C   UNL     1      83.689  -8.356  27.336  1.00  0.00     0.053 C 
ATOM      4  C   UNL     1      84.412  -8.563  25.997  1.00  0.00     0.016 C 
BRANCH   3   5
ATOM      5  C   UNL     1      82.236  -7.899  27.062  1.00  0.00     0.015 C 
BRANCH   5   6
ATOM      6  C   UNL     1      81.147  -8.843  27.596  1.00  0.00     0.028 C 
BRANCH   6   7
ATOM      7  C   UNL     1      80.806  -8.573  29.042  1.00  0.00    -0.028 C 
ATOM      8  C   UNL     1      81.476  -9.035  30.125  1.00  0.00    -0.070 CG0
ATOM      9  C   UNL     1      80.999  -8.588  31.485  1.00  0.00     0.039 C 
ATOM     10  G   UNL     1      82.681  -9.961  30.053  1.00  0.00     0.000 G0
ENDBRANCH   6   7
ENDBRANCH   5   6
ENDBRANCH   3   5
ENDBRANCH   1   3
BRANCH   1  11
ATOM     11  C   UNL     1      84.254  -7.330  29.694  1.00  0.00     0.087 C 
BRANCH  11  12
ATOM     12  C   UNL     1      84.845  -8.505  30.521  1.00  0.00     0.066 C 
BRANCH  12  13
ATOM     13  C   UNL     1      83.820  -9.550  30.951  1.00  0.00     0.140 C 
ATOM     14  O   UNL     1      83.915 -10.022  32.075  1.00  0.00    -0.299 OA
BRANCH  13  15
ATOM     15  C   UNL     1      82.671  -9.987  30.069  1.00  0.00     0.106 CG0
ATOM     16  G   UNL     1      81.499  -9.018  30.128  1.00  0.00     0.000 G0
ENDBRANCH  13  15
ENDBRANCH  12  13
BRANCH  12  17
ATOM     17  C   UNL     1      85.892  -8.087  31.606  1.00  0.00    -0.006 C 
ATOM     18  C   UNL     1      87.364  -8.343  31.251  1.00  0.00     0.008 C 
ATOM     19  C   UNL     1      85.702  -6.624  32.036  1.00  0.00     0.008 C 
ENDBRANCH  12  17
ENDBRANCH  11  12
ENDBRANCH   1  11
TORSDOF 1
ENDMDL
