MODEL 1
REMARK VINA RESULT:    -6.183      0.000      0.000
REMARK INTER + INTRA:         -10.004
REMARK INTER:                  -8.533
REMARK INTRA:                  -1.471
REMARK UNBOUND:                -1.471
REMARK SMILES C[C@@H]1OC(=O)[C@H](C)[C@H]1C[C@H](O)[C@](C)(O)[C@H]1CC[C@]2(O)C3=CC(=O)[C@@H]4C[C@H](O)[C@@H](O)C[C@@]4(C)[C@H]3CC[C@]12C
REMARK SMILES IDX 12 1 13 2 10 3 9 4 8 5 7 6 6 7 4 8 2 9 3 10 5 11 1 12 11 13
REMARK SMILES IDX 15 15 16 16 36 17 17 18 18 19 35 20 37 21 20 22 34 23 33 24
REMARK SMILES IDX 21 25 31 26 22 27 24 28 30 29 32 30 23 31 25 32 28 33 26 34
REMARK SMILES IDX 19 35 29 37 27 39 14 41
REMARK H PARENT 11 14 19 36 29 38 27 40 14 42
REMARK Flexibility Score: inf
ROOT
ATOM      1  C   UNL     1      23.517 -13.410  46.775  1.00  0.00     0.091 C 
ATOM      2  C   UNL     1      25.074 -13.483  46.732  1.00  0.00     0.045 C 
ENDROOT
BRANCH   1   3
ATOM      3  C   UNL     1      22.957 -14.850  46.419  1.00  0.00     0.146 C 
BRANCH   3   4
ATOM      4  C   UNL     1      23.330 -15.350  45.000  1.00  0.00     0.043 C 
BRANCH   4   5
ATOM      5  C   UNL     1      22.103 -15.782  44.161  1.00  0.00     0.046 C 
ATOM      6  C   UNL     1      21.433 -18.258  44.035  1.00  0.00     0.020 C 
ATOM      7  C   UNL     1      22.314 -17.148  43.449  1.00  0.00     0.103 C 
ATOM      8  C   UNL     1      21.927 -16.847  42.051  1.00  0.00     0.309 C 
ATOM      9  C   UNL     1      21.818 -14.755  43.022  1.00  0.00     0.177 C 
ATOM     10  O   UNL     1      21.623 -15.521  41.847  1.00  0.00    -0.462 OA
ATOM     11  O   UNL     1      21.901 -17.700  41.125  1.00  0.00    -0.252 OA
ATOM     12  C   UNL     1      20.581 -13.901  43.297  1.00  0.00     0.053 C 
ENDBRANCH   4   5
ENDBRANCH   3   4
BRANCH   3  13
ATOM     13  O   UNL     1      21.558 -14.907  46.587  1.00  0.00    -0.390 OA
ATOM     14  H   UNL     1      21.360 -15.544  47.321  1.00  0.00     0.211 HD
ENDBRANCH   3  13
ENDBRANCH   1   3
BRANCH   1  15
ATOM     15  C   UNL     1      23.070 -12.237  45.775  1.00  0.00     0.032 C 
ATOM     16  C   UNL     1      21.774 -11.502  46.100  1.00  0.00     0.010 C 
ATOM     17  C   UNL     1      24.057 -11.112  45.297  1.00  0.00     0.006 C 
ATOM     18  C   UNL     1      21.664 -10.404  45.050  1.00  0.00     0.041 C 
ATOM     19  C   UNL     1      23.111 -10.027  44.614  1.00  0.00     0.092 C 
ATOM     20  C   UNL     1      25.124 -11.661  44.289  1.00  0.00     0.011 C 
ATOM     21  C   UNL     1      24.828 -10.461  46.481  1.00  0.00     0.015 C 
ATOM     22  C   UNL     1      23.243 -10.077  43.080  1.00  0.00    -0.031 C 
ATOM     23  C   UNL     1      24.570 -12.192  42.942  1.00  0.00     0.009 C 
ATOM     24  C   UNL     1      23.289 -11.464  42.449  1.00  0.00     0.025 C 
ATOM     25  C   UNL     1      23.510  -8.974  42.342  1.00  0.00     0.050 C 
ATOM     26  C   UNL     1      23.063 -11.439  40.890  1.00  0.00    -0.013 C 
ATOM     27  C   UNL     1      23.825  -9.050  40.905  1.00  0.00     0.159 C 
ATOM     28  C   UNL     1      24.030 -10.394  40.259  1.00  0.00     0.070 C 
ATOM     29  C   UNL     1      23.332 -12.832  40.247  1.00  0.00     0.042 C 
ATOM     30  C   UNL     1      21.567 -11.056  40.643  1.00  0.00     0.013 C 
ATOM     31  O   UNL     1      23.995  -7.984  40.252  1.00  0.00    -0.295 OA
ATOM     32  C   UNL     1      23.934 -10.355  38.719  1.00  0.00     0.047 C 
ATOM     33  C   UNL     1      23.250 -12.814  38.707  1.00  0.00     0.143 C 
ATOM     34  C   UNL     1      24.194 -11.747  38.113  1.00  0.00     0.143 C 
BRANCH  19  35
ATOM     35  O   UNL     1      23.425  -8.730  45.087  1.00  0.00    -0.385 OA
ATOM     36  H   UNL     1      23.273  -8.074  44.357  1.00  0.00     0.211 HD
ENDBRANCH  19  35
BRANCH  33  37
ATOM     37  O   UNL     1      23.612 -14.084  38.227  1.00  0.00    -0.390 OA
ATOM     38  H   UNL     1      23.041 -14.747  38.698  1.00  0.00     0.211 HD
ENDBRANCH  33  37
BRANCH  34  39
ATOM     39  O   UNL     1      24.011 -11.694  36.722  1.00  0.00    -0.390 OA
ATOM     40  H   UNL     1      24.220 -10.764  36.440  1.00  0.00     0.211 HD
ENDBRANCH  34  39
ENDBRANCH   1  15
BRANCH   1  41
ATOM     41  O   UNL     1      23.148 -13.063  48.089  1.00  0.00    -0.387 OA
ATOM     42  H   UNL     1      23.756 -12.354  48.423  1.00  0.00     0.211 HD
ENDBRANCH   1  41
TORSDOF 9
ENDMDL
MODEL 2
REMARK VINA RESULT:    -5.881      3.594      8.255
REMARK INTER + INTRA:          -9.587
REMARK INTER:                  -8.439
REMARK INTRA:                  -1.148
REMARK UNBOUND:                -1.471
REMARK SMILES C[C@@H]1OC(=O)[C@H](C)[C@H]1C[C@H](O)[C@](C)(O)[C@H]1CC[C@]2(O)C3=CC(=O)[C@@H]4C[C@H](O)[C@@H](O)C[C@@]4(C)[C@H]3CC[C@]12C
REMARK SMILES IDX 12 1 13 2 10 3 9 4 8 5 7 6 6 7 4 8 2 9 3 10 5 11 1 12 11 13
REMARK SMILES IDX 15 15 16 16 36 17 17 18 18 19 35 20 37 21 20 22 34 23 33 24
REMARK SMILES IDX 21 25 31 26 22 27 24 28 30 29 32 30 23 31 25 32 28 33 26 34
REMARK SMILES IDX 19 35 29 37 27 39 14 41
REMARK H PARENT 11 14 19 36 29 38 27 40 14 42
REMARK Flexibility Score: inf
ROOT
ATOM      1  C   UNL     1      17.663 -13.169  39.794  1.00  0.00     0.091 C 
ATOM      2  C   UNL     1      18.871 -12.253  39.429  1.00  0.00     0.045 C 
ENDROOT
BRANCH   1   3
ATOM      3  C   UNL     1      16.459 -12.231  40.218  1.00  0.00     0.146 C 
BRANCH   3   4
ATOM      4  C   UNL     1      16.343 -11.986  41.744  1.00  0.00     0.043 C 
BRANCH   4   5
ATOM      5  C   UNL     1      16.817 -10.577  42.176  1.00  0.00     0.046 C 
ATOM      6  C   UNL     1      15.739  -8.482  41.154  1.00  0.00     0.020 C 
ATOM      7  C   UNL     1      16.821  -9.558  41.002  1.00  0.00     0.103 C 
ATOM      8  C   UNL     1      18.175  -8.965  41.094  1.00  0.00     0.309 C 
ATOM      9  C   UNL     1      18.286 -10.620  42.699  1.00  0.00     0.177 C 
ATOM     10  O   UNL     1      18.956  -9.546  42.065  1.00  0.00    -0.462 OA
ATOM     11  O   UNL     1      18.595  -8.041  40.348  1.00  0.00    -0.252 OA
ATOM     12  C   UNL     1      18.375 -10.465  44.217  1.00  0.00     0.053 C 
ENDBRANCH   4   5
ENDBRANCH   3   4
BRANCH   3  13
ATOM     13  O   UNL     1      15.232 -12.723  39.726  1.00  0.00    -0.390 OA
ATOM     14  H   UNL     1      15.427 -13.381  39.011  1.00  0.00     0.211 HD
ENDBRANCH   3  13
ENDBRANCH   1   3
BRANCH   1  15
ATOM     15  C   UNL     1      18.166 -14.189  40.927  1.00  0.00     0.032 C 
ATOM     16  C   UNL     1      17.185 -15.263  41.383  1.00  0.00     0.010 C 
ATOM     17  C   UNL     1      19.552 -14.925  40.846  1.00  0.00     0.006 C 
ATOM     18  C   UNL     1      17.962 -16.121  42.373  1.00  0.00     0.041 C 
ATOM     19  C   UNL     1      19.467 -16.044  41.977  1.00  0.00     0.092 C 
ATOM     20  C   UNL     1      20.750 -13.944  41.097  1.00  0.00     0.011 C 
ATOM     21  C   UNL     1      19.785 -15.597  39.462  1.00  0.00     0.015 C 
ATOM     22  C   UNL     1      20.327 -15.655  43.195  1.00  0.00    -0.031 C 
ATOM     23  C   UNL     1      20.812 -13.301  42.505  1.00  0.00     0.009 C 
ATOM     24  C   UNL     1      20.249 -14.200  43.641  1.00  0.00     0.025 C 
ATOM     25  C   UNL     1      21.254 -16.490  43.719  1.00  0.00     0.050 C 
ATOM     26  C   UNL     1      20.856 -13.963  45.077  1.00  0.00    -0.013 C 
ATOM     27  C   UNL     1      22.205 -16.053  44.757  1.00  0.00     0.159 C 
ATOM     28  C   UNL     1      22.277 -14.596  45.132  1.00  0.00     0.070 C 
ATOM     29  C   UNL     1      20.963 -12.445  45.413  1.00  0.00     0.042 C 
ATOM     30  C   UNL     1      19.889 -14.635  46.106  1.00  0.00     0.013 C 
ATOM     31  O   UNL     1      23.000 -16.892  45.261  1.00  0.00    -0.295 OA
ATOM     32  C   UNL     1      22.983 -14.346  46.481  1.00  0.00     0.047 C 
ATOM     33  C   UNL     1      21.674 -12.172  46.754  1.00  0.00     0.143 C 
ATOM     34  C   UNL     1      23.065 -12.839  46.792  1.00  0.00     0.143 C 
BRANCH  19  35
ATOM     35  O   UNL     1      19.886 -17.296  41.466  1.00  0.00    -0.385 OA
ATOM     36  H   UNL     1      20.121 -17.892  42.224  1.00  0.00     0.211 HD
ENDBRANCH  19  35
BRANCH  33  37
ATOM     37  O   UNL     1      21.812 -10.782  46.908  1.00  0.00    -0.390 OA
ATOM     38  H   UNL     1      20.966 -10.447  47.308  1.00  0.00     0.211 HD
ENDBRANCH  33  37
BRANCH  34  39
ATOM     39  O   UNL     1      23.630 -12.653  48.064  1.00  0.00    -0.390 OA
ATOM     40  H   UNL     1      24.539 -12.277  47.922  1.00  0.00     0.211 HD
ENDBRANCH  34  39
ENDBRANCH   1  15
BRANCH   1  41
ATOM     41  O   UNL     1      17.320 -13.896  38.637  1.00  0.00    -0.387 OA
ATOM     42  H   UNL     1      16.378 -14.198  38.709  1.00  0.00     0.211 HD
ENDBRANCH   1  41
TORSDOF 9
ENDMDL
MODEL 3
REMARK VINA RESULT:    -5.815      5.580      8.798
REMARK INTER + INTRA:          -9.495
REMARK INTER:                  -8.448
REMARK INTRA:                  -1.048
REMARK UNBOUND:                -1.471
REMARK SMILES C[C@@H]1OC(=O)[C@H](C)[C@H]1C[C@H](O)[C@](C)(O)[C@H]1CC[C@]2(O)C3=CC(=O)[C@@H]4C[C@H](O)[C@@H](O)C[C@@]4(C)[C@H]3CC[C@]12C
REMARK SMILES IDX 12 1 13 2 10 3 9 4 8 5 7 6 6 7 4 8 2 9 3 10 5 11 1 12 11 13
REMARK SMILES IDX 15 15 16 16 36 17 17 18 18 19 35 20 37 21 20 22 34 23 33 24
REMARK SMILES IDX 21 25 31 26 22 27 24 28 30 29 32 30 23 31 25 32 28 33 26 34
REMARK SMILES IDX 19 35 29 37 27 39 14 41
REMARK H PARENT 11 14 19 36 29 38 27 40 14 42
REMARK Flexibility Score: inf
ROOT
ATOM      1  C   UNL     1      15.584 -11.394  41.533  1.00  0.00     0.091 C 
ATOM      2  C   UNL     1      15.288 -12.923  41.603  1.00  0.00     0.045 C 
ENDROOT
BRANCH   1   3
ATOM      3  C   UNL     1      14.757 -10.799  40.318  1.00  0.00     0.146 C 
BRANCH   3   4
ATOM      4  C   UNL     1      14.174  -9.386  40.569  1.00  0.00     0.043 C 
BRANCH   4   5
ATOM      5  C   UNL     1      14.323  -8.436  39.356  1.00  0.00     0.046 C 
ATOM      6  C   UNL     1      12.538  -6.649  38.888  1.00  0.00     0.020 C 
ATOM      7  C   UNL     1      12.962  -8.108  38.679  1.00  0.00     0.103 C 
ATOM      8  C   UNL     1      13.238  -8.381  37.250  1.00  0.00     0.309 C 
ATOM      9  C   UNL     1      15.198  -9.090  38.242  1.00  0.00     0.177 C 
ATOM     10  O   UNL     1      14.495  -8.891  37.029  1.00  0.00    -0.462 OA
ATOM     11  O   UNL     1      12.407  -8.197  36.321  1.00  0.00    -0.252 OA
ATOM     12  C   UNL     1      16.590  -8.465  38.145  1.00  0.00     0.053 C 
ENDBRANCH   4   5
ENDBRANCH   3   4
BRANCH   3  13
ATOM     13  O   UNL     1      13.721 -11.674  39.931  1.00  0.00    -0.390 OA
ATOM     14  H   UNL     1      13.794 -11.829  38.955  1.00  0.00     0.211 HD
ENDBRANCH   3  13
ENDBRANCH   1   3
BRANCH   1  15
ATOM     15  C   UNL     1      17.176 -11.224  41.423  1.00  0.00     0.032 C 
ATOM     16  C   UNL     1      17.803 -11.407  40.045  1.00  0.00     0.010 C 
ATOM     17  C   UNL     1      17.940 -10.002  42.048  1.00  0.00     0.006 C 
ATOM     18  C   UNL     1      19.282 -11.097  40.234  1.00  0.00     0.041 C 
ATOM     19  C   UNL     1      19.400 -10.089  41.417  1.00  0.00     0.092 C 
ATOM     20  C   UNL     1      17.985 -10.079  43.614  1.00  0.00     0.011 C 
ATOM     21  C   UNL     1      17.288  -8.641  41.669  1.00  0.00     0.015 C 
ATOM     22  C   UNL     1      20.416 -10.596  42.459  1.00  0.00    -0.031 C 
ATOM     23  C   UNL     1      18.765 -11.280  44.207  1.00  0.00     0.009 C 
ATOM     24  C   UNL     1      19.962 -11.755  43.338  1.00  0.00     0.025 C 
ATOM     25  C   UNL     1      21.564  -9.933  42.729  1.00  0.00     0.050 C 
ATOM     26  C   UNL     1      21.150 -12.443  44.112  1.00  0.00    -0.013 C 
ATOM     27  C   UNL     1      22.440 -10.309  43.852  1.00  0.00     0.159 C 
ATOM     28  C   UNL     1      21.976 -11.344  44.842  1.00  0.00     0.070 C 
ATOM     29  C   UNL     1      20.633 -13.471  45.163  1.00  0.00     0.042 C 
ATOM     30  C   UNL     1      22.015 -13.203  43.054  1.00  0.00     0.013 C 
ATOM     31  O   UNL     1      23.534  -9.702  44.014  1.00  0.00    -0.295 OA
ATOM     32  C   UNL     1      23.121 -11.934  45.693  1.00  0.00     0.047 C 
ATOM     33  C   UNL     1      21.761 -14.067  46.030  1.00  0.00     0.143 C 
ATOM     34  C   UNL     1      22.582 -12.954  46.714  1.00  0.00     0.143 C 
BRANCH  19  35
ATOM     35  O   UNL     1      19.801  -8.825  40.922  1.00  0.00    -0.385 OA
ATOM     36  H   UNL     1      19.108  -8.488  40.296  1.00  0.00     0.211 HD
ENDBRANCH  19  35
BRANCH  33  37
ATOM     37  O   UNL     1      21.180 -14.894  47.007  1.00  0.00    -0.390 OA
ATOM     38  H   UNL     1      21.531 -15.811  46.860  1.00  0.00     0.211 HD
ENDBRANCH  33  37
BRANCH  34  39
ATOM     39  O   UNL     1      23.657 -13.535  47.407  1.00  0.00    -0.390 OA
ATOM     40  H   UNL     1      24.179 -14.057  46.742  1.00  0.00     0.211 HD
ENDBRANCH  34  39
ENDBRANCH   1  15
BRANCH   1  41
ATOM     41  O   UNL     1      15.140 -10.822  42.741  1.00  0.00    -0.387 OA
ATOM     42  H   UNL     1      14.245 -10.418  42.601  1.00  0.00     0.211 HD
ENDBRANCH   1  41
TORSDOF 9
ENDMDL
MODEL 4
REMARK VINA RESULT:    -5.804      2.734      6.320
REMARK INTER + INTRA:          -9.480
REMARK INTER:                  -8.097
REMARK INTRA:                  -1.383
REMARK UNBOUND:                -1.471
REMARK SMILES C[C@@H]1OC(=O)[C@H](C)[C@H]1C[C@H](O)[C@](C)(O)[C@H]1CC[C@]2(O)C3=CC(=O)[C@@H]4C[C@H](O)[C@@H](O)C[C@@]4(C)[C@H]3CC[C@]12C
REMARK SMILES IDX 12 1 13 2 10 3 9 4 8 5 7 6 6 7 4 8 2 9 3 10 5 11 1 12 11 13
REMARK SMILES IDX 15 15 16 16 36 17 17 18 18 19 35 20 37 21 20 22 34 23 33 24
REMARK SMILES IDX 21 25 31 26 22 27 24 28 30 29 32 30 23 31 25 32 28 33 26 34
REMARK SMILES IDX 19 35 29 37 27 39 14 41
REMARK H PARENT 11 14 19 36 29 38 27 40 14 42
REMARK Flexibility Score: inf
ROOT
ATOM      1  C   UNL     1      23.280 -10.732  45.413  1.00  0.00     0.091 C 
ATOM      2  C   UNL     1      22.179 -10.854  46.510  1.00  0.00     0.045 C 
ENDROOT
BRANCH   1   3
ATOM      3  C   UNL     1      22.727  -9.767  44.283  1.00  0.00     0.146 C 
BRANCH   3   4
ATOM      4  C   UNL     1      22.275 -10.487  42.988  1.00  0.00     0.043 C 
BRANCH   4   5
ATOM      5  C   UNL     1      20.773 -10.292  42.671  1.00  0.00     0.046 C 
ATOM      6  C   UNL     1      18.986 -11.169  44.294  1.00  0.00     0.020 C 
ATOM      7  C   UNL     1      19.904 -11.503  43.111  1.00  0.00     0.103 C 
ATOM      8  C   UNL     1      19.113 -11.794  41.893  1.00  0.00     0.309 C 
ATOM      9  C   UNL     1      20.542 -10.147  41.135  1.00  0.00     0.177 C 
ATOM     10  O   UNL     1      19.461 -11.006  40.821  1.00  0.00    -0.462 OA
ATOM     11  O   UNL     1      18.229 -12.688  41.820  1.00  0.00    -0.252 OA
ATOM     12  C   UNL     1      20.205  -8.715  40.723  1.00  0.00     0.053 C 
ENDBRANCH   4   5
ENDBRANCH   3   4
BRANCH   3  13
ATOM     13  O   UNL     1      23.670  -8.768  43.962  1.00  0.00    -0.390 OA
ATOM     14  H   UNL     1      23.196  -7.898  43.916  1.00  0.00     0.211 HD
ENDBRANCH   3  13
ENDBRANCH   1   3
BRANCH   1  15
ATOM     15  C   UNL     1      23.632 -12.220  44.926  1.00  0.00     0.032 C 
ATOM     16  C   UNL     1      24.965 -12.424  44.215  1.00  0.00     0.010 C 
ATOM     17  C   UNL     1      23.485 -13.473  45.863  1.00  0.00     0.006 C 
ATOM     18  C   UNL     1      25.060 -13.923  43.964  1.00  0.00     0.041 C 
ATOM     19  C   UNL     1      24.241 -14.637  45.082  1.00  0.00     0.092 C 
ATOM     20  C   UNL     1      21.982 -13.836  46.122  1.00  0.00     0.011 C 
ATOM     21  C   UNL     1      24.155 -13.254  47.250  1.00  0.00     0.015 C 
ATOM     22  C   UNL     1      23.233 -15.625  44.466  1.00  0.00    -0.031 C 
ATOM     23  C   UNL     1      21.170 -14.274  44.877  1.00  0.00     0.009 C 
ATOM     24  C   UNL     1      22.008 -15.013  43.797  1.00  0.00     0.025 C 
ATOM     25  C   UNL     1      23.310 -16.960  44.676  1.00  0.00     0.050 C 
ATOM     26  C   UNL     1      21.223 -16.038  42.893  1.00  0.00    -0.013 C 
ATOM     27  C   UNL     1      22.245 -17.884  44.249  1.00  0.00     0.159 C 
ATOM     28  C   UNL     1      20.949 -17.329  43.719  1.00  0.00     0.070 C 
ATOM     29  C   UNL     1      19.865 -15.451  42.403  1.00  0.00     0.042 C 
ATOM     30  C   UNL     1      22.117 -16.335  41.645  1.00  0.00     0.013 C 
ATOM     31  O   UNL     1      22.402 -19.125  44.406  1.00  0.00    -0.295 OA
ATOM     32  C   UNL     1      20.114 -18.365  42.936  1.00  0.00     0.047 C 
ATOM     33  C   UNL     1      19.010 -16.473  41.626  1.00  0.00     0.143 C 
ATOM     34  C   UNL     1      18.784 -17.754  42.457  1.00  0.00     0.143 C 
BRANCH  19  35
ATOM     35  O   UNL     1      25.125 -15.322  45.950  1.00  0.00    -0.385 OA
ATOM     36  H   UNL     1      25.089 -14.899  46.848  1.00  0.00     0.211 HD
ENDBRANCH  19  35
BRANCH  33  37
ATOM     37  O   UNL     1      17.772 -15.880  41.326  1.00  0.00    -0.390 OA
ATOM     38  H   UNL     1      17.961 -15.066  40.787  1.00  0.00     0.211 HD
ENDBRANCH  33  37
BRANCH  34  39
ATOM     39  O   UNL     1      18.092 -18.693  41.675  1.00  0.00    -0.390 OA
ATOM     40  H   UNL     1      17.238 -18.886  42.145  1.00  0.00     0.211 HD
ENDBRANCH  34  39
ENDBRANCH   1  15
BRANCH   1  41
ATOM     41  O   UNL     1      24.417 -10.162  46.017  1.00  0.00    -0.387 OA
ATOM     42  H   UNL     1      24.134  -9.420  46.611  1.00  0.00     0.211 HD
ENDBRANCH   1  41
TORSDOF 9
ENDMDL
MODEL 5
REMARK VINA RESULT:    -5.787      3.703      5.004
REMARK INTER + INTRA:          -9.457
REMARK INTER:                  -8.230
REMARK INTRA:                  -1.227
REMARK UNBOUND:                -1.471
REMARK SMILES C[C@@H]1OC(=O)[C@H](C)[C@H]1C[C@H](O)[C@](C)(O)[C@H]1CC[C@]2(O)C3=CC(=O)[C@@H]4C[C@H](O)[C@@H](O)C[C@@]4(C)[C@H]3CC[C@]12C
REMARK SMILES IDX 12 1 13 2 10 3 9 4 8 5 7 6 6 7 4 8 2 9 3 10 5 11 1 12 11 13
REMARK SMILES IDX 15 15 16 16 36 17 17 18 18 19 35 20 37 21 20 22 34 23 33 24
REMARK SMILES IDX 21 25 31 26 22 27 24 28 30 29 32 30 23 31 25 32 28 33 26 34
REMARK SMILES IDX 19 35 29 37 27 39 14 41
REMARK H PARENT 11 14 19 36 29 38 27 40 14 42
REMARK Flexibility Score: inf
ROOT
ATOM      1  C   UNL     1      21.013 -14.541  45.626  1.00  0.00     0.091 C 
ATOM      2  C   UNL     1      22.248 -14.495  46.577  1.00  0.00     0.045 C 
ENDROOT
BRANCH   1   3
ATOM      3  C   UNL     1      21.263 -15.695  44.569  1.00  0.00     0.146 C 
BRANCH   3   4
ATOM      4  C   UNL     1      19.998 -16.507  44.194  1.00  0.00     0.043 C 
BRANCH   4   5
ATOM      5  C   UNL     1      19.761 -16.604  42.667  1.00  0.00     0.046 C 
ATOM      6  C   UNL     1      17.462 -16.029  41.677  1.00  0.00     0.020 C 
ATOM      7  C   UNL     1      18.337 -17.117  42.311  1.00  0.00     0.103 C 
ATOM      8  C   UNL     1      18.618 -18.203  41.344  1.00  0.00     0.309 C 
ATOM      9  C   UNL     1      20.748 -17.621  42.015  1.00  0.00     0.177 C 
ATOM     10  O   UNL     1      19.961 -18.440  41.169  1.00  0.00    -0.462 OA
ATOM     11  O   UNL     1      17.728 -18.871  40.752  1.00  0.00    -0.252 OA
ATOM     12  C   UNL     1      21.845 -16.936  41.201  1.00  0.00     0.053 C 
ENDBRANCH   4   5
ENDBRANCH   3   4
BRANCH   3  13
ATOM     13  O   UNL     1      22.275 -16.574  45.005  1.00  0.00    -0.390 OA
ATOM     14  H   UNL     1      22.348 -17.314  44.348  1.00  0.00     0.211 HD
ENDBRANCH   3  13
ENDBRANCH   1   3
BRANCH   1  15
ATOM     15  C   UNL     1      20.839 -13.071  45.004  1.00  0.00     0.032 C 
ATOM     16  C   UNL     1      21.181 -11.889  45.904  1.00  0.00     0.010 C 
ATOM     17  C   UNL     1      21.411 -12.677  43.595  1.00  0.00     0.006 C 
ATOM     18  C   UNL     1      21.014 -10.656  45.026  1.00  0.00     0.041 C 
ATOM     19  C   UNL     1      21.292 -11.089  43.555  1.00  0.00     0.092 C 
ATOM     20  C   UNL     1      20.603 -13.343  42.429  1.00  0.00     0.011 C 
ATOM     21  C   UNL     1      22.901 -13.093  43.425  1.00  0.00     0.015 C 
ATOM     22  C   UNL     1      20.136 -10.651  42.635  1.00  0.00    -0.031 C 
ATOM     23  C   UNL     1      19.120 -12.911  42.303  1.00  0.00     0.009 C 
ATOM     24  C   UNL     1      18.842 -11.448  42.748  1.00  0.00     0.025 C 
ATOM     25  C   UNL     1      20.309  -9.751  41.639  1.00  0.00     0.050 C 
ATOM     26  C   UNL     1      17.618 -10.735  42.059  1.00  0.00    -0.013 C 
ATOM     27  C   UNL     1      19.259  -9.475  40.643  1.00  0.00     0.159 C 
ATOM     28  C   UNL     1      18.021 -10.332  40.610  1.00  0.00     0.070 C 
ATOM     29  C   UNL     1      16.369 -11.666  41.998  1.00  0.00     0.042 C 
ATOM     30  C   UNL     1      17.263  -9.482  42.925  1.00  0.00     0.013 C 
ATOM     31  O   UNL     1      19.446  -8.575  39.779  1.00  0.00    -0.295 OA
ATOM     32  C   UNL     1      16.854  -9.692  39.829  1.00  0.00     0.047 C 
ATOM     33  C   UNL     1      15.194 -11.049  41.213  1.00  0.00     0.143 C 
ATOM     34  C   UNL     1      15.631 -10.630  39.794  1.00  0.00     0.143 C 
BRANCH  19  35
ATOM     35  O   UNL     1      22.508 -10.513  43.115  1.00  0.00    -0.385 OA
ATOM     36  H   UNL     1      22.520 -10.500  42.122  1.00  0.00     0.211 HD
ENDBRANCH  19  35
BRANCH  33  37
ATOM     37  O   UNL     1      14.167 -12.005  41.128  1.00  0.00    -0.390 OA
ATOM     38  H   UNL     1      14.490 -12.728  40.527  1.00  0.00     0.211 HD
ENDBRANCH  33  37
BRANCH  34  39
ATOM     39  O   UNL     1      14.562  -9.982  39.155  1.00  0.00    -0.390 OA
ATOM     40  H   UNL     1      14.876  -9.067  38.927  1.00  0.00     0.211 HD
ENDBRANCH  34  39
ENDBRANCH   1  15
BRANCH   1  41
ATOM     41  O   UNL     1      19.885 -14.846  46.412  1.00  0.00    -0.387 OA
ATOM     42  H   UNL     1      20.115 -15.580  47.040  1.00  0.00     0.211 HD
ENDBRANCH   1  41
TORSDOF 9
ENDMDL
MODEL 6
REMARK VINA RESULT:    -5.683      3.394      7.896
REMARK INTER + INTRA:          -9.313
REMARK INTER:                  -7.984
REMARK INTRA:                  -1.329
REMARK UNBOUND:                -1.471
REMARK SMILES C[C@@H]1OC(=O)[C@H](C)[C@H]1C[C@H](O)[C@](C)(O)[C@H]1CC[C@]2(O)C3=CC(=O)[C@@H]4C[C@H](O)[C@@H](O)C[C@@]4(C)[C@H]3CC[C@]12C
REMARK SMILES IDX 12 1 13 2 10 3 9 4 8 5 7 6 6 7 4 8 2 9 3 10 5 11 1 12 11 13
REMARK SMILES IDX 15 15 16 16 36 17 17 18 18 19 35 20 37 21 20 22 34 23 33 24
REMARK SMILES IDX 21 25 31 26 22 27 24 28 30 29 32 30 23 31 25 32 28 33 26 34
REMARK SMILES IDX 19 35 29 37 27 39 14 41
REMARK H PARENT 11 14 19 36 29 38 27 40 14 42
REMARK Flexibility Score: inf
ROOT
ATOM      1  C   UNL     1      18.575 -15.168  39.590  1.00  0.00     0.091 C 
ATOM      2  C   UNL     1      19.737 -14.307  39.007  1.00  0.00     0.045 C 
ENDROOT
BRANCH   1   3
ATOM      3  C   UNL     1      17.271 -14.267  39.611  1.00  0.00     0.146 C 
BRANCH   3   4
ATOM      4  C   UNL     1      16.925 -13.671  40.999  1.00  0.00     0.043 C 
BRANCH   4   5
ATOM      5  C   UNL     1      17.204 -12.152  41.101  1.00  0.00     0.046 C 
ATOM      6  C   UNL     1      19.610 -11.297  41.376  1.00  0.00     0.020 C 
ATOM      7  C   UNL     1      18.357 -11.819  42.089  1.00  0.00     0.103 C 
ATOM      8  C   UNL     1      17.757 -10.768  42.943  1.00  0.00     0.309 C 
ATOM      9  C   UNL     1      15.954 -11.392  41.644  1.00  0.00     0.177 C 
ATOM     10  O   UNL     1      16.435 -10.524  42.653  1.00  0.00    -0.462 OA
ATOM     11  O   UNL     1      18.372 -10.167  43.864  1.00  0.00    -0.252 OA
ATOM     12  C   UNL     1      15.241 -10.584  40.559  1.00  0.00     0.053 C 
ENDBRANCH   4   5
ENDBRANCH   3   4
BRANCH   3  13
ATOM     13  O   UNL     1      16.158 -14.972  39.109  1.00  0.00    -0.390 OA
ATOM     14  H   UNL     1      15.355 -14.399  39.214  1.00  0.00     0.211 HD
ENDBRANCH   3  13
ENDBRANCH   1   3
BRANCH   1  15
ATOM     15  C   UNL     1      19.057 -15.704  41.025  1.00  0.00     0.032 C 
ATOM     16  C   UNL     1      18.153 -16.708  41.733  1.00  0.00     0.010 C 
ATOM     17  C   UNL     1      20.515 -16.229  41.284  1.00  0.00     0.006 C 
ATOM     18  C   UNL     1      18.904 -17.098  42.999  1.00  0.00     0.041 C 
ATOM     19  C   UNL     1      20.426 -16.941  42.707  1.00  0.00     0.092 C 
ATOM     20  C   UNL     1      21.564 -15.064  41.289  1.00  0.00     0.011 C 
ATOM     21  C   UNL     1      20.971 -17.261  40.212  1.00  0.00     0.015 C 
ATOM     22  C   UNL     1      21.098 -16.077  43.792  1.00  0.00    -0.031 C 
ATOM     23  C   UNL     1      21.399 -14.012  42.415  1.00  0.00     0.009 C 
ATOM     24  C   UNL     1      20.814 -14.581  43.737  1.00  0.00     0.025 C 
ATOM     25  C   UNL     1      22.047 -16.571  44.622  1.00  0.00     0.050 C 
ATOM     26  C   UNL     1      21.228 -13.828  45.058  1.00  0.00    -0.013 C 
ATOM     27  C   UNL     1      22.823 -15.705  45.527  1.00  0.00     0.159 C 
ATOM     28  C   UNL     1      22.695 -14.209  45.415  1.00  0.00     0.070 C 
ATOM     29  C   UNL     1      21.133 -12.281  44.893  1.00  0.00     0.042 C 
ATOM     30  C   UNL     1      20.232 -14.272  46.178  1.00  0.00     0.013 C 
ATOM     31  O   UNL     1      23.644 -16.227  46.330  1.00  0.00    -0.295 OA
ATOM     32  C   UNL     1      23.215 -13.456  46.658  1.00  0.00     0.047 C 
ATOM     33  C   UNL     1      21.656 -11.508  46.120  1.00  0.00     0.143 C 
ATOM     34  C   UNL     1      23.098 -11.931  46.470  1.00  0.00     0.143 C 
BRANCH  19  35
ATOM     35  O   UNL     1      21.033 -18.219  42.659  1.00  0.00    -0.385 OA
ATOM     36  H   UNL     1      21.252 -18.438  41.715  1.00  0.00     0.211 HD
ENDBRANCH  19  35
BRANCH  33  37
ATOM     37  O   UNL     1      21.625 -10.134  45.827  1.00  0.00    -0.390 OA
ATOM     38  H   UNL     1      21.269  -9.672  46.631  1.00  0.00     0.211 HD
ENDBRANCH  33  37
BRANCH  34  39
ATOM     39  O   UNL     1      23.495 -11.282  47.650  1.00  0.00    -0.390 OA
ATOM     40  H   UNL     1      22.664 -11.034  48.135  1.00  0.00     0.211 HD
ENDBRANCH  34  39
ENDBRANCH   1  15
BRANCH   1  41
ATOM     41  O   UNL     1      18.387 -16.264  38.727  1.00  0.00    -0.387 OA
ATOM     42  H   UNL     1      18.979 -17.009  39.011  1.00  0.00     0.211 HD
ENDBRANCH   1  41
TORSDOF 9
ENDMDL
MODEL 7
REMARK VINA RESULT:    -5.657      2.659      6.115
REMARK INTER + INTRA:          -9.277
REMARK INTER:                  -7.666
REMARK INTRA:                  -1.611
REMARK UNBOUND:                -1.471
REMARK SMILES C[C@@H]1OC(=O)[C@H](C)[C@H]1C[C@H](O)[C@](C)(O)[C@H]1CC[C@]2(O)C3=CC(=O)[C@@H]4C[C@H](O)[C@@H](O)C[C@@]4(C)[C@H]3CC[C@]12C
REMARK SMILES IDX 12 1 13 2 10 3 9 4 8 5 7 6 6 7 4 8 2 9 3 10 5 11 1 12 11 13
REMARK SMILES IDX 15 15 16 16 36 17 17 18 18 19 35 20 37 21 20 22 34 23 33 24
REMARK SMILES IDX 21 25 31 26 22 27 24 28 30 29 32 30 23 31 25 32 28 33 26 34
REMARK SMILES IDX 19 35 29 37 27 39 14 41
REMARK H PARENT 11 14 19 36 29 38 27 40 14 42
REMARK Flexibility Score: inf
ROOT
ATOM      1  C   UNL     1      18.592 -12.029  41.757  1.00  0.00     0.091 C 
ATOM      2  C   UNL     1      17.524 -11.078  42.379  1.00  0.00     0.045 C 
ENDROOT
BRANCH   1   3
ATOM      3  C   UNL     1      18.014 -13.504  41.814  1.00  0.00     0.146 C 
BRANCH   3   4
ATOM      4  C   UNL     1      18.712 -14.504  40.858  1.00  0.00     0.043 C 
BRANCH   4   5
ATOM      5  C   UNL     1      19.889 -15.262  41.518  1.00  0.00     0.046 C 
ATOM      6  C   UNL     1      22.300 -14.443  41.186  1.00  0.00     0.020 C 
ATOM      7  C   UNL     1      21.159 -15.297  40.621  1.00  0.00     0.103 C 
ATOM      8  C   UNL     1      21.519 -16.734  40.627  1.00  0.00     0.309 C 
ATOM      9  C   UNL     1      19.516 -16.755  41.774  1.00  0.00     0.177 C 
ATOM     10  O   UNL     1      20.612 -17.517  41.301  1.00  0.00    -0.462 OA
ATOM     11  O   UNL     1      22.533 -17.211  40.053  1.00  0.00    -0.252 OA
ATOM     12  C   UNL     1      19.272 -17.055  43.252  1.00  0.00     0.053 C 
ENDBRANCH   4   5
ENDBRANCH   3   4
BRANCH   3  13
ATOM     13  O   UNL     1      16.624 -13.514  41.573  1.00  0.00    -0.390 OA
ATOM     14  H   UNL     1      16.443 -12.954  40.775  1.00  0.00     0.211 HD
ENDBRANCH   3  13
ENDBRANCH   1   3
BRANCH   1  15
ATOM     15  C   UNL     1      19.959 -11.801  42.567  1.00  0.00     0.032 C 
ATOM     16  C   UNL     1      20.937 -10.774  42.007  1.00  0.00     0.010 C 
ATOM     17  C   UNL     1      19.993 -11.576  44.122  1.00  0.00     0.006 C 
ATOM     18  C   UNL     1      22.072 -10.709  43.021  1.00  0.00     0.041 C 
ATOM     19  C   UNL     1      21.478 -11.078  44.413  1.00  0.00     0.092 C 
ATOM     20  C   UNL     1      19.662 -12.890  44.910  1.00  0.00     0.011 C 
ATOM     21  C   UNL     1      18.978 -10.490  44.584  1.00  0.00     0.015 C 
ATOM     22  C   UNL     1      22.307 -12.194  45.076  1.00  0.00    -0.031 C 
ATOM     23  C   UNL     1      20.671 -14.054  44.735  1.00  0.00     0.009 C 
ATOM     24  C   UNL     1      22.137 -13.596  44.502  1.00  0.00     0.025 C 
ATOM     25  C   UNL     1      22.991 -11.998  46.228  1.00  0.00     0.050 C 
ATOM     26  C   UNL     1      23.259 -14.596  44.977  1.00  0.00    -0.013 C 
ATOM     27  C   UNL     1      23.625 -13.107  46.961  1.00  0.00     0.159 C 
ATOM     28  C   UNL     1      23.369 -14.526  46.529  1.00  0.00     0.070 C 
ATOM     29  C   UNL     1      22.939 -16.062  44.556  1.00  0.00     0.042 C 
ATOM     30  C   UNL     1      24.593 -14.159  44.287  1.00  0.00     0.013 C 
ATOM     31  O   UNL     1      24.310 -12.857  47.990  1.00  0.00    -0.295 OA
ATOM     32  C   UNL     1      24.395 -15.533  47.093  1.00  0.00     0.047 C 
ATOM     33  C   UNL     1      23.947 -17.085  45.118  1.00  0.00     0.143 C 
ATOM     34  C   UNL     1      24.059 -16.971  46.652  1.00  0.00     0.143 C 
BRANCH  19  35
ATOM     35  O   UNL     1      21.461  -9.929  45.239  1.00  0.00    -0.385 OA
ATOM     36  H   UNL     1      20.665  -9.969  45.833  1.00  0.00     0.211 HD
ENDBRANCH  19  35
BRANCH  33  37
ATOM     37  O   UNL     1      23.509 -18.375  44.771  1.00  0.00    -0.390 OA
ATOM     38  H   UNL     1      23.843 -18.995  45.472  1.00  0.00     0.211 HD
ENDBRANCH  33  37
BRANCH  34  39
ATOM     39  O   UNL     1      25.059 -17.845  47.107  1.00  0.00    -0.390 OA
ATOM     40  H   UNL     1      25.914 -17.537  46.707  1.00  0.00     0.211 HD
ENDBRANCH  34  39
ENDBRANCH   1  15
BRANCH   1  41
ATOM     41  O   UNL     1      18.778 -11.637  40.418  1.00  0.00    -0.387 OA
ATOM     42  H   UNL     1      19.183 -12.388  39.911  1.00  0.00     0.211 HD
ENDBRANCH   1  41
TORSDOF 9
ENDMDL
MODEL 8
REMARK VINA RESULT:    -5.643     14.402     16.495
REMARK INTER + INTRA:          -9.259
REMARK INTER:                  -7.904
REMARK INTRA:                  -1.355
REMARK UNBOUND:                -1.471
REMARK SMILES C[C@@H]1OC(=O)[C@H](C)[C@H]1C[C@H](O)[C@](C)(O)[C@H]1CC[C@]2(O)C3=CC(=O)[C@@H]4C[C@H](O)[C@@H](O)C[C@@]4(C)[C@H]3CC[C@]12C
REMARK SMILES IDX 12 1 13 2 10 3 9 4 8 5 7 6 6 7 4 8 2 9 3 10 5 11 1 12 11 13
REMARK SMILES IDX 15 15 16 16 36 17 17 18 18 19 35 20 37 21 20 22 34 23 33 24
REMARK SMILES IDX 21 25 31 26 22 27 24 28 30 29 32 30 23 31 25 32 28 33 26 34
REMARK SMILES IDX 19 35 29 37 27 39 14 41
REMARK H PARENT 11 14 19 36 29 38 27 40 14 42
REMARK Flexibility Score: inf
ROOT
ATOM      1  C   UNL     1       8.633  -4.088  39.728  1.00  0.00     0.091 C 
ATOM      2  C   UNL     1       9.627  -5.250  40.037  1.00  0.00     0.045 C 
ENDROOT
BRANCH   1   3
ATOM      3  C   UNL     1       8.287  -4.150  38.182  1.00  0.00     0.146 C 
BRANCH   3   4
ATOM      4  C   UNL     1       9.221  -3.304  37.281  1.00  0.00     0.043 C 
BRANCH   4   5
ATOM      5  C   UNL     1      10.216  -4.156  36.456  1.00  0.00     0.046 C 
ATOM      6  C   UNL     1      12.351  -5.070  37.553  1.00  0.00     0.020 C 
ATOM      7  C   UNL     1      11.699  -3.882  36.834  1.00  0.00     0.103 C 
ATOM      8  C   UNL     1      12.331  -3.649  35.515  1.00  0.00     0.309 C 
ATOM      9  C   UNL     1      10.103  -3.828  34.936  1.00  0.00     0.177 C 
ATOM     10  O   UNL     1      11.431  -3.659  34.475  1.00  0.00    -0.462 OA
ATOM     11  O   UNL     1      13.560  -3.435  35.347  1.00  0.00    -0.252 OA
ATOM     12  C   UNL     1       9.415  -4.940  34.143  1.00  0.00     0.053 C 
ENDBRANCH   4   5
ENDBRANCH   3   4
BRANCH   3  13
ATOM     13  O   UNL     1       6.946  -3.783  37.946  1.00  0.00    -0.390 OA
ATOM     14  H   UNL     1       6.767  -2.934  38.427  1.00  0.00     0.211 HD
ENDBRANCH   3  13
ENDBRANCH   1   3
BRANCH   1  15
ATOM     15  C   UNL     1       9.329  -2.727  40.217  1.00  0.00     0.032 C 
ATOM     16  C   UNL     1       8.466  -1.470  40.233  1.00  0.00     0.010 C 
ATOM     17  C   UNL     1      10.182  -2.640  41.534  1.00  0.00     0.006 C 
ATOM     18  C   UNL     1       9.354  -0.382  40.823  1.00  0.00     0.041 C 
ATOM     19  C   UNL     1      10.376  -1.077  41.771  1.00  0.00     0.092 C 
ATOM     20  C   UNL     1      11.560  -3.374  41.386  1.00  0.00     0.011 C 
ATOM     21  C   UNL     1       9.450  -3.267  42.755  1.00  0.00     0.015 C 
ATOM     22  C   UNL     1      11.814  -0.646  41.425  1.00  0.00    -0.031 C 
ATOM     23  C   UNL     1      12.532  -2.779  40.337  1.00  0.00     0.009 C 
ATOM     24  C   UNL     1      12.411  -1.241  40.155  1.00  0.00     0.025 C 
ATOM     25  C   UNL     1      12.586   0.053  42.289  1.00  0.00     0.050 C 
ATOM     26  C   UNL     1      13.714  -0.494  39.679  1.00  0.00    -0.013 C 
ATOM     27  C   UNL     1      14.017   0.300  42.038  1.00  0.00     0.159 C 
ATOM     28  C   UNL     1      14.697  -0.384  40.882  1.00  0.00     0.070 C 
ATOM     29  C   UNL     1      14.421  -1.254  38.515  1.00  0.00     0.042 C 
ATOM     30  C   UNL     1      13.280   0.916  39.162  1.00  0.00     0.013 C 
ATOM     31  O   UNL     1      14.671   1.018  42.842  1.00  0.00    -0.295 OA
ATOM     32  C   UNL     1      16.040   0.269  40.489  1.00  0.00     0.047 C 
ATOM     33  C   UNL     1      15.770  -0.624  38.113  1.00  0.00     0.143 C 
ATOM     34  C   UNL     1      16.709  -0.497  39.331  1.00  0.00     0.143 C 
BRANCH  19  35
ATOM     35  O   UNL     1      10.079  -0.741  43.114  1.00  0.00    -0.385 OA
ATOM     36  H   UNL     1       9.686   0.171  43.140  1.00  0.00     0.211 HD
ENDBRANCH  19  35
BRANCH  33  37
ATOM     37  O   UNL     1      16.368  -1.441  37.138  1.00  0.00    -0.390 OA
ATOM     38  H   UNL     1      15.865  -2.298  37.127  1.00  0.00     0.211 HD
ENDBRANCH  33  37
BRANCH  34  39
ATOM     39  O   UNL     1      17.880   0.174  38.941  1.00  0.00    -0.390 OA
ATOM     40  H   UNL     1      18.460   0.230  39.746  1.00  0.00     0.211 HD
ENDBRANCH  34  39
ENDBRANCH   1  15
BRANCH   1  41
ATOM     41  O   UNL     1       7.471  -4.313  40.489  1.00  0.00    -0.387 OA
ATOM     42  H   UNL     1       6.825  -3.578  40.323  1.00  0.00     0.211 HD
ENDBRANCH   1  41
TORSDOF 9
ENDMDL
MODEL 9
REMARK VINA RESULT:    -5.618      2.654      6.263
REMARK INTER + INTRA:          -9.224
REMARK INTER:                  -7.804
REMARK INTRA:                  -1.420
REMARK UNBOUND:                -1.471
REMARK SMILES C[C@@H]1OC(=O)[C@H](C)[C@H]1C[C@H](O)[C@](C)(O)[C@H]1CC[C@]2(O)C3=CC(=O)[C@@H]4C[C@H](O)[C@@H](O)C[C@@]4(C)[C@H]3CC[C@]12C
REMARK SMILES IDX 12 1 13 2 10 3 9 4 8 5 7 6 6 7 4 8 2 9 3 10 5 11 1 12 11 13
REMARK SMILES IDX 15 15 16 16 36 17 17 18 18 19 35 20 37 21 20 22 34 23 33 24
REMARK SMILES IDX 21 25 31 26 22 27 24 28 30 29 32 30 23 31 25 32 28 33 26 34
REMARK SMILES IDX 19 35 29 37 27 39 14 41
REMARK H PARENT 11 14 19 36 29 38 27 40 14 42
REMARK Flexibility Score: inf
ROOT
ATOM      1  C   UNL     1      23.293 -11.460  45.384  1.00  0.00     0.091 C 
ATOM      2  C   UNL     1      22.561 -11.404  46.760  1.00  0.00     0.045 C 
ENDROOT
BRANCH   1   3
ATOM      3  C   UNL     1      22.847 -10.189  44.550  1.00  0.00     0.146 C 
BRANCH   3   4
ATOM      4  C   UNL     1      23.298 -10.203  43.068  1.00  0.00     0.043 C 
BRANCH   4   5
ATOM      5  C   UNL     1      22.281 -10.887  42.123  1.00  0.00     0.046 C 
ATOM      6  C   UNL     1      22.988 -12.913  40.712  1.00  0.00     0.020 C 
ATOM      7  C   UNL     1      22.929 -11.383  40.800  1.00  0.00     0.103 C 
ATOM      8  C   UNL     1      22.023 -10.827  39.768  1.00  0.00     0.309 C 
ATOM      9  C   UNL     1      21.162  -9.888  41.693  1.00  0.00     0.177 C 
ATOM     10  O   UNL     1      21.031 -10.031  40.290  1.00  0.00    -0.462 OA
ATOM     11  O   UNL     1      22.150 -11.031  38.531  1.00  0.00    -0.252 OA
ATOM     12  C   UNL     1      19.824 -10.176  42.372  1.00  0.00     0.053 C 
ENDBRANCH   4   5
ENDBRANCH   3   4
BRANCH   3  13
ATOM     13  O   UNL     1      23.285  -8.998  45.165  1.00  0.00    -0.390 OA
ATOM     14  H   UNL     1      22.748  -8.246  44.803  1.00  0.00     0.211 HD
ENDBRANCH   3  13
ENDBRANCH   1   3
BRANCH   1  15
ATOM     15  C   UNL     1      22.936 -12.875  44.716  1.00  0.00     0.032 C 
ATOM     16  C   UNL     1      24.091 -13.680  44.129  1.00  0.00     0.010 C 
ATOM     17  C   UNL     1      22.030 -13.942  45.428  1.00  0.00     0.006 C 
ATOM     18  C   UNL     1      23.470 -14.990  43.663  1.00  0.00     0.041 C 
ATOM     19  C   UNL     1      22.229 -15.265  44.563  1.00  0.00     0.092 C 
ATOM     20  C   UNL     1      20.526 -13.500  45.465  1.00  0.00     0.011 C 
ATOM     21  C   UNL     1      22.472 -14.207  46.896  1.00  0.00     0.015 C 
ATOM     22  C   UNL     1      20.985 -15.543  43.698  1.00  0.00    -0.031 C 
ATOM     23  C   UNL     1      19.830 -13.360  44.088  1.00  0.00     0.009 C 
ATOM     24  C   UNL     1      20.360 -14.339  43.003  1.00  0.00     0.025 C 
ATOM     25  C   UNL     1      20.352 -16.740  43.708  1.00  0.00     0.050 C 
ATOM     26  C   UNL     1      19.338 -14.741  41.874  1.00  0.00    -0.013 C 
ATOM     27  C   UNL     1      19.060 -16.948  43.032  1.00  0.00     0.159 C 
ATOM     28  C   UNL     1      18.323 -15.767  42.458  1.00  0.00     0.070 C 
ATOM     29  C   UNL     1      18.557 -13.504  41.337  1.00  0.00     0.042 C 
ATOM     30  C   UNL     1      20.164 -15.359  40.698  1.00  0.00     0.013 C 
ATOM     31  O   UNL     1      18.550 -18.102  43.012  1.00  0.00    -0.295 OA
ATOM     32  C   UNL     1      17.232 -16.162  41.440  1.00  0.00     0.047 C 
ATOM     33  C   UNL     1      17.455 -13.878  40.325  1.00  0.00     0.143 C 
ATOM     34  C   UNL     1      16.484 -14.920  40.919  1.00  0.00     0.143 C 
BRANCH  19  35
ATOM     35  O   UNL     1      22.492 -16.372  45.406  1.00  0.00    -0.385 OA
ATOM     36  H   UNL     1      23.047 -16.069  46.172  1.00  0.00     0.211 HD
ENDBRANCH  19  35
BRANCH  33  37
ATOM     37  O   UNL     1      16.747 -12.711  39.988  1.00  0.00    -0.390 OA
ATOM     38  H   UNL     1      16.632 -12.188  40.824  1.00  0.00     0.211 HD
ENDBRANCH  33  37
BRANCH  34  39
ATOM     39  O   UNL     1      15.563 -15.306  39.932  1.00  0.00    -0.390 OA
ATOM     40  H   UNL     1      15.254 -14.474  39.486  1.00  0.00     0.211 HD
ENDBRANCH  34  39
ENDBRANCH   1  15
BRANCH   1  41
ATOM     41  O   UNL     1      24.677 -11.406  45.639  1.00  0.00    -0.387 OA
ATOM     42  H   UNL     1      25.051 -12.325  45.610  1.00  0.00     0.211 HD
ENDBRANCH   1  41
TORSDOF 9
ENDMDL
