MODEL 1
REMARK VINA RESULT:    -6.227      0.000      0.000
REMARK INTER + INTRA:          -6.773
REMARK INTER:                  -6.773
REMARK INTRA:                   0.000
REMARK UNBOUND:                 0.000
REMARK SMILES Cc1cc(O)c2c(c1)C(=O)c1cc(O)cc(O)c1C2=O
REMARK SMILES IDX 1 1 2 2 8 3 7 4 6 5 4 6 3 7 19 8 20 9 18 10 11 11 9 12 10 13
REMARK SMILES IDX 12 14 13 15 15 16 16 17 5 18 17 20 14 22
REMARK H PARENT 5 19 17 21 14 23
REMARK Flexibility Score: inf
ROOT
ATOM      1  C   UNL     1      10.270 -10.370   9.592  1.00  0.00     0.044 C 
ATOM      2  C   UNL     1       9.659  -9.430   8.595  1.00  0.00    -0.047 A 
ATOM      3  C   UNL     1       9.994  -9.526   7.239  1.00  0.00     0.016 A 
ATOM      4  C   UNL     1       9.406  -8.670   6.294  1.00  0.00     0.038 A 
ATOM      5  C   UNL     1       8.466  -7.701   6.711  1.00  0.00     0.076 A 
ATOM      6  C   UNL     1       8.068  -7.664   8.073  1.00  0.00     0.127 A 
ATOM      7  C   UNL     1       8.682  -8.513   8.999  1.00  0.00     0.050 A 
ATOM      8  C   UNL     1       7.979  -6.717   5.709  1.00  0.00     0.201 C 
ATOM      9  O   UNL     1       7.641  -5.562   6.079  1.00  0.00    -0.288 OA
ATOM     10  C   UNL     1       8.068  -7.035   4.260  1.00  0.00     0.076 A 
ATOM     11  C   UNL     1       9.007  -8.007   3.847  1.00  0.00     0.041 A 
ATOM     12  C   UNL     1       9.761  -8.784   4.859  1.00  0.00     0.194 C 
ATOM     13  O   UNL     1      10.687  -9.561   4.498  1.00  0.00    -0.289 OA
ATOM     14  C   UNL     1       9.218  -8.236   2.476  1.00  0.00     0.059 A 
ATOM     15  C   UNL     1       8.496  -7.520   1.518  1.00  0.00     0.120 A 
ATOM     16  C   UNL     1       7.540  -6.589   1.923  1.00  0.00     0.093 A 
ATOM     17  C   UNL     1       7.296  -6.357   3.281  1.00  0.00     0.131 A 
ENDROOT
BRANCH   6  18
ATOM     18  O   UNL     1       7.048  -6.832   8.539  1.00  0.00    -0.507 OA
ATOM     19  H   UNL     1       6.524  -6.205   7.944  1.00  0.00     0.293 HD
ENDBRANCH   6  18
BRANCH  17  20
ATOM     20  O   UNL     1       6.261  -5.478   3.609  1.00  0.00    -0.507 OA
ATOM     21  H   UNL     1       6.146  -5.068   4.526  1.00  0.00     0.293 HD
ENDBRANCH  17  20
BRANCH  15  22
ATOM     22  O   UNL     1       8.711  -7.735   0.159  1.00  0.00    -0.508 OA
ATOM     23  H   UNL     1       8.168  -7.252  -0.547  1.00  0.00     0.293 HD
ENDBRANCH  15  22
TORSDOF 3
ENDMDL
MODEL 2
REMARK VINA RESULT:    -5.702      2.631      4.989
REMARK INTER + INTRA:          -6.203
REMARK INTER:                  -6.203
REMARK INTRA:                   0.000
REMARK UNBOUND:                 0.000
REMARK SMILES Cc1cc(O)c2c(c1)C(=O)c1cc(O)cc(O)c1C2=O
REMARK SMILES IDX 1 1 2 2 8 3 7 4 6 5 4 6 3 7 19 8 20 9 18 10 11 11 9 12 10 13
REMARK SMILES IDX 12 14 13 15 15 16 16 17 5 18 17 20 14 22
REMARK H PARENT 5 19 17 21 14 23
REMARK Flexibility Score: inf
ROOT
ATOM      1  C   UNL     1       9.475 -11.003   0.830  1.00  0.00     0.044 C 
ATOM      2  C   UNL     1       9.093 -10.406   2.151  1.00  0.00    -0.047 A 
ATOM      3  C   UNL     1       9.736  -9.253   2.616  1.00  0.00     0.016 A 
ATOM      4  C   UNL     1       9.366  -8.669   3.838  1.00  0.00     0.038 A 
ATOM      5  C   UNL     1       8.334  -9.249   4.611  1.00  0.00     0.076 A 
ATOM      6  C   UNL     1       7.629 -10.367   4.095  1.00  0.00     0.127 A 
ATOM      7  C   UNL     1       8.029 -10.943   2.885  1.00  0.00     0.050 A 
ATOM      8  C   UNL     1       8.073  -8.693   5.964  1.00  0.00     0.201 C 
ATOM      9  O   UNL     1       7.633  -9.444   6.875  1.00  0.00    -0.288 OA
ATOM     10  C   UNL     1       8.504  -7.309   6.289  1.00  0.00     0.076 A 
ATOM     11  C   UNL     1       9.534  -6.731   5.513  1.00  0.00     0.041 A 
ATOM     12  C   UNL     1      10.048  -7.444   4.319  1.00  0.00     0.194 C 
ATOM     13  O   UNL     1      11.049  -6.994   3.697  1.00  0.00    -0.289 OA
ATOM     14  C   UNL     1      10.063  -5.480   5.874  1.00  0.00     0.059 A 
ATOM     15  C   UNL     1       9.569  -4.796   6.987  1.00  0.00     0.120 A 
ATOM     16  C   UNL     1       8.526  -5.345   7.731  1.00  0.00     0.093 A 
ATOM     17  C   UNL     1       7.967  -6.578   7.381  1.00  0.00     0.131 A 
ENDROOT
BRANCH   6  18
ATOM     18  O   UNL     1       6.511 -10.913   4.730  1.00  0.00    -0.507 OA
ATOM     19  H   UNL     1       6.401 -11.901   4.914  1.00  0.00     0.293 HD
ENDBRANCH   6  18
BRANCH  17  20
ATOM     20  O   UNL     1       6.866  -7.019   8.118  1.00  0.00    -0.507 OA
ATOM     21  H   UNL     1       6.572  -7.986   8.160  1.00  0.00     0.293 HD
ENDBRANCH  17  20
BRANCH  15  22
ATOM     22  O   UNL     1      10.100  -3.562   7.356  1.00  0.00    -0.508 OA
ATOM     23  H   UNL     1       9.686  -2.692   7.042  1.00  0.00     0.293 HD
ENDBRANCH  15  22
TORSDOF 3
ENDMDL
MODEL 3
REMARK VINA RESULT:    -5.555      1.633      2.729
REMARK INTER + INTRA:          -6.042
REMARK INTER:                  -6.042
REMARK INTRA:                   0.000
REMARK UNBOUND:                 0.000
REMARK SMILES Cc1cc(O)c2c(c1)C(=O)c1cc(O)cc(O)c1C2=O
REMARK SMILES IDX 1 1 2 2 8 3 7 4 6 5 4 6 3 7 19 8 20 9 18 10 11 11 9 12 10 13
REMARK SMILES IDX 12 14 13 15 15 16 16 17 5 18 17 20 14 22
REMARK H PARENT 5 19 17 21 14 23
REMARK Flexibility Score: inf
ROOT
ATOM      1  C   UNL     1       8.123  -7.371   9.322  1.00  0.00     0.044 C 
ATOM      2  C   UNL     1       8.122  -7.296   7.824  1.00  0.00    -0.047 A 
ATOM      3  C   UNL     1       8.945  -8.145   7.076  1.00  0.00     0.016 A 
ATOM      4  C   UNL     1       8.930  -8.103   5.673  1.00  0.00     0.038 A 
ATOM      5  C   UNL     1       8.077  -7.195   5.005  1.00  0.00     0.076 A 
ATOM      6  C   UNL     1       7.185  -6.397   5.766  1.00  0.00     0.127 A 
ATOM      7  C   UNL     1       7.232  -6.442   7.163  1.00  0.00     0.050 A 
ATOM      8  C   UNL     1       8.197  -7.074   3.529  1.00  0.00     0.201 C 
ATOM      9  O   UNL     1       7.937  -5.977   2.967  1.00  0.00    -0.288 OA
ATOM     10  C   UNL     1       8.799  -8.184   2.744  1.00  0.00     0.076 A 
ATOM     11  C   UNL     1       9.649  -9.091   3.415  1.00  0.00     0.041 A 
ATOM     12  C   UNL     1       9.800  -9.011   4.888  1.00  0.00     0.194 C 
ATOM     13  O   UNL     1      10.650  -9.735   5.475  1.00  0.00    -0.289 OA
ATOM     14  C   UNL     1      10.344 -10.069   2.683  1.00  0.00     0.059 A 
ATOM     15  C   UNL     1      10.190 -10.161   1.298  1.00  0.00     0.120 A 
ATOM     16  C   UNL     1       9.321  -9.293   0.638  1.00  0.00     0.093 A 
ATOM     17  C   UNL     1       8.602  -8.324   1.345  1.00  0.00     0.131 A 
ENDROOT
BRANCH   6  18
ATOM     18  O   UNL     1       6.217  -5.577   5.180  1.00  0.00    -0.507 OA
ATOM     19  H   UNL     1       5.242  -5.588   5.446  1.00  0.00     0.293 HD
ENDBRANCH   6  18
BRANCH  17  20
ATOM     20  O   UNL     1       7.683  -7.553   0.629  1.00  0.00    -0.507 OA
ATOM     21  H   UNL     1       7.598  -6.550   0.729  1.00  0.00     0.293 HD
ENDBRANCH  17  20
BRANCH  15  22
ATOM     22  O   UNL     1      10.887 -11.121   0.567  1.00  0.00    -0.508 OA
ATOM     23  H   UNL     1      10.899 -12.094   0.847  1.00  0.00     0.293 HD
ENDBRANCH  15  22
TORSDOF 3
ENDMDL
MODEL 4
REMARK VINA RESULT:    -5.551      1.657      5.420
REMARK INTER + INTRA:          -6.038
REMARK INTER:                  -6.038
REMARK INTRA:                   0.000
REMARK UNBOUND:                 0.000
REMARK SMILES Cc1cc(O)c2c(c1)C(=O)c1cc(O)cc(O)c1C2=O
REMARK SMILES IDX 1 1 2 2 8 3 7 4 6 5 4 6 3 7 19 8 20 9 18 10 11 11 9 12 10 13
REMARK SMILES IDX 12 14 13 15 15 16 16 17 5 18 17 20 14 22
REMARK H PARENT 5 19 17 21 14 23
REMARK Flexibility Score: inf
ROOT
ATOM      1  C   UNL     1       9.310  -9.291   0.627  1.00  0.00     0.044 C 
ATOM      2  C   UNL     1       8.899  -8.482   1.822  1.00  0.00    -0.047 A 
ATOM      3  C   UNL     1       9.361  -8.825   3.097  1.00  0.00     0.016 A 
ATOM      4  C   UNL     1       9.005  -8.058   4.218  1.00  0.00     0.038 A 
ATOM      5  C   UNL     1       8.173  -6.927   4.061  1.00  0.00     0.076 A 
ATOM      6  C   UNL     1       7.777  -6.535   2.756  1.00  0.00     0.127 A 
ATOM      7  C   UNL     1       8.127  -7.327   1.657  1.00  0.00     0.050 A 
ATOM      8  C   UNL     1       7.697  -6.229   5.284  1.00  0.00     0.201 C 
ATOM      9  O   UNL     1       6.582  -5.643   5.277  1.00  0.00    -0.288 OA
ATOM     10  C   UNL     1       8.446  -6.382   6.559  1.00  0.00     0.076 A 
ATOM     11  C   UNL     1       9.279  -7.513   6.711  1.00  0.00     0.041 A 
ATOM     12  C   UNL     1       9.506  -8.424   5.565  1.00  0.00     0.194 C 
ATOM     13  O   UNL     1      10.145  -9.499   5.729  1.00  0.00    -0.289 OA
ATOM     14  C   UNL     1       9.895  -7.764   7.950  1.00  0.00     0.059 A 
ATOM     15  C   UNL     1       9.700  -6.898   9.027  1.00  0.00     0.120 A 
ATOM     16  C   UNL     1       8.911  -5.760   8.869  1.00  0.00     0.093 A 
ATOM     17  C   UNL     1       8.304  -5.475   7.641  1.00  0.00     0.131 A 
ENDROOT
BRANCH   6  18
ATOM     18  O   UNL     1       7.071  -5.357   2.503  1.00  0.00    -0.507 OA
ATOM     19  H   UNL     1       7.441  -4.592   1.956  1.00  0.00     0.293 HD
ENDBRANCH   6  18
BRANCH  17  20
ATOM     20  O   UNL     1       7.604  -4.271   7.533  1.00  0.00    -0.507 OA
ATOM     21  H   UNL     1       6.651  -4.207   7.198  1.00  0.00     0.293 HD
ENDBRANCH  17  20
BRANCH  15  22
ATOM     22  O   UNL     1      10.299  -7.151  10.260  1.00  0.00    -0.508 OA
ATOM     23  H   UNL     1      10.096  -6.583  11.074  1.00  0.00     0.293 HD
ENDBRANCH  15  22
TORSDOF 3
ENDMDL
MODEL 5
REMARK VINA RESULT:    -5.401      2.512      3.317
REMARK INTER + INTRA:          -5.874
REMARK INTER:                  -5.874
REMARK INTRA:                   0.000
REMARK UNBOUND:                 0.000
REMARK SMILES Cc1cc(O)c2c(c1)C(=O)c1cc(O)cc(O)c1C2=O
REMARK SMILES IDX 1 1 2 2 8 3 7 4 6 5 4 6 3 7 19 8 20 9 18 10 11 11 9 12 10 13
REMARK SMILES IDX 12 14 13 15 15 16 16 17 5 18 17 20 14 22
REMARK H PARENT 5 19 17 21 14 23
REMARK Flexibility Score: inf
ROOT
ATOM      1  C   UNL     1      10.484  -3.998   7.728  1.00  0.00     0.044 C 
ATOM      2  C   UNL     1       9.688  -5.143   7.176  1.00  0.00    -0.047 A 
ATOM      3  C   UNL     1      10.019  -5.697   5.934  1.00  0.00     0.016 A 
ATOM      4  C   UNL     1       9.298  -6.788   5.422  1.00  0.00     0.038 A 
ATOM      5  C   UNL     1       8.227  -7.335   6.165  1.00  0.00     0.076 A 
ATOM      6  C   UNL     1       7.951  -6.824   7.459  1.00  0.00     0.127 A 
ATOM      7  C   UNL     1       8.670  -5.725   7.940  1.00  0.00     0.050 A 
ATOM      8  C   UNL     1       7.395  -8.388   5.526  1.00  0.00     0.201 C 
ATOM      9  O   UNL     1       6.179  -8.498   5.837  1.00  0.00    -0.288 OA
ATOM     10  C   UNL     1       7.946  -9.180   4.396  1.00  0.00     0.076 A 
ATOM     11  C   UNL     1       9.019  -8.631   3.657  1.00  0.00     0.041 A 
ATOM     12  C   UNL     1       9.659  -7.373   4.109  1.00  0.00     0.194 C 
ATOM     13  O   UNL     1      10.530  -6.814   3.387  1.00  0.00    -0.289 OA
ATOM     14  C   UNL     1       9.476  -9.284   2.500  1.00  0.00     0.059 A 
ATOM     15  C   UNL     1       8.888 -10.480   2.082  1.00  0.00     0.120 A 
ATOM     16  C   UNL     1       7.857 -11.045   2.831  1.00  0.00     0.093 A 
ATOM     17  C   UNL     1       7.397 -10.426   3.998  1.00  0.00     0.131 A 
ENDROOT
BRANCH   6  18
ATOM     18  O   UNL     1       7.004  -7.396   8.311  1.00  0.00    -0.507 OA
ATOM     19  H   UNL     1       6.587  -6.907   9.091  1.00  0.00     0.293 HD
ENDBRANCH   6  18
BRANCH  17  20
ATOM     20  O   UNL     1       6.425 -11.098   4.743  1.00  0.00    -0.507 OA
ATOM     21  H   UNL     1       5.436 -11.057   4.538  1.00  0.00     0.293 HD
ENDBRANCH  17  20
BRANCH  15  22
ATOM     22  O   UNL     1       9.331 -11.124   0.928  1.00  0.00    -0.508 OA
ATOM     23  H   UNL     1       9.570 -10.606   0.091  1.00  0.00     0.293 HD
ENDBRANCH  15  22
TORSDOF 3
ENDMDL
MODEL 6
REMARK VINA RESULT:    -5.370      1.290      3.210
REMARK INTER + INTRA:          -5.841
REMARK INTER:                  -5.841
REMARK INTRA:                   0.000
REMARK UNBOUND:                 0.000
REMARK SMILES Cc1cc(O)c2c(c1)C(=O)c1cc(O)cc(O)c1C2=O
REMARK SMILES IDX 1 1 2 2 8 3 7 4 6 5 4 6 3 7 19 8 20 9 18 10 11 11 9 12 10 13
REMARK SMILES IDX 12 14 13 15 15 16 16 17 5 18 17 20 14 22
REMARK H PARENT 5 19 17 21 14 23
REMARK Flexibility Score: inf
ROOT
ATOM      1  C   UNL     1       8.022  -7.496  10.819  1.00  0.00     0.044 C 
ATOM      2  C   UNL     1       8.444  -7.868   9.428  1.00  0.00    -0.047 A 
ATOM      3  C   UNL     1       7.804  -7.299   8.322  1.00  0.00     0.016 A 
ATOM      4  C   UNL     1       8.210  -7.619   7.016  1.00  0.00     0.038 A 
ATOM      5  C   UNL     1       9.277  -8.524   6.813  1.00  0.00     0.076 A 
ATOM      6  C   UNL     1       9.976  -9.032   7.938  1.00  0.00     0.127 A 
ATOM      7  C   UNL     1       9.541  -8.715   9.229  1.00  0.00     0.050 A 
ATOM      8  C   UNL     1       9.580  -8.952   5.423  1.00  0.00     0.201 C 
ATOM      9  O   UNL     1      10.062 -10.096   5.211  1.00  0.00    -0.288 OA
ATOM     10  C   UNL     1       9.144  -8.109   4.279  1.00  0.00     0.076 A 
ATOM     11  C   UNL     1       8.079  -7.203   4.487  1.00  0.00     0.041 A 
ATOM     12  C   UNL     1       7.531  -7.006   5.850  1.00  0.00     0.194 C 
ATOM     13  O   UNL     1       6.503  -6.296   6.020  1.00  0.00    -0.289 OA
ATOM     14  C   UNL     1       7.547  -6.489   3.399  1.00  0.00     0.059 A 
ATOM     15  C   UNL     1       8.073  -6.657   2.116  1.00  0.00     0.120 A 
ATOM     16  C   UNL     1       9.149  -7.520   1.915  1.00  0.00     0.093 A 
ATOM     17  C   UNL     1       9.711  -8.227   2.984  1.00  0.00     0.131 A 
ENDROOT
BRANCH   6  18
ATOM     18  O   UNL     1      11.124  -9.820   7.821  1.00  0.00    -0.507 OA
ATOM     19  H   UNL     1      11.166 -10.664   7.267  1.00  0.00     0.293 HD
ENDBRANCH   6  18
BRANCH  17  20
ATOM     20  O   UNL     1      10.843  -9.000   2.721  1.00  0.00    -0.507 OA
ATOM     21  H   UNL     1      10.916  -9.636   1.938  1.00  0.00     0.293 HD
ENDBRANCH  17  20
BRANCH  15  22
ATOM     22  O   UNL     1       7.540  -5.961   1.033  1.00  0.00    -0.508 OA
ATOM     23  H   UNL     1       7.428  -4.954   1.054  1.00  0.00     0.293 HD
ENDBRANCH  15  22
TORSDOF 3
ENDMDL
MODEL 7
REMARK VINA RESULT:    -5.209      2.239      5.552
REMARK INTER + INTRA:          -5.665
REMARK INTER:                  -5.665
REMARK INTRA:                   0.000
REMARK UNBOUND:                 0.000
REMARK SMILES Cc1cc(O)c2c(c1)C(=O)c1cc(O)cc(O)c1C2=O
REMARK SMILES IDX 1 1 2 2 8 3 7 4 6 5 4 6 3 7 19 8 20 9 18 10 11 11 9 12 10 13
REMARK SMILES IDX 12 14 13 15 15 16 16 17 5 18 17 20 14 22
REMARK H PARENT 5 19 17 21 14 23
REMARK Flexibility Score: inf
ROOT
ATOM      1  C   UNL     1       9.078 -11.124   0.642  1.00  0.00     0.044 C 
ATOM      2  C   UNL     1       9.176  -9.973   1.599  1.00  0.00    -0.047 A 
ATOM      3  C   UNL     1       8.526 -10.030   2.837  1.00  0.00     0.016 A 
ATOM      4  C   UNL     1       8.635  -8.971   3.752  1.00  0.00     0.038 A 
ATOM      5  C   UNL     1       9.408  -7.834   3.424  1.00  0.00     0.076 A 
ATOM      6  C   UNL     1      10.132  -7.819   2.204  1.00  0.00     0.127 A 
ATOM      7  C   UNL     1       9.993  -8.877   1.300  1.00  0.00     0.050 A 
ATOM      8  C   UNL     1       9.378  -6.673   4.351  1.00  0.00     0.201 C 
ATOM      9  O   UNL     1       9.532  -5.507   3.899  1.00  0.00    -0.288 OA
ATOM     10  C   UNL     1       8.984  -6.871   5.770  1.00  0.00     0.076 A 
ATOM     11  C   UNL     1       8.213  -8.010   6.095  1.00  0.00     0.041 A 
ATOM     12  C   UNL     1       7.949  -9.042   5.065  1.00  0.00     0.194 C 
ATOM     13  O   UNL     1       7.161  -9.995   5.313  1.00  0.00    -0.289 OA
ATOM     14  C   UNL     1       7.706  -8.161   7.397  1.00  0.00     0.059 A 
ATOM     15  C   UNL     1       7.968  -7.201   8.376  1.00  0.00     0.120 A 
ATOM     16  C   UNL     1       8.761  -6.096   8.070  1.00  0.00     0.093 A 
ATOM     17  C   UNL     1       9.296  -5.932   6.788  1.00  0.00     0.131 A 
ENDROOT
BRANCH   6  18
ATOM     18  O   UNL     1      11.024  -6.798   1.868  1.00  0.00    -0.507 OA
ATOM     19  H   UNL     1      10.787  -5.816   1.904  1.00  0.00     0.293 HD
ENDBRANCH   6  18
BRANCH  17  20
ATOM     20  O   UNL     1      10.155  -4.850   6.581  1.00  0.00    -0.507 OA
ATOM     21  H   UNL     1      11.117  -4.949   6.284  1.00  0.00     0.293 HD
ENDBRANCH  17  20
BRANCH  15  22
ATOM     22  O   UNL     1       7.455  -7.341   9.665  1.00  0.00    -0.508 OA
ATOM     23  H   UNL     1       7.949  -6.982  10.473  1.00  0.00     0.293 HD
ENDBRANCH  15  22
TORSDOF 3
ENDMDL
MODEL 8
REMARK VINA RESULT:    -5.109      2.655      4.458
REMARK INTER + INTRA:          -5.557
REMARK INTER:                  -5.557
REMARK INTRA:                   0.000
REMARK UNBOUND:                 0.000
REMARK SMILES Cc1cc(O)c2c(c1)C(=O)c1cc(O)cc(O)c1C2=O
REMARK SMILES IDX 1 1 2 2 8 3 7 4 6 5 4 6 3 7 19 8 20 9 18 10 11 11 9 12 10 13
REMARK SMILES IDX 12 14 13 15 15 16 16 17 5 18 17 20 14 22
REMARK H PARENT 5 19 17 21 14 23
REMARK Flexibility Score: inf
ROOT
ATOM      1  C   UNL     1       7.653  -2.141   8.864  1.00  0.00     0.044 C 
ATOM      2  C   UNL     1       8.174  -3.500   8.497  1.00  0.00    -0.047 A 
ATOM      3  C   UNL     1       7.641  -4.186   7.400  1.00  0.00     0.016 A 
ATOM      4  C   UNL     1       8.140  -5.445   7.032  1.00  0.00     0.038 A 
ATOM      5  C   UNL     1       9.192  -6.030   7.773  1.00  0.00     0.076 A 
ATOM      6  C   UNL     1       9.784  -5.293   8.832  1.00  0.00     0.127 A 
ATOM      7  C   UNL     1       9.256  -4.049   9.193  1.00  0.00     0.050 A 
ATOM      8  C   UNL     1       9.591  -7.423   7.447  1.00  0.00     0.201 C 
ATOM      9  O   UNL     1      10.054  -8.170   8.351  1.00  0.00    -0.288 OA
ATOM     10  C   UNL     1       9.273  -7.989   6.110  1.00  0.00     0.076 A 
ATOM     11  C   UNL     1       8.223  -7.400   5.370  1.00  0.00     0.041 A 
ATOM     12  C   UNL     1       7.575  -6.162   5.863  1.00  0.00     0.194 C 
ATOM     13  O   UNL     1       6.558  -5.704   5.274  1.00  0.00    -0.289 OA
ATOM     14  C   UNL     1       7.802  -7.989   4.166  1.00  0.00     0.059 A 
ATOM     15  C   UNL     1       8.422  -9.145   3.687  1.00  0.00     0.120 A 
ATOM     16  C   UNL     1       9.485  -9.706   4.394  1.00  0.00     0.093 A 
ATOM     17  C   UNL     1       9.938  -9.127   5.585  1.00  0.00     0.131 A 
ENDROOT
BRANCH   6  18
ATOM     18  O   UNL     1      10.912  -5.740   9.523  1.00  0.00    -0.507 OA
ATOM     19  H   UNL     1      11.758  -6.055   9.067  1.00  0.00     0.293 HD
ENDBRANCH   6  18
BRANCH  17  20
ATOM     20  O   UNL     1      11.064  -9.691   6.188  1.00  0.00    -0.507 OA
ATOM     21  H   UNL     1      11.600 -10.444   5.777  1.00  0.00     0.293 HD
ENDBRANCH  17  20
BRANCH  15  22
ATOM     22  O   UNL     1       7.999  -9.740   2.500  1.00  0.00    -0.508 OA
ATOM     23  H   UNL     1       7.323  -9.290   1.894  1.00  0.00     0.293 HD
ENDBRANCH  15  22
TORSDOF 3
ENDMDL
MODEL 9
REMARK VINA RESULT:    -4.952      2.288      3.033
REMARK INTER + INTRA:          -5.386
REMARK INTER:                  -5.386
REMARK INTRA:                   0.000
REMARK UNBOUND:                 0.000
REMARK SMILES Cc1cc(O)c2c(c1)C(=O)c1cc(O)cc(O)c1C2=O
REMARK SMILES IDX 1 1 2 2 8 3 7 4 6 5 4 6 3 7 19 8 20 9 18 10 11 11 9 12 10 13
REMARK SMILES IDX 12 14 13 15 15 16 16 17 5 18 17 20 14 22
REMARK H PARENT 5 19 17 21 14 23
REMARK Flexibility Score: inf
ROOT
ATOM      1  C   UNL     1       8.450  -6.049  11.125  1.00  0.00     0.044 C 
ATOM      2  C   UNL     1       8.745  -6.100   9.655  1.00  0.00    -0.047 A 
ATOM      3  C   UNL     1       8.490  -7.267   8.926  1.00  0.00     0.016 A 
ATOM      4  C   UNL     1       8.736  -7.316   7.544  1.00  0.00     0.038 A 
ATOM      5  C   UNL     1       9.245  -6.177   6.879  1.00  0.00     0.076 A 
ATOM      6  C   UNL     1       9.421  -4.973   7.607  1.00  0.00     0.127 A 
ATOM      7  C   UNL     1       9.189  -4.954   8.986  1.00  0.00     0.050 A 
ATOM      8  C   UNL     1       9.632  -6.312   5.451  1.00  0.00     0.201 C 
ATOM      9  O   UNL     1      10.562  -5.602   4.984  1.00  0.00    -0.288 OA
ATOM     10  C   UNL     1       9.054  -7.408   4.630  1.00  0.00     0.076 A 
ATOM     11  C   UNL     1       8.543  -8.544   5.298  1.00  0.00     0.041 A 
ATOM     12  C   UNL     1       8.456  -8.554   6.778  1.00  0.00     0.194 C 
ATOM     13  O   UNL     1       8.120  -9.608   7.383  1.00  0.00    -0.289 OA
ATOM     14  C   UNL     1       8.115  -9.657   4.555  1.00  0.00     0.059 A 
ATOM     15  C   UNL     1       8.177  -9.645   3.160  1.00  0.00     0.120 A 
ATOM     16  C   UNL     1       8.643  -8.511   2.496  1.00  0.00     0.093 A 
ATOM     17  C   UNL     1       9.056  -7.382   3.211  1.00  0.00     0.131 A 
ENDROOT
BRANCH   6  18
ATOM     18  O   UNL     1       9.789  -3.770   7.000  1.00  0.00    -0.507 OA
ATOM     19  H   UNL     1      10.738  -3.546   6.734  1.00  0.00     0.293 HD
ENDBRANCH   6  18
BRANCH  17  20
ATOM     20  O   UNL     1       9.423  -6.253   2.476  1.00  0.00    -0.507 OA
ATOM     21  H   UNL     1       8.899  -5.908   1.682  1.00  0.00     0.293 HD
ENDBRANCH  17  20
BRANCH  15  22
ATOM     22  O   UNL     1       7.765 -10.752   2.421  1.00  0.00    -0.508 OA
ATOM     23  H   UNL     1       7.030 -10.683   1.727  1.00  0.00     0.293 HD
ENDBRANCH  15  22
TORSDOF 3
ENDMDL
