MODEL 1
REMARK VINA RESULT:    -9.003      0.000      0.000
REMARK INTER + INTRA:         -14.693
REMARK INTER:                 -13.213
REMARK INTRA:                  -1.480
REMARK UNBOUND:                -1.480
REMARK SMILES O=c1c(O[C@H]2O[C@H](CO)[C@@H](O)[C@H](O)[C@@H]2O)c(-c2ccc(O)c(O)c2)oc2cc(O)cc(O)c12
REMARK SMILES IDX 4 1 3 2 16 3 25 4 2 5 26 6 1 7 33 8 27 9 31 10 28 11 30 12
REMARK SMILES IDX 17 13 18 14 19 15 20 16 24 17 22 18 21 19 23 21 32 23 29 25
REMARK SMILES IDX 5 27 14 28 6 29 12 30 7 31 10 32 15 33 13 35 8 37 9 38 11 40
REMARK H PARENT 21 20 23 22 32 24 29 26 15 34 13 36 9 39 11 41
REMARK Flexibility Score: inf
ROOT
ATOM      1  O   UNL     1      51.890  60.952   4.636  1.00  0.00    -0.454 OA
ENDROOT
BRANCH   1   2
ATOM      2  C   UNL     1      51.742  60.519   3.310  1.00  0.00     0.214 A 
ATOM      3  C   UNL     1      50.573  60.832   2.599  1.00  0.00     0.180 A 
ATOM      4  O   UNL     1      50.388  60.348   1.377  1.00  0.00    -0.452 OA
ATOM      5  C   UNL     1      52.705  59.701   2.699  1.00  0.00     0.239 A 
ATOM      6  C   UNL     1      51.284  59.597   0.748  1.00  0.00     0.146 A 
ATOM      7  O   UNL     1      53.685  59.305   3.381  1.00  0.00    -0.285 OA
ATOM      8  C   UNL     1      52.520  59.272   1.364  1.00  0.00     0.111 A 
ATOM      9  C   UNL     1      50.983  59.125  -0.533  1.00  0.00     0.094 A 
ATOM     10  C   UNL     1      53.467  58.503   0.625  1.00  0.00     0.134 A 
ATOM     11  C   UNL     1      51.893  58.321  -1.221  1.00  0.00     0.123 A 
ATOM     12  C   UNL     1      53.123  58.012  -0.639  1.00  0.00     0.093 A 
BRANCH   3  13
ATOM     13  C   UNL     1      49.518  61.681   3.183  1.00  0.00     0.025 A 
ATOM     14  C   UNL     1      48.379  61.090   3.741  1.00  0.00     0.016 A 
ATOM     15  C   UNL     1      47.368  61.885   4.284  1.00  0.00     0.051 A 
ATOM     16  C   UNL     1      47.467  63.281   4.259  1.00  0.00     0.157 A 
ATOM     17  C   UNL     1      49.613  63.079   3.134  1.00  0.00     0.062 A 
ATOM     18  C   UNL     1      48.600  63.886   3.665  1.00  0.00     0.158 A 
BRANCH  16  19
ATOM     19  O   UNL     1      46.428  64.019   4.828  1.00  0.00    -0.504 OA
ATOM     20  H   UNL     1      45.454  63.894   4.597  1.00  0.00     0.293 HD
ENDBRANCH  16  19
BRANCH  18  21
ATOM     21  O   UNL     1      48.756  65.271   3.577  1.00  0.00    -0.504 OA
ATOM     22  H   UNL     1      49.279  65.735   2.848  1.00  0.00     0.293 HD
ENDBRANCH  18  21
ENDBRANCH   3  13
BRANCH  10  23
ATOM     23  O   UNL     1      54.761  58.224   1.075  1.00  0.00    -0.507 OA
ATOM     24  H   UNL     1      55.462  57.741   0.535  1.00  0.00     0.293 HD
ENDBRANCH  10  23
BRANCH  11  25
ATOM     25  O   UNL     1      51.590  57.831  -2.489  1.00  0.00    -0.508 OA
ATOM     26  H   UNL     1      51.166  58.418  -3.197  1.00  0.00     0.293 HD
ENDBRANCH  11  25
ENDBRANCH   1   2
BRANCH   1  27
ATOM     27  C   UNL     1      51.370  60.243   5.768  1.00  0.00     0.339 C 
ATOM     28  C   UNL     1      51.047  61.214   6.943  1.00  0.00     0.214 C 
ATOM     29  O   UNL     1      52.288  59.223   6.132  1.00  0.00    -0.332 OA
ATOM     30  C   UNL     1      51.526  60.649   8.298  1.00  0.00     0.180 C 
ATOM     31  C   UNL     1      53.409  59.766   6.807  1.00  0.00     0.179 C 
ATOM     32  C   UNL     1      53.009  60.205   8.241  1.00  0.00     0.177 C 
BRANCH  28  33
ATOM     33  O   UNL     1      49.665  61.461   6.992  1.00  0.00    -0.384 OA
ATOM     34  H   UNL     1      49.523  62.168   7.673  1.00  0.00     0.211 HD
ENDBRANCH  28  33
BRANCH  30  35
ATOM     35  O   UNL     1      50.693  59.598   8.732  1.00  0.00    -0.387 OA
ATOM     36  H   UNL     1      50.507  59.727   9.697  1.00  0.00     0.211 HD
ENDBRANCH  30  35
BRANCH  31  37
ATOM     37  C   UNL     1      54.525  58.711   6.846  1.00  0.00     0.191 C 
BRANCH  37  38
ATOM     38  O   UNL     1      54.689  58.123   5.583  1.00  0.00    -0.394 OA
ATOM     39  H   UNL     1      54.016  57.396   5.518  1.00  0.00     0.210 HD
ENDBRANCH  37  38
ENDBRANCH  31  37
BRANCH  32  40
ATOM     40  O   UNL     1      53.826  61.273   8.651  1.00  0.00    -0.387 OA
ATOM     41  H   UNL     1      54.354  60.953   9.427  1.00  0.00     0.211 HD
ENDBRANCH  32  40
ENDBRANCH   1  27
TORSDOF 12
ENDMDL
MODEL 2
REMARK VINA RESULT:    -8.953      1.488      6.217
REMARK INTER + INTRA:         -14.619
REMARK INTER:                 -13.118
REMARK INTRA:                  -1.501
REMARK UNBOUND:                -1.480
REMARK SMILES O=c1c(O[C@H]2O[C@H](CO)[C@@H](O)[C@H](O)[C@@H]2O)c(-c2ccc(O)c(O)c2)oc2cc(O)cc(O)c12
REMARK SMILES IDX 4 1 3 2 16 3 25 4 2 5 26 6 1 7 33 8 27 9 31 10 28 11 30 12
REMARK SMILES IDX 17 13 18 14 19 15 20 16 24 17 22 18 21 19 23 21 32 23 29 25
REMARK SMILES IDX 5 27 14 28 6 29 12 30 7 31 10 32 15 33 13 35 8 37 9 38 11 40
REMARK H PARENT 21 20 23 22 32 24 29 26 15 34 13 36 9 39 11 41
REMARK Flexibility Score: inf
ROOT
ATOM      1  O   UNL     1      51.109  59.846   2.608  1.00  0.00    -0.454 OA
ENDROOT
BRANCH   1   2
ATOM      2  C   UNL     1      51.484  60.186   3.917  1.00  0.00     0.214 A 
ATOM      3  C   UNL     1      50.751  61.151   4.624  1.00  0.00     0.180 A 
ATOM      4  O   UNL     1      51.154  61.543   5.826  1.00  0.00    -0.452 OA
ATOM      5  C   UNL     1      52.633  59.643   4.510  1.00  0.00     0.239 A 
ATOM      6  C   UNL     1      52.216  61.035   6.439  1.00  0.00     0.146 A 
ATOM      7  O   UNL     1      53.368  58.885   3.826  1.00  0.00    -0.285 OA
ATOM      8  C   UNL     1      52.990  60.016   5.827  1.00  0.00     0.111 A 
ATOM      9  C   UNL     1      52.564  61.530   7.699  1.00  0.00     0.094 A 
ATOM     10  C   UNL     1      54.092  59.471   6.550  1.00  0.00     0.134 A 
ATOM     11  C   UNL     1      53.682  61.032   8.370  1.00  0.00     0.123 A 
ATOM     12  C   UNL     1      54.439  60.013   7.793  1.00  0.00     0.093 A 
BRANCH   3  13
ATOM     13  C   UNL     1      49.536  61.767   4.058  1.00  0.00     0.025 A 
ATOM     14  C   UNL     1      49.613  63.025   3.450  1.00  0.00     0.016 A 
ATOM     15  C   UNL     1      48.467  63.623   2.923  1.00  0.00     0.051 A 
ATOM     16  C   UNL     1      47.224  62.987   3.013  1.00  0.00     0.157 A 
ATOM     17  C   UNL     1      48.290  61.134   4.172  1.00  0.00     0.062 A 
ATOM     18  C   UNL     1      47.132  61.730   3.658  1.00  0.00     0.158 A 
BRANCH  16  19
ATOM     19  O   UNL     1      46.118  63.631   2.457  1.00  0.00    -0.504 OA
ATOM     20  H   UNL     1      45.202  63.648   2.881  1.00  0.00     0.293 HD
ENDBRANCH  16  19
BRANCH  18  21
ATOM     21  O   UNL     1      45.924  61.047   3.812  1.00  0.00    -0.504 OA
ATOM     22  H   UNL     1      45.300  60.824   3.049  1.00  0.00     0.293 HD
ENDBRANCH  18  21
ENDBRANCH   3  13
BRANCH  10  23
ATOM     23  O   UNL     1      54.850  58.384   6.105  1.00  0.00    -0.507 OA
ATOM     24  H   UNL     1      54.663  57.863   5.261  1.00  0.00     0.293 HD
ENDBRANCH  10  23
BRANCH  11  25
ATOM     25  O   UNL     1      54.045  61.537   9.617  1.00  0.00    -0.508 OA
ATOM     26  H   UNL     1      53.359  61.700  10.344  1.00  0.00     0.293 HD
ENDBRANCH  11  25
ENDBRANCH   1   2
BRANCH   1  27
ATOM     27  C   UNL     1      51.503  60.590   1.448  1.00  0.00     0.339 C 
ATOM     28  C   UNL     1      50.450  60.459   0.309  1.00  0.00     0.214 C 
ATOM     29  O   UNL     1      52.800  60.167   1.051  1.00  0.00    -0.332 OA
ATOM     30  C   UNL     1      51.118  60.229  -1.064  1.00  0.00     0.180 C 
ATOM     31  C   UNL     1      52.748  58.909   0.403  1.00  0.00     0.179 C 
ATOM     32  C   UNL     1      52.138  59.064  -1.016  1.00  0.00     0.177 C 
BRANCH  28  33
ATOM     33  O   UNL     1      49.652  61.615   0.262  1.00  0.00    -0.384 OA
ATOM     34  H   UNL     1      49.530  61.918   1.199  1.00  0.00     0.211 HD
ENDBRANCH  28  33
BRANCH  30  35
ATOM     35  O   UNL     1      51.717  61.413  -1.541  1.00  0.00    -0.387 OA
ATOM     36  H   UNL     1      52.099  61.229  -2.437  1.00  0.00     0.211 HD
ENDBRANCH  30  35
BRANCH  31  37
ATOM     37  C   UNL     1      54.168  58.327   0.331  1.00  0.00     0.191 C 
BRANCH  37  38
ATOM     38  O   UNL     1      54.811  58.446   1.572  1.00  0.00    -0.394 OA
ATOM     39  H   UNL     1      54.716  59.393   1.852  1.00  0.00     0.210 HD
ENDBRANCH  37  38
ENDBRANCH  31  37
BRANCH  32  40
ATOM     40  O   UNL     1      51.491  57.870  -1.382  1.00  0.00    -0.387 OA
ATOM     41  H   UNL     1      51.960  57.131  -0.917  1.00  0.00     0.211 HD
ENDBRANCH  32  40
ENDBRANCH   1  27
TORSDOF 12
ENDMDL
MODEL 3
REMARK VINA RESULT:    -8.887      1.595      5.499
REMARK INTER + INTRA:         -14.523
REMARK INTER:                 -13.694
REMARK INTRA:                  -0.828
REMARK UNBOUND:                -1.480
REMARK SMILES O=c1c(O[C@H]2O[C@H](CO)[C@@H](O)[C@H](O)[C@@H]2O)c(-c2ccc(O)c(O)c2)oc2cc(O)cc(O)c12
REMARK SMILES IDX 4 1 3 2 16 3 25 4 2 5 26 6 1 7 33 8 27 9 31 10 28 11 30 12
REMARK SMILES IDX 17 13 18 14 19 15 20 16 24 17 22 18 21 19 23 21 32 23 29 25
REMARK SMILES IDX 5 27 14 28 6 29 12 30 7 31 10 32 15 33 13 35 8 37 9 38 11 40
REMARK H PARENT 21 20 23 22 32 24 29 26 15 34 13 36 9 39 11 41
REMARK Flexibility Score: inf
ROOT
ATOM      1  O   UNL     1      49.796  60.190   2.731  1.00  0.00    -0.454 OA
ENDROOT
BRANCH   1   2
ATOM      2  C   UNL     1      51.014  59.687   2.249  1.00  0.00     0.214 A 
ATOM      3  C   UNL     1      52.171  59.788   3.036  1.00  0.00     0.180 A 
ATOM      4  O   UNL     1      53.343  59.399   2.549  1.00  0.00    -0.452 OA
ATOM      5  C   UNL     1      51.122  59.158   0.954  1.00  0.00     0.239 A 
ATOM      6  C   UNL     1      53.488  58.864   1.344  1.00  0.00     0.146 A 
ATOM      7  O   UNL     1      50.118  59.195   0.198  1.00  0.00    -0.285 OA
ATOM      8  C   UNL     1      52.368  58.671   0.495  1.00  0.00     0.111 A 
ATOM      9  C   UNL     1      54.770  58.501   0.921  1.00  0.00     0.094 A 
ATOM     10  C   UNL     1      52.573  58.047  -0.772  1.00  0.00     0.134 A 
ATOM     11  C   UNL     1      54.967  57.949  -0.346  1.00  0.00     0.123 A 
ATOM     12  C   UNL     1      53.873  57.730  -1.183  1.00  0.00     0.093 A 
BRANCH   3  13
ATOM     13  C   UNL     1      52.130  60.340   4.404  1.00  0.00     0.025 A 
ATOM     14  C   UNL     1      51.882  61.704   4.596  1.00  0.00     0.016 A 
ATOM     15  C   UNL     1      51.855  62.239   5.885  1.00  0.00     0.051 A 
ATOM     16  C   UNL     1      52.094  61.427   7.000  1.00  0.00     0.157 A 
ATOM     17  C   UNL     1      52.393  59.526   5.515  1.00  0.00     0.062 A 
ATOM     18  C   UNL     1      52.379  60.054   6.811  1.00  0.00     0.158 A 
BRANCH  16  19
ATOM     19  O   UNL     1      52.041  62.019   8.263  1.00  0.00    -0.504 OA
ATOM     20  H   UNL     1      52.399  62.940   8.470  1.00  0.00     0.293 HD
ENDBRANCH  16  19
BRANCH  18  21
ATOM     21  O   UNL     1      52.656  59.188   7.870  1.00  0.00    -0.504 OA
ATOM     22  H   UNL     1      53.539  58.712   7.996  1.00  0.00     0.293 HD
ENDBRANCH  18  21
ENDBRANCH   3  13
BRANCH  10  23
ATOM     23  O   UNL     1      51.537  57.694  -1.640  1.00  0.00    -0.507 OA
ATOM     24  H   UNL     1      51.662  57.187  -2.503  1.00  0.00     0.293 HD
ENDBRANCH  10  23
BRANCH  11  25
ATOM     25  O   UNL     1      56.245  57.605  -0.780  1.00  0.00    -0.508 OA
ATOM     26  H   UNL     1      57.036  57.595  -0.146  1.00  0.00     0.293 HD
ENDBRANCH  11  25
ENDBRANCH   1   2
BRANCH   1  27
ATOM     27  C   UNL     1      48.921  61.027   1.965  1.00  0.00     0.339 C 
ATOM     28  C   UNL     1      49.672  62.273   1.410  1.00  0.00     0.214 C 
ATOM     29  O   UNL     1      47.798  61.371   2.765  1.00  0.00    -0.332 OA
ATOM     30  C   UNL     1      48.839  63.563   1.573  1.00  0.00     0.180 C 
ATOM     31  C   UNL     1      48.140  62.359   3.721  1.00  0.00     0.179 C 
ATOM     32  C   UNL     1      48.327  63.734   3.025  1.00  0.00     0.177 C 
BRANCH  28  33
ATOM     33  O   UNL     1      49.986  62.077   0.055  1.00  0.00    -0.384 OA
ATOM     34  H   UNL     1      50.453  61.203  -0.009  1.00  0.00     0.211 HD
ENDBRANCH  28  33
BRANCH  30  35
ATOM     35  O   UNL     1      47.775  63.599   0.648  1.00  0.00    -0.387 OA
ATOM     36  H   UNL     1      47.458  64.535   0.576  1.00  0.00     0.211 HD
ENDBRANCH  30  35
BRANCH  31  37
ATOM     37  C   UNL     1      47.034  62.426   4.784  1.00  0.00     0.191 C 
BRANCH  37  38
ATOM     38  O   UNL     1      47.509  63.048   5.948  1.00  0.00    -0.394 OA
ATOM     39  H   UNL     1      46.726  63.480   6.380  1.00  0.00     0.210 HD
ENDBRANCH  37  38
ENDBRANCH  31  37
BRANCH  32  40
ATOM     40  O   UNL     1      49.251  64.506   3.751  1.00  0.00    -0.387 OA
ATOM     41  H   UNL     1      49.833  64.961   3.089  1.00  0.00     0.211 HD
ENDBRANCH  32  40
ENDBRANCH   1  27
TORSDOF 12
ENDMDL
MODEL 4
REMARK VINA RESULT:    -8.751      1.684      6.385
REMARK INTER + INTRA:         -14.323
REMARK INTER:                 -12.756
REMARK INTRA:                  -1.567
REMARK UNBOUND:                -1.480
REMARK SMILES O=c1c(O[C@H]2O[C@H](CO)[C@@H](O)[C@H](O)[C@@H]2O)c(-c2ccc(O)c(O)c2)oc2cc(O)cc(O)c12
REMARK SMILES IDX 4 1 3 2 16 3 25 4 2 5 26 6 1 7 33 8 27 9 31 10 28 11 30 12
REMARK SMILES IDX 17 13 18 14 19 15 20 16 24 17 22 18 21 19 23 21 32 23 29 25
REMARK SMILES IDX 5 27 14 28 6 29 12 30 7 31 10 32 15 33 13 35 8 37 9 38 11 40
REMARK H PARENT 21 20 23 22 32 24 29 26 15 34 13 36 9 39 11 41
REMARK Flexibility Score: inf
ROOT
ATOM      1  O   UNL     1      51.417  60.829   3.600  1.00  0.00    -0.454 OA
ENDROOT
BRANCH   1   2
ATOM      2  C   UNL     1      51.478  60.372   4.924  1.00  0.00     0.214 A 
ATOM      3  C   UNL     1      50.550  60.839   5.868  1.00  0.00     0.180 A 
ATOM      4  O   UNL     1      50.659  60.482   7.141  1.00  0.00    -0.452 OA
ATOM      5  C   UNL     1      52.504  59.517   5.354  1.00  0.00     0.239 A 
ATOM      6  C   UNL     1      51.593  59.652   7.587  1.00  0.00     0.146 A 
ATOM      7  O   UNL     1      53.415  59.209   4.543  1.00  0.00    -0.285 OA
ATOM      8  C   UNL     1      52.544  59.084   6.700  1.00  0.00     0.111 A 
ATOM      9  C   UNL     1      51.630  59.353   8.952  1.00  0.00     0.094 A 
ATOM     10  C   UNL     1      53.496  58.160   7.223  1.00  0.00     0.134 A 
ATOM     11  C   UNL     1      52.605  58.495   9.462  1.00  0.00     0.123 A 
ATOM     12  C   UNL     1      53.532  57.909   8.599  1.00  0.00     0.093 A 
BRANCH   3  13
ATOM     13  C   UNL     1      49.449  61.745   5.486  1.00  0.00     0.025 A 
ATOM     14  C   UNL     1      48.130  61.416   5.820  1.00  0.00     0.016 A 
ATOM     15  C   UNL     1      47.081  62.259   5.451  1.00  0.00     0.051 A 
ATOM     16  C   UNL     1      47.327  63.431   4.728  1.00  0.00     0.157 A 
ATOM     17  C   UNL     1      49.701  62.906   4.741  1.00  0.00     0.062 A 
ATOM     18  C   UNL     1      48.655  63.753   4.357  1.00  0.00     0.158 A 
BRANCH  16  19
ATOM     19  O   UNL     1      46.236  64.238   4.399  1.00  0.00    -0.504 OA
ATOM     20  H   UNL     1      46.120  65.188   4.721  1.00  0.00     0.293 HD
ENDBRANCH  16  19
BRANCH  18  21
ATOM     21  O   UNL     1      48.976  64.888   3.611  1.00  0.00    -0.504 OA
ATOM     22  H   UNL     1      48.671  65.045   2.660  1.00  0.00     0.293 HD
ENDBRANCH  18  21
ENDBRANCH   3  13
BRANCH  10  23
ATOM     23  O   UNL     1      54.399  57.445   6.431  1.00  0.00    -0.507 OA
ATOM     24  H   UNL     1      55.161  57.861   5.915  1.00  0.00     0.293 HD
ENDBRANCH  10  23
BRANCH  11  25
ATOM     25  O   UNL     1      52.659  58.210  10.824  1.00  0.00    -0.508 OA
ATOM     26  H   UNL     1      52.953  58.905  11.500  1.00  0.00     0.293 HD
ENDBRANCH  11  25
ENDBRANCH   1   2
BRANCH   1  27
ATOM     27  C   UNL     1      50.947  60.034   2.504  1.00  0.00     0.339 C 
ATOM     28  C   UNL     1      52.049  59.862   1.417  1.00  0.00     0.214 C 
ATOM     29  O   UNL     1      49.755  60.615   1.993  1.00  0.00    -0.332 OA
ATOM     30  C   UNL     1      51.481  60.043  -0.008  1.00  0.00     0.180 C 
ATOM     31  C   UNL     1      50.043  61.768   1.221  1.00  0.00     0.179 C 
ATOM     32  C   UNL     1      50.671  61.357  -0.138  1.00  0.00     0.177 C 
BRANCH  28  33
ATOM     33  O   UNL     1      52.643  58.594   1.536  1.00  0.00    -0.384 OA
ATOM     34  H   UNL     1      53.388  58.564   0.882  1.00  0.00     0.211 HD
ENDBRANCH  28  33
BRANCH  30  35
ATOM     35  O   UNL     1      50.710  58.927  -0.391  1.00  0.00    -0.387 OA
ATOM     36  H   UNL     1      49.753  59.160  -0.290  1.00  0.00     0.211 HD
ENDBRANCH  30  35
BRANCH  31  37
ATOM     37  C   UNL     1      48.745  62.561   1.009  1.00  0.00     0.191 C 
BRANCH  37  38
ATOM     38  O   UNL     1      49.029  63.919   0.797  1.00  0.00    -0.394 OA
ATOM     39  H   UNL     1      49.663  64.192   1.510  1.00  0.00     0.210 HD
ENDBRANCH  37  38
ENDBRANCH  31  37
BRANCH  32  40
ATOM     40  O   UNL     1      51.523  62.380  -0.590  1.00  0.00    -0.387 OA
ATOM     41  H   UNL     1      52.437  61.997  -0.639  1.00  0.00     0.211 HD
ENDBRANCH  32  40
ENDBRANCH   1  27
TORSDOF 12
ENDMDL
MODEL 5
REMARK VINA RESULT:    -8.725      1.694      6.433
REMARK INTER + INTRA:         -14.285
REMARK INTER:                 -13.422
REMARK INTRA:                  -0.863
REMARK UNBOUND:                -1.480
REMARK SMILES O=c1c(O[C@H]2O[C@H](CO)[C@@H](O)[C@H](O)[C@@H]2O)c(-c2ccc(O)c(O)c2)oc2cc(O)cc(O)c12
REMARK SMILES IDX 4 1 3 2 16 3 25 4 2 5 26 6 1 7 33 8 27 9 31 10 28 11 30 12
REMARK SMILES IDX 17 13 18 14 19 15 20 16 24 17 22 18 21 19 23 21 32 23 29 25
REMARK SMILES IDX 5 27 14 28 6 29 12 30 7 31 10 32 15 33 13 35 8 37 9 38 11 40
REMARK H PARENT 21 20 23 22 32 24 29 26 15 34 13 36 9 39 11 41
REMARK Flexibility Score: inf
ROOT
ATOM      1  O   UNL     1      51.271  62.240   4.390  1.00  0.00    -0.454 OA
ENDROOT
BRANCH   1   2
ATOM      2  C   UNL     1      52.147  61.265   4.890  1.00  0.00     0.214 A 
ATOM      3  C   UNL     1      52.443  60.131   4.118  1.00  0.00     0.180 A 
ATOM      4  O   UNL     1      53.197  59.162   4.622  1.00  0.00    -0.452 OA
ATOM      5  C   UNL     1      52.674  61.355   6.187  1.00  0.00     0.239 A 
ATOM      6  C   UNL     1      53.742  59.217   5.831  1.00  0.00     0.146 A 
ATOM      7  O   UNL     1      52.299  62.298   6.929  1.00  0.00    -0.285 OA
ATOM      8  C   UNL     1      53.545  60.348   6.665  1.00  0.00     0.111 A 
ATOM      9  C   UNL     1      54.508  58.135   6.272  1.00  0.00     0.094 A 
ATOM     10  C   UNL     1      54.193  60.378   7.935  1.00  0.00     0.134 A 
ATOM     11  C   UNL     1      55.086  58.149   7.543  1.00  0.00     0.123 A 
ATOM     12  C   UNL     1      54.922  59.264   8.365  1.00  0.00     0.093 A 
BRANCH   3  13
ATOM     13  C   UNL     1      51.918  59.969   2.749  1.00  0.00     0.025 A 
ATOM     14  C   UNL     1      50.536  59.987   2.527  1.00  0.00     0.016 A 
ATOM     15  C   UNL     1      50.029  59.821   1.237  1.00  0.00     0.051 A 
ATOM     16  C   UNL     1      50.890  59.614   0.153  1.00  0.00     0.157 A 
ATOM     17  C   UNL     1      52.785  59.739   1.670  1.00  0.00     0.062 A 
ATOM     18  C   UNL     1      52.286  59.560   0.375  1.00  0.00     0.158 A 
BRANCH  16  19
ATOM     19  O   UNL     1      50.321  59.467  -1.114  1.00  0.00    -0.504 OA
ATOM     20  H   UNL     1      49.865  58.625  -1.433  1.00  0.00     0.293 HD
ENDBRANCH  16  19
BRANCH  18  21
ATOM     21  O   UNL     1      53.205  59.328  -0.651  1.00  0.00    -0.504 OA
ATOM     22  H   UNL     1      53.012  59.491  -1.629  1.00  0.00     0.293 HD
ENDBRANCH  18  21
ENDBRANCH   3  13
BRANCH  10  23
ATOM     23  O   UNL     1      54.175  61.484   8.790  1.00  0.00    -0.507 OA
ATOM     24  H   UNL     1      54.975  62.065   8.990  1.00  0.00     0.293 HD
ENDBRANCH  10  23
BRANCH  11  25
ATOM     25  O   UNL     1      55.833  57.064   7.995  1.00  0.00    -0.508 OA
ATOM     26  H   UNL     1      55.877  56.824   8.978  1.00  0.00     0.293 HD
ENDBRANCH  11  25
ENDBRANCH   1   2
BRANCH   1  27
ATOM     27  C   UNL     1      50.148  62.750   5.119  1.00  0.00     0.339 C 
ATOM     28  C   UNL     1      49.238  61.597   5.635  1.00  0.00     0.214 C 
ATOM     29  O   UNL     1      49.452  63.678   4.298  1.00  0.00    -0.332 OA
ATOM     30  C   UNL     1      47.741  61.911   5.421  1.00  0.00     0.180 C 
ATOM     31  C   UNL     1      48.688  63.008   3.311  1.00  0.00     0.179 C 
ATOM     32  C   UNL     1      47.449  62.335   3.960  1.00  0.00     0.177 C 
BRANCH  28  33
ATOM     33  O   UNL     1      49.485  61.368   6.999  1.00  0.00    -0.384 OA
ATOM     34  H   UNL     1      48.794  60.730   7.314  1.00  0.00     0.211 HD
ENDBRANCH  28  33
BRANCH  30  35
ATOM     35  O   UNL     1      47.291  62.885   6.335  1.00  0.00    -0.387 OA
ATOM     36  H   UNL     1      47.340  62.502   7.248  1.00  0.00     0.211 HD
ENDBRANCH  30  35
BRANCH  31  37
ATOM     37  C   UNL     1      48.264  64.021   2.238  1.00  0.00     0.191 C 
BRANCH  37  38
ATOM     38  O   UNL     1      47.748  63.359   1.114  1.00  0.00    -0.394 OA
ATOM     39  H   UNL     1      47.667  64.039   0.395  1.00  0.00     0.210 HD
ENDBRANCH  37  38
ENDBRANCH  31  37
BRANCH  32  40
ATOM     40  O   UNL     1      47.087  61.199   3.214  1.00  0.00    -0.387 OA
ATOM     41  H   UNL     1      46.232  60.864   3.591  1.00  0.00     0.211 HD
ENDBRANCH  32  40
ENDBRANCH   1  27
TORSDOF 12
ENDMDL
MODEL 6
REMARK VINA RESULT:    -8.706      1.603      2.746
REMARK INTER + INTRA:         -14.258
REMARK INTER:                 -13.143
REMARK INTRA:                  -1.115
REMARK UNBOUND:                -1.480
REMARK SMILES O=c1c(O[C@H]2O[C@H](CO)[C@@H](O)[C@H](O)[C@@H]2O)c(-c2ccc(O)c(O)c2)oc2cc(O)cc(O)c12
REMARK SMILES IDX 4 1 3 2 16 3 25 4 2 5 26 6 1 7 33 8 27 9 31 10 28 11 30 12
REMARK SMILES IDX 17 13 18 14 19 15 20 16 24 17 22 18 21 19 23 21 32 23 29 25
REMARK SMILES IDX 5 27 14 28 6 29 12 30 7 31 10 32 15 33 13 35 8 37 9 38 11 40
REMARK H PARENT 21 20 23 22 32 24 29 26 15 34 13 36 9 39 11 41
REMARK Flexibility Score: inf
ROOT
ATOM      1  O   UNL     1      52.271  59.609   4.906  1.00  0.00    -0.454 OA
ENDROOT
BRANCH   1   2
ATOM      2  C   UNL     1      52.296  59.849   3.524  1.00  0.00     0.214 A 
ATOM      3  C   UNL     1      51.268  60.595   2.927  1.00  0.00     0.180 A 
ATOM      4  O   UNL     1      51.237  60.747   1.609  1.00  0.00    -0.452 OA
ATOM      5  C   UNL     1      53.284  59.284   2.704  1.00  0.00     0.239 A 
ATOM      6  C   UNL     1      52.166  60.259   0.798  1.00  0.00     0.146 A 
ATOM      7  O   UNL     1      54.124  58.501   3.218  1.00  0.00    -0.285 OA
ATOM      8  C   UNL     1      53.273  59.536   1.312  1.00  0.00     0.111 A 
ATOM      9  C   UNL     1      52.030  60.463  -0.579  1.00  0.00     0.094 A 
ATOM     10  C   UNL     1      54.269  59.075   0.401  1.00  0.00     0.134 A 
ATOM     11  C   UNL     1      52.979  59.953  -1.466  1.00  0.00     0.123 A 
ATOM     12  C   UNL     1      54.086  59.261  -0.974  1.00  0.00     0.093 A 
BRANCH   3  13
ATOM     13  C   UNL     1      50.194  61.211   3.729  1.00  0.00     0.025 A 
ATOM     14  C   UNL     1      50.518  62.110   4.752  1.00  0.00     0.016 A 
ATOM     15  C   UNL     1      49.510  62.688   5.526  1.00  0.00     0.051 A 
ATOM     16  C   UNL     1      48.167  62.364   5.306  1.00  0.00     0.157 A 
ATOM     17  C   UNL     1      48.852  60.865   3.518  1.00  0.00     0.062 A 
ATOM     18  C   UNL     1      47.834  61.429   4.295  1.00  0.00     0.158 A 
BRANCH  16  19
ATOM     19  O   UNL     1      47.205  62.984   6.105  1.00  0.00    -0.504 OA
ATOM     20  H   UNL     1      46.449  62.495   6.560  1.00  0.00     0.293 HD
ENDBRANCH  16  19
BRANCH  18  21
ATOM     21  O   UNL     1      46.520  61.035   4.036  1.00  0.00    -0.504 OA
ATOM     22  H   UNL     1      45.764  61.118   4.700  1.00  0.00     0.293 HD
ENDBRANCH  18  21
ENDBRANCH   3  13
BRANCH  10  23
ATOM     23  O   UNL     1      55.460  58.461   0.798  1.00  0.00    -0.507 OA
ATOM     24  H   UNL     1      55.550  57.852   1.597  1.00  0.00     0.293 HD
ENDBRANCH  10  23
BRANCH  11  25
ATOM     25  O   UNL     1      52.837  60.135  -2.840  1.00  0.00    -0.508 OA
ATOM     26  H   UNL     1      52.415  59.426  -3.428  1.00  0.00     0.293 HD
ENDBRANCH  11  25
ENDBRANCH   1   2
BRANCH   1  27
ATOM     27  C   UNL     1      53.405  59.782   5.765  1.00  0.00     0.339 C 
ATOM     28  C   UNL     1      53.745  58.465   6.525  1.00  0.00     0.214 C 
ATOM     29  O   UNL     1      53.157  60.874   6.639  1.00  0.00    -0.332 OA
ATOM     30  C   UNL     1      54.063  58.730   8.013  1.00  0.00     0.180 C 
ATOM     31  C   UNL     1      52.254  60.507   7.667  1.00  0.00     0.179 C 
ATOM     32  C   UNL     1      52.960  59.579   8.692  1.00  0.00     0.177 C 
BRANCH  28  33
ATOM     33  O   UNL     1      54.836  57.828   5.910  1.00  0.00    -0.384 OA
ATOM     34  H   UNL     1      54.818  56.880   6.205  1.00  0.00     0.211 HD
ENDBRANCH  28  33
BRANCH  30  35
ATOM     35  O   UNL     1      55.332  59.326   8.161  1.00  0.00    -0.387 OA
ATOM     36  H   UNL     1      55.619  59.671   7.278  1.00  0.00     0.211 HD
ENDBRANCH  30  35
BRANCH  31  37
ATOM     37  C   UNL     1      51.730  61.780   8.347  1.00  0.00     0.191 C 
BRANCH  37  38
ATOM     38  O   UNL     1      51.816  61.662   9.743  1.00  0.00    -0.394 OA
ATOM     39  H   UNL     1      52.774  61.515   9.958  1.00  0.00     0.210 HD
ENDBRANCH  37  38
ENDBRANCH  31  37
BRANCH  32  40
ATOM     40  O   UNL     1      52.014  58.721   9.279  1.00  0.00    -0.387 OA
ATOM     41  H   UNL     1      51.312  58.554   8.598  1.00  0.00     0.211 HD
ENDBRANCH  32  40
ENDBRANCH   1  27
TORSDOF 12
ENDMDL
MODEL 7
REMARK VINA RESULT:    -8.419      1.714      6.629
REMARK INTER + INTRA:         -13.837
REMARK INTER:                 -13.049
REMARK INTRA:                  -0.788
REMARK UNBOUND:                -1.480
REMARK SMILES O=c1c(O[C@H]2O[C@H](CO)[C@@H](O)[C@H](O)[C@@H]2O)c(-c2ccc(O)c(O)c2)oc2cc(O)cc(O)c12
REMARK SMILES IDX 4 1 3 2 16 3 25 4 2 5 26 6 1 7 33 8 27 9 31 10 28 11 30 12
REMARK SMILES IDX 17 13 18 14 19 15 20 16 24 17 22 18 21 19 23 21 32 23 29 25
REMARK SMILES IDX 5 27 14 28 6 29 12 30 7 31 10 32 15 33 13 35 8 37 9 38 11 40
REMARK H PARENT 21 20 23 22 32 24 29 26 15 34 13 36 9 39 11 41
REMARK Flexibility Score: inf
ROOT
ATOM      1  O   UNL     1      52.439  60.144   1.984  1.00  0.00    -0.454 OA
ENDROOT
BRANCH   1   2
ATOM      2  C   UNL     1      52.166  60.037   3.356  1.00  0.00     0.214 A 
ATOM      3  C   UNL     1      51.064  60.712   3.903  1.00  0.00     0.180 A 
ATOM      4  O   UNL     1      50.854  60.690   5.213  1.00  0.00    -0.452 OA
ATOM      5  C   UNL     1      53.023  59.336   4.217  1.00  0.00     0.239 A 
ATOM      6  C   UNL     1      51.619  60.015   6.062  1.00  0.00     0.146 A 
ATOM      7  O   UNL     1      54.085  58.849   3.750  1.00  0.00    -0.285 OA
ATOM      8  C   UNL     1      52.725  59.257   5.597  1.00  0.00     0.111 A 
ATOM      9  C   UNL     1      51.320  60.070   7.426  1.00  0.00     0.094 A 
ATOM     10  C   UNL     1      53.486  58.511   6.546  1.00  0.00     0.134 A 
ATOM     11  C   UNL     1      52.109  59.385   8.351  1.00  0.00     0.123 A 
ATOM     12  C   UNL     1      53.185  58.617   7.909  1.00  0.00     0.093 A 
BRANCH   3  13
ATOM     13  C   UNL     1      50.126  61.474   3.057  1.00  0.00     0.025 A 
ATOM     14  C   UNL     1      48.778  61.568   3.423  1.00  0.00     0.016 A 
ATOM     15  C   UNL     1      47.880  62.275   2.622  1.00  0.00     0.051 A 
ATOM     16  C   UNL     1      48.305  62.879   1.433  1.00  0.00     0.157 A 
ATOM     17  C   UNL     1      50.554  62.058   1.856  1.00  0.00     0.062 A 
ATOM     18  C   UNL     1      49.659  62.758   1.039  1.00  0.00     0.158 A 
BRANCH  16  19
ATOM     19  O   UNL     1      47.361  63.581   0.682  1.00  0.00    -0.504 OA
ATOM     20  H   UNL     1      46.615  63.143   0.162  1.00  0.00     0.293 HD
ENDBRANCH  16  19
BRANCH  18  21
ATOM     21  O   UNL     1      50.152  63.309  -0.146  1.00  0.00    -0.504 OA
ATOM     22  H   UNL     1      50.044  64.279  -0.405  1.00  0.00     0.293 HD
ENDBRANCH  18  21
ENDBRANCH   3  13
BRANCH  10  23
ATOM     23  O   UNL     1      54.517  57.635   6.197  1.00  0.00    -0.507 OA
ATOM     24  H   UNL     1      55.458  57.687   6.559  1.00  0.00     0.293 HD
ENDBRANCH  10  23
BRANCH  11  25
ATOM     25  O   UNL     1      51.827  59.455   9.714  1.00  0.00    -0.508 OA
ATOM     26  H   UNL     1      51.784  58.622  10.289  1.00  0.00     0.293 HD
ENDBRANCH  11  25
ENDBRANCH   1   2
BRANCH   1  27
ATOM     27  C   UNL     1      52.674  59.019   1.128  1.00  0.00     0.339 C 
ATOM     28  C   UNL     1      54.043  59.142   0.397  1.00  0.00     0.214 C 
ATOM     29  O   UNL     1      51.580  58.888   0.232  1.00  0.00    -0.332 OA
ATOM     30  C   UNL     1      53.932  58.755  -1.094  1.00  0.00     0.180 C 
ATOM     31  C   UNL     1      51.644  59.863  -0.794  1.00  0.00     0.179 C 
ATOM     32  C   UNL     1      52.776  59.510  -1.796  1.00  0.00     0.177 C 
BRANCH  28  33
ATOM     33  O   UNL     1      54.997  58.327   1.030  1.00  0.00    -0.384 OA
ATOM     34  H   UNL     1      55.880  58.757   0.892  1.00  0.00     0.211 HD
ENDBRANCH  28  33
BRANCH  30  35
ATOM     35  O   UNL     1      53.799  57.360  -1.247  1.00  0.00    -0.387 OA
ATOM     36  H   UNL     1      53.932  57.138  -2.203  1.00  0.00     0.211 HD
ENDBRANCH  30  35
BRANCH  31  37
ATOM     37  C   UNL     1      50.284  59.930  -1.503  1.00  0.00     0.191 C 
BRANCH  37  38
ATOM     38  O   UNL     1      50.434  59.693  -2.877  1.00  0.00    -0.394 OA
ATOM     39  H   UNL     1      50.398  58.709  -3.002  1.00  0.00     0.210 HD
ENDBRANCH  37  38
ENDBRANCH  31  37
BRANCH  32  40
ATOM     40  O   UNL     1      53.279  60.691  -2.371  1.00  0.00    -0.387 OA
ATOM     41  H   UNL     1      53.332  60.538  -3.350  1.00  0.00     0.211 HD
ENDBRANCH  32  40
ENDBRANCH   1  27
TORSDOF 12
ENDMDL
MODEL 8
REMARK VINA RESULT:    -8.398      1.743      3.052
REMARK INTER + INTRA:         -13.805
REMARK INTER:                 -12.188
REMARK INTRA:                  -1.617
REMARK UNBOUND:                -1.480
REMARK SMILES O=c1c(O[C@H]2O[C@H](CO)[C@@H](O)[C@H](O)[C@@H]2O)c(-c2ccc(O)c(O)c2)oc2cc(O)cc(O)c12
REMARK SMILES IDX 4 1 3 2 16 3 25 4 2 5 26 6 1 7 33 8 27 9 31 10 28 11 30 12
REMARK SMILES IDX 17 13 18 14 19 15 20 16 24 17 22 18 21 19 23 21 32 23 29 25
REMARK SMILES IDX 5 27 14 28 6 29 12 30 7 31 10 32 15 33 13 35 8 37 9 38 11 40
REMARK H PARENT 21 20 23 22 32 24 29 26 15 34 13 36 9 39 11 41
REMARK Flexibility Score: inf
ROOT
ATOM      1  O   UNL     1      51.346  60.234   3.623  1.00  0.00    -0.454 OA
ENDROOT
BRANCH   1   2
ATOM      2  C   UNL     1      51.745  60.351   2.283  1.00  0.00     0.214 A 
ATOM      3  C   UNL     1      50.936  61.048   1.373  1.00  0.00     0.180 A 
ATOM      4  O   UNL     1      51.261  61.084   0.086  1.00  0.00    -0.452 OA
ATOM      5  C   UNL     1      52.900  59.712   1.808  1.00  0.00     0.239 A 
ATOM      6  C   UNL     1      52.359  60.521  -0.403  1.00  0.00     0.146 A 
ATOM      7  O   UNL     1      53.550  58.973   2.591  1.00  0.00    -0.285 OA
ATOM      8  C   UNL     1      53.267  59.841   0.448  1.00  0.00     0.111 A 
ATOM      9  C   UNL     1      52.600  60.604  -1.777  1.00  0.00     0.094 A 
ATOM     10  C   UNL     1      54.456  59.296  -0.122  1.00  0.00     0.134 A 
ATOM     11  C   UNL     1      53.736  60.013  -2.332  1.00  0.00     0.123 A 
ATOM     12  C   UNL     1      54.652  59.362  -1.506  1.00  0.00     0.093 A 
BRANCH   3  13
ATOM     13  C   UNL     1      49.705  61.737   1.803  1.00  0.00     0.025 A 
ATOM     14  C   UNL     1      49.545  63.103   1.542  1.00  0.00     0.016 A 
ATOM     15  C   UNL     1      48.390  63.768   1.958  1.00  0.00     0.051 A 
ATOM     16  C   UNL     1      47.387  63.088   2.657  1.00  0.00     0.157 A 
ATOM     17  C   UNL     1      48.714  61.055   2.524  1.00  0.00     0.062 A 
ATOM     18  C   UNL     1      47.557  61.714   2.955  1.00  0.00     0.158 A 
BRANCH  16  19
ATOM     19  O   UNL     1      46.252  63.806   3.035  1.00  0.00    -0.504 OA
ATOM     20  H   UNL     1      45.326  63.628   2.674  1.00  0.00     0.293 HD
ENDBRANCH  16  19
BRANCH  18  21
ATOM     21  O   UNL     1      46.615  60.976   3.673  1.00  0.00    -0.504 OA
ATOM     22  H   UNL     1      46.095  61.336   4.460  1.00  0.00     0.293 HD
ENDBRANCH  18  21
ENDBRANCH   3  13
BRANCH  10  23
ATOM     23  O   UNL     1      55.481  58.714   0.630  1.00  0.00    -0.507 OA
ATOM     24  H   UNL     1      56.465  58.878   0.478  1.00  0.00     0.293 HD
ENDBRANCH  10  23
BRANCH  11  25
ATOM     25  O   UNL     1      53.970  60.075  -3.704  1.00  0.00    -0.508 OA
ATOM     26  H   UNL     1      54.802  59.672  -4.119  1.00  0.00     0.293 HD
ENDBRANCH  11  25
ENDBRANCH   1   2
BRANCH   1  27
ATOM     27  C   UNL     1      51.958  60.951   4.702  1.00  0.00     0.339 C 
ATOM     28  C   UNL     1      52.479  59.980   5.803  1.00  0.00     0.214 C 
ATOM     29  O   UNL     1      51.032  61.905   5.202  1.00  0.00    -0.332 OA
ATOM     30  C   UNL     1      52.137  60.486   7.221  1.00  0.00     0.180 C 
ATOM     31  C   UNL     1      50.036  61.280   5.993  1.00  0.00     0.179 C 
ATOM     32  C   UNL     1      50.635  60.839   7.355  1.00  0.00     0.177 C 
BRANCH  28  33
ATOM     33  O   UNL     1      53.870  59.818   5.677  1.00  0.00    -0.384 OA
ATOM     34  H   UNL     1      54.285  60.675   5.956  1.00  0.00     0.211 HD
ENDBRANCH  28  33
BRANCH  30  35
ATOM     35  O   UNL     1      52.953  61.579   7.579  1.00  0.00    -0.387 OA
ATOM     36  H   UNL     1      52.405  62.219   8.101  1.00  0.00     0.211 HD
ENDBRANCH  30  35
BRANCH  31  37
ATOM     37  C   UNL     1      48.873  62.262   6.195  1.00  0.00     0.191 C 
BRANCH  37  38
ATOM     38  O   UNL     1      47.709  61.573   6.568  1.00  0.00    -0.394 OA
ATOM     39  H   UNL     1      47.653  60.771   5.986  1.00  0.00     0.210 HD
ENDBRANCH  37  38
ENDBRANCH  31  37
BRANCH  32  40
ATOM     40  O   UNL     1      49.939  59.714   7.833  1.00  0.00    -0.387 OA
ATOM     41  H   UNL     1      50.054  59.698   8.818  1.00  0.00     0.211 HD
ENDBRANCH  32  40
ENDBRANCH   1  27
TORSDOF 12
ENDMDL
MODEL 9
REMARK VINA RESULT:    -8.363      1.861      5.987
REMARK INTER + INTRA:         -13.754
REMARK INTER:                 -12.627
REMARK INTRA:                  -1.128
REMARK UNBOUND:                -1.480
REMARK SMILES O=c1c(O[C@H]2O[C@H](CO)[C@@H](O)[C@H](O)[C@@H]2O)c(-c2ccc(O)c(O)c2)oc2cc(O)cc(O)c12
REMARK SMILES IDX 4 1 3 2 16 3 25 4 2 5 26 6 1 7 33 8 27 9 31 10 28 11 30 12
REMARK SMILES IDX 17 13 18 14 19 15 20 16 24 17 22 18 21 19 23 21 32 23 29 25
REMARK SMILES IDX 5 27 14 28 6 29 12 30 7 31 10 32 15 33 13 35 8 37 9 38 11 40
REMARK H PARENT 21 20 23 22 32 24 29 26 15 34 13 36 9 39 11 41
REMARK Flexibility Score: inf
ROOT
ATOM      1  O   UNL     1      49.751  62.984   3.927  1.00  0.00    -0.454 OA
ENDROOT
BRANCH   1   2
ATOM      2  C   UNL     1      50.388  61.919   3.273  1.00  0.00     0.214 A 
ATOM      3  C   UNL     1      51.198  61.036   4.004  1.00  0.00     0.180 A 
ATOM      4  O   UNL     1      51.876  60.083   3.376  1.00  0.00    -0.452 OA
ATOM      5  C   UNL     1      50.304  61.764   1.882  1.00  0.00     0.239 A 
ATOM      6  C   UNL     1      51.802  59.878   2.068  1.00  0.00     0.146 A 
ATOM      7  O   UNL     1      49.694  62.635   1.210  1.00  0.00    -0.285 OA
ATOM      8  C   UNL     1      50.968  60.686   1.252  1.00  0.00     0.111 A 
ATOM      9  C   UNL     1      52.571  58.856   1.504  1.00  0.00     0.094 A 
ATOM     10  C   UNL     1      50.889  60.392  -0.142  1.00  0.00     0.134 A 
ATOM     11  C   UNL     1      52.532  58.618   0.129  1.00  0.00     0.123 A 
ATOM     12  C   UNL     1      51.698  59.387  -0.683  1.00  0.00     0.093 A 
BRANCH   3  13
ATOM     13  C   UNL     1      51.337  61.146   5.468  1.00  0.00     0.025 A 
ATOM     14  C   UNL     1      52.170  62.128   6.016  1.00  0.00     0.016 A 
ATOM     15  C   UNL     1      52.319  62.232   7.400  1.00  0.00     0.051 A 
ATOM     16  C   UNL     1      51.657  61.345   8.258  1.00  0.00     0.157 A 
ATOM     17  C   UNL     1      50.689  60.240   6.321  1.00  0.00     0.062 A 
ATOM     18  C   UNL     1      50.840  60.328   7.709  1.00  0.00     0.158 A 
BRANCH  16  19
ATOM     19  O   UNL     1      51.838  61.508   9.632  1.00  0.00    -0.504 OA
ATOM     20  H   UNL     1      52.622  61.991  10.045  1.00  0.00     0.293 HD
ENDBRANCH  16  19
BRANCH  18  21
ATOM     21  O   UNL     1      50.171  59.390   8.498  1.00  0.00    -0.504 OA
ATOM     22  H   UNL     1      49.181  59.203   8.436  1.00  0.00     0.293 HD
ENDBRANCH  18  21
ENDBRANCH   3  13
BRANCH  10  23
ATOM     23  O   UNL     1      50.013  61.035  -1.022  1.00  0.00    -0.507 OA
ATOM     24  H   UNL     1      50.302  61.653  -1.765  1.00  0.00     0.293 HD
ENDBRANCH  10  23
BRANCH  11  25
ATOM     25  O   UNL     1      53.312  57.614  -0.441  1.00  0.00    -0.508 OA
ATOM     26  H   UNL     1      53.626  57.668  -1.402  1.00  0.00     0.293 HD
ENDBRANCH  11  25
ENDBRANCH   1   2
BRANCH   1  27
ATOM     27  C   UNL     1      48.411  62.923   4.430  1.00  0.00     0.339 C 
ATOM     28  C   UNL     1      47.511  62.023   3.533  1.00  0.00     0.214 C 
ATOM     29  O   UNL     1      47.909  64.246   4.563  1.00  0.00    -0.332 OA
ATOM     30  C   UNL     1      46.130  62.666   3.280  1.00  0.00     0.180 C 
ATOM     31  C   UNL     1      47.563  64.787   3.300  1.00  0.00     0.179 C 
ATOM     32  C   UNL     1      46.262  64.124   2.774  1.00  0.00     0.177 C 
BRANCH  28  33
ATOM     33  O   UNL     1      47.347  60.763   4.133  1.00  0.00    -0.384 OA
ATOM     34  H   UNL     1      47.669  60.089   3.480  1.00  0.00     0.211 HD
ENDBRANCH  28  33
BRANCH  30  35
ATOM     35  O   UNL     1      45.320  62.596   4.432  1.00  0.00    -0.387 OA
ATOM     36  H   UNL     1      45.910  62.516   5.223  1.00  0.00     0.211 HD
ENDBRANCH  30  35
BRANCH  31  37
ATOM     37  C   UNL     1      47.389  66.306   3.440  1.00  0.00     0.191 C 
BRANCH  37  38
ATOM     38  O   UNL     1      46.054  66.670   3.213  1.00  0.00    -0.394 OA
ATOM     39  H   UNL     1      45.855  66.448   2.266  1.00  0.00     0.210 HD
ENDBRANCH  37  38
ENDBRANCH  31  37
BRANCH  32  40
ATOM     40  O   UNL     1      46.270  64.124   1.368  1.00  0.00    -0.387 OA
ATOM     41  H   UNL     1      46.645  64.996   1.080  1.00  0.00     0.211 HD
ENDBRANCH  32  40
ENDBRANCH   1  27
TORSDOF 12
ENDMDL
