MODEL 1
REMARK VINA RESULT:    -5.581      0.000      0.000
REMARK INTER + INTRA:          -8.304
REMARK INTER:                  -7.702
REMARK INTRA:                  -0.602
REMARK UNBOUND:                -0.602
REMARK SMILES CCCCc1cccc(O)c1CCCC
REMARK SMILES IDX 5 1 11 2 9 3 8 4 7 5 6 6 4 7 3 8 2 9 1 10 12 11 13 12 14 13
REMARK SMILES IDX 15 14 10 15
REMARK H PARENT 10 16
REMARK Flexibility Score: inf
ROOT
ATOM      1  C   UNL     1      23.922   5.199 102.170  1.00  0.00    -0.041 A 
ATOM      2  C   UNL     1      22.535   4.925 101.989  1.00  0.00    -0.003 A 
ATOM      3  C   UNL     1      21.845   5.550 100.924  1.00  0.00     0.119 A 
ATOM      4  C   UNL     1      22.507   6.452 100.085  1.00  0.00     0.046 A 
ATOM      5  C   UNL     1      23.856   6.733 100.279  1.00  0.00     0.004 A 
ATOM      6  C   UNL     1      24.559   6.111 101.308  1.00  0.00     0.004 A 
ENDROOT
BRANCH   1   7
ATOM      7  C   UNL     1      24.763   4.566 103.263  1.00  0.00     0.036 C 
BRANCH   7   8
ATOM      8  C   UNL     1      25.896   3.695 102.694  1.00  0.00     0.004 C 
BRANCH   8   9
ATOM      9  C   UNL     1      27.043   3.496 103.694  1.00  0.00    -0.003 C 
ATOM     10  C   UNL     1      27.978   2.379 103.240  1.00  0.00     0.004 C 
ENDBRANCH   8   9
ENDBRANCH   7   8
ENDBRANCH   1   7
BRANCH   2  11
ATOM     11  C   UNL     1      21.788   3.932 102.857  1.00  0.00     0.040 C 
BRANCH  11  12
ATOM     12  C   UNL     1      21.187   4.628 104.084  1.00  0.00     0.005 C 
BRANCH  12  13
ATOM     13  C   UNL     1      21.315   3.750 105.333  1.00  0.00    -0.003 C 
ATOM     14  C   UNL     1      19.967   3.576 106.026  1.00  0.00     0.004 C 
ENDBRANCH  12  13
ENDBRANCH  11  12
ENDBRANCH   2  11
BRANCH   3  15
ATOM     15  O   UNL     1      20.497   5.268 100.698  1.00  0.00    -0.508 OA
ATOM     16  H   UNL     1      20.200   4.410 100.245  1.00  0.00     0.293 HD
ENDBRANCH   3  15
TORSDOF 7
ENDMDL
MODEL 2
REMARK VINA RESULT:    -5.569      2.717      5.102
REMARK INTER + INTRA:          -8.287
REMARK INTER:                  -7.624
REMARK INTRA:                  -0.663
REMARK UNBOUND:                -0.602
REMARK SMILES CCCCc1cccc(O)c1CCCC
REMARK SMILES IDX 5 1 11 2 9 3 8 4 7 5 6 6 4 7 3 8 2 9 1 10 12 11 13 12 14 13
REMARK SMILES IDX 15 14 10 15
REMARK H PARENT 10 16
REMARK Flexibility Score: inf
ROOT
ATOM      1  C   UNL     1      21.733   2.464 104.042  1.00  0.00    -0.041 A 
ATOM      2  C   UNL     1      21.917   3.843 104.355  1.00  0.00    -0.003 A 
ATOM      3  C   UNL     1      21.080   4.444 105.324  1.00  0.00     0.119 A 
ATOM      4  C   UNL     1      20.062   3.705 105.936  1.00  0.00     0.046 A 
ATOM      5  C   UNL     1      19.872   2.366 105.610  1.00  0.00     0.004 A 
ATOM      6  C   UNL     1      20.701   1.749 104.676  1.00  0.00     0.004 A 
ENDROOT
BRANCH   1   7
ATOM      7  C   UNL     1      22.589   1.715 103.038  1.00  0.00     0.036 C 
BRANCH   7   8
ATOM      8  C   UNL     1      21.768   0.723 102.197  1.00  0.00     0.004 C 
BRANCH   8   9
ATOM      9  C   UNL     1      22.538  -0.567 101.890  1.00  0.00    -0.003 C 
ATOM     10  C   UNL     1      23.713  -0.747 102.846  1.00  0.00     0.004 C 
ENDBRANCH   8   9
ENDBRANCH   7   8
ENDBRANCH   1   7
BRANCH   2  11
ATOM     11  C   UNL     1      23.027   4.670 103.737  1.00  0.00     0.040 C 
BRANCH  11  12
ATOM     12  C   UNL     1      22.856   4.756 102.216  1.00  0.00     0.005 C 
BRANCH  12  13
ATOM     13  C   UNL     1      21.494   5.352 101.848  1.00  0.00    -0.003 C 
ATOM     14  C   UNL     1      21.006   4.822 100.502  1.00  0.00     0.004 C 
ENDBRANCH  12  13
ENDBRANCH  11  12
ENDBRANCH   2  11
BRANCH   3  15
ATOM     15  O   UNL     1      21.266   5.780 105.682  1.00  0.00    -0.508 OA
ATOM     16  H   UNL     1      21.895   6.387 105.169  1.00  0.00     0.293 HD
ENDBRANCH   3  15
TORSDOF 7
ENDMDL
MODEL 3
REMARK VINA RESULT:    -5.404      1.365      4.742
REMARK INTER + INTRA:          -8.060
REMARK INTER:                  -7.383
REMARK INTRA:                  -0.676
REMARK UNBOUND:                -0.602
REMARK SMILES CCCCc1cccc(O)c1CCCC
REMARK SMILES IDX 5 1 11 2 9 3 8 4 7 5 6 6 4 7 3 8 2 9 1 10 12 11 13 12 14 13
REMARK SMILES IDX 15 14 10 15
REMARK H PARENT 10 16
REMARK Flexibility Score: inf
ROOT
ATOM      1  C   UNL     1      22.244   4.332 102.780  1.00  0.00    -0.041 A 
ATOM      2  C   UNL     1      23.472   4.919 102.356  1.00  0.00    -0.003 A 
ATOM      3  C   UNL     1      23.510   5.618 101.127  1.00  0.00     0.119 A 
ATOM      4  C   UNL     1      22.367   5.697 100.323  1.00  0.00     0.046 A 
ATOM      5  C   UNL     1      21.177   5.104 100.732  1.00  0.00     0.004 A 
ATOM      6  C   UNL     1      21.114   4.431 101.949  1.00  0.00     0.004 A 
ENDROOT
BRANCH   1   7
ATOM      7  C   UNL     1      22.086   3.584 104.091  1.00  0.00     0.036 C 
BRANCH   7   8
ATOM      8  C   UNL     1      21.614   4.500 105.232  1.00  0.00     0.004 C 
BRANCH   8   9
ATOM      9  C   UNL     1      20.274   4.053 105.830  1.00  0.00    -0.003 C 
ATOM     10  C   UNL     1      20.075   2.549 105.669  1.00  0.00     0.004 C 
ENDBRANCH   8   9
ENDBRANCH   7   8
ENDBRANCH   1   7
BRANCH   2  11
ATOM     11  C   UNL     1      24.724   4.882 103.211  1.00  0.00     0.040 C 
BRANCH  11  12
ATOM     12  C   UNL     1      25.590   3.669 102.851  1.00  0.00     0.005 C 
BRANCH  12  13
ATOM     13  C   UNL     1      26.861   3.628 103.705  1.00  0.00    -0.003 C 
ATOM     14  C   UNL     1      27.645   2.341 103.465  1.00  0.00     0.004 C 
ENDBRANCH  12  13
ENDBRANCH  11  12
ENDBRANCH   2  11
BRANCH   3  15
ATOM     15  O   UNL     1      24.687   6.239 100.706  1.00  0.00    -0.508 OA
ATOM     16  H   UNL     1      25.030   6.145  99.757  1.00  0.00     0.293 HD
ENDBRANCH   3  15
TORSDOF 7
ENDMDL
MODEL 4
REMARK VINA RESULT:    -5.402      2.748      5.122
REMARK INTER + INTRA:          -8.056
REMARK INTER:                  -7.408
REMARK INTRA:                  -0.648
REMARK UNBOUND:                -0.602
REMARK SMILES CCCCc1cccc(O)c1CCCC
REMARK SMILES IDX 5 1 11 2 9 3 8 4 7 5 6 6 4 7 3 8 2 9 1 10 12 11 13 12 14 13
REMARK SMILES IDX 15 14 10 15
REMARK H PARENT 10 16
REMARK Flexibility Score: inf
ROOT
ATOM      1  C   UNL     1      22.593   4.090 103.710  1.00  0.00    -0.041 A 
ATOM      2  C   UNL     1      21.796   2.928 103.925  1.00  0.00    -0.003 A 
ATOM      3  C   UNL     1      20.949   2.877 105.057  1.00  0.00     0.119 A 
ATOM      4  C   UNL     1      20.925   3.936 105.971  1.00  0.00     0.046 A 
ATOM      5  C   UNL     1      21.722   5.058 105.768  1.00  0.00     0.004 A 
ATOM      6  C   UNL     1      22.545   5.137 104.648  1.00  0.00     0.004 A 
ENDROOT
BRANCH   1   7
ATOM      7  C   UNL     1      23.516   4.260 102.517  1.00  0.00     0.036 C 
BRANCH   7   8
ATOM      8  C   UNL     1      22.996   5.314 101.525  1.00  0.00     0.004 C 
BRANCH   8   9
ATOM      9  C   UNL     1      21.464   5.350 101.454  1.00  0.00    -0.003 C 
ATOM     10  C   UNL     1      20.968   4.906 100.081  1.00  0.00     0.004 C 
ENDBRANCH   8   9
ENDBRANCH   7   8
ENDBRANCH   1   7
BRANCH   2  11
ATOM     11  C   UNL     1      21.770   1.773 102.944  1.00  0.00     0.040 C 
BRANCH  11  12
ATOM     12  C   UNL     1      22.817   0.718 103.320  1.00  0.00     0.005 C 
BRANCH  12  13
ATOM     13  C   UNL     1      22.893  -0.385 102.259  1.00  0.00    -0.003 C 
ATOM     14  C   UNL     1      23.969  -1.410 102.606  1.00  0.00     0.004 C 
ENDBRANCH  12  13
ENDBRANCH  11  12
ENDBRANCH   2  11
BRANCH   3  15
ATOM     15  O   UNL     1      20.125   1.770 105.270  1.00  0.00    -0.508 OA
ATOM     16  H   UNL     1      20.054   1.020 104.592  1.00  0.00     0.293 HD
ENDBRANCH   3  15
TORSDOF 7
ENDMDL
MODEL 5
REMARK VINA RESULT:    -5.387      2.051      4.224
REMARK INTER + INTRA:          -8.036
REMARK INTER:                  -7.191
REMARK INTRA:                  -0.845
REMARK UNBOUND:                -0.602
REMARK SMILES CCCCc1cccc(O)c1CCCC
REMARK SMILES IDX 5 1 11 2 9 3 8 4 7 5 6 6 4 7 3 8 2 9 1 10 12 11 13 12 14 13
REMARK SMILES IDX 15 14 10 15
REMARK H PARENT 10 16
REMARK Flexibility Score: inf
ROOT
ATOM      1  C   UNL     1      22.180   4.012 102.392  1.00  0.00    -0.041 A 
ATOM      2  C   UNL     1      23.328   4.813 102.120  1.00  0.00    -0.003 A 
ATOM      3  C   UNL     1      23.317   5.667 100.993  1.00  0.00     0.119 A 
ATOM      4  C   UNL     1      22.211   5.694 100.136  1.00  0.00     0.046 A 
ATOM      5  C   UNL     1      21.102   4.893 100.394  1.00  0.00     0.004 A 
ATOM      6  C   UNL     1      21.084   4.063 101.512  1.00  0.00     0.004 A 
ENDROOT
BRANCH   1   7
ATOM      7  C   UNL     1      22.075   3.082 103.586  1.00  0.00     0.036 C 
BRANCH   7   8
ATOM      8  C   UNL     1      21.772   1.633 103.171  1.00  0.00     0.004 C 
BRANCH   8   9
ATOM      9  C   UNL     1      23.045   0.811 102.930  1.00  0.00    -0.003 C 
ATOM     10  C   UNL     1      22.760  -0.396 102.042  1.00  0.00     0.004 C 
ENDBRANCH   8   9
ENDBRANCH   7   8
ENDBRANCH   1   7
BRANCH   2  11
ATOM     11  C   UNL     1      24.533   4.835 103.039  1.00  0.00     0.040 C 
BRANCH  11  12
ATOM     12  C   UNL     1      25.522   3.726 102.662  1.00  0.00     0.005 C 
BRANCH  12  13
ATOM     13  C   UNL     1      26.688   3.668 103.655  1.00  0.00    -0.003 C 
ATOM     14  C   UNL     1      27.397   2.318 103.594  1.00  0.00     0.004 C 
ENDBRANCH  12  13
ENDBRANCH  11  12
ENDBRANCH   2  11
BRANCH   3  15
ATOM     15  O   UNL     1      24.409   6.494 100.726  1.00  0.00    -0.508 OA
ATOM     16  H   UNL     1      24.304   7.496 100.612  1.00  0.00     0.293 HD
ENDBRANCH   3  15
TORSDOF 7
ENDMDL
MODEL 6
REMARK VINA RESULT:    -5.323      2.680      4.490
REMARK INTER + INTRA:          -7.947
REMARK INTER:                  -7.219
REMARK INTRA:                  -0.728
REMARK UNBOUND:                -0.602
REMARK SMILES CCCCc1cccc(O)c1CCCC
REMARK SMILES IDX 5 1 11 2 9 3 8 4 7 5 6 6 4 7 3 8 2 9 1 10 12 11 13 12 14 13
REMARK SMILES IDX 15 14 10 15
REMARK H PARENT 10 16
REMARK Flexibility Score: inf
ROOT
ATOM      1  C   UNL     1      22.341   4.047 103.920  1.00  0.00    -0.041 A 
ATOM      2  C   UNL     1      21.564   2.877 104.166  1.00  0.00    -0.003 A 
ATOM      3  C   UNL     1      20.753   2.822 105.322  1.00  0.00     0.119 A 
ATOM      4  C   UNL     1      20.744   3.886 106.231  1.00  0.00     0.046 A 
ATOM      5  C   UNL     1      21.521   5.016 105.998  1.00  0.00     0.004 A 
ATOM      6  C   UNL     1      22.309   5.099 104.853  1.00  0.00     0.004 A 
ENDROOT
BRANCH   1   7
ATOM      7  C   UNL     1      23.225   4.221 102.699  1.00  0.00     0.036 C 
BRANCH   7   8
ATOM      8  C   UNL     1      24.636   4.710 103.067  1.00  0.00     0.004 C 
BRANCH   8   9
ATOM      9  C   UNL     1      25.723   3.685 102.720  1.00  0.00    -0.003 C 
ATOM     10  C   UNL     1      26.808   3.651 103.792  1.00  0.00     0.004 C 
ENDBRANCH   8   9
ENDBRANCH   7   8
ENDBRANCH   1   7
BRANCH   2  11
ATOM     11  C   UNL     1      21.523   1.716 103.191  1.00  0.00     0.040 C 
BRANCH  11  12
ATOM     12  C   UNL     1      22.694   0.758 103.440  1.00  0.00     0.005 C 
BRANCH  12  13
ATOM     13  C   UNL     1      22.859  -0.224 102.275  1.00  0.00    -0.003 C 
ATOM     14  C   UNL     1      24.198  -0.952 102.353  1.00  0.00     0.004 C 
ENDBRANCH  12  13
ENDBRANCH  11  12
ENDBRANCH   2  11
BRANCH   3  15
ATOM     15  O   UNL     1      19.949   1.707 105.566  1.00  0.00    -0.508 OA
ATOM     16  H   UNL     1      20.130   1.079 106.341  1.00  0.00     0.293 HD
ENDBRANCH   3  15
TORSDOF 7
ENDMDL
MODEL 7
REMARK VINA RESULT:    -4.864      7.675      9.720
REMARK INTER + INTRA:          -7.314
REMARK INTER:                  -6.362
REMARK INTRA:                  -0.953
REMARK UNBOUND:                -0.602
REMARK SMILES CCCCc1cccc(O)c1CCCC
REMARK SMILES IDX 5 1 11 2 9 3 8 4 7 5 6 6 4 7 3 8 2 9 1 10 12 11 13 12 14 13
REMARK SMILES IDX 15 14 10 15
REMARK H PARENT 10 16
REMARK Flexibility Score: inf
ROOT
ATOM      1  C   UNL     1      32.597   3.127 100.194  1.00  0.00    -0.041 A 
ATOM      2  C   UNL     1      32.767   4.485 100.594  1.00  0.00    -0.003 A 
ATOM      3  C   UNL     1      32.493   5.513  99.662  1.00  0.00     0.119 A 
ATOM      4  C   UNL     1      32.099   5.199  98.357  1.00  0.00     0.046 A 
ATOM      5  C   UNL     1      31.957   3.872  97.966  1.00  0.00     0.004 A 
ATOM      6  C   UNL     1      32.199   2.845  98.875  1.00  0.00     0.004 A 
ENDROOT
BRANCH   1   7
ATOM      7  C   UNL     1      32.838   1.948 101.119  1.00  0.00     0.036 C 
BRANCH   7   8
ATOM      8  C   UNL     1      31.612   1.025 101.217  1.00  0.00     0.004 C 
BRANCH   8   9
ATOM      9  C   UNL     1      30.560   1.545 102.204  1.00  0.00    -0.003 C 
ATOM     10  C   UNL     1      29.167   1.527 101.582  1.00  0.00     0.004 C 
ENDBRANCH   8   9
ENDBRANCH   7   8
ENDBRANCH   1   7
BRANCH   2  11
ATOM     11  C   UNL     1      33.162   4.868 102.006  1.00  0.00     0.040 C 
BRANCH  11  12
ATOM     12  C   UNL     1      31.948   4.819 102.942  1.00  0.00     0.005 C 
BRANCH  12  13
ATOM     13  C   UNL     1      32.364   5.063 104.396  1.00  0.00    -0.003 C 
ATOM     14  C   UNL     1      33.757   5.680 104.475  1.00  0.00     0.004 C 
ENDBRANCH  12  13
ENDBRANCH  11  12
ENDBRANCH   2  11
BRANCH   3  15
ATOM     15  O   UNL     1      32.609   6.852 100.038  1.00  0.00    -0.508 OA
ATOM     16  H   UNL     1      32.563   7.139 101.010  1.00  0.00     0.293 HD
ENDBRANCH   3  15
TORSDOF 7
ENDMDL
MODEL 8
REMARK VINA RESULT:    -4.814      9.672     11.447
REMARK INTER + INTRA:          -7.245
REMARK INTER:                  -5.942
REMARK INTRA:                  -1.303
REMARK UNBOUND:                -0.602
REMARK SMILES CCCCc1cccc(O)c1CCCC
REMARK SMILES IDX 5 1 11 2 9 3 8 4 7 5 6 6 4 7 3 8 2 9 1 10 12 11 13 12 14 13
REMARK SMILES IDX 15 14 10 15
REMARK H PARENT 10 16
REMARK Flexibility Score: inf
ROOT
ATOM      1  C   UNL     1      23.642  -6.352 105.151  1.00  0.00    -0.041 A 
ATOM      2  C   UNL     1      22.251  -6.465 104.856  1.00  0.00    -0.003 A 
ATOM      3  C   UNL     1      21.312  -6.269 105.895  1.00  0.00     0.119 A 
ATOM      4  C   UNL     1      21.744  -6.006 107.200  1.00  0.00     0.046 A 
ATOM      5  C   UNL     1      23.103  -5.919 107.486  1.00  0.00     0.004 A 
ATOM      6  C   UNL     1      24.043  -6.086 106.472  1.00  0.00     0.004 A 
ENDROOT
BRANCH   1   7
ATOM      7  C   UNL     1      24.732  -6.518 104.108  1.00  0.00     0.036 C 
BRANCH   7   8
ATOM      8  C   UNL     1      25.683  -5.311 104.063  1.00  0.00     0.004 C 
BRANCH   8   9
ATOM      9  C   UNL     1      25.186  -4.205 103.122  1.00  0.00    -0.003 C 
ATOM     10  C   UNL     1      24.850  -2.935 103.897  1.00  0.00     0.004 C 
ENDBRANCH   8   9
ENDBRANCH   7   8
ENDBRANCH   1   7
BRANCH   2  11
ATOM     11  C   UNL     1      21.741  -6.719 103.451  1.00  0.00     0.040 C 
BRANCH  11  12
ATOM     12  C   UNL     1      21.710  -5.417 102.643  1.00  0.00     0.005 C 
BRANCH  12  13
ATOM     13  C   UNL     1      21.751  -5.702 101.138  1.00  0.00    -0.003 C 
ATOM     14  C   UNL     1      23.116  -6.237 100.715  1.00  0.00     0.004 C 
ENDBRANCH  12  13
ENDBRANCH  11  12
ENDBRANCH   2  11
BRANCH   3  15
ATOM     15  O   UNL     1      19.944  -6.331 105.628  1.00  0.00    -0.508 OA
ATOM     16  H   UNL     1      19.282  -5.713 106.084  1.00  0.00     0.293 HD
ENDBRANCH   3  15
TORSDOF 7
ENDMDL
MODEL 9
REMARK VINA RESULT:    -4.764      6.282      9.729
REMARK INTER + INTRA:          -7.176
REMARK INTER:                  -6.398
REMARK INTRA:                  -0.778
REMARK UNBOUND:                -0.602
REMARK SMILES CCCCc1cccc(O)c1CCCC
REMARK SMILES IDX 5 1 11 2 9 3 8 4 7 5 6 6 4 7 3 8 2 9 1 10 12 11 13 12 14 13
REMARK SMILES IDX 15 14 10 15
REMARK H PARENT 10 16
REMARK Flexibility Score: inf
ROOT
ATOM      1  C   UNL     1      31.224   3.187 102.726  1.00  0.00    -0.041 A 
ATOM      2  C   UNL     1      32.341   4.035 102.470  1.00  0.00    -0.003 A 
ATOM      3  C   UNL     1      32.696   5.011 103.430  1.00  0.00     0.119 A 
ATOM      4  C   UNL     1      31.937   5.165 104.596  1.00  0.00     0.046 A 
ATOM      5  C   UNL     1      30.835   4.349 104.830  1.00  0.00     0.004 A 
ATOM      6  C   UNL     1      30.483   3.367 103.908  1.00  0.00     0.004 A 
ENDROOT
BRANCH   1   7
ATOM      7  C   UNL     1      30.772   2.092 101.777  1.00  0.00     0.036 C 
BRANCH   7   8
ATOM      8  C   UNL     1      29.561   1.315 102.318  1.00  0.00     0.004 C 
BRANCH   8   9
ATOM      9  C   UNL     1      28.304   1.512 101.461  1.00  0.00    -0.003 C 
ATOM     10  C   UNL     1      27.223   2.259 102.236  1.00  0.00     0.004 C 
ENDBRANCH   8   9
ENDBRANCH   7   8
ENDBRANCH   1   7
BRANCH   2  11
ATOM     11  C   UNL     1      33.206   3.881 101.234  1.00  0.00     0.040 C 
BRANCH  11  12
ATOM     12  C   UNL     1      32.716   4.803 100.111  1.00  0.00     0.005 C 
BRANCH  12  13
ATOM     13  C   UNL     1      32.026   4.001  99.003  1.00  0.00    -0.003 C 
ATOM     14  C   UNL     1      31.768   4.867  97.774  1.00  0.00     0.004 C 
ENDBRANCH  12  13
ENDBRANCH  11  12
ENDBRANCH   2  11
BRANCH   3  15
ATOM     15  O   UNL     1      33.810   5.826 103.226  1.00  0.00    -0.508 OA
ATOM     16  H   UNL     1      34.495   5.623 102.508  1.00  0.00     0.293 HD
ENDBRANCH   3  15
TORSDOF 7
ENDMDL
