MODEL 1
REMARK VINA RESULT:    -6.305      0.000      0.000
REMARK INTER + INTRA:          -7.519
REMARK INTER:                  -7.226
REMARK INTRA:                  -0.293
REMARK UNBOUND:                -0.293
REMARK SMILES O=C1C[C@@H](c2ccc(O)cc2)Oc2cc(O)cc(O)c21
REMARK SMILES IDX 3 1 4 2 12 3 13 4 14 5 15 6 17 7 18 8 20 9 2 10 1 11 5 12
REMARK SMILES IDX 6 13 11 14 7 15 10 16 8 17 9 18 19 20 16 22
REMARK H PARENT 9 19 19 21 16 23
REMARK Flexibility Score: inf
ROOT
ATOM      1  C   UNL     1      -0.061   0.281  -3.641  1.00  0.00     0.131 C 
ATOM      2  C   UNL     1      -0.412   1.497  -2.773  1.00  0.00     0.211 C 
ATOM      3  O   UNL     1      -1.397   1.150  -1.794  1.00  0.00    -0.484 OA
ATOM      4  C   UNL     1      -1.389  -0.077  -1.116  1.00  0.00     0.138 A 
ATOM      5  C   UNL     1      -2.203  -0.235   0.008  1.00  0.00     0.093 A 
ATOM      6  C   UNL     1      -2.205  -1.442   0.713  1.00  0.00     0.123 A 
ATOM      7  C   UNL     1      -1.413  -2.504   0.272  1.00  0.00     0.093 A 
ATOM      8  C   UNL     1      -0.621  -2.382  -0.876  1.00  0.00     0.133 A 
ATOM      9  C   UNL     1      -0.579  -1.142  -1.567  1.00  0.00     0.102 A 
ATOM     10  C   UNL     1       0.276  -0.878  -2.750  1.00  0.00     0.174 C 
ATOM     11  O   UNL     1       1.304  -1.564  -2.994  1.00  0.00    -0.294 OA
ENDROOT
BRANCH   2  12
ATOM     12  C   UNL     1      -0.911   2.637  -3.626  1.00  0.00    -0.007 A 
ATOM     13  C   UNL     1      -1.189   3.891  -3.053  1.00  0.00     0.011 A 
ATOM     14  C   UNL     1      -1.156   2.441  -4.996  1.00  0.00     0.011 A 
ATOM     15  C   UNL     1      -1.680   4.935  -3.842  1.00  0.00     0.046 A 
ATOM     16  C   UNL     1      -1.648   3.487  -5.783  1.00  0.00     0.046 A 
ATOM     17  C   UNL     1      -1.909   4.736  -5.210  1.00  0.00     0.115 A 
BRANCH  17  18
ATOM     18  O   UNL     1      -2.398   5.769  -6.007  1.00  0.00    -0.508 OA
ATOM     19  H   UNL     1      -3.027   5.589  -6.780  1.00  0.00     0.293 HD
ENDBRANCH  17  18
ENDBRANCH   2  12
BRANCH   8  20
ATOM     20  O   UNL     1       0.069  -3.519  -1.304  1.00  0.00    -0.507 OA
ATOM     21  H   UNL     1      -0.234  -4.109  -2.064  1.00  0.00     0.293 HD
ENDBRANCH   8  20
BRANCH   6  22
ATOM     22  O   UNL     1      -2.997  -1.599   1.849  1.00  0.00    -0.508 OA
ATOM     23  H   UNL     1      -3.183  -2.514   2.242  1.00  0.00     0.293 HD
ENDBRANCH   6  22
TORSDOF 4
ENDMDL
MODEL 2
REMARK VINA RESULT:    -6.215      2.049      3.642
REMARK INTER + INTRA:          -7.417
REMARK INTER:                  -7.116
REMARK INTRA:                  -0.301
REMARK UNBOUND:                -0.293
REMARK SMILES O=C1C[C@@H](c2ccc(O)cc2)Oc2cc(O)cc(O)c21
REMARK SMILES IDX 3 1 4 2 12 3 13 4 14 5 15 6 17 7 18 8 20 9 2 10 1 11 5 12
REMARK SMILES IDX 6 13 11 14 7 15 10 16 8 17 9 18 19 20 16 22
REMARK H PARENT 9 19 19 21 16 23
REMARK Flexibility Score: inf
ROOT
ATOM      1  C   UNL     1      -1.114   1.221  -1.576  1.00  0.00     0.131 C 
ATOM      2  C   UNL     1      -0.610   1.753  -2.925  1.00  0.00     0.211 C 
ATOM      3  O   UNL     1       0.653   1.167  -3.256  1.00  0.00    -0.484 OA
ATOM      4  C   UNL     1       0.952  -0.178  -3.003  1.00  0.00     0.138 A 
ATOM      5  C   UNL     1       2.082  -0.744  -3.597  1.00  0.00     0.093 A 
ATOM      6  C   UNL     1       2.398  -2.088  -3.375  1.00  0.00     0.123 A 
ATOM      7  C   UNL     1       1.595  -2.858  -2.531  1.00  0.00     0.093 A 
ATOM      8  C   UNL     1       0.481  -2.300  -1.893  1.00  0.00     0.133 A 
ATOM      9  C   UNL     1       0.129  -0.950  -2.153  1.00  0.00     0.102 A 
ATOM     10  C   UNL     1      -1.067  -0.278  -1.590  1.00  0.00     0.174 C 
ATOM     11  O   UNL     1      -2.062  -0.930  -1.175  1.00  0.00    -0.294 OA
ENDROOT
BRANCH   2  12
ATOM     12  C   UNL     1      -0.491   3.257  -2.895  1.00  0.00    -0.007 A 
ATOM     13  C   UNL     1       0.632   3.874  -2.316  1.00  0.00     0.011 A 
ATOM     14  C   UNL     1      -1.529   4.059  -3.398  1.00  0.00     0.011 A 
ATOM     15  C   UNL     1       0.724   5.268  -2.264  1.00  0.00     0.046 A 
ATOM     16  C   UNL     1      -1.435   5.453  -3.344  1.00  0.00     0.046 A 
ATOM     17  C   UNL     1      -0.309   6.061  -2.779  1.00  0.00     0.115 A 
BRANCH  17  18
ATOM     18  O   UNL     1      -0.229   7.451  -2.733  1.00  0.00    -0.508 OA
ATOM     19  H   UNL     1      -0.655   7.982  -1.982  1.00  0.00     0.293 HD
ENDBRANCH  17  18
ENDBRANCH   2  12
BRANCH   8  20
ATOM     20  O   UNL     1      -0.215  -3.111  -0.992  1.00  0.00    -0.507 OA
ATOM     21  H   UNL     1       0.217  -3.833  -0.435  1.00  0.00     0.293 HD
ENDBRANCH   8  20
BRANCH   6  22
ATOM     22  O   UNL     1       3.511  -2.665  -3.982  1.00  0.00    -0.508 OA
ATOM     23  H   UNL     1       3.472  -3.024  -4.928  1.00  0.00     0.293 HD
ENDBRANCH   6  22
TORSDOF 4
ENDMDL
MODEL 3
REMARK VINA RESULT:    -6.138      2.096      4.013
REMARK INTER + INTRA:          -7.328
REMARK INTER:                  -7.041
REMARK INTRA:                  -0.287
REMARK UNBOUND:                -0.293
REMARK SMILES O=C1C[C@@H](c2ccc(O)cc2)Oc2cc(O)cc(O)c21
REMARK SMILES IDX 3 1 4 2 12 3 13 4 14 5 15 6 17 7 18 8 20 9 2 10 1 11 5 12
REMARK SMILES IDX 6 13 11 14 7 15 10 16 8 17 9 18 19 20 16 22
REMARK H PARENT 9 19 19 21 16 23
REMARK Flexibility Score: inf
ROOT
ATOM      1  C   UNL     1      -0.941   0.852  -2.517  1.00  0.00     0.131 C 
ATOM      2  C   UNL     1      -0.609   1.453  -3.890  1.00  0.00     0.211 C 
ATOM      3  O   UNL     1       0.800   1.395  -4.137  1.00  0.00    -0.484 OA
ATOM      4  C   UNL     1       1.588   0.297  -3.767  1.00  0.00     0.138 A 
ATOM      5  C   UNL     1       2.881   0.188  -4.281  1.00  0.00     0.093 A 
ATOM      6  C   UNL     1       3.686  -0.904  -3.941  1.00  0.00     0.123 A 
ATOM      7  C   UNL     1       3.202  -1.874  -3.060  1.00  0.00     0.093 A 
ATOM      8  C   UNL     1       1.924  -1.763  -2.500  1.00  0.00     0.133 A 
ATOM      9  C   UNL     1       1.086  -0.682  -2.880  1.00  0.00     0.102 A 
ATOM     10  C   UNL     1      -0.309  -0.503  -2.407  1.00  0.00     0.174 C 
ATOM     11  O   UNL     1      -0.990  -1.468  -1.969  1.00  0.00    -0.294 OA
ENDROOT
BRANCH   2  12
ATOM     12  C   UNL     1      -1.092   2.879  -3.980  1.00  0.00    -0.007 A 
ATOM     13  C   UNL     1      -1.461   3.433  -5.219  1.00  0.00     0.011 A 
ATOM     14  C   UNL     1      -1.124   3.690  -2.832  1.00  0.00     0.011 A 
ATOM     15  C   UNL     1      -1.879   4.764  -5.302  1.00  0.00     0.046 A 
ATOM     16  C   UNL     1      -1.542   5.021  -2.918  1.00  0.00     0.046 A 
ATOM     17  C   UNL     1      -1.922   5.561  -4.151  1.00  0.00     0.115 A 
BRANCH  17  18
ATOM     18  O   UNL     1      -2.337   6.890  -4.222  1.00  0.00    -0.508 OA
ATOM     19  H   UNL     1      -2.191   7.531  -3.452  1.00  0.00     0.293 HD
ENDBRANCH  17  18
ENDBRANCH   2  12
BRANCH   8  20
ATOM     20  O   UNL     1       1.551  -2.723  -1.557  1.00  0.00    -0.507 OA
ATOM     21  H   UNL     1       0.596  -2.899  -1.279  1.00  0.00     0.293 HD
ENDBRANCH   8  20
BRANCH   6  22
ATOM     22  O   UNL     1       4.969  -1.031  -4.467  1.00  0.00    -0.508 OA
ATOM     23  H   UNL     1       5.693  -1.546  -3.981  1.00  0.00     0.293 HD
ENDBRANCH   6  22
TORSDOF 4
ENDMDL
MODEL 4
REMARK VINA RESULT:    -5.993      2.777      4.725
REMARK INTER + INTRA:          -7.162
REMARK INTER:                  -6.875
REMARK INTRA:                  -0.288
REMARK UNBOUND:                -0.293
REMARK SMILES O=C1C[C@@H](c2ccc(O)cc2)Oc2cc(O)cc(O)c21
REMARK SMILES IDX 3 1 4 2 12 3 13 4 14 5 15 6 17 7 18 8 20 9 2 10 1 11 5 12
REMARK SMILES IDX 6 13 11 14 7 15 10 16 8 17 9 18 19 20 16 22
REMARK H PARENT 9 19 19 21 16 23
REMARK Flexibility Score: inf
ROOT
ATOM      1  C   UNL     1      -0.001  -1.258  -2.402  1.00  0.00     0.131 C 
ATOM      2  C   UNL     1       0.437  -0.244  -3.468  1.00  0.00     0.211 C 
ATOM      3  O   UNL     1       1.864  -0.135  -3.502  1.00  0.00    -0.484 OA
ATOM      4  C   UNL     1       2.711  -1.242  -3.356  1.00  0.00     0.138 A 
ATOM      5  C   UNL     1       4.064  -1.106  -3.675  1.00  0.00     0.093 A 
ATOM      6  C   UNL     1       4.930  -2.197  -3.554  1.00  0.00     0.123 A 
ATOM      7  C   UNL     1       4.444  -3.419  -3.084  1.00  0.00     0.093 A 
ATOM      8  C   UNL     1       3.100  -3.567  -2.720  1.00  0.00     0.133 A 
ATOM      9  C   UNL     1       2.207  -2.476  -2.887  1.00  0.00     0.102 A 
ATOM     10  C   UNL     1       0.753  -2.539  -2.602  1.00  0.00     0.174 C 
ATOM     11  O   UNL     1       0.128  -3.633  -2.579  1.00  0.00    -0.294 OA
ENDROOT
BRANCH   2  12
ATOM     12  C   UNL     1      -0.179   1.107  -3.205  1.00  0.00    -0.007 A 
ATOM     13  C   UNL     1      -0.647   1.899  -4.269  1.00  0.00     0.011 A 
ATOM     14  C   UNL     1      -0.241   1.614  -1.896  1.00  0.00     0.011 A 
ATOM     15  C   UNL     1      -1.190   3.163  -4.023  1.00  0.00     0.046 A 
ATOM     16  C   UNL     1      -0.784   2.880  -1.653  1.00  0.00     0.046 A 
ATOM     17  C   UNL     1      -1.261   3.657  -2.714  1.00  0.00     0.115 A 
BRANCH  17  18
ATOM     18  O   UNL     1      -1.800   4.916  -2.457  1.00  0.00    -0.508 OA
ATOM     19  H   UNL     1      -1.262   5.762  -2.605  1.00  0.00     0.293 HD
ENDBRANCH  17  18
ENDBRANCH   2  12
BRANCH   8  20
ATOM     20  O   UNL     1       2.715  -4.792  -2.172  1.00  0.00    -0.507 OA
ATOM     21  H   UNL     1       2.319  -5.550  -2.708  1.00  0.00     0.293 HD
ENDBRANCH   8  20
BRANCH   6  22
ATOM     22  O   UNL     1       6.276  -2.075  -3.891  1.00  0.00    -0.508 OA
ATOM     23  H   UNL     1       7.008  -2.423  -3.283  1.00  0.00     0.293 HD
ENDBRANCH   6  22
TORSDOF 4
ENDMDL
MODEL 5
REMARK VINA RESULT:    -5.954      2.773      4.630
REMARK INTER + INTRA:          -7.118
REMARK INTER:                  -6.834
REMARK INTRA:                  -0.284
REMARK UNBOUND:                -0.293
REMARK SMILES O=C1C[C@@H](c2ccc(O)cc2)Oc2cc(O)cc(O)c21
REMARK SMILES IDX 3 1 4 2 12 3 13 4 14 5 15 6 17 7 18 8 20 9 2 10 1 11 5 12
REMARK SMILES IDX 6 13 11 14 7 15 10 16 8 17 9 18 19 20 16 22
REMARK H PARENT 9 19 19 21 16 23
REMARK Flexibility Score: inf
ROOT
ATOM      1  C   UNL     1      -0.006  -1.241  -2.367  1.00  0.00     0.131 C 
ATOM      2  C   UNL     1       0.462  -0.238  -3.431  1.00  0.00     0.211 C 
ATOM      3  O   UNL     1       1.891  -0.177  -3.472  1.00  0.00    -0.484 OA
ATOM      4  C   UNL     1       2.701  -1.312  -3.335  1.00  0.00     0.138 A 
ATOM      5  C   UNL     1       4.056  -1.221  -3.659  1.00  0.00     0.093 A 
ATOM      6  C   UNL     1       4.885  -2.341  -3.546  1.00  0.00     0.123 A 
ATOM      7  C   UNL     1       4.361  -3.548  -3.078  1.00  0.00     0.093 A 
ATOM      8  C   UNL     1       3.014  -3.651  -2.709  1.00  0.00     0.133 A 
ATOM      9  C   UNL     1       2.158  -2.530  -2.868  1.00  0.00     0.102 A 
ATOM     10  C   UNL     1       0.704  -2.546  -2.576  1.00  0.00     0.174 C 
ATOM     11  O   UNL     1       0.042  -3.617  -2.554  1.00  0.00    -0.294 OA
ENDROOT
BRANCH   2  12
ATOM     12  C   UNL     1      -0.107   1.133  -3.161  1.00  0.00    -0.007 A 
ATOM     13  C   UNL     1      -0.177   1.631  -1.847  1.00  0.00     0.011 A 
ATOM     14  C   UNL     1      -0.626   1.905  -4.214  1.00  0.00     0.011 A 
ATOM     15  C   UNL     1      -0.733   2.890  -1.598  1.00  0.00     0.046 A 
ATOM     16  C   UNL     1      -1.182   3.163  -3.961  1.00  0.00     0.046 A 
ATOM     17  C   UNL     1      -1.236   3.659  -2.655  1.00  0.00     0.115 A 
BRANCH  17  18
ATOM     18  O   UNL     1      -1.792   4.914  -2.419  1.00  0.00    -0.508 OA
ATOM     19  H   UNL     1      -1.783   5.639  -3.127  1.00  0.00     0.293 HD
ENDBRANCH  17  18
ENDBRANCH   2  12
BRANCH   8  20
ATOM     20  O   UNL     1       2.590  -4.865  -2.163  1.00  0.00    -0.507 OA
ATOM     21  H   UNL     1       3.105  -5.378  -1.463  1.00  0.00     0.293 HD
ENDBRANCH   8  20
BRANCH   6  22
ATOM     22  O   UNL     1       6.233  -2.263  -3.889  1.00  0.00    -0.508 OA
ATOM     23  H   UNL     1       6.935  -2.813  -3.409  1.00  0.00     0.293 HD
ENDBRANCH   6  22
TORSDOF 4
ENDMDL
MODEL 6
REMARK VINA RESULT:    -5.730      2.248      3.242
REMARK INTER + INTRA:          -6.861
REMARK INTER:                  -6.559
REMARK INTRA:                  -0.302
REMARK UNBOUND:                -0.293
REMARK SMILES O=C1C[C@@H](c2ccc(O)cc2)Oc2cc(O)cc(O)c21
REMARK SMILES IDX 3 1 4 2 12 3 13 4 14 5 15 6 17 7 18 8 20 9 2 10 1 11 5 12
REMARK SMILES IDX 6 13 11 14 7 15 10 16 8 17 9 18 19 20 16 22
REMARK H PARENT 9 19 19 21 16 23
REMARK Flexibility Score: inf
ROOT
ATOM      1  C   UNL     1       2.297   1.420  -3.736  1.00  0.00     0.131 C 
ATOM      2  C   UNL     1       1.267   1.663  -2.623  1.00  0.00     0.211 C 
ATOM      3  O   UNL     1       0.447   0.505  -2.436  1.00  0.00    -0.484 OA
ATOM      4  C   UNL     1       0.956  -0.800  -2.495  1.00  0.00     0.138 A 
ATOM      5  C   UNL     1       0.167  -1.856  -2.033  1.00  0.00     0.093 A 
ATOM      6  C   UNL     1       0.653  -3.166  -2.066  1.00  0.00     0.123 A 
ATOM      7  C   UNL     1       1.922  -3.422  -2.592  1.00  0.00     0.093 A 
ATOM      8  C   UNL     1       2.712  -2.384  -3.099  1.00  0.00     0.133 A 
ATOM      9  C   UNL     1       2.242  -1.046  -3.023  1.00  0.00     0.102 A 
ATOM     10  C   UNL     1       3.023   0.136  -3.463  1.00  0.00     0.174 C 
ATOM     11  O   UNL     1       4.278   0.106  -3.559  1.00  0.00    -0.294 OA
ENDROOT
BRANCH   2  12
ATOM     12  C   UNL     1       0.407   2.860  -2.943  1.00  0.00    -0.007 A 
ATOM     13  C   UNL     1      -0.719   2.729  -3.776  1.00  0.00     0.011 A 
ATOM     14  C   UNL     1       0.753   4.131  -2.456  1.00  0.00     0.011 A 
ATOM     15  C   UNL     1      -1.496   3.846  -4.095  1.00  0.00     0.046 A 
ATOM     16  C   UNL     1      -0.026   5.248  -2.777  1.00  0.00     0.046 A 
ATOM     17  C   UNL     1      -1.151   5.109  -3.594  1.00  0.00     0.115 A 
BRANCH  17  18
ATOM     18  O   UNL     1      -1.919   6.230  -3.905  1.00  0.00    -0.508 OA
ATOM     19  H   UNL     1      -1.653   6.863  -4.650  1.00  0.00     0.293 HD
ENDBRANCH  17  18
ENDBRANCH   2  12
BRANCH   8  20
ATOM     20  O   UNL     1       3.928  -2.734  -3.693  1.00  0.00    -0.507 OA
ATOM     21  H   UNL     1       4.829  -2.587  -3.261  1.00  0.00     0.293 HD
ENDBRANCH   8  20
BRANCH   6  22
ATOM     22  O   UNL     1      -0.118  -4.222  -1.586  1.00  0.00    -0.508 OA
ATOM     23  H   UNL     1      -0.075  -4.511  -0.616  1.00  0.00     0.293 HD
ENDBRANCH   6  22
TORSDOF 4
ENDMDL
MODEL 7
REMARK VINA RESULT:    -5.683      4.304      6.445
REMARK INTER + INTRA:          -6.807
REMARK INTER:                  -6.486
REMARK INTRA:                  -0.320
REMARK UNBOUND:                -0.293
REMARK SMILES O=C1C[C@@H](c2ccc(O)cc2)Oc2cc(O)cc(O)c21
REMARK SMILES IDX 3 1 4 2 12 3 13 4 14 5 15 6 17 7 18 8 20 9 2 10 1 11 5 12
REMARK SMILES IDX 6 13 11 14 7 15 10 16 8 17 9 18 19 20 16 22
REMARK H PARENT 9 19 19 21 16 23
REMARK Flexibility Score: inf
ROOT
ATOM      1  C   UNL     1       2.394  -1.937  -2.727  1.00  0.00     0.131 C 
ATOM      2  C   UNL     1       2.457  -0.608  -3.493  1.00  0.00     0.211 C 
ATOM      3  O   UNL     1       3.767  -0.038  -3.404  1.00  0.00    -0.484 OA
ATOM      4  C   UNL     1       4.934  -0.812  -3.467  1.00  0.00     0.138 A 
ATOM      5  C   UNL     1       6.161  -0.172  -3.653  1.00  0.00     0.093 A 
ATOM      6  C   UNL     1       7.341  -0.919  -3.735  1.00  0.00     0.123 A 
ATOM      7  C   UNL     1       7.293  -2.308  -3.599  1.00  0.00     0.093 A 
ATOM      8  C   UNL     1       6.078  -2.966  -3.371  1.00  0.00     0.133 A 
ATOM      9  C   UNL     1       4.873  -2.217  -3.336  1.00  0.00     0.102 A 
ATOM     10  C   UNL     1       3.525  -2.815  -3.172  1.00  0.00     0.174 C 
ATOM     11  O   UNL     1       3.296  -4.022  -3.449  1.00  0.00    -0.294 OA
ENDROOT
BRANCH   2  12
ATOM     12  C   UNL     1       1.434   0.365  -2.961  1.00  0.00    -0.007 A 
ATOM     13  C   UNL     1       1.761   1.721  -2.780  1.00  0.00     0.011 A 
ATOM     14  C   UNL     1       0.156  -0.086  -2.588  1.00  0.00     0.011 A 
ATOM     15  C   UNL     1       0.819   2.612  -2.260  1.00  0.00     0.046 A 
ATOM     16  C   UNL     1      -0.784   0.808  -2.066  1.00  0.00     0.046 A 
ATOM     17  C   UNL     1      -0.457   2.157  -1.902  1.00  0.00     0.115 A 
BRANCH  17  18
ATOM     18  O   UNL     1      -1.405   3.036  -1.381  1.00  0.00    -0.508 OA
ATOM     19  H   UNL     1      -1.517   3.973  -1.751  1.00  0.00     0.293 HD
ENDBRANCH  17  18
ENDBRANCH   2  12
BRANCH   8  20
ATOM     20  O   UNL     1       6.127  -4.345  -3.154  1.00  0.00    -0.507 OA
ATOM     21  H   UNL     1       5.380  -4.981  -3.396  1.00  0.00     0.293 HD
ENDBRANCH   8  20
BRANCH   6  22
ATOM     22  O   UNL     1       8.566  -0.290  -3.943  1.00  0.00    -0.508 OA
ATOM     23  H   UNL     1       8.765   0.624  -3.554  1.00  0.00     0.293 HD
ENDBRANCH   6  22
TORSDOF 4
ENDMDL
MODEL 8
REMARK VINA RESULT:    -5.655      2.653      4.060
REMARK INTER + INTRA:          -6.775
REMARK INTER:                  -6.486
REMARK INTRA:                  -0.289
REMARK UNBOUND:                -0.293
REMARK SMILES O=C1C[C@@H](c2ccc(O)cc2)Oc2cc(O)cc(O)c21
REMARK SMILES IDX 3 1 4 2 12 3 13 4 14 5 15 6 17 7 18 8 20 9 2 10 1 11 5 12
REMARK SMILES IDX 6 13 11 14 7 15 10 16 8 17 9 18 19 20 16 22
REMARK H PARENT 9 19 19 21 16 23
REMARK Flexibility Score: inf
ROOT
ATOM      1  C   UNL     1      -0.559   4.085  -4.648  1.00  0.00     0.131 C 
ATOM      2  C   UNL     1      -0.169   4.372  -3.192  1.00  0.00     0.211 C 
ATOM      3  O   UNL     1      -0.718   3.380  -2.319  1.00  0.00    -0.484 OA
ATOM      4  C   UNL     1      -0.772   2.021  -2.658  1.00  0.00     0.138 A 
ATOM      5  C   UNL     1      -1.059   1.085  -1.662  1.00  0.00     0.093 A 
ATOM      6  C   UNL     1      -1.106  -0.278  -1.968  1.00  0.00     0.123 A 
ATOM      7  C   UNL     1      -0.894  -0.702  -3.282  1.00  0.00     0.093 A 
ATOM      8  C   UNL     1      -0.646   0.222  -4.304  1.00  0.00     0.133 A 
ATOM      9  C   UNL     1      -0.549   1.603  -3.989  1.00  0.00     0.102 A 
ATOM     10  C   UNL     1      -0.221   2.661  -4.976  1.00  0.00     0.174 C 
ATOM     11  O   UNL     1       0.380   2.402  -6.052  1.00  0.00    -0.294 OA
ENDROOT
BRANCH   2  12
ATOM     12  C   UNL     1      -0.637   5.744  -2.774  1.00  0.00    -0.007 A 
ATOM     13  C   UNL     1      -1.999   6.088  -2.847  1.00  0.00     0.011 A 
ATOM     14  C   UNL     1       0.292   6.713  -2.360  1.00  0.00     0.011 A 
ATOM     15  C   UNL     1      -2.425   7.370  -2.487  1.00  0.00     0.046 A 
ATOM     16  C   UNL     1      -0.137   7.995  -2.001  1.00  0.00     0.046 A 
ATOM     17  C   UNL     1      -1.494   8.327  -2.062  1.00  0.00     0.115 A 
BRANCH  17  18
ATOM     18  O   UNL     1      -1.906   9.608  -1.701  1.00  0.00    -0.508 OA
ATOM     19  H   UNL     1      -1.909   9.910  -0.734  1.00  0.00     0.293 HD
ENDBRANCH  17  18
ENDBRANCH   2  12
BRANCH   8  20
ATOM     20  O   UNL     1      -0.538  -0.274  -5.605  1.00  0.00    -0.507 OA
ATOM     21  H   UNL     1       0.314  -0.648  -5.997  1.00  0.00     0.293 HD
ENDBRANCH   8  20
BRANCH   6  22
ATOM     22  O   UNL     1      -1.368  -1.220  -0.975  1.00  0.00    -0.508 OA
ATOM     23  H   UNL     1      -0.792  -1.289  -0.145  1.00  0.00     0.293 HD
ENDBRANCH   6  22
TORSDOF 4
ENDMDL
MODEL 9
REMARK VINA RESULT:    -5.633      3.428      7.735
REMARK INTER + INTRA:          -6.749
REMARK INTER:                  -6.462
REMARK INTRA:                  -0.287
REMARK UNBOUND:                -0.293
REMARK SMILES O=C1C[C@@H](c2ccc(O)cc2)Oc2cc(O)cc(O)c21
REMARK SMILES IDX 3 1 4 2 12 3 13 4 14 5 15 6 17 7 18 8 20 9 2 10 1 11 5 12
REMARK SMILES IDX 6 13 11 14 7 15 10 16 8 17 9 18 19 20 16 22
REMARK H PARENT 9 19 19 21 16 23
REMARK Flexibility Score: inf
ROOT
ATOM      1  C   UNL     1       0.616   5.272  -2.488  1.00  0.00     0.131 C 
ATOM      2  C   UNL     1      -0.586   4.760  -3.295  1.00  0.00     0.211 C 
ATOM      3  O   UNL     1      -1.790   5.405  -2.868  1.00  0.00    -0.484 OA
ATOM      4  C   UNL     1      -1.841   6.764  -2.531  1.00  0.00     0.138 A 
ATOM      5  C   UNL     1      -3.086   7.381  -2.394  1.00  0.00     0.093 A 
ATOM      6  C   UNL     1      -3.169   8.740  -2.073  1.00  0.00     0.123 A 
ATOM      7  C   UNL     1      -2.000   9.474  -1.859  1.00  0.00     0.093 A 
ATOM      8  C   UNL     1      -0.742   8.865  -1.950  1.00  0.00     0.133 A 
ATOM      9  C   UNL     1      -0.653   7.498  -2.323  1.00  0.00     0.102 A 
ATOM     10  C   UNL     1       0.625   6.771  -2.518  1.00  0.00     0.174 C 
ATOM     11  O   UNL     1       1.703   7.376  -2.763  1.00  0.00    -0.294 OA
ENDROOT
BRANCH   2  12
ATOM     12  C   UNL     1      -0.723   3.264  -3.157  1.00  0.00    -0.007 A 
ATOM     13  C   UNL     1      -0.786   2.665  -1.886  1.00  0.00     0.011 A 
ATOM     14  C   UNL     1      -0.734   2.446  -4.299  1.00  0.00     0.011 A 
ATOM     15  C   UNL     1      -0.884   1.276  -1.763  1.00  0.00     0.046 A 
ATOM     16  C   UNL     1      -0.831   1.056  -4.173  1.00  0.00     0.046 A 
ATOM     17  C   UNL     1      -0.907   0.468  -2.907  1.00  0.00     0.115 A 
BRANCH  17  18
ATOM     18  O   UNL     1      -1.004  -0.917  -2.797  1.00  0.00    -0.508 OA
ATOM     19  H   UNL     1      -0.255  -1.470  -2.396  1.00  0.00     0.293 HD
ENDBRANCH  17  18
ENDBRANCH   2  12
BRANCH   8  20
ATOM     20  O   UNL     1       0.372   9.644  -1.629  1.00  0.00    -0.507 OA
ATOM     21  H   UNL     1       1.017   9.425  -0.884  1.00  0.00     0.293 HD
ENDBRANCH   8  20
BRANCH   6  22
ATOM     22  O   UNL     1      -4.407   9.368  -1.958  1.00  0.00    -0.508 OA
ATOM     23  H   UNL     1      -5.117   9.026  -1.322  1.00  0.00     0.293 HD
ENDBRANCH   6  22
TORSDOF 4
ENDMDL
