MODEL 1
REMARK VINA RESULT:    -3.890      0.000      0.000
REMARK INTER + INTRA:          -5.573
REMARK INTER:                  -5.254
REMARK INTRA:                  -0.318
REMARK UNBOUND:                -0.318
REMARK SMILES CCCCCCC=CC(=O)[O-]
REMARK SMILES IDX 5 1 6 2 7 3 8 4 9 5 10 6 11 7 4 8 3 9 2 10 1 11
REMARK H PARENT
REMARK Flexibility Score: inf
ROOT
ATOM      1  C   UNL     1       9.965  -3.840  29.687  1.00  0.00     0.004 C 
ENDROOT
BRANCH   1   2
ATOM      2  C   UNL     1       9.155  -3.764  28.384  1.00  0.00     0.027 C 
BRANCH   2   3
ATOM      3  C   UNL     1       9.747  -4.648  27.325  1.00  0.00    -0.025 C 
ATOM      4  C   UNL     1       9.116  -4.870  26.167  1.00  0.00     0.020 C 
BRANCH   4   5
ATOM      5  C   UNL     1       9.677  -5.743  25.126  1.00  0.00     0.064 C 
ATOM      6  O   UNL     1       9.359  -6.960  25.097  1.00  0.00    -0.545 OA
ATOM      7  O   UNL     1      10.557  -5.245  24.170  1.00  0.00    -0.545 OA
ENDBRANCH   4   5
ENDBRANCH   2   3
ENDBRANCH   1   2
BRANCH   1   8
ATOM      8  C   UNL     1      11.049  -4.928  29.648  1.00  0.00     0.000 C 
BRANCH   8   9
ATOM      9  C   UNL     1      11.714  -5.148  31.015  1.00  0.00    -0.000 C 
BRANCH   9  10
ATOM     10  C   UNL     1      10.671  -5.506  32.081  1.00  0.00    -0.003 C 
ATOM     11  C   UNL     1      11.049  -4.921  33.439  1.00  0.00     0.004 C 
ENDBRANCH   9  10
ENDBRANCH   8   9
ENDBRANCH   1   8
TORSDOF 6
ENDMDL
MODEL 2
REMARK VINA RESULT:    -3.815      4.157      6.362
REMARK INTER + INTRA:          -5.472
REMARK INTER:                  -5.190
REMARK INTRA:                  -0.282
REMARK UNBOUND:                -0.318
REMARK SMILES CCCCCCC=CC(=O)[O-]
REMARK SMILES IDX 5 1 6 2 7 3 8 4 9 5 10 6 11 7 4 8 3 9 2 10 1 11
REMARK H PARENT
REMARK Flexibility Score: inf
ROOT
ATOM      1  C   UNL     1      11.846  -3.828  28.106  1.00  0.00     0.004 C 
ENDROOT
BRANCH   1   2
ATOM      2  C   UNL     1      12.135  -2.993  29.364  1.00  0.00     0.027 C 
BRANCH   2   3
ATOM      3  C   UNL     1      12.899  -3.791  30.380  1.00  0.00    -0.025 C 
ATOM      4  C   UNL     1      12.356  -4.127  31.555  1.00  0.00     0.020 C 
BRANCH   4   5
ATOM      5  C   UNL     1      13.096  -4.897  32.566  1.00  0.00     0.064 C 
ATOM      6  O   UNL     1      12.690  -4.911  33.757  1.00  0.00    -0.545 OA
ATOM      7  O   UNL     1      14.240  -5.611  32.227  1.00  0.00    -0.545 OA
ENDBRANCH   4   5
ENDBRANCH   2   3
ENDBRANCH   1   2
BRANCH   1   8
ATOM      8  C   UNL     1      10.598  -4.711  28.256  1.00  0.00     0.000 C 
BRANCH   8   9
ATOM      9  C   UNL     1       9.388  -4.158  27.488  1.00  0.00    -0.000 C 
BRANCH   9  10
ATOM     10  C   UNL     1       9.183  -4.915  26.170  1.00  0.00    -0.003 C 
ATOM     11  C   UNL     1       9.782  -4.148  24.994  1.00  0.00     0.004 C 
ENDBRANCH   9  10
ENDBRANCH   8   9
ENDBRANCH   1   8
TORSDOF 6
ENDMDL
MODEL 3
REMARK VINA RESULT:    -3.813      3.866      5.666
REMARK INTER + INTRA:          -5.469
REMARK INTER:                  -4.905
REMARK INTRA:                  -0.564
REMARK UNBOUND:                -0.318
REMARK SMILES CCCCCCC=CC(=O)[O-]
REMARK SMILES IDX 5 1 6 2 7 3 8 4 9 5 10 6 11 7 4 8 3 9 2 10 1 11
REMARK H PARENT
REMARK Flexibility Score: inf
ROOT
ATOM      1  C   UNL     1      11.836  -3.880  27.331  1.00  0.00     0.004 C 
ENDROOT
BRANCH   1   2
ATOM      2  C   UNL     1      12.332  -3.188  28.610  1.00  0.00     0.027 C 
BRANCH   2   3
ATOM      3  C   UNL     1      12.160  -4.075  29.808  1.00  0.00    -0.025 C 
ATOM      4  C   UNL     1      13.087  -4.136  30.770  1.00  0.00     0.020 C 
BRANCH   4   5
ATOM      5  C   UNL     1      12.938  -5.010  31.943  1.00  0.00     0.064 C 
ATOM      6  O   UNL     1      11.795  -5.207  32.431  1.00  0.00    -0.545 OA
ATOM      7  O   UNL     1      14.043  -5.623  32.525  1.00  0.00    -0.545 OA
ENDBRANCH   4   5
ENDBRANCH   2   3
ENDBRANCH   1   2
BRANCH   1   8
ATOM      8  C   UNL     1      10.634  -4.803  27.586  1.00  0.00     0.000 C 
BRANCH   8   9
ATOM      9  C   UNL     1       9.292  -4.127  27.265  1.00  0.00    -0.000 C 
BRANCH   9  10
ATOM     10  C   UNL     1       8.612  -3.624  28.544  1.00  0.00    -0.003 C 
ATOM     11  C   UNL     1       8.770  -2.114  28.695  1.00  0.00     0.004 C 
ENDBRANCH   9  10
ENDBRANCH   8   9
ENDBRANCH   1   8
TORSDOF 6
ENDMDL
MODEL 4
REMARK VINA RESULT:    -3.808      9.601     11.471
REMARK INTER + INTRA:          -5.463
REMARK INTER:                  -4.939
REMARK INTRA:                  -0.523
REMARK UNBOUND:                -0.318
REMARK SMILES CCCCCCC=CC(=O)[O-]
REMARK SMILES IDX 5 1 6 2 7 3 8 4 9 5 10 6 11 7 4 8 3 9 2 10 1 11
REMARK H PARENT
REMARK Flexibility Score: inf
ROOT
ATOM      1  C   UNL     1       1.157  -8.039  21.834  1.00  0.00     0.004 C 
ENDROOT
BRANCH   1   2
ATOM      2  C   UNL     1       1.737  -9.460  21.760  1.00  0.00     0.027 C 
BRANCH   2   3
ATOM      3  C   UNL     1       2.089  -9.974  23.126  1.00  0.00    -0.025 C 
ATOM      4  C   UNL     1       2.294  -9.143  24.153  1.00  0.00     0.020 C 
BRANCH   4   5
ATOM      5  C   UNL     1       2.652  -9.631  25.493  1.00  0.00     0.064 C 
ATOM      6  O   UNL     1       1.767  -9.703  26.385  1.00  0.00    -0.545 OA
ATOM      7  O   UNL     1       3.955 -10.016  25.791  1.00  0.00    -0.545 OA
ENDBRANCH   4   5
ENDBRANCH   2   3
ENDBRANCH   1   2
BRANCH   1   8
ATOM      8  C   UNL     1       1.754  -7.100  20.774  1.00  0.00     0.000 C 
BRANCH   8   9
ATOM      9  C   UNL     1       2.782  -7.803  19.875  1.00  0.00    -0.000 C 
BRANCH   9  10
ATOM     10  C   UNL     1       4.210  -7.381  20.242  1.00  0.00    -0.003 C 
ATOM     11  C   UNL     1       5.124  -8.595  20.382  1.00  0.00     0.004 C 
ENDBRANCH   9  10
ENDBRANCH   8   9
ENDBRANCH   1   8
TORSDOF 6
ENDMDL
MODEL 5
REMARK VINA RESULT:    -3.796      4.000      6.284
REMARK INTER + INTRA:          -5.446
REMARK INTER:                  -5.109
REMARK INTRA:                  -0.336
REMARK UNBOUND:                -0.318
REMARK SMILES CCCCCCC=CC(=O)[O-]
REMARK SMILES IDX 5 1 6 2 7 3 8 4 9 5 10 6 11 7 4 8 3 9 2 10 1 11
REMARK H PARENT
REMARK Flexibility Score: inf
ROOT
ATOM      1  C   UNL     1       9.754  -4.127  29.067  1.00  0.00     0.004 C 
ENDROOT
BRANCH   1   2
ATOM      2  C   UNL     1      11.176  -4.703  28.973  1.00  0.00     0.027 C 
BRANCH   2   3
ATOM      3  C   UNL     1      11.675  -5.138  30.320  1.00  0.00    -0.025 C 
ATOM      4  C   UNL     1      12.656  -4.480  30.947  1.00  0.00     0.020 C 
BRANCH   4   5
ATOM      5  C   UNL     1      13.165  -4.901  32.260  1.00  0.00     0.064 C 
ATOM      6  O   UNL     1      14.173  -5.652  32.325  1.00  0.00    -0.545 OA
ATOM      7  O   UNL     1      12.549  -4.483  33.435  1.00  0.00    -0.545 OA
ENDBRANCH   4   5
ENDBRANCH   2   3
ENDBRANCH   1   2
BRANCH   1   8
ATOM      8  C   UNL     1       9.188  -3.719  27.699  1.00  0.00     0.000 C 
BRANCH   8   9
ATOM      9  C   UNL     1       9.356  -4.818  26.639  1.00  0.00    -0.000 C 
BRANCH   9  10
ATOM     10  C   UNL     1      10.014  -4.261  25.371  1.00  0.00    -0.003 C 
ATOM     11  C   UNL     1      11.421  -4.822  25.188  1.00  0.00     0.004 C 
ENDBRANCH   9  10
ENDBRANCH   8   9
ENDBRANCH   1   8
TORSDOF 6
ENDMDL
MODEL 6
REMARK VINA RESULT:    -3.794      1.505      2.241
REMARK INTER + INTRA:          -5.444
REMARK INTER:                  -5.058
REMARK INTRA:                  -0.386
REMARK UNBOUND:                -0.318
REMARK SMILES CCCCCCC=CC(=O)[O-]
REMARK SMILES IDX 5 1 6 2 7 3 8 4 9 5 10 6 11 7 4 8 3 9 2 10 1 11
REMARK H PARENT
REMARK Flexibility Score: inf
ROOT
ATOM      1  C   UNL     1      12.351  -3.961  30.327  1.00  0.00     0.004 C 
ENDROOT
BRANCH   1   2
ATOM      2  C   UNL     1      11.127  -4.853  30.074  1.00  0.00     0.027 C 
BRANCH   2   3
ATOM      3  C   UNL     1      11.111  -5.365  28.663  1.00  0.00    -0.025 C 
ATOM      4  C   UNL     1      10.741  -4.586  27.641  1.00  0.00     0.020 C 
BRANCH   4   5
ATOM      5  C   UNL     1      10.708  -5.077  26.256  1.00  0.00     0.064 C 
ATOM      6  O   UNL     1      11.788  -5.329  25.660  1.00  0.00    -0.545 OA
ATOM      7  O   UNL     1       9.501  -5.269  25.592  1.00  0.00    -0.545 OA
ENDBRANCH   4   5
ENDBRANCH   2   3
ENDBRANCH   1   2
BRANCH   1   8
ATOM      8  C   UNL     1      13.328  -4.570  31.345  1.00  0.00     0.000 C 
BRANCH   8   9
ATOM      9  C   UNL     1      12.668  -5.638  32.229  1.00  0.00    -0.000 C 
BRANCH   9  10
ATOM     10  C   UNL     1      12.537  -5.148  33.676  1.00  0.00    -0.003 C 
ATOM     11  C   UNL     1      11.074  -4.944  34.059  1.00  0.00     0.004 C 
ENDBRANCH   9  10
ENDBRANCH   8   9
ENDBRANCH   1   8
TORSDOF 6
ENDMDL
MODEL 7
REMARK VINA RESULT:    -3.785      3.994      5.664
REMARK INTER + INTRA:          -5.431
REMARK INTER:                  -4.754
REMARK INTRA:                  -0.677
REMARK UNBOUND:                -0.318
REMARK SMILES CCCCCCC=CC(=O)[O-]
REMARK SMILES IDX 5 1 6 2 7 3 8 4 9 5 10 6 11 7 4 8 3 9 2 10 1 11
REMARK H PARENT
REMARK Flexibility Score: inf
ROOT
ATOM      1  C   UNL     1      10.934  -4.083  27.996  1.00  0.00     0.004 C 
ENDROOT
BRANCH   1   2
ATOM      2  C   UNL     1      11.147  -5.334  28.863  1.00  0.00     0.027 C 
BRANCH   2   3
ATOM      3  C   UNL     1      11.715  -4.974  30.205  1.00  0.00    -0.025 C 
ATOM      4  C   UNL     1      11.103  -5.328  31.340  1.00  0.00     0.020 C 
BRANCH   4   5
ATOM      5  C   UNL     1      11.640  -4.971  32.661  1.00  0.00     0.064 C 
ATOM      6  O   UNL     1      12.846  -4.625  32.770  1.00  0.00    -0.545 OA
ATOM      7  O   UNL     1      10.837  -5.008  33.796  1.00  0.00    -0.545 OA
ENDBRANCH   4   5
ENDBRANCH   2   3
ENDBRANCH   1   2
BRANCH   1   8
ATOM      8  C   UNL     1       9.480  -3.933  27.522  1.00  0.00     0.000 C 
BRANCH   8   9
ATOM      9  C   UNL     1       8.554  -3.389  28.619  1.00  0.00    -0.000 C 
BRANCH   9  10
ATOM     10  C   UNL     1       9.063  -2.043  29.148  1.00  0.00    -0.003 C 
ATOM     11  C   UNL     1       9.307  -2.099  30.654  1.00  0.00     0.004 C 
ENDBRANCH   9  10
ENDBRANCH   8   9
ENDBRANCH   1   8
TORSDOF 6
ENDMDL
MODEL 8
REMARK VINA RESULT:    -3.757      3.681      4.624
REMARK INTER + INTRA:          -5.393
REMARK INTER:                  -4.687
REMARK INTRA:                  -0.706
REMARK UNBOUND:                -0.318
REMARK SMILES CCCCCCC=CC(=O)[O-]
REMARK SMILES IDX 5 1 6 2 7 3 8 4 9 5 10 6 11 7 4 8 3 9 2 10 1 11
REMARK H PARENT
REMARK Flexibility Score: inf
ROOT
ATOM      1  C   UNL     1      11.616  -5.984  31.538  1.00  0.00     0.004 C 
ENDROOT
BRANCH   1   2
ATOM      2  C   UNL     1      11.469  -5.260  30.191  1.00  0.00     0.027 C 
BRANCH   2   3
ATOM      3  C   UNL     1      10.290  -4.330  30.200  1.00  0.00    -0.025 C 
ATOM      4  C   UNL     1      10.435  -3.020  30.427  1.00  0.00     0.020 C 
BRANCH   4   5
ATOM      5  C   UNL     1       9.289  -2.100  30.451  1.00  0.00     0.064 C 
ATOM      6  O   UNL     1       9.064  -1.414  31.482  1.00  0.00    -0.545 OA
ATOM      7  O   UNL     1       8.447  -1.975  29.352  1.00  0.00    -0.545 OA
ENDBRANCH   4   5
ENDBRANCH   2   3
ENDBRANCH   1   2
BRANCH   1   8
ATOM      8  C   UNL     1      12.924  -5.629  32.261  1.00  0.00     0.000 C 
BRANCH   8   9
ATOM      9  C   UNL     1      12.684  -5.038  33.658  1.00  0.00    -0.000 C 
BRANCH   9  10
ATOM     10  C   UNL     1      11.202  -4.702  33.864  1.00  0.00    -0.003 C 
ATOM     11  C   UNL     1      11.001  -3.204  34.074  1.00  0.00     0.004 C 
ENDBRANCH   9  10
ENDBRANCH   8   9
ENDBRANCH   1   8
TORSDOF 6
ENDMDL
MODEL 9
REMARK VINA RESULT:    -3.723      3.849      4.557
REMARK INTER + INTRA:          -5.347
REMARK INTER:                  -4.622
REMARK INTRA:                  -0.725
REMARK UNBOUND:                -0.318
REMARK SMILES CCCCCCC=CC(=O)[O-]
REMARK SMILES IDX 5 1 6 2 7 3 8 4 9 5 10 6 11 7 4 8 3 9 2 10 1 11
REMARK H PARENT
REMARK Flexibility Score: inf
ROOT
ATOM      1  C   UNL     1      10.900  -4.249  28.266  1.00  0.00     0.004 C 
ENDROOT
BRANCH   1   2
ATOM      2  C   UNL     1       9.395  -4.158  27.969  1.00  0.00     0.027 C 
BRANCH   2   3
ATOM      3  C   UNL     1       8.747  -3.074  28.780  1.00  0.00    -0.025 C 
ATOM      4  C   UNL     1       9.019  -1.782  28.563  1.00  0.00     0.020 C 
BRANCH   4   5
ATOM      5  C   UNL     1       8.401  -0.710  29.357  1.00  0.00     0.064 C 
ATOM      6  O   UNL     1       9.099  -0.070  30.186  1.00  0.00    -0.545 OA
ATOM      7  O   UNL     1       7.056  -0.390  29.206  1.00  0.00    -0.545 OA
ENDBRANCH   4   5
ENDBRANCH   2   3
ENDBRANCH   1   2
BRANCH   1   8
ATOM      8  C   UNL     1      11.213  -5.153  29.468  1.00  0.00     0.000 C 
BRANCH   8   9
ATOM      9  C   UNL     1      12.234  -4.527  30.429  1.00  0.00    -0.000 C 
BRANCH   9  10
ATOM     10  C   UNL     1      12.283  -3.003  30.259  1.00  0.00    -0.003 C 
ATOM     11  C   UNL     1      11.560  -2.297  31.402  1.00  0.00     0.004 C 
ENDBRANCH   9  10
ENDBRANCH   8   9
ENDBRANCH   1   8
TORSDOF 6
ENDMDL
