MODEL 1
REMARK VINA RESULT:   142.596      0.000      0.000
REMARK INTER + INTRA:         155.002
REMARK INTER:                 155.100
REMARK INTRA:                  -0.098
REMARK UNBOUND:                -0.098
REMARK SMILES C[C@H]1[C@@H](C)CC[C@@]2(C(=O)[O-])CC[C@]3(C)C(=CC[C@H]4[C@]5(C)CC[C@H](O)C(C)(C)[C@@H]5CC[C@]43C)[C@@H]12
REMARK SMILES IDX 7 1 6 2 11 3 33 4 5 5 12 6 15 7 2 8 3 9 13 10 16 11 1 12
REMARK SMILES IDX 4 13 14 14 31 15 17 16 18 17 30 18 32 19 19 20 29 21 28 22
REMARK SMILES IDX 21 23 20 24 25 25 22 26 23 27 26 28 27 29 8 30 9 31 10 32
REMARK SMILES IDX 24 33
REMARK H PARENT 24 34
REMARK Flexibility Score: inf
ROOT
ATOM      1  C   UNL     1      -1.362   1.841  30.525  1.00  0.00     0.017 C 
ATOM      2  C   UNL     1      -0.376   2.335  29.432  1.00  0.00     0.014 C 
ATOM      3  C   UNL     1      -1.580   0.302  30.278  1.00  0.00     0.014 C 
ATOM      4  C   UNL     1      -0.794   2.088  31.981  1.00  0.00     0.030 C 
ATOM      5  C   UNL     1       0.126   3.765  29.659  1.00  0.00     0.004 C 
ATOM      6  C   UNL     1      -2.182  -0.461  31.483  1.00  0.00     0.013 C 
ATOM      7  C   UNL     1      -0.311   0.764  32.593  1.00  0.00    -0.063 C 
ATOM      8  C   UNL     1       0.069   3.392  32.180  1.00  0.00    -0.003 C 
ATOM      9  C   UNL     1       0.917   3.893  30.970  1.00  0.00    -0.011 C 
ATOM     10  C   UNL     1      -1.410  -0.277  32.863  1.00  0.00    -0.006 C 
ATOM     11  C   UNL     1       0.945   0.377  32.362  1.00  0.00    -0.027 C 
ATOM     12  C   UNL     1       0.801   3.451  33.533  1.00  0.00     0.008 C 
ATOM     13  C   UNL     1       2.344   3.328  30.829  1.00  0.00     0.008 C 
ATOM     14  C   UNL     1      -2.406   0.344  33.909  1.00  0.00     0.017 C 
ATOM     15  C   UNL     1      -0.846  -1.679  33.451  1.00  0.00    -0.020 C 
ATOM     16  C   UNL     1       1.472  -0.998  32.562  1.00  0.00     0.032 C 
ATOM     17  C   UNL     1       0.427  -2.163  32.651  1.00  0.00     0.006 C 
ATOM     18  C   UNL     1      -0.386  -1.525  34.933  1.00  0.00     0.008 C 
ATOM     19  C   UNL     1      -2.021  -2.720  33.378  1.00  0.00     0.012 C 
ATOM     20  C   UNL     1       1.167  -3.491  33.198  1.00  0.00    -0.025 C 
ATOM     21  C   UNL     1       0.276  -2.779  35.532  1.00  0.00     0.005 C 
ATOM     22  C   UNL     1       1.495  -3.353  34.744  1.00  0.00     0.003 C 
ATOM     23  C   UNL     1       0.334  -4.793  32.966  1.00  0.00     0.010 C 
ATOM     24  C   UNL     1       2.473  -3.649  32.344  1.00  0.00     0.012 C 
ATOM     25  C   UNL     1       2.074  -4.679  35.429  1.00  0.00    -0.006 C 
ATOM     26  C   UNL     1       0.969  -6.070  33.545  1.00  0.00     0.033 C 
ATOM     27  C   UNL     1       1.237  -5.948  35.056  1.00  0.00     0.120 C 
ATOM     28  C   UNL     1       2.101  -4.544  36.981  1.00  0.00     0.014 C 
ATOM     29  C   UNL     1       3.564  -4.908  35.033  1.00  0.00     0.014 C 
ENDROOT
BRANCH   1  30
ATOM     30  C   UNL     1      -2.692   2.574  30.333  1.00  0.00     0.048 C 
ATOM     31  O   UNL     1      -2.980   3.104  29.226  1.00  0.00    -0.550 OA
ATOM     32  O   UNL     1      -3.648   2.586  31.342  1.00  0.00    -0.550 OA
ENDBRANCH   1  30
BRANCH  27  33
ATOM     33  O   UNL     1       0.008  -5.958  35.743  1.00  0.00    -0.393 OA
ATOM     34  H   UNL     1      -0.251  -5.012  35.895  1.00  0.00     0.210 HD
ENDBRANCH  27  33
TORSDOF 2
ENDMDL
