MODEL 1
REMARK VINA RESULT:    -5.629      0.000      0.000
REMARK INTER + INTRA:          -6.911
REMARK INTER:                  -6.616
REMARK INTRA:                  -0.295
REMARK UNBOUND:                -0.295
REMARK SMILES O=c1cc(-c2ccc(O)c(O)c2)oc2cc(O)cc(O)c12
REMARK SMILES IDX 4 1 3 2 2 3 1 4 21 5 19 6 18 7 16 8 15 9 14 10 13 11 5 12
REMARK SMILES IDX 6 13 7 14 8 15 12 16 10 17 9 18 11 20 20 22 17 24
REMARK H PARENT 9 19 11 21 20 23 17 25
REMARK Flexibility Score: inf
ROOT
ATOM      1  C   UNL     1     143.458 146.272 138.291  1.00  0.00     0.138 A 
ATOM      2  C   UNL     1     142.566 145.196 138.160  1.00  0.00     0.100 A 
ATOM      3  C   UNL     1     143.056 143.889 138.189  1.00  0.00     0.197 A 
ATOM      4  O   UNL     1     142.247 142.930 138.070  1.00  0.00    -0.289 OA
ATOM      5  C   UNL     1     144.439 143.669 138.346  1.00  0.00     0.107 A 
ATOM      6  C   UNL     1     145.018 142.379 138.388  1.00  0.00     0.134 A 
ATOM      7  C   UNL     1     146.406 142.244 138.541  1.00  0.00     0.093 A 
ATOM      8  C   UNL     1     147.224 143.376 138.653  1.00  0.00     0.123 A 
ATOM      9  C   UNL     1     146.656 144.650 138.613  1.00  0.00     0.094 A 
ATOM     10  C   UNL     1     145.275 144.805 138.462  1.00  0.00     0.146 A 
ATOM     11  O   UNL     1     144.760 146.030 138.428  1.00  0.00    -0.456 OA
ENDROOT
BRANCH   1  12
ATOM     12  C   UNL     1     142.994 147.682 138.266  1.00  0.00     0.021 A 
ATOM     13  C   UNL     1     143.886 148.757 138.444  1.00  0.00     0.016 A 
ATOM     14  C   UNL     1     143.423 150.076 138.406  1.00  0.00     0.051 A 
ATOM     15  C   UNL     1     142.067 150.342 138.181  1.00  0.00     0.157 A 
ATOM     16  C   UNL     1     141.636 147.961 138.028  1.00  0.00     0.062 A 
ATOM     17  C   UNL     1     141.172 149.284 137.991  1.00  0.00     0.158 A 
BRANCH  15  18
ATOM     18  O   UNL     1     141.602 151.656 138.145  1.00  0.00    -0.504 OA
ATOM     19  H   UNL     1     141.560 152.179 137.278  1.00  0.00     0.293 HD
ENDBRANCH  15  18
BRANCH  17  20
ATOM     20  O   UNL     1     139.824 149.552 137.764  1.00  0.00    -0.504 OA
ATOM     21  H   UNL     1     139.421 150.459 137.969  1.00  0.00     0.293 HD
ENDBRANCH  17  20
ENDBRANCH   1  12
BRANCH   6  22
ATOM     22  O   UNL     1     144.228 141.234 138.278  1.00  0.00    -0.507 OA
ATOM     23  H   UNL     1     144.022 140.814 137.379  1.00  0.00     0.293 HD
ENDBRANCH   6  22
BRANCH   8  24
ATOM     24  O   UNL     1     148.603 143.242 138.805  1.00  0.00    -0.508 OA
ATOM     25  H   UNL     1     149.236 144.001 138.585  1.00  0.00     0.293 HD
ENDBRANCH   8  24
TORSDOF 5
ENDMDL
MODEL 2
REMARK VINA RESULT:    -5.615      7.352     11.455
REMARK INTER + INTRA:          -6.895
REMARK INTER:                  -6.601
REMARK INTRA:                  -0.294
REMARK UNBOUND:                -0.295
REMARK SMILES O=c1cc(-c2ccc(O)c(O)c2)oc2cc(O)cc(O)c12
REMARK SMILES IDX 4 1 3 2 2 3 1 4 21 5 19 6 18 7 16 8 15 9 14 10 13 11 5 12
REMARK SMILES IDX 6 13 7 14 8 15 12 16 10 17 9 18 11 20 20 22 17 24
REMARK H PARENT 9 19 11 21 20 23 17 25
REMARK Flexibility Score: inf
ROOT
ATOM      1  C   UNL     1     152.149 149.314 138.303  1.00  0.00     0.138 A 
ATOM      2  C   UNL     1     153.037 150.397 138.194  1.00  0.00     0.100 A 
ATOM      3  C   UNL     1     152.538 151.700 138.213  1.00  0.00     0.197 A 
ATOM      4  O   UNL     1     153.343 152.665 138.113  1.00  0.00    -0.289 OA
ATOM      5  C   UNL     1     151.150 151.911 138.337  1.00  0.00     0.107 A 
ATOM      6  C   UNL     1     150.562 153.197 138.365  1.00  0.00     0.134 A 
ATOM      7  C   UNL     1     149.170 153.323 138.485  1.00  0.00     0.093 A 
ATOM      8  C   UNL     1     148.357 152.186 138.577  1.00  0.00     0.123 A 
ATOM      9  C   UNL     1     148.934 150.915 138.551  1.00  0.00     0.094 A 
ATOM     10  C   UNL     1     150.319 150.769 138.432  1.00  0.00     0.146 A 
ATOM     11  O   UNL     1     150.842 149.548 138.410  1.00  0.00    -0.456 OA
ENDROOT
BRANCH   1  12
ATOM     12  C   UNL     1     152.623 147.907 138.289  1.00  0.00     0.021 A 
ATOM     13  C   UNL     1     151.748 146.830 138.529  1.00  0.00     0.016 A 
ATOM     14  C   UNL     1     152.220 145.514 138.500  1.00  0.00     0.051 A 
ATOM     15  C   UNL     1     153.567 145.253 138.222  1.00  0.00     0.157 A 
ATOM     16  C   UNL     1     153.971 147.633 137.998  1.00  0.00     0.062 A 
ATOM     17  C   UNL     1     154.443 146.313 137.969  1.00  0.00     0.158 A 
BRANCH  15  18
ATOM     18  O   UNL     1     154.040 143.941 138.194  1.00  0.00    -0.504 OA
ATOM     19  H   UNL     1     154.920 143.705 137.750  1.00  0.00     0.293 HD
ENDBRANCH  15  18
BRANCH  17  20
ATOM     20  O   UNL     1     155.783 146.049 137.689  1.00  0.00    -0.504 OA
ATOM     21  H   UNL     1     156.231 146.407 136.853  1.00  0.00     0.293 HD
ENDBRANCH  17  20
ENDBRANCH   1  12
BRANCH   6  22
ATOM     22  O   UNL     1     151.346 154.347 138.274  1.00  0.00    -0.507 OA
ATOM     23  H   UNL     1     151.527 154.934 139.081  1.00  0.00     0.293 HD
ENDBRANCH   6  22
BRANCH   8  24
ATOM     24  O   UNL     1     146.974 152.311 138.697  1.00  0.00    -0.508 OA
ATOM     25  H   UNL     1     146.358 151.516 138.573  1.00  0.00     0.293 HD
ENDBRANCH   8  24
TORSDOF 5
ENDMDL
MODEL 3
REMARK VINA RESULT:    -5.605      4.921      8.103
REMARK INTER + INTRA:          -6.883
REMARK INTER:                  -6.588
REMARK INTRA:                  -0.295
REMARK UNBOUND:                -0.295
REMARK SMILES O=c1cc(-c2ccc(O)c(O)c2)oc2cc(O)cc(O)c12
REMARK SMILES IDX 4 1 3 2 2 3 1 4 21 5 19 6 18 7 16 8 15 9 14 10 13 11 5 12
REMARK SMILES IDX 6 13 7 14 8 15 12 16 10 17 9 18 11 20 20 22 17 24
REMARK H PARENT 9 19 11 21 20 23 17 25
REMARK Flexibility Score: inf
ROOT
ATOM      1  C   UNL     1     149.324 143.467 138.308  1.00  0.00     0.138 A 
ATOM      2  C   UNL     1     150.404 142.580 138.172  1.00  0.00     0.100 A 
ATOM      3  C   UNL     1     151.709 143.077 138.188  1.00  0.00     0.197 A 
ATOM      4  O   UNL     1     152.671 142.273 138.065  1.00  0.00    -0.289 OA
ATOM      5  C   UNL     1     151.923 144.462 138.337  1.00  0.00     0.107 A 
ATOM      6  C   UNL     1     153.210 145.049 138.365  1.00  0.00     0.134 A 
ATOM      7  C   UNL     1     153.338 146.438 138.510  1.00  0.00     0.093 A 
ATOM      8  C   UNL     1     152.203 147.250 138.628  1.00  0.00     0.123 A 
ATOM      9  C   UNL     1     150.931 146.675 138.602  1.00  0.00     0.094 A 
ATOM     10  C   UNL     1     150.782 145.293 138.458  1.00  0.00     0.146 A 
ATOM     11  O   UNL     1     149.560 144.771 138.437  1.00  0.00    -0.456 OA
ENDROOT
BRANCH   1  12
ATOM     12  C   UNL     1     147.916 142.996 138.297  1.00  0.00     0.021 A 
ATOM     13  C   UNL     1     146.841 143.874 138.531  1.00  0.00     0.016 A 
ATOM     14  C   UNL     1     145.524 143.404 138.505  1.00  0.00     0.051 A 
ATOM     15  C   UNL     1     145.260 142.055 138.237  1.00  0.00     0.157 A 
ATOM     16  C   UNL     1     147.640 141.646 138.016  1.00  0.00     0.062 A 
ATOM     17  C   UNL     1     146.319 141.175 137.990  1.00  0.00     0.158 A 
BRANCH  15  18
ATOM     18  O   UNL     1     143.948 141.584 138.212  1.00  0.00    -0.504 OA
ATOM     19  H   UNL     1     143.285 141.900 137.515  1.00  0.00     0.293 HD
ENDBRANCH  15  18
BRANCH  17  20
ATOM     20  O   UNL     1     146.053 139.834 137.720  1.00  0.00    -0.504 OA
ATOM     21  H   UNL     1     146.281 139.103 138.384  1.00  0.00     0.293 HD
ENDBRANCH  17  20
ENDBRANCH   1  12
BRANCH   6  22
ATOM     22  O   UNL     1     154.357 144.264 138.249  1.00  0.00    -0.507 OA
ATOM     23  H   UNL     1     154.843 144.157 137.366  1.00  0.00     0.293 HD
ENDBRANCH   6  22
BRANCH   8  24
ATOM     24  O   UNL     1     152.331 148.630 138.772  1.00  0.00    -0.508 OA
ATOM     25  H   UNL     1     153.239 149.074 138.842  1.00  0.00     0.293 HD
ENDBRANCH   8  24
TORSDOF 5
ENDMDL
MODEL 4
REMARK VINA RESULT:    -5.605      4.913      8.097
REMARK INTER + INTRA:          -6.883
REMARK INTER:                  -6.588
REMARK INTRA:                  -0.295
REMARK UNBOUND:                -0.295
REMARK SMILES O=c1cc(-c2ccc(O)c(O)c2)oc2cc(O)cc(O)c12
REMARK SMILES IDX 4 1 3 2 2 3 1 4 21 5 19 6 18 7 16 8 15 9 14 10 13 11 5 12
REMARK SMILES IDX 6 13 7 14 8 15 12 16 10 17 9 18 11 20 20 22 17 24
REMARK H PARENT 9 19 11 21 20 23 17 25
REMARK Flexibility Score: inf
ROOT
ATOM      1  C   UNL     1     146.301 152.099 138.293  1.00  0.00     0.138 A 
ATOM      2  C   UNL     1     145.235 152.999 138.130  1.00  0.00     0.100 A 
ATOM      3  C   UNL     1     143.924 152.521 138.140  1.00  0.00     0.197 A 
ATOM      4  O   UNL     1     142.974 153.336 137.991  1.00  0.00    -0.289 OA
ATOM      5  C   UNL     1     143.688 151.142 138.311  1.00  0.00     0.107 A 
ATOM      6  C   UNL     1     142.392 150.575 138.335  1.00  0.00     0.134 A 
ATOM      7  C   UNL     1     142.241 149.191 138.504  1.00  0.00     0.093 A 
ATOM      8  C   UNL     1     143.363 148.364 138.649  1.00  0.00     0.123 A 
ATOM      9  C   UNL     1     144.643 148.920 138.627  1.00  0.00     0.094 A 
ATOM     10  C   UNL     1     144.814 150.297 138.460  1.00  0.00     0.146 A 
ATOM     11  O   UNL     1     146.044 150.801 138.443  1.00  0.00    -0.456 OA
ENDROOT
BRANCH   1  12
ATOM     12  C   UNL     1     147.715 152.550 138.290  1.00  0.00     0.021 A 
ATOM     13  C   UNL     1     148.778 151.652 138.508  1.00  0.00     0.016 A 
ATOM     14  C   UNL     1     150.102 152.102 138.489  1.00  0.00     0.051 A 
ATOM     15  C   UNL     1     150.385 153.452 138.245  1.00  0.00     0.157 A 
ATOM     16  C   UNL     1     148.011 153.901 138.033  1.00  0.00     0.062 A 
ATOM     17  C   UNL     1     149.339 154.352 138.015  1.00  0.00     0.158 A 
BRANCH  15  18
ATOM     18  O   UNL     1     151.704 153.904 138.228  1.00  0.00    -0.504 OA
ATOM     19  H   UNL     1     152.434 153.389 137.751  1.00  0.00     0.293 HD
ENDBRANCH  15  18
BRANCH  17  20
ATOM     20  O   UNL     1     149.624 155.693 137.769  1.00  0.00    -0.504 OA
ATOM     21  H   UNL     1     149.409 156.127 136.879  1.00  0.00     0.293 HD
ENDBRANCH  17  20
ENDBRANCH   1  12
BRANCH   6  22
ATOM     22  O   UNL     1     141.257 151.374 138.192  1.00  0.00    -0.507 OA
ATOM     23  H   UNL     1     141.004 151.786 137.301  1.00  0.00     0.293 HD
ENDBRANCH   6  22
BRANCH   8  24
ATOM     24  O   UNL     1     143.214 146.989 138.817  1.00  0.00    -0.508 OA
ATOM     25  H   UNL     1     142.385 146.503 138.496  1.00  0.00     0.293 HD
ENDBRANCH   8  24
TORSDOF 5
ENDMDL
MODEL 5
REMARK VINA RESULT:    -5.599      1.859      6.829
REMARK INTER + INTRA:          -6.876
REMARK INTER:                  -6.613
REMARK INTRA:                  -0.264
REMARK UNBOUND:                -0.295
REMARK SMILES O=c1cc(-c2ccc(O)c(O)c2)oc2cc(O)cc(O)c12
REMARK SMILES IDX 4 1 3 2 2 3 1 4 21 5 19 6 18 7 16 8 15 9 14 10 13 11 5 12
REMARK SMILES IDX 6 13 7 14 8 15 12 16 10 17 9 18 11 20 20 22 17 24
REMARK H PARENT 9 19 11 21 20 23 17 25
REMARK Flexibility Score: inf
ROOT
ATOM      1  C   UNL     1     143.028 146.709 138.221  1.00  0.00     0.138 A 
ATOM      2  C   UNL     1     141.719 147.190 138.058  1.00  0.00     0.100 A 
ATOM      3  C   UNL     1     141.483 148.565 138.089  1.00  0.00     0.197 A 
ATOM      4  O   UNL     1     140.304 148.987 137.943  1.00  0.00    -0.289 OA
ATOM      5  C   UNL     1     142.561 149.451 138.288  1.00  0.00     0.107 A 
ATOM      6  C   UNL     1     142.409 150.857 138.333  1.00  0.00     0.134 A 
ATOM      7  C   UNL     1     143.533 151.671 138.541  1.00  0.00     0.093 A 
ATOM      8  C   UNL     1     144.803 151.104 138.706  1.00  0.00     0.123 A 
ATOM      9  C   UNL     1     144.956 149.718 138.662  1.00  0.00     0.094 A 
ATOM     10  C   UNL     1     143.849 148.890 138.455  1.00  0.00     0.146 A 
ATOM     11  O   UNL     1     144.023 147.572 138.417  1.00  0.00    -0.456 OA
ENDROOT
BRANCH   1  12
ATOM     12  C   UNL     1     143.339 145.258 138.198  1.00  0.00     0.021 A 
ATOM     13  C   UNL     1     144.022 144.665 137.118  1.00  0.00     0.016 A 
ATOM     14  C   UNL     1     144.310 143.297 137.126  1.00  0.00     0.051 A 
ATOM     15  C   UNL     1     143.929 142.502 138.214  1.00  0.00     0.157 A 
ATOM     16  C   UNL     1     142.972 144.452 139.291  1.00  0.00     0.062 A 
ATOM     17  C   UNL     1     143.260 143.080 139.298  1.00  0.00     0.158 A 
BRANCH  15  18
ATOM     18  O   UNL     1     144.213 141.136 138.225  1.00  0.00    -0.504 OA
ATOM     19  H   UNL     1     143.651 140.475 137.702  1.00  0.00     0.293 HD
ENDBRANCH  15  18
BRANCH  17  20
ATOM     20  O   UNL     1     142.885 142.287 140.381  1.00  0.00    -0.504 OA
ATOM     21  H   UNL     1     143.517 142.111 141.154  1.00  0.00     0.293 HD
ENDBRANCH  17  20
ENDBRANCH   1  12
BRANCH   6  22
ATOM     22  O   UNL     1     141.157 151.449 138.172  1.00  0.00    -0.507 OA
ATOM     23  H   UNL     1     140.405 151.294 138.834  1.00  0.00     0.293 HD
ENDBRANCH   6  22
BRANCH   8  24
ATOM     24  O   UNL     1     145.919 151.913 138.913  1.00  0.00    -0.508 OA
ATOM     25  H   UNL     1     146.400 152.360 138.142  1.00  0.00     0.293 HD
ENDBRANCH   8  24
TORSDOF 5
ENDMDL
MODEL 6
REMARK VINA RESULT:    -5.599      3.249      8.036
REMARK INTER + INTRA:          -6.876
REMARK INTER:                  -6.612
REMARK INTRA:                  -0.264
REMARK UNBOUND:                -0.295
REMARK SMILES O=c1cc(-c2ccc(O)c(O)c2)oc2cc(O)cc(O)c12
REMARK SMILES IDX 4 1 3 2 2 3 1 4 21 5 19 6 18 7 16 8 15 9 14 10 13 11 5 12
REMARK SMILES IDX 6 13 7 14 8 15 12 16 10 17 9 18 11 20 20 22 17 24
REMARK H PARENT 9 19 11 21 20 23 17 25
REMARK Flexibility Score: inf
ROOT
ATOM      1  C   UNL     1     148.836 143.060 138.217  1.00  0.00     0.138 A 
ATOM      2  C   UNL     1     148.342 141.754 138.067  1.00  0.00     0.100 A 
ATOM      3  C   UNL     1     146.964 141.532 138.094  1.00  0.00     0.197 A 
ATOM      4  O   UNL     1     146.532 140.356 137.960  1.00  0.00    -0.289 OA
ATOM      5  C   UNL     1     146.089 142.621 138.273  1.00  0.00     0.107 A 
ATOM      6  C   UNL     1     144.681 142.485 138.310  1.00  0.00     0.134 A 
ATOM      7  C   UNL     1     143.878 143.620 138.499  1.00  0.00     0.093 A 
ATOM      8  C   UNL     1     144.457 144.886 138.651  1.00  0.00     0.123 A 
ATOM      9  C   UNL     1     145.845 145.024 138.614  1.00  0.00     0.094 A 
ATOM     10  C   UNL     1     146.663 143.906 138.426  1.00  0.00     0.146 A 
ATOM     11  O   UNL     1     147.982 144.066 138.394  1.00  0.00    -0.456 OA
ENDROOT
BRANCH   1  12
ATOM     12  C   UNL     1     150.291 143.355 138.198  1.00  0.00     0.021 A 
ATOM     13  C   UNL     1     150.895 144.029 137.119  1.00  0.00     0.016 A 
ATOM     14  C   UNL     1     152.266 144.302 137.132  1.00  0.00     0.051 A 
ATOM     15  C   UNL     1     153.053 143.915 138.224  1.00  0.00     0.157 A 
ATOM     16  C   UNL     1     151.088 142.982 139.295  1.00  0.00     0.062 A 
ATOM     17  C   UNL     1     152.463 143.256 139.308  1.00  0.00     0.158 A 
BRANCH  15  18
ATOM     18  O   UNL     1     154.421 144.185 138.239  1.00  0.00    -0.504 OA
ATOM     19  H   UNL     1     154.994 144.064 137.412  1.00  0.00     0.293 HD
ENDBRANCH  15  18
BRANCH  17  20
ATOM     20  O   UNL     1     153.248 142.875 140.395  1.00  0.00    -0.504 OA
ATOM     21  H   UNL     1     153.165 141.956 140.814  1.00  0.00     0.293 HD
ENDBRANCH  17  20
ENDBRANCH   1  12
BRANCH   6  22
ATOM     22  O   UNL     1     144.077 141.237 138.163  1.00  0.00    -0.507 OA
ATOM     23  H   UNL     1     143.071 141.122 138.214  1.00  0.00     0.293 HD
ENDBRANCH   6  22
BRANCH   8  24
ATOM     24  O   UNL     1     143.659 146.013 138.838  1.00  0.00    -0.508 OA
ATOM     25  H   UNL     1     143.667 146.784 138.181  1.00  0.00     0.293 HD
ENDBRANCH   8  24
TORSDOF 5
ENDMDL
MODEL 7
REMARK VINA RESULT:    -5.592      6.249      8.319
REMARK INTER + INTRA:          -6.868
REMARK INTER:                  -6.605
REMARK INTRA:                  -0.264
REMARK UNBOUND:                -0.295
REMARK SMILES O=c1cc(-c2ccc(O)c(O)c2)oc2cc(O)cc(O)c12
REMARK SMILES IDX 4 1 3 2 2 3 1 4 21 5 19 6 18 7 16 8 15 9 14 10 13 11 5 12
REMARK SMILES IDX 6 13 7 14 8 15 12 16 10 17 9 18 11 20 20 22 17 24
REMARK H PARENT 9 19 11 21 20 23 17 25
REMARK Flexibility Score: inf
ROOT
ATOM      1  C   UNL     1     146.740 152.497 138.217  1.00  0.00     0.138 A 
ATOM      2  C   UNL     1     147.233 153.801 138.053  1.00  0.00     0.100 A 
ATOM      3  C   UNL     1     148.611 154.025 138.082  1.00  0.00     0.197 A 
ATOM      4  O   UNL     1     149.043 155.199 137.934  1.00  0.00    -0.289 OA
ATOM      5  C   UNL     1     149.487 152.938 138.279  1.00  0.00     0.107 A 
ATOM      6  C   UNL     1     150.894 153.076 138.320  1.00  0.00     0.134 A 
ATOM      7  C   UNL     1     151.698 151.945 138.527  1.00  0.00     0.093 A 
ATOM      8  C   UNL     1     151.119 150.680 138.693  1.00  0.00     0.123 A 
ATOM      9  C   UNL     1     149.731 150.541 138.652  1.00  0.00     0.094 A 
ATOM     10  C   UNL     1     148.913 151.655 138.446  1.00  0.00     0.146 A 
ATOM     11  O   UNL     1     147.594 151.494 138.411  1.00  0.00    -0.456 OA
ENDROOT
BRANCH   1  12
ATOM     12  C   UNL     1     145.285 152.201 138.196  1.00  0.00     0.021 A 
ATOM     13  C   UNL     1     144.684 151.526 137.117  1.00  0.00     0.016 A 
ATOM     14  C   UNL     1     143.312 151.251 137.128  1.00  0.00     0.051 A 
ATOM     15  C   UNL     1     142.524 151.637 138.218  1.00  0.00     0.157 A 
ATOM     16  C   UNL     1     144.486 152.573 139.292  1.00  0.00     0.062 A 
ATOM     17  C   UNL     1     143.111 152.297 139.303  1.00  0.00     0.158 A 
BRANCH  15  18
ATOM     18  O   UNL     1     141.156 151.366 138.231  1.00  0.00    -0.504 OA
ATOM     19  H   UNL     1     140.749 150.731 138.908  1.00  0.00     0.293 HD
ENDBRANCH  15  18
BRANCH  17  20
ATOM     20  O   UNL     1     142.324 152.677 140.388  1.00  0.00    -0.504 OA
ATOM     21  H   UNL     1     141.354 152.943 140.273  1.00  0.00     0.293 HD
ENDBRANCH  17  20
ENDBRANCH   1  12
BRANCH   6  22
ATOM     22  O   UNL     1     151.498 154.323 138.159  1.00  0.00    -0.507 OA
ATOM     23  H   UNL     1     150.984 155.186 138.298  1.00  0.00     0.293 HD
ENDBRANCH   6  22
BRANCH   8  24
ATOM     24  O   UNL     1     151.917 149.557 138.898  1.00  0.00    -0.508 OA
ATOM     25  H   UNL     1     152.890 149.640 139.169  1.00  0.00     0.293 HD
ENDBRANCH   8  24
TORSDOF 5
ENDMDL
MODEL 8
REMARK VINA RESULT:    -5.582      7.354      9.342
REMARK INTER + INTRA:          -6.856
REMARK INTER:                  -6.593
REMARK INTRA:                  -0.263
REMARK UNBOUND:                -0.295
REMARK SMILES O=c1cc(-c2ccc(O)c(O)c2)oc2cc(O)cc(O)c12
REMARK SMILES IDX 4 1 3 2 2 3 1 4 21 5 19 6 18 7 16 8 15 9 14 10 13 11 5 12
REMARK SMILES IDX 6 13 7 14 8 15 12 16 10 17 9 18 11 20 20 22 17 24
REMARK H PARENT 9 19 11 21 20 23 17 25
REMARK Flexibility Score: inf
ROOT
ATOM      1  C   UNL     1     152.512 148.830 138.226  1.00  0.00     0.138 A 
ATOM      2  C   UNL     1     153.815 148.326 138.080  1.00  0.00     0.100 A 
ATOM      3  C   UNL     1     154.027 146.947 138.110  1.00  0.00     0.197 A 
ATOM      4  O   UNL     1     155.201 146.506 137.979  1.00  0.00    -0.289 OA
ATOM      5  C   UNL     1     152.932 146.079 138.290  1.00  0.00     0.107 A 
ATOM      6  C   UNL     1     153.058 144.671 138.331  1.00  0.00     0.134 A 
ATOM      7  C   UNL     1     151.918 143.876 138.521  1.00  0.00     0.093 A 
ATOM      8  C   UNL     1     150.655 144.464 138.669  1.00  0.00     0.123 A 
ATOM      9  C   UNL     1     150.527 145.853 138.628  1.00  0.00     0.094 A 
ATOM     10  C   UNL     1     151.651 146.663 138.440  1.00  0.00     0.146 A 
ATOM     11  O   UNL     1     151.500 147.983 138.404  1.00  0.00    -0.456 OA
ENDROOT
BRANCH   1  12
ATOM     12  C   UNL     1     152.227 150.286 138.203  1.00  0.00     0.021 A 
ATOM     13  C   UNL     1     151.577 150.895 137.112  1.00  0.00     0.016 A 
ATOM     14  C   UNL     1     151.313 152.269 137.121  1.00  0.00     0.051 A 
ATOM     15  C   UNL     1     151.684 153.052 138.221  1.00  0.00     0.157 A 
ATOM     16  C   UNL     1     152.585 151.080 139.307  1.00  0.00     0.062 A 
ATOM     17  C   UNL     1     152.320 152.457 139.316  1.00  0.00     0.158 A 
BRANCH  15  18
ATOM     18  O   UNL     1     151.424 154.422 138.232  1.00  0.00    -0.504 OA
ATOM     19  H   UNL     1     150.657 154.819 137.702  1.00  0.00     0.293 HD
ENDBRANCH  15  18
BRANCH  17  20
ATOM     20  O   UNL     1     152.685 153.239 140.410  1.00  0.00    -0.504 OA
ATOM     21  H   UNL     1     152.651 154.251 140.374  1.00  0.00     0.293 HD
ENDBRANCH  17  20
ENDBRANCH   1  12
BRANCH   6  22
ATOM     22  O   UNL     1     154.303 144.058 138.187  1.00  0.00    -0.507 OA
ATOM     23  H   UNL     1     154.493 143.409 137.432  1.00  0.00     0.293 HD
ENDBRANCH   6  22
BRANCH   8  24
ATOM     24  O   UNL     1     149.523 143.674 138.857  1.00  0.00    -0.508 OA
ATOM     25  H   UNL     1     149.589 142.668 138.952  1.00  0.00     0.293 HD
ENDBRANCH   8  24
TORSDOF 5
ENDMDL
MODEL 9
REMARK VINA RESULT:    -5.463      3.189      8.218
REMARK INTER + INTRA:          -6.716
REMARK INTER:                  -6.403
REMARK INTRA:                  -0.313
REMARK UNBOUND:                -0.295
REMARK SMILES O=c1cc(-c2ccc(O)c(O)c2)oc2cc(O)cc(O)c12
REMARK SMILES IDX 4 1 3 2 2 3 1 4 21 5 19 6 18 7 16 8 15 9 14 10 13 11 5 12
REMARK SMILES IDX 6 13 7 14 8 15 12 16 10 17 9 18 11 20 20 22 17 24
REMARK H PARENT 9 19 11 21 20 23 17 25
REMARK Flexibility Score: inf
ROOT
ATOM      1  C   UNL     1     148.871 144.309 138.639  1.00  0.00     0.138 A 
ATOM      2  C   UNL     1     148.457 145.644 138.500  1.00  0.00     0.100 A 
ATOM      3  C   UNL     1     147.096 145.934 138.392  1.00  0.00     0.197 A 
ATOM      4  O   UNL     1     146.734 147.135 138.266  1.00  0.00    -0.289 OA
ATOM      5  C   UNL     1     146.157 144.883 138.420  1.00  0.00     0.107 A 
ATOM      6  C   UNL     1     144.761 145.089 138.318  1.00  0.00     0.134 A 
ATOM      7  C   UNL     1     143.891 143.989 138.348  1.00  0.00     0.093 A 
ATOM      8  C   UNL     1     144.393 142.687 138.479  1.00  0.00     0.123 A 
ATOM      9  C   UNL     1     145.770 142.481 138.581  1.00  0.00     0.094 A 
ATOM     10  C   UNL     1     146.652 143.564 138.553  1.00  0.00     0.146 A 
ATOM     11  O   UNL     1     147.959 143.339 138.653  1.00  0.00    -0.456 OA
ENDROOT
BRANCH   1  12
ATOM     12  C   UNL     1     150.304 143.941 138.758  1.00  0.00     0.021 A 
ATOM     13  C   UNL     1     151.329 144.832 138.384  1.00  0.00     0.016 A 
ATOM     14  C   UNL     1     152.672 144.462 138.515  1.00  0.00     0.051 A 
ATOM     15  C   UNL     1     153.011 143.205 139.028  1.00  0.00     0.157 A 
ATOM     16  C   UNL     1     150.656 142.685 139.284  1.00  0.00     0.062 A 
ATOM     17  C   UNL     1     152.003 142.316 139.414  1.00  0.00     0.158 A 
BRANCH  15  18
ATOM     18  O   UNL     1     154.349 142.833 139.158  1.00  0.00    -0.504 OA
ATOM     19  H   UNL     1     154.697 141.965 138.768  1.00  0.00     0.293 HD
ENDBRANCH  15  18
BRANCH  17  20
ATOM     20  O   UNL     1     152.344 141.066 139.928  1.00  0.00    -0.504 OA
ATOM     21  H   UNL     1     152.236 140.220 139.381  1.00  0.00     0.293 HD
ENDBRANCH  17  20
ENDBRANCH   1  12
BRANCH   6  22
ATOM     22  O   UNL     1     144.233 146.374 138.186  1.00  0.00    -0.507 OA
ATOM     23  H   UNL     1     143.494 146.711 138.792  1.00  0.00     0.293 HD
ENDBRANCH   6  22
BRANCH   8  24
ATOM     24  O   UNL     1     143.530 141.594 138.509  1.00  0.00    -0.508 OA
ATOM     25  H   UNL     1     143.684 140.814 139.136  1.00  0.00     0.293 HD
ENDBRANCH   8  24
TORSDOF 5
ENDMDL
