MODEL 1
REMARK VINA RESULT:    -3.767      0.000      0.000
REMARK INTER + INTRA:          -4.611
REMARK INTER:                  -4.427
REMARK INTRA:                  -0.184
REMARK UNBOUND:                -0.184
REMARK SMILES O=C([O-])CCC(=O)[O-]
REMARK SMILES IDX 4 1 2 2 1 3 3 4 5 5 6 6 7 7 8 8
REMARK H PARENT
REMARK Flexibility Score: inf
ROOT
ATOM      1  C   UNL     1     146.136 128.106 128.407  1.00  0.00     0.059 C 
ENDROOT
BRANCH   1   2
ATOM      2  C   UNL     1     145.885 129.089 129.510  1.00  0.00     0.042 C 
ATOM      3  O   UNL     1     144.709 129.315 129.901  1.00  0.00    -0.550 OA
ATOM      4  O   UNL     1     146.945 129.783 130.079  1.00  0.00    -0.550 OA
ENDBRANCH   1   2
BRANCH   1   5
ATOM      5  C   UNL     1     146.914 128.744 127.250  1.00  0.00     0.059 C 
BRANCH   5   6
ATOM      6  C   UNL     1     146.178 129.913 126.669  1.00  0.00     0.042 C 
ATOM      7  O   UNL     1     145.077 129.742 126.082  1.00  0.00    -0.550 OA
ATOM      8  O   UNL     1     146.688 131.197 126.814  1.00  0.00    -0.550 OA
ENDBRANCH   5   6
ENDBRANCH   1   5
TORSDOF 3
ENDMDL
MODEL 2
REMARK VINA RESULT:    -3.738      0.105      1.145
REMARK INTER + INTRA:          -4.577
REMARK INTER:                  -4.402
REMARK INTRA:                  -0.175
REMARK UNBOUND:                -0.184
REMARK SMILES O=C([O-])CCC(=O)[O-]
REMARK SMILES IDX 4 1 2 2 1 3 3 4 5 5 6 6 7 7 8 8
REMARK H PARENT
REMARK Flexibility Score: inf
ROOT
ATOM      1  C   UNL     1     146.064 128.150 128.353  1.00  0.00     0.059 C 
ENDROOT
BRANCH   1   2
ATOM      2  C   UNL     1     145.870 129.114 129.484  1.00  0.00     0.042 C 
ATOM      3  O   UNL     1     144.713 129.351 129.922  1.00  0.00    -0.550 OA
ATOM      4  O   UNL     1     146.962 129.780 130.026  1.00  0.00    -0.550 OA
ENDBRANCH   1   2
BRANCH   1   5
ATOM      5  C   UNL     1     146.865 128.777 127.207  1.00  0.00     0.059 C 
BRANCH   5   6
ATOM      6  C   UNL     1     146.181 129.991 126.656  1.00  0.00     0.042 C 
ATOM      7  O   UNL     1     146.747 131.115 126.704  1.00  0.00    -0.550 OA
ATOM      8  O   UNL     1     144.934 129.873 126.054  1.00  0.00    -0.550 OA
ENDBRANCH   5   6
ENDBRANCH   1   5
TORSDOF 3
ENDMDL
MODEL 3
REMARK VINA RESULT:    -3.722      0.156      3.297
REMARK INTER + INTRA:          -4.558
REMARK INTER:                  -4.376
REMARK INTRA:                  -0.182
REMARK UNBOUND:                -0.184
REMARK SMILES O=C([O-])CCC(=O)[O-]
REMARK SMILES IDX 4 1 2 2 1 3 3 4 5 5 6 6 7 7 8 8
REMARK H PARENT
REMARK Flexibility Score: inf
ROOT
ATOM      1  C   UNL     1     146.895 128.897 127.160  1.00  0.00     0.059 C 
ENDROOT
BRANCH   1   2
ATOM      2  C   UNL     1     146.155 130.105 126.671  1.00  0.00     0.042 C 
ATOM      3  O   UNL     1     146.669 131.249 126.780  1.00  0.00    -0.550 OA
ATOM      4  O   UNL     1     144.882 129.970 126.131  1.00  0.00    -0.550 OA
ENDBRANCH   1   2
BRANCH   1   5
ATOM      5  C   UNL     1     146.140 128.193 128.293  1.00  0.00     0.059 C 
BRANCH   5   6
ATOM      6  C   UNL     1     145.881 129.119 129.442  1.00  0.00     0.042 C 
ATOM      7  O   UNL     1     144.707 129.295 129.863  1.00  0.00    -0.550 OA
ATOM      8  O   UNL     1     146.941 129.755 130.075  1.00  0.00    -0.550 OA
ENDBRANCH   5   6
ENDBRANCH   1   5
TORSDOF 3
ENDMDL
MODEL 4
REMARK VINA RESULT:    -3.558      1.517      3.642
REMARK INTER + INTRA:          -4.366
REMARK INTER:                  -4.252
REMARK INTRA:                  -0.114
REMARK UNBOUND:                -0.184
REMARK SMILES O=C([O-])CCC(=O)[O-]
REMARK SMILES IDX 4 1 2 2 1 3 3 4 5 5 6 6 7 7 8 8
REMARK H PARENT
REMARK Flexibility Score: inf
ROOT
ATOM      1  C   UNL     1     146.327 130.554 127.198  1.00  0.00     0.059 C 
ENDROOT
BRANCH   1   2
ATOM      2  C   UNL     1     147.078 129.746 126.183  1.00  0.00     0.042 C 
ATOM      3  O   UNL     1     147.439 128.570 126.451  1.00  0.00    -0.550 OA
ATOM      4  O   UNL     1     147.413 130.307 124.958  1.00  0.00    -0.550 OA
ENDBRANCH   1   2
BRANCH   1   5
ATOM      5  C   UNL     1     145.176 129.752 127.817  1.00  0.00     0.059 C 
BRANCH   5   6
ATOM      6  C   UNL     1     145.438 129.434 129.258  1.00  0.00     0.042 C 
ATOM      7  O   UNL     1     144.554 128.869 129.954  1.00  0.00    -0.550 OA
ATOM      8  O   UNL     1     146.675 129.726 129.820  1.00  0.00    -0.550 OA
ENDBRANCH   5   6
ENDBRANCH   1   5
TORSDOF 3
ENDMDL
MODEL 5
REMARK VINA RESULT:    -3.557      1.488      2.066
REMARK INTER + INTRA:          -4.365
REMARK INTER:                  -4.245
REMARK INTRA:                  -0.120
REMARK UNBOUND:                -0.184
REMARK SMILES O=C([O-])CCC(=O)[O-]
REMARK SMILES IDX 4 1 2 2 1 3 3 4 5 5 6 6 7 7 8 8
REMARK H PARENT
REMARK Flexibility Score: inf
ROOT
ATOM      1  C   UNL     1     146.434 130.217 127.809  1.00  0.00     0.059 C 
ENDROOT
BRANCH   1   2
ATOM      2  C   UNL     1     146.233 129.747 129.218  1.00  0.00     0.042 C 
ATOM      3  O   UNL     1     147.207 129.698 130.014  1.00  0.00    -0.550 OA
ATOM      4  O   UNL     1     144.978 129.328 129.639  1.00  0.00    -0.550 OA
ENDBRANCH   1   2
BRANCH   1   5
ATOM      5  C   UNL     1     145.453 129.542 126.844  1.00  0.00     0.059 C 
BRANCH   5   6
ATOM      6  C   UNL     1     144.466 130.522 126.285  1.00  0.00     0.042 C 
ATOM      7  O   UNL     1     143.429 130.819 126.936  1.00  0.00    -0.550 OA
ATOM      8  O   UNL     1     144.714 131.138 125.065  1.00  0.00    -0.550 OA
ENDBRANCH   5   6
ENDBRANCH   1   5
TORSDOF 3
ENDMDL
MODEL 6
REMARK VINA RESULT:    -3.539      1.380      1.969
REMARK INTER + INTRA:          -4.343
REMARK INTER:                  -4.242
REMARK INTRA:                  -0.102
REMARK UNBOUND:                -0.184
REMARK SMILES O=C([O-])CCC(=O)[O-]
REMARK SMILES IDX 4 1 2 2 1 3 3 4 5 5 6 6 7 7 8 8
REMARK H PARENT
REMARK Flexibility Score: inf
ROOT
ATOM      1  C   UNL     1     145.160 129.739 128.247  1.00  0.00     0.059 C 
ENDROOT
BRANCH   1   2
ATOM      2  C   UNL     1     145.718 129.082 129.473  1.00  0.00     0.042 C 
ATOM      3  O   UNL     1     146.751 129.545 130.024  1.00  0.00    -0.550 OA
ATOM      4  O   UNL     1     145.120 127.937 129.982  1.00  0.00    -0.550 OA
ENDBRANCH   1   2
BRANCH   1   5
ATOM      5  C   UNL     1     146.263 130.378 127.396  1.00  0.00     0.059 C 
BRANCH   5   6
ATOM      6  C   UNL     1     146.628 129.514 126.227  1.00  0.00     0.042 C 
ATOM      7  O   UNL     1     147.390 128.524 126.383  1.00  0.00    -0.550 OA
ATOM      8  O   UNL     1     146.091 129.779 124.973  1.00  0.00    -0.550 OA
ENDBRANCH   5   6
ENDBRANCH   1   5
TORSDOF 3
ENDMDL
MODEL 7
REMARK VINA RESULT:    -3.528      1.390      1.579
REMARK INTER + INTRA:          -4.331
REMARK INTER:                  -4.243
REMARK INTRA:                  -0.088
REMARK UNBOUND:                -0.184
REMARK SMILES O=C([O-])CCC(=O)[O-]
REMARK SMILES IDX 4 1 2 2 1 3 3 4 5 5 6 6 7 7 8 8
REMARK H PARENT
REMARK Flexibility Score: inf
ROOT
ATOM      1  C   UNL     1     145.095 129.747 128.029  1.00  0.00     0.059 C 
ENDROOT
BRANCH   1   2
ATOM      2  C   UNL     1     145.595 129.206 129.334  1.00  0.00     0.042 C 
ATOM      3  O   UNL     1     144.949 128.309 129.937  1.00  0.00    -0.550 OA
ATOM      4  O   UNL     1     146.754 129.720 129.903  1.00  0.00    -0.550 OA
ENDBRANCH   1   2
BRANCH   1   5
ATOM      5  C   UNL     1     146.214 130.429 127.235  1.00  0.00     0.059 C 
BRANCH   5   6
ATOM      6  C   UNL     1     146.607 129.623 126.034  1.00  0.00     0.042 C 
ATOM      7  O   UNL     1     146.187 129.941 124.890  1.00  0.00    -0.550 OA
ATOM      8  O   UNL     1     147.473 128.545 126.173  1.00  0.00    -0.550 OA
ENDBRANCH   5   6
ENDBRANCH   1   5
TORSDOF 3
ENDMDL
MODEL 8
REMARK VINA RESULT:    -3.445      1.170      3.745
REMARK INTER + INTRA:          -4.233
REMARK INTER:                  -4.120
REMARK INTRA:                  -0.112
REMARK UNBOUND:                -0.184
REMARK SMILES O=C([O-])CCC(=O)[O-]
REMARK SMILES IDX 4 1 2 2 1 3 3 4 5 5 6 6 7 7 8 8
REMARK H PARENT
REMARK Flexibility Score: inf
ROOT
ATOM      1  C   UNL     1     146.420 130.495 127.082  1.00  0.00     0.059 C 
ENDROOT
BRANCH   1   2
ATOM      2  C   UNL     1     145.181 130.671 126.257  1.00  0.00     0.042 C 
ATOM      3  O   UNL     1     145.270 130.913 125.025  1.00  0.00    -0.550 OA
ATOM      4  O   UNL     1     143.931 130.606 126.859  1.00  0.00    -0.550 OA
ENDBRANCH   1   2
BRANCH   1   5
ATOM      5  C   UNL     1     146.411 129.162 127.838  1.00  0.00     0.059 C 
BRANCH   5   6
ATOM      6  C   UNL     1     146.158 129.360 129.302  1.00  0.00     0.042 C 
ATOM      7  O   UNL     1     147.089 129.737 130.061  1.00  0.00    -0.550 OA
ATOM      8  O   UNL     1     144.883 129.168 129.819  1.00  0.00    -0.550 OA
ENDBRANCH   5   6
ENDBRANCH   1   5
TORSDOF 3
ENDMDL
MODEL 9
REMARK VINA RESULT:    -3.282      1.917      2.541
REMARK INTER + INTRA:          -4.042
REMARK INTER:                  -3.951
REMARK INTRA:                  -0.091
REMARK UNBOUND:                -0.184
REMARK SMILES O=C([O-])CCC(=O)[O-]
REMARK SMILES IDX 4 1 2 2 1 3 3 4 5 5 6 6 7 7 8 8
REMARK H PARENT
REMARK Flexibility Score: inf
ROOT
ATOM      1  C   UNL     1     145.127 129.886 127.698  1.00  0.00     0.059 C 
ENDROOT
BRANCH   1   2
ATOM      2  C   UNL     1     146.074 128.731 127.817  1.00  0.00     0.042 C 
ATOM      3  O   UNL     1     145.918 127.875 128.728  1.00  0.00    -0.550 OA
ATOM      4  O   UNL     1     147.152 128.622 126.947  1.00  0.00    -0.550 OA
ENDBRANCH   1   2
BRANCH   1   5
ATOM      5  C   UNL     1     145.572 130.872 126.612  1.00  0.00     0.059 C 
BRANCH   5   6
ATOM      6  C   UNL     1     144.644 130.853 125.436  1.00  0.00     0.042 C 
ATOM      7  O   UNL     1     145.036 130.406 124.325  1.00  0.00    -0.550 OA
ATOM      8  O   UNL     1     143.333 131.290 125.578  1.00  0.00    -0.550 OA
ENDBRANCH   5   6
ENDBRANCH   1   5
TORSDOF 3
ENDMDL
