MODEL 1
REMARK VINA RESULT:    -3.590      0.000      0.000
REMARK INTER + INTRA:          -4.303
REMARK INTER:                  -4.220
REMARK INTRA:                  -0.083
REMARK UNBOUND:                -0.083
REMARK SMILES O=C([O-])CCC(=O)[O-]
REMARK SMILES IDX 4 1 2 2 1 3 3 4 5 5 6 6 7 7 8 8
REMARK H PARENT
REMARK Flexibility Score: inf
ROOT
ATOM      1  C   UNL     1      12.899  14.779  14.985  1.00  0.00     0.059 C 
ENDROOT
BRANCH   1   2
ATOM      2  C   UNL     1      13.248  15.237  13.604  1.00  0.00     0.042 C 
ATOM      3  O   UNL     1      13.737  16.382  13.420  1.00  0.00    -0.550 OA
ATOM      4  O   UNL     1      13.079  14.377  12.524  1.00  0.00    -0.550 OA
ENDBRANCH   1   2
BRANCH   1   5
ATOM      5  C   UNL     1      13.529  13.415  15.272  1.00  0.00     0.059 C 
BRANCH   5   6
ATOM      6  C   UNL     1      12.500  12.333  15.187  1.00  0.00     0.042 C 
ATOM      7  O   UNL     1      11.279  12.626  15.099  1.00  0.00    -0.550 OA
ATOM      8  O   UNL     1      12.892  11.001  15.154  1.00  0.00    -0.550 OA
ENDBRANCH   5   6
ENDBRANCH   1   5
TORSDOF 3
ENDMDL
MODEL 2
REMARK VINA RESULT:    -3.576      0.040      3.700
REMARK INTER + INTRA:          -4.287
REMARK INTER:                  -4.217
REMARK INTRA:                  -0.070
REMARK UNBOUND:                -0.083
REMARK SMILES O=C([O-])CCC(=O)[O-]
REMARK SMILES IDX 4 1 2 2 1 3 3 4 5 5 6 6 7 7 8 8
REMARK H PARENT
REMARK Flexibility Score: inf
ROOT
ATOM      1  C   UNL     1      13.499  13.403  15.297  1.00  0.00     0.059 C 
ENDROOT
BRANCH   1   2
ATOM      2  C   UNL     1      12.475  12.321  15.166  1.00  0.00     0.042 C 
ATOM      3  O   UNL     1      11.254  12.612  15.069  1.00  0.00    -0.550 OA
ATOM      4  O   UNL     1      12.875  10.991  15.102  1.00  0.00    -0.550 OA
ENDBRANCH   1   2
BRANCH   1   5
ATOM      5  C   UNL     1      12.880  14.767  14.986  1.00  0.00     0.059 C 
BRANCH   5   6
ATOM      6  C   UNL     1      13.246  15.207  13.605  1.00  0.00     0.042 C 
ATOM      7  O   UNL     1      13.732  16.351  13.412  1.00  0.00    -0.550 OA
ATOM      8  O   UNL     1      13.097  14.333  12.534  1.00  0.00    -0.550 OA
ENDBRANCH   5   6
ENDBRANCH   1   5
TORSDOF 3
ENDMDL
MODEL 3
REMARK VINA RESULT:    -3.186      2.022      3.079
REMARK INTER + INTRA:          -3.828
REMARK INTER:                  -3.876
REMARK INTRA:                   0.047
REMARK UNBOUND:                -0.083
REMARK SMILES O=C([O-])CCC(=O)[O-]
REMARK SMILES IDX 4 1 2 2 1 3 3 4 5 5 6 6 7 7 8 8
REMARK H PARENT
REMARK Flexibility Score: inf
ROOT
ATOM      1  C   UNL     1      11.973  12.804  14.879  1.00  0.00     0.059 C 
ENDROOT
BRANCH   1   2
ATOM      2  C   UNL     1      13.029  13.721  15.411  1.00  0.00     0.042 C 
ATOM      3  O   UNL     1      12.897  14.968  15.306  1.00  0.00    -0.550 OA
ATOM      4  O   UNL     1      14.135  13.197  16.070  1.00  0.00    -0.550 OA
ENDBRANCH   1   2
BRANCH   1   5
ATOM      5  C   UNL     1      12.500  12.022  13.674  1.00  0.00     0.059 C 
BRANCH   5   6
ATOM      6  C   UNL     1      12.269  12.788  12.410  1.00  0.00     0.042 C 
ATOM      7  O   UNL     1      11.496  12.334  11.527  1.00  0.00    -0.550 OA
ATOM      8  O   UNL     1      12.869  14.028  12.229  1.00  0.00    -0.550 OA
ENDBRANCH   5   6
ENDBRANCH   1   5
TORSDOF 3
ENDMDL
MODEL 4
REMARK VINA RESULT:    -2.348     16.467     17.831
REMARK INTER + INTRA:          -2.843
REMARK INTER:                  -2.735
REMARK INTRA:                  -0.108
REMARK UNBOUND:                -0.083
REMARK SMILES O=C([O-])CCC(=O)[O-]
REMARK SMILES IDX 4 1 2 2 1 3 3 4 5 5 6 6 7 7 8 8
REMARK H PARENT
REMARK Flexibility Score: inf
ROOT
ATOM      1  C   UNL     1      22.815   0.483  13.987  1.00  0.00     0.059 C 
ENDROOT
BRANCH   1   2
ATOM      2  C   UNL     1      22.676   0.464  12.497  1.00  0.00     0.042 C 
ATOM      3  O   UNL     1      21.541   0.341  11.968  1.00  0.00    -0.550 OA
ATOM      4  O   UNL     1      23.797   0.635  11.694  1.00  0.00    -0.550 OA
ENDBRANCH   1   2
BRANCH   1   5
ATOM      5  C   UNL     1      24.125  -0.183  14.411  1.00  0.00     0.059 C 
BRANCH   5   6
ATOM      6  C   UNL     1      23.944  -1.663  14.537  1.00  0.00     0.042 C 
ATOM      7  O   UNL     1      23.586  -2.167  15.633  1.00  0.00    -0.550 OA
ATOM      8  O   UNL     1      24.122  -2.482  13.429  1.00  0.00    -0.550 OA
ENDBRANCH   5   6
ENDBRANCH   1   5
TORSDOF 3
ENDMDL
MODEL 5
REMARK VINA RESULT:    -2.272     16.750     18.436
REMARK INTER + INTRA:          -2.754
REMARK INTER:                  -2.716
REMARK INTRA:                  -0.038
REMARK UNBOUND:                -0.083
REMARK SMILES O=C([O-])CCC(=O)[O-]
REMARK SMILES IDX 4 1 2 2 1 3 3 4 5 5 6 6 7 7 8 8
REMARK H PARENT
REMARK Flexibility Score: inf
ROOT
ATOM      1  C   UNL     1      23.876  -0.636  14.117  1.00  0.00     0.059 C 
ENDROOT
BRANCH   1   2
ATOM      2  C   UNL     1      24.065  -2.009  14.680  1.00  0.00     0.042 C 
ATOM      3  O   UNL     1      24.125  -2.180  15.926  1.00  0.00    -0.550 OA
ATOM      4  O   UNL     1      24.125  -3.106  13.830  1.00  0.00    -0.550 OA
ENDBRANCH   1   2
BRANCH   1   5
ATOM      5  C   UNL     1      23.779  -0.691  12.592  1.00  0.00     0.059 C 
BRANCH   5   6
ATOM      6  C   UNL     1      22.975   0.459  12.075  1.00  0.00     0.042 C 
ATOM      7  O   UNL     1      23.545   1.424  11.502  1.00  0.00    -0.550 OA
ATOM      8  O   UNL     1      21.590   0.443  12.181  1.00  0.00    -0.550 OA
ENDBRANCH   5   6
ENDBRANCH   1   5
TORSDOF 3
ENDMDL
MODEL 6
REMARK VINA RESULT:    -1.983      8.282     10.711
REMARK INTER + INTRA:          -2.413
REMARK INTER:                  -2.365
REMARK INTRA:                  -0.048
REMARK UNBOUND:                -0.083
REMARK SMILES O=C([O-])CCC(=O)[O-]
REMARK SMILES IDX 4 1 2 2 1 3 3 4 5 5 6 6 7 7 8 8
REMARK H PARENT
REMARK Flexibility Score: inf
ROOT
ATOM      1  C   UNL     1      12.449   4.142  19.174  1.00  0.00     0.059 C 
ENDROOT
BRANCH   1   2
ATOM      2  C   UNL     1      11.391   3.943  20.212  1.00  0.00     0.042 C 
ATOM      3  O   UNL     1      10.207   4.306  19.988  1.00  0.00    -0.550 OA
ATOM      4  O   UNL     1      11.703   3.308  21.408  1.00  0.00    -0.550 OA
ENDBRANCH   1   2
BRANCH   1   5
ATOM      5  C   UNL     1      12.425   5.579  18.652  1.00  0.00     0.059 C 
BRANCH   5   6
ATOM      6  C   UNL     1      12.837   5.623  17.215  1.00  0.00     0.042 C 
ATOM      7  O   UNL     1      12.743   6.695  16.562  1.00  0.00    -0.550 OA
ATOM      8  O   UNL     1      13.373   4.493  16.611  1.00  0.00    -0.550 OA
ENDBRANCH   5   6
ENDBRANCH   1   5
TORSDOF 3
ENDMDL
MODEL 7
REMARK VINA RESULT:    -1.910     16.463     17.212
REMARK INTER + INTRA:          -2.328
REMARK INTER:                  -2.531
REMARK INTRA:                   0.203
REMARK UNBOUND:                -0.083
REMARK SMILES O=C([O-])CCC(=O)[O-]
REMARK SMILES IDX 4 1 2 2 1 3 3 4 5 5 6 6 7 7 8 8
REMARK H PARENT
REMARK Flexibility Score: inf
ROOT
ATOM      1  C   UNL     1      24.125   0.854  12.223  1.00  0.00     0.059 C 
ENDROOT
BRANCH   1   2
ATOM      2  C   UNL     1      22.890   0.061  11.932  1.00  0.00     0.042 C 
ATOM      3  O   UNL     1      21.758   0.608  11.988  1.00  0.00    -0.550 OA
ATOM      4  O   UNL     1      22.995  -1.270  11.549  1.00  0.00    -0.550 OA
ENDBRANCH   1   2
BRANCH   1   5
ATOM      5  C   UNL     1      24.088   1.397  13.653  1.00  0.00     0.059 C 
BRANCH   5   6
ATOM      6  C   UNL     1      23.473   0.397  14.579  1.00  0.00     0.042 C 
ATOM      7  O   UNL     1      24.040  -0.707  14.786  1.00  0.00    -0.550 OA
ATOM      8  O   UNL     1      22.297   0.705  15.253  1.00  0.00    -0.550 OA
ENDBRANCH   5   6
ENDBRANCH   1   5
TORSDOF 3
ENDMDL
MODEL 8
REMARK VINA RESULT:    -1.910     15.722     17.006
REMARK INTER + INTRA:          -2.328
REMARK INTER:                  -2.256
REMARK INTRA:                  -0.071
REMARK UNBOUND:                -0.083
REMARK SMILES O=C([O-])CCC(=O)[O-]
REMARK SMILES IDX 4 1 2 2 1 3 3 4 5 5 6 6 7 7 8 8
REMARK H PARENT
REMARK Flexibility Score: inf
ROOT
ATOM      1  C   UNL     1      23.242   0.031  14.546  1.00  0.00     0.059 C 
ENDROOT
BRANCH   1   2
ATOM      2  C   UNL     1      23.130   1.367  15.209  1.00  0.00     0.042 C 
ATOM      3  O   UNL     1      24.125   2.136  15.258  1.00  0.00    -0.550 OA
ATOM      4  O   UNL     1      21.910   1.783  15.730  1.00  0.00    -0.550 OA
ENDBRANCH   1   2
BRANCH   1   5
ATOM      5  C   UNL     1      23.997   0.151  13.222  1.00  0.00     0.059 C 
BRANCH   5   6
ATOM      6  C   UNL     1      23.148  -0.326  12.087  1.00  0.00     0.042 C 
ATOM      7  O   UNL     1      21.969   0.094  11.958  1.00  0.00    -0.550 OA
ATOM      8  O   UNL     1      23.676  -1.197  11.142  1.00  0.00    -0.550 OA
ENDBRANCH   5   6
ENDBRANCH   1   5
TORSDOF 3
ENDMDL
