MODEL 1
REMARK VINA RESULT:    -2.703      0.000      0.000
REMARK INTER + INTRA:          -2.940
REMARK INTER:                  -2.940
REMARK INTRA:                   0.000
REMARK UNBOUND:                 0.000
REMARK SMILES [NH3+]CC(=O)[O-]
REMARK SMILES IDX 2 1 1 2 3 6 4 7 5 8
REMARK H PARENT 1 3 1 4 1 5
REMARK Flexibility Score: inf
ROOT
ATOM      1  C   UNL     1       4.696   9.901  14.677  1.00  0.00     0.312 C 
ENDROOT
BRANCH   1   2
ATOM      2  N   UNL     1       3.477   9.155  14.984  1.00  0.00    -0.353 N 
ATOM      3  H   UNL     1       3.084   9.471  15.901  1.00  0.00     0.344 HD
ATOM      4  H   UNL     1       2.769   9.298  14.227  1.00  0.00     0.344 HD
ATOM      5  H   UNL     1       3.706   8.137  15.045  1.00  0.00     0.344 HD
ENDBRANCH   1   2
BRANCH   1   6
ATOM      6  C   UNL     1       4.579  11.319  15.142  1.00  0.00     0.096 C 
ATOM      7  O   UNL     1       4.975  11.642  16.294  1.00  0.00    -0.544 OA
ATOM      8  O   UNL     1       3.985  12.273  14.326  1.00  0.00    -0.544 OA
ENDBRANCH   1   6
TORSDOF 2
ENDMDL
MODEL 2
REMARK VINA RESULT:    -2.645      9.700     10.185
REMARK INTER + INTRA:          -2.877
REMARK INTER:                  -2.877
REMARK INTRA:                   0.000
REMARK UNBOUND:                 0.000
REMARK SMILES [NH3+]CC(=O)[O-]
REMARK SMILES IDX 2 1 1 2 3 6 4 7 5 8
REMARK H PARENT 1 3 1 4 1 5
REMARK Flexibility Score: inf
ROOT
ATOM      1  C   UNL     1       5.385  21.181  12.721  1.00  0.00     0.312 C 
ENDROOT
BRANCH   1   2
ATOM      2  N   UNL     1       4.561  21.936  11.778  1.00  0.00    -0.353 N 
ATOM      3  H   UNL     1       4.661  22.962  11.956  1.00  0.00     0.344 HD
ATOM      4  H   UNL     1       4.847  21.716  10.796  1.00  0.00     0.344 HD
ATOM      5  H   UNL     1       3.560  21.665  11.907  1.00  0.00     0.344 HD
ENDBRANCH   1   2
BRANCH   1   6
ATOM      6  C   UNL     1       5.539  19.761  12.270  1.00  0.00     0.096 C 
ATOM      7  O   UNL     1       6.490  19.438  11.510  1.00  0.00    -0.544 OA
ATOM      8  O   UNL     1       4.603  18.807  12.646  1.00  0.00    -0.544 OA
ENDBRANCH   1   6
TORSDOF 2
ENDMDL
MODEL 3
REMARK VINA RESULT:    -2.633      9.865     10.328
REMARK INTER + INTRA:          -2.864
REMARK INTER:                  -2.864
REMARK INTRA:                   0.000
REMARK UNBOUND:                 0.000
REMARK SMILES [NH3+]CC(=O)[O-]
REMARK SMILES IDX 2 1 1 2 3 6 4 7 5 8
REMARK H PARENT 1 3 1 4 1 5
REMARK Flexibility Score: inf
ROOT
ATOM      1  C   UNL     1       5.412  21.332  12.726  1.00  0.00     0.312 C 
ENDROOT
BRANCH   1   2
ATOM      2  N   UNL     1       4.538  21.934  11.721  1.00  0.00    -0.353 N 
ATOM      3  H   UNL     1       4.924  21.768  10.763  1.00  0.00     0.344 HD
ATOM      4  H   UNL     1       3.577  21.525  11.790  1.00  0.00     0.344 HD
ATOM      5  H   UNL     1       4.480  22.963  11.890  1.00  0.00     0.344 HD
ENDBRANCH   1   2
BRANCH   1   6
ATOM      6  C   UNL     1       5.793  19.939  12.330  1.00  0.00     0.096 C 
ATOM      7  O   UNL     1       4.931  19.019  12.343  1.00  0.00    -0.544 OA
ATOM      8  O   UNL     1       7.108  19.645  11.997  1.00  0.00    -0.544 OA
ENDBRANCH   1   6
TORSDOF 2
ENDMDL
MODEL 4
REMARK VINA RESULT:    -2.625     14.770     15.009
REMARK INTER + INTRA:          -2.855
REMARK INTER:                  -2.855
REMARK INTRA:                   0.000
REMARK UNBOUND:                 0.000
REMARK SMILES [NH3+]CC(=O)[O-]
REMARK SMILES IDX 2 1 1 2 3 6 4 7 5 8
REMARK H PARENT 1 3 1 4 1 5
REMARK Flexibility Score: inf
ROOT
ATOM      1  C   UNL     1      -8.597  13.887  19.108  1.00  0.00     0.312 C 
ENDROOT
BRANCH   1   2
ATOM      2  N   UNL     1      -8.114  14.116  17.747  1.00  0.00    -0.353 N 
ATOM      3  H   UNL     1      -7.716  13.231  17.355  1.00  0.00     0.344 HD
ATOM      4  H   UNL     1      -8.896  14.452  17.140  1.00  0.00     0.344 HD
ATOM      5  H   UNL     1      -7.365  14.844  17.769  1.00  0.00     0.344 HD
ENDBRANCH   1   2
BRANCH   1   6
ATOM      6  C   UNL     1     -10.094  13.907  19.147  1.00  0.00     0.096 C 
ATOM      7  O   UNL     1     -10.757  13.102  18.439  1.00  0.00    -0.544 OA
ATOM      8  O   UNL     1     -10.758  14.846  19.925  1.00  0.00    -0.544 OA
ENDBRANCH   1   6
TORSDOF 2
ENDMDL
MODEL 5
REMARK VINA RESULT:    -2.542      9.932     10.188
REMARK INTER + INTRA:          -2.764
REMARK INTER:                  -2.764
REMARK INTRA:                   0.000
REMARK UNBOUND:                 0.000
REMARK SMILES [NH3+]CC(=O)[O-]
REMARK SMILES IDX 2 1 1 2 3 6 4 7 5 8
REMARK H PARENT 1 3 1 4 1 5
REMARK Flexibility Score: inf
ROOT
ATOM      1  C   UNL     1       5.661  19.364  12.039  1.00  0.00     0.312 C 
ENDROOT
BRANCH   1   2
ATOM      2  N   UNL     1       6.406  19.001  10.835  1.00  0.00    -0.353 N 
ATOM      3  H   UNL     1       6.475  17.960  10.755  1.00  0.00     0.344 HD
ATOM      4  H   UNL     1       5.930  19.390   9.988  1.00  0.00     0.344 HD
ATOM      5  H   UNL     1       7.369  19.401  10.896  1.00  0.00     0.344 HD
ENDBRANCH   1   2
BRANCH   1   6
ATOM      6  C   UNL     1       6.097  20.703  12.547  1.00  0.00     0.096 C 
ATOM      7  O   UNL     1       5.240  21.570  12.865  1.00  0.00    -0.544 OA
ATOM      8  O   UNL     1       7.449  21.012  12.622  1.00  0.00    -0.544 OA
ENDBRANCH   1   6
TORSDOF 2
ENDMDL
MODEL 6
REMARK VINA RESULT:    -2.513      2.357      2.530
REMARK INTER + INTRA:          -2.733
REMARK INTER:                  -2.733
REMARK INTRA:                   0.000
REMARK UNBOUND:                 0.000
REMARK SMILES [NH3+]CC(=O)[O-]
REMARK SMILES IDX 2 1 1 2 3 6 4 7 5 8
REMARK H PARENT 1 3 1 4 1 5
REMARK Flexibility Score: inf
ROOT
ATOM      1  C   UNL     1       4.702  11.664  15.392  1.00  0.00     0.312 C 
ENDROOT
BRANCH   1   2
ATOM      2  N   UNL     1       4.647  12.037  16.804  1.00  0.00    -0.353 N 
ATOM      3  H   UNL     1       5.616  12.136  17.187  1.00  0.00     0.344 HD
ATOM      4  H   UNL     1       4.127  12.938  16.917  1.00  0.00     0.344 HD
ATOM      5  H   UNL     1       4.148  11.289  17.336  1.00  0.00     0.344 HD
ENDBRANCH   1   2
BRANCH   1   6
ATOM      6  C   UNL     1       5.230  10.272  15.233  1.00  0.00     0.096 C 
ATOM      7  O   UNL     1       6.327   9.947  15.759  1.00  0.00    -0.544 OA
ATOM      8  O   UNL     1       4.536   9.349  14.461  1.00  0.00    -0.544 OA
ENDBRANCH   1   6
TORSDOF 2
ENDMDL
MODEL 7
REMARK VINA RESULT:    -2.512     13.709     13.927
REMARK INTER + INTRA:          -2.733
REMARK INTER:                  -2.733
REMARK INTRA:                   0.000
REMARK UNBOUND:                 0.000
REMARK SMILES [NH3+]CC(=O)[O-]
REMARK SMILES IDX 2 1 1 2 3 6 4 7 5 8
REMARK H PARENT 1 3 1 4 1 5
REMARK Flexibility Score: inf
ROOT
ATOM      1  C   UNL     1      -7.730  13.588  19.881  1.00  0.00     0.312 C 
ENDROOT
BRANCH   1   2
ATOM      2  N   UNL     1      -7.244  12.400  19.181  1.00  0.00    -0.353 N 
ATOM      3  H   UNL     1      -7.736  12.297  18.264  1.00  0.00     0.344 HD
ATOM      4  H   UNL     1      -6.212  12.475  19.023  1.00  0.00     0.344 HD
ATOM      5  H   UNL     1      -7.436  11.556  19.766  1.00  0.00     0.344 HD
ENDBRANCH   1   2
BRANCH   1   6
ATOM      6  C   UNL     1      -8.911  14.174  19.169  1.00  0.00     0.096 C 
ATOM      7  O   UNL     1      -9.891  14.615  19.826  1.00  0.00    -0.544 OA
ATOM      8  O   UNL     1      -8.950  14.186  17.782  1.00  0.00    -0.544 OA
ENDBRANCH   1   6
TORSDOF 2
ENDMDL
MODEL 8
REMARK VINA RESULT:    -2.474      1.276      1.648
REMARK INTER + INTRA:          -2.691
REMARK INTER:                  -2.691
REMARK INTRA:                   0.000
REMARK UNBOUND:                 0.000
REMARK SMILES [NH3+]CC(=O)[O-]
REMARK SMILES IDX 2 1 1 2 3 6 4 7 5 8
REMARK H PARENT 1 3 1 4 1 5
REMARK Flexibility Score: inf
ROOT
ATOM      1  C   UNL     1       4.653   9.940  14.454  1.00  0.00     0.312 C 
ENDROOT
BRANCH   1   2
ATOM      2  N   UNL     1       3.511   9.232  15.031  1.00  0.00    -0.353 N 
ATOM      3  H   UNL     1       2.902   8.853  14.269  1.00  0.00     0.344 HD
ATOM      4  H   UNL     1       3.845   8.450  15.639  1.00  0.00     0.344 HD
ATOM      5  H   UNL     1       2.954   9.898  15.611  1.00  0.00     0.344 HD
ENDBRANCH   1   2
BRANCH   1   6
ATOM      6  C   UNL     1       5.561  10.445  15.532  1.00  0.00     0.096 C 
ATOM      7  O   UNL     1       6.547   9.755  15.904  1.00  0.00    -0.544 OA
ATOM      8  O   UNL     1       5.290  11.653  16.161  1.00  0.00    -0.544 OA
ENDBRANCH   1   6
TORSDOF 2
ENDMDL
MODEL 9
REMARK VINA RESULT:    -2.388      9.182      9.552
REMARK INTER + INTRA:          -2.598
REMARK INTER:                  -2.598
REMARK INTRA:                   0.000
REMARK UNBOUND:                 0.000
REMARK SMILES [NH3+]CC(=O)[O-]
REMARK SMILES IDX 2 1 1 2 3 6 4 7 5 8
REMARK H PARENT 1 3 1 4 1 5
REMARK Flexibility Score: inf
ROOT
ATOM      1  C   UNL     1       6.887  19.335  11.775  1.00  0.00     0.312 C 
ENDROOT
BRANCH   1   2
ATOM      2  N   UNL     1       6.692  18.868  10.404  1.00  0.00    -0.353 N 
ATOM      3  H   UNL     1       7.524  18.316  10.091  1.00  0.00     0.344 HD
ATOM      4  H   UNL     1       5.832  18.275  10.346  1.00  0.00     0.344 HD
ATOM      5  H   UNL     1       6.577  19.694   9.775  1.00  0.00     0.344 HD
ENDBRANCH   1   2
BRANCH   1   6
ATOM      6  C   UNL     1       5.583  19.748  12.384  1.00  0.00     0.096 C 
ATOM      7  O   UNL     1       4.674  18.896  12.571  1.00  0.00    -0.544 OA
ATOM      8  O   UNL     1       5.351  21.081  12.695  1.00  0.00    -0.544 OA
ENDBRANCH   1   6
TORSDOF 2
ENDMDL
