MODEL 1
REMARK VINA RESULT:    -1.571      0.000      0.000
REMARK INTER + INTRA:          -2.677
REMARK INTER:                  -2.306
REMARK INTRA:                  -0.371
REMARK UNBOUND:                -0.371
REMARK SMILES O=C([O-])CCCCCCCC(=O)[O-]
REMARK SMILES IDX 7 1 6 2 5 3 4 4 2 5 1 6 3 7 8 8 9 9 10 10 11 11 12 12 13 13
REMARK H PARENT
REMARK Flexibility Score: inf
ROOT
ATOM      1  C   UNL     1      28.884 -10.111  16.667  1.00  0.00     0.000 C 
ENDROOT
BRANCH   1   2
ATOM      2  C   UNL     1      28.033 -10.318  17.934  1.00  0.00     0.000 C 
BRANCH   2   3
ATOM      3  C   UNL     1      28.762 -11.125  19.021  1.00  0.00     0.006 C 
BRANCH   3   4
ATOM      4  C   UNL     1      28.494 -10.576  20.429  1.00  0.00     0.053 C 
BRANCH   4   5
ATOM      5  C   UNL     1      29.687  -9.859  20.985  1.00  0.00     0.041 C 
ATOM      6  O   UNL     1      29.733  -9.563  22.208  1.00  0.00    -0.550 OA
ATOM      7  O   UNL     1      30.758  -9.543  20.158  1.00  0.00    -0.550 OA
ENDBRANCH   4   5
ENDBRANCH   3   4
ENDBRANCH   2   3
ENDBRANCH   1   2
BRANCH   1   8
ATOM      8  C   UNL     1      30.128 -11.012  16.561  1.00  0.00     0.000 C 
BRANCH   8   9
ATOM      9  C   UNL     1      30.885 -10.834  15.234  1.00  0.00     0.006 C 
BRANCH   9  10
ATOM     10  C   UNL     1      29.990 -11.097  14.016  1.00  0.00     0.053 C 
BRANCH  10  11
ATOM     11  C   UNL     1      30.388 -10.260  12.841  1.00  0.00     0.041 C 
ATOM     12  O   UNL     1      30.079 -10.616  11.673  1.00  0.00    -0.550 OA
ATOM     13  O   UNL     1      31.125  -9.098  13.033  1.00  0.00    -0.550 OA
ENDBRANCH  10  11
ENDBRANCH   9  10
ENDBRANCH   8   9
ENDBRANCH   1   8
TORSDOF 8
ENDMDL
MODEL 2
REMARK VINA RESULT:    -1.486      1.681      7.018
REMARK INTER + INTRA:          -2.551
REMARK INTER:                  -2.218
REMARK INTRA:                  -0.333
REMARK UNBOUND:                -0.371
REMARK SMILES O=C([O-])CCCCCCCC(=O)[O-]
REMARK SMILES IDX 7 1 6 2 5 3 4 4 2 5 1 6 3 7 8 8 9 9 10 10 11 11 12 12 13 13
REMARK H PARENT
REMARK Flexibility Score: inf
ROOT
ATOM      1  C   UNL     1      30.199 -10.198  14.736  1.00  0.00     0.000 C 
ENDROOT
BRANCH   1   2
ATOM      2  C   UNL     1      29.323 -11.095  13.842  1.00  0.00     0.000 C 
BRANCH   2   3
ATOM      3  C   UNL     1      29.410 -10.725  12.352  1.00  0.00     0.006 C 
BRANCH   3   4
ATOM      4  C   UNL     1      30.822 -10.278  11.946  1.00  0.00     0.053 C 
BRANCH   4   5
ATOM      5  C   UNL     1      30.802  -8.981  11.197  1.00  0.00     0.041 C 
ATOM      6  O   UNL     1      30.904  -8.974   9.941  1.00  0.00    -0.550 OA
ATOM      7  O   UNL     1      30.645  -7.782  11.881  1.00  0.00    -0.550 OA
ENDBRANCH   4   5
ENDBRANCH   3   4
ENDBRANCH   2   3
ENDBRANCH   1   2
BRANCH   1   8
ATOM      8  C   UNL     1      31.032 -10.944  15.794  1.00  0.00     0.000 C 
BRANCH   8   9
ATOM      9  C   UNL     1      30.285 -11.122  17.128  1.00  0.00     0.006 C 
BRANCH   9  10
ATOM     10  C   UNL     1      30.560  -9.970  18.103  1.00  0.00     0.053 C 
BRANCH  10  11
ATOM     11  C   UNL     1      29.367  -9.669  18.958  1.00  0.00     0.041 C 
ATOM     12  O   UNL     1      29.250 -10.199  20.094  1.00  0.00    -0.550 OA
ATOM     13  O   UNL     1      28.371  -8.823  18.487  1.00  0.00    -0.550 OA
ENDBRANCH  10  11
ENDBRANCH   9  10
ENDBRANCH   8   9
ENDBRANCH   1   8
TORSDOF 8
ENDMDL
MODEL 3
REMARK VINA RESULT:    -1.473      2.216      3.082
REMARK INTER + INTRA:          -2.533
REMARK INTER:                  -1.920
REMARK INTRA:                  -0.613
REMARK UNBOUND:                -0.371
REMARK SMILES O=C([O-])CCCCCCCC(=O)[O-]
REMARK SMILES IDX 7 1 6 2 5 3 4 4 2 5 1 6 3 7 8 8 9 9 10 10 11 11 12 12 13 13
REMARK H PARENT
REMARK Flexibility Score: inf
ROOT
ATOM      1  C   UNL     1      30.124  -9.301  15.141  1.00  0.00     0.000 C 
ENDROOT
BRANCH   1   2
ATOM      2  C   UNL     1      31.123  -9.940  16.123  1.00  0.00     0.000 C 
BRANCH   2   3
ATOM      3  C   UNL     1      30.508 -11.082  16.948  1.00  0.00     0.006 C 
BRANCH   3   4
ATOM      4  C   UNL     1      29.078 -10.762  17.405  1.00  0.00     0.053 C 
BRANCH   4   5
ATOM      5  C   UNL     1      28.988 -10.617  18.894  1.00  0.00     0.041 C 
ATOM      6  O   UNL     1      28.018 -11.119  19.521  1.00  0.00    -0.550 OA
ATOM      7  O   UNL     1      29.988  -9.950  19.591  1.00  0.00    -0.550 OA
ENDBRANCH   4   5
ENDBRANCH   3   4
ENDBRANCH   2   3
ENDBRANCH   1   2
BRANCH   1   8
ATOM      8  C   UNL     1      30.282  -9.737  13.673  1.00  0.00     0.000 C 
BRANCH   8   9
ATOM      9  C   UNL     1      29.349 -10.899  13.289  1.00  0.00     0.006 C 
BRANCH   9  10
ATOM     10  C   UNL     1      27.899 -10.645  13.723  1.00  0.00     0.053 C 
BRANCH  10  11
ATOM     11  C   UNL     1      26.992 -10.453  12.547  1.00  0.00     0.041 C 
ATOM     12  O   UNL     1      27.405 -10.689  11.381  1.00  0.00    -0.550 OA
ATOM     13  O   UNL     1      25.697  -9.987  12.737  1.00  0.00    -0.550 OA
ENDBRANCH  10  11
ENDBRANCH   9  10
ENDBRANCH   8   9
ENDBRANCH   1   8
TORSDOF 8
ENDMDL
MODEL 4
REMARK VINA RESULT:    -1.447      1.540      2.242
REMARK INTER + INTRA:          -2.495
REMARK INTER:                  -1.926
REMARK INTRA:                  -0.570
REMARK UNBOUND:                -0.371
REMARK SMILES O=C([O-])CCCCCCCC(=O)[O-]
REMARK SMILES IDX 7 1 6 2 5 3 4 4 2 5 1 6 3 7 8 8 9 9 10 10 11 11 12 12 13 13
REMARK H PARENT
REMARK Flexibility Score: inf
ROOT
ATOM      1  C   UNL     1      29.205  -9.824  18.296  1.00  0.00     0.000 C 
ENDROOT
BRANCH   1   2
ATOM      2  C   UNL     1      30.072  -8.551  18.324  1.00  0.00     0.000 C 
BRANCH   2   3
ATOM      3  C   UNL     1      30.911  -8.425  19.606  1.00  0.00     0.006 C 
BRANCH   3   4
ATOM      4  C   UNL     1      30.720  -9.624  20.545  1.00  0.00     0.053 C 
BRANCH   4   5
ATOM      5  C   UNL     1      30.176  -9.208  21.877  1.00  0.00     0.041 C 
ATOM      6  O   UNL     1      30.094  -7.987  22.174  1.00  0.00    -0.550 OA
ATOM      7  O   UNL     1      29.733 -10.167  22.780  1.00  0.00    -0.550 OA
ENDBRANCH   4   5
ENDBRANCH   3   4
ENDBRANCH   2   3
ENDBRANCH   1   2
BRANCH   1   8
ATOM      8  C   UNL     1      29.478 -10.775  17.116  1.00  0.00     0.000 C 
BRANCH   8   9
ATOM      9  C   UNL     1      30.954 -10.783  16.682  1.00  0.00     0.006 C 
BRANCH   9  10
ATOM     10  C   UNL     1      31.112 -11.020  15.174  1.00  0.00     0.053 C 
BRANCH  10  11
ATOM     11  C   UNL     1      30.360 -10.007  14.369  1.00  0.00     0.041 C 
ATOM     12  O   UNL     1      30.646  -8.784  14.460  1.00  0.00    -0.550 OA
ATOM     13  O   UNL     1      29.324 -10.411  13.536  1.00  0.00    -0.550 OA
ENDBRANCH  10  11
ENDBRANCH   9  10
ENDBRANCH   8   9
ENDBRANCH   1   8
TORSDOF 8
ENDMDL
MODEL 5
REMARK VINA RESULT:    -1.439      2.144      2.745
REMARK INTER + INTRA:          -2.483
REMARK INTER:                  -1.959
REMARK INTRA:                  -0.523
REMARK UNBOUND:                -0.371
REMARK SMILES O=C([O-])CCCCCCCC(=O)[O-]
REMARK SMILES IDX 7 1 6 2 5 3 4 4 2 5 1 6 3 7 8 8 9 9 10 10 11 11 12 12 13 13
REMARK H PARENT
REMARK Flexibility Score: inf
ROOT
ATOM      1  C   UNL     1      28.081  -9.966  18.704  1.00  0.00     0.000 C 
ENDROOT
BRANCH   1   2
ATOM      2  C   UNL     1      28.179  -9.592  20.195  1.00  0.00     0.000 C 
BRANCH   2   3
ATOM      3  C   UNL     1      28.593 -10.775  21.085  1.00  0.00     0.006 C 
BRANCH   3   4
ATOM      4  C   UNL     1      29.807 -10.442  21.964  1.00  0.00     0.053 C 
BRANCH   4   5
ATOM      5  C   UNL     1      29.424 -10.275  23.403  1.00  0.00     0.041 C 
ATOM      6  O   UNL     1      28.577  -9.405  23.735  1.00  0.00    -0.550 OA
ATOM      7  O   UNL     1      29.983 -11.097  24.374  1.00  0.00    -0.550 OA
ENDBRANCH   4   5
ENDBRANCH   3   4
ENDBRANCH   2   3
ENDBRANCH   1   2
BRANCH   1   8
ATOM      8  C   UNL     1      29.192 -10.900  18.191  1.00  0.00     0.000 C 
BRANCH   8   9
ATOM      9  C   UNL     1      30.524 -10.171  17.951  1.00  0.00     0.006 C 
BRANCH   9  10
ATOM     10  C   UNL     1      30.484  -9.290  16.695  1.00  0.00     0.053 C 
BRANCH  10  11
ATOM     11  C   UNL     1      30.197 -10.091  15.462  1.00  0.00     0.041 C 
ATOM     12  O   UNL     1      29.150  -9.879  14.797  1.00  0.00    -0.550 OA
ATOM     13  O   UNL     1      31.075 -11.091  15.063  1.00  0.00    -0.550 OA
ENDBRANCH  10  11
ENDBRANCH   9  10
ENDBRANCH   8   9
ENDBRANCH   1   8
TORSDOF 8
ENDMDL
MODEL 6
REMARK VINA RESULT:    -1.431      1.489      6.899
REMARK INTER + INTRA:          -2.470
REMARK INTER:                  -1.999
REMARK INTRA:                  -0.471
REMARK UNBOUND:                -0.371
REMARK SMILES O=C([O-])CCCCCCCC(=O)[O-]
REMARK SMILES IDX 7 1 6 2 5 3 4 4 2 5 1 6 3 7 8 8 9 9 10 10 11 11 12 12 13 13
REMARK H PARENT
REMARK Flexibility Score: inf
ROOT
ATOM      1  C   UNL     1      29.020  -9.117  15.576  1.00  0.00     0.000 C 
ENDROOT
BRANCH   1   2
ATOM      2  C   UNL     1      30.517  -9.190  15.218  1.00  0.00     0.000 C 
BRANCH   2   3
ATOM      3  C   UNL     1      30.887 -10.465  14.444  1.00  0.00     0.006 C 
BRANCH   3   4
ATOM      4  C   UNL     1      29.663 -11.124  13.792  1.00  0.00     0.053 C 
BRANCH   4   5
ATOM      5  C   UNL     1      29.601 -10.852  12.320  1.00  0.00     0.041 C 
ATOM      6  O   UNL     1      30.644 -10.534  11.690  1.00  0.00    -0.550 OA
ATOM      7  O   UNL     1      28.396 -10.974  11.638  1.00  0.00    -0.550 OA
ENDBRANCH   4   5
ENDBRANCH   3   4
ENDBRANCH   2   3
ENDBRANCH   1   2
BRANCH   1   8
ATOM      8  C   UNL     1      28.708  -9.130  17.084  1.00  0.00     0.000 C 
BRANCH   8   9
ATOM      9  C   UNL     1      29.423 -10.265  17.835  1.00  0.00     0.006 C 
BRANCH   9  10
ATOM     10  C   UNL     1      29.885  -9.834  19.233  1.00  0.00     0.053 C 
BRANCH  10  11
ATOM     11  C   UNL     1      29.083 -10.494  20.312  1.00  0.00     0.041 C 
ATOM     12  O   UNL     1      29.506 -10.511  21.498  1.00  0.00    -0.550 OA
ATOM     13  O   UNL     1      27.879 -11.114  20.003  1.00  0.00    -0.550 OA
ENDBRANCH  10  11
ENDBRANCH   9  10
ENDBRANCH   8   9
ENDBRANCH   1   8
TORSDOF 8
ENDMDL
MODEL 7
REMARK VINA RESULT:    -1.430      1.633      7.206
REMARK INTER + INTRA:          -2.469
REMARK INTER:                  -2.140
REMARK INTRA:                  -0.330
REMARK UNBOUND:                -0.371
REMARK SMILES O=C([O-])CCCCCCCC(=O)[O-]
REMARK SMILES IDX 7 1 6 2 5 3 4 4 2 5 1 6 3 7 8 8 9 9 10 10 11 11 12 12 13 13
REMARK H PARENT
REMARK Flexibility Score: inf
ROOT
ATOM      1  C   UNL     1      29.659  -9.107  18.114  1.00  0.00     0.000 C 
ENDROOT
BRANCH   1   2
ATOM      2  C   UNL     1      30.489 -10.387  17.898  1.00  0.00     0.000 C 
BRANCH   2   3
ATOM      3  C   UNL     1      30.151 -11.105  16.581  1.00  0.00     0.006 C 
BRANCH   3   4
ATOM      4  C   UNL     1      31.023 -10.619  15.415  1.00  0.00     0.053 C 
BRANCH   4   5
ATOM      5  C   UNL     1      30.197 -10.193  14.240  1.00  0.00     0.041 C 
ATOM      6  O   UNL     1      29.298  -9.322  14.381  1.00  0.00    -0.550 OA
ATOM      7  O   UNL     1      30.437 -10.737  12.984  1.00  0.00    -0.550 OA
ENDBRANCH   4   5
ENDBRANCH   3   4
ENDBRANCH   2   3
ENDBRANCH   1   2
BRANCH   1   8
ATOM      8  C   UNL     1      29.330  -8.782  19.582  1.00  0.00     0.000 C 
BRANCH   8   9
ATOM      9  C   UNL     1      30.037  -9.718  20.577  1.00  0.00     0.006 C 
BRANCH   9  10
ATOM     10  C   UNL     1      29.109 -10.161  21.715  1.00  0.00     0.053 C 
BRANCH  10  11
ATOM     11  C   UNL     1      29.876 -10.533  22.946  1.00  0.00     0.041 C 
ATOM     12  O   UNL     1      31.125 -10.687  22.894  1.00  0.00    -0.550 OA
ATOM     13  O   UNL     1      29.208 -10.735  24.147  1.00  0.00    -0.550 OA
ENDBRANCH  10  11
ENDBRANCH   9  10
ENDBRANCH   8   9
ENDBRANCH   1   8
TORSDOF 8
ENDMDL
