MODEL 1
REMARK VINA RESULT:    -5.036      0.000      0.000
REMARK INTER + INTRA:          -5.666
REMARK INTER:                  -5.624
REMARK INTRA:                  -0.041
REMARK UNBOUND:                -0.041
REMARK SMILES O=C([O-])c1ccc(O)c(O)c1
REMARK SMILES IDX 4 1 11 2 5 3 9 4 6 5 7 6 2 7 1 8 3 9 10 10 8 12
REMARK H PARENT 10 11 8 13
REMARK Flexibility Score: inf
ROOT
ATOM      1  C   UNL     1     -41.229   3.031 -13.983  1.00  0.00     0.001 A 
ATOM      2  C   UNL     1     -41.970   4.206 -14.187  1.00  0.00     0.060 A 
ATOM      3  C   UNL     1     -41.574   1.875 -14.700  1.00  0.00     0.014 A 
ATOM      4  C   UNL     1     -43.040   4.236 -15.091  1.00  0.00     0.158 A 
ATOM      5  C   UNL     1     -42.639   1.896 -15.603  1.00  0.00     0.051 A 
ATOM      6  C   UNL     1     -43.379   3.065 -15.808  1.00  0.00     0.157 A 
ENDROOT
BRANCH   1   7
ATOM      7  C   UNL     1     -40.101   3.015 -13.024  1.00  0.00     0.072 C 
ATOM      8  O   UNL     1     -39.375   4.033 -12.872  1.00  0.00    -0.545 OA
ATOM      9  O   UNL     1     -39.828   1.876 -12.276  1.00  0.00    -0.545 OA
ENDBRANCH   1   7
BRANCH   4  10
ATOM     10  O   UNL     1     -43.732   5.439 -15.242  1.00  0.00    -0.504 OA
ATOM     11  H   UNL     1     -44.458   5.755 -14.615  1.00  0.00     0.293 HD
ENDBRANCH   4  10
BRANCH   6  12
ATOM     12  O   UNL     1     -44.431   3.018 -16.725  1.00  0.00    -0.504 OA
ATOM     13  H   UNL     1     -45.382   2.783 -16.481  1.00  0.00     0.293 HD
ENDBRANCH   6  12
TORSDOF 3
ENDMDL
MODEL 2
REMARK VINA RESULT:    -4.790      2.312      4.533
REMARK INTER + INTRA:          -5.392
REMARK INTER:                  -5.355
REMARK INTRA:                  -0.037
REMARK UNBOUND:                -0.041
REMARK SMILES O=C([O-])c1ccc(O)c(O)c1
REMARK SMILES IDX 4 1 11 2 5 3 9 4 6 5 7 6 2 7 1 8 3 9 10 10 8 12
REMARK H PARENT 10 11 8 13
REMARK Flexibility Score: inf
ROOT
ATOM      1  C   UNL     1     -40.715   2.903 -13.859  1.00  0.00     0.001 A 
ATOM      2  C   UNL     1     -40.368   4.233 -14.150  1.00  0.00     0.060 A 
ATOM      3  C   UNL     1     -40.088   2.256 -12.782  1.00  0.00     0.014 A 
ATOM      4  C   UNL     1     -39.412   4.913 -13.384  1.00  0.00     0.158 A 
ATOM      5  C   UNL     1     -39.133   2.927 -12.015  1.00  0.00     0.051 A 
ATOM      6  C   UNL     1     -38.786   4.251 -12.303  1.00  0.00     0.157 A 
ENDROOT
BRANCH   1   7
ATOM      7  C   UNL     1     -41.727   2.197 -14.676  1.00  0.00     0.072 C 
ATOM      8  O   UNL     1     -42.842   1.880 -14.183  1.00  0.00    -0.545 OA
ATOM      9  O   UNL     1     -41.461   1.875 -16.002  1.00  0.00    -0.545 OA
ENDBRANCH   1   7
BRANCH   4  10
ATOM     10  O   UNL     1     -39.117   6.232 -13.733  1.00  0.00    -0.504 OA
ATOM     11  H   UNL     1     -39.668   6.783 -14.376  1.00  0.00     0.293 HD
ENDBRANCH   4  10
BRANCH   6  12
ATOM     12  O   UNL     1     -37.824   4.863 -11.496  1.00  0.00    -0.504 OA
ATOM     13  H   UNL     1     -36.831   4.706 -11.584  1.00  0.00     0.293 HD
ENDBRANCH   6  12
TORSDOF 3
ENDMDL
MODEL 3
REMARK VINA RESULT:    -4.778      2.045      4.967
REMARK INTER + INTRA:          -5.378
REMARK INTER:                  -5.342
REMARK INTRA:                  -0.036
REMARK UNBOUND:                -0.041
REMARK SMILES O=C([O-])c1ccc(O)c(O)c1
REMARK SMILES IDX 4 1 11 2 5 3 9 4 6 5 7 6 2 7 1 8 3 9 10 10 8 12
REMARK H PARENT 10 11 8 13
REMARK Flexibility Score: inf
ROOT
ATOM      1  C   UNL     1     -40.706   2.961 -13.981  1.00  0.00     0.001 A 
ATOM      2  C   UNL     1     -40.006   2.275 -12.976  1.00  0.00     0.060 A 
ATOM      3  C   UNL     1     -40.458   4.329 -14.172  1.00  0.00     0.014 A 
ATOM      4  C   UNL     1     -39.069   2.936 -12.170  1.00  0.00     0.158 A 
ATOM      5  C   UNL     1     -39.526   4.996 -13.373  1.00  0.00     0.051 A 
ATOM      6  C   UNL     1     -38.827   4.315 -12.371  1.00  0.00     0.157 A 
ENDROOT
BRANCH   1   7
ATOM      7  C   UNL     1     -41.693   2.250 -14.824  1.00  0.00     0.072 C 
ATOM      8  O   UNL     1     -42.839   1.974 -14.377  1.00  0.00    -0.545 OA
ATOM      9  O   UNL     1     -41.370   1.875 -16.123  1.00  0.00    -0.545 OA
ENDBRANCH   1   7
BRANCH   4  10
ATOM     10  O   UNL     1     -38.410   2.190 -11.191  1.00  0.00    -0.504 OA
ATOM     11  H   UNL     1     -38.718   2.122 -10.231  1.00  0.00     0.293 HD
ENDBRANCH   4  10
BRANCH   6  12
ATOM     12  O   UNL     1     -37.909   5.040 -11.608  1.00  0.00    -0.504 OA
ATOM     13  H   UNL     1     -37.883   5.031 -10.599  1.00  0.00     0.293 HD
ENDBRANCH   6  12
TORSDOF 3
ENDMDL
MODEL 4
REMARK VINA RESULT:    -4.578     18.063     18.810
REMARK INTER + INTRA:          -5.154
REMARK INTER:                  -5.111
REMARK INTRA:                  -0.043
REMARK UNBOUND:                -0.041
REMARK SMILES O=C([O-])c1ccc(O)c(O)c1
REMARK SMILES IDX 4 1 11 2 5 3 9 4 6 5 7 6 2 7 1 8 3 9 10 10 8 12
REMARK H PARENT 10 11 8 13
REMARK Flexibility Score: inf
ROOT
ATOM      1  C   UNL     1     -32.098  17.990 -22.050  1.00  0.00     0.001 A 
ATOM      2  C   UNL     1     -33.144  17.148 -21.638  1.00  0.00     0.060 A 
ATOM      3  C   UNL     1     -31.436  17.712 -23.256  1.00  0.00     0.014 A 
ATOM      4  C   UNL     1     -33.529  16.045 -22.411  1.00  0.00     0.158 A 
ATOM      5  C   UNL     1     -31.814  16.615 -24.032  1.00  0.00     0.051 A 
ATOM      6  C   UNL     1     -32.855  15.775 -23.624  1.00  0.00     0.157 A 
ENDROOT
BRANCH   1   7
ATOM      7  C   UNL     1     -31.702  19.152 -21.223  1.00  0.00     0.072 C 
ATOM      8  O   UNL     1     -31.095  20.129 -21.738  1.00  0.00    -0.545 OA
ATOM      9  O   UNL     1     -31.994  19.182 -19.864  1.00  0.00    -0.545 OA
ENDBRANCH   1   7
BRANCH   4  10
ATOM     10  O   UNL     1     -34.577  15.253 -21.938  1.00  0.00    -0.504 OA
ATOM     11  H   UNL     1     -35.554  15.466 -22.079  1.00  0.00     0.293 HD
ENDBRANCH   4  10
BRANCH   6  12
ATOM     12  O   UNL     1     -33.183  14.695 -24.447  1.00  0.00    -0.504 OA
ATOM     13  H   UNL     1     -33.786  13.935 -24.166  1.00  0.00     0.293 HD
ENDBRANCH   6  12
TORSDOF 3
ENDMDL
MODEL 5
REMARK VINA RESULT:    -4.168     16.763     17.640
REMARK INTER + INTRA:          -4.697
REMARK INTER:                  -4.659
REMARK INTRA:                  -0.038
REMARK UNBOUND:                -0.041
REMARK SMILES O=C([O-])c1ccc(O)c(O)c1
REMARK SMILES IDX 4 1 11 2 5 3 9 4 6 5 7 6 2 7 1 8 3 9 10 10 8 12
REMARK H PARENT 10 11 8 13
REMARK Flexibility Score: inf
ROOT
ATOM      1  C   UNL     1     -32.443  16.101 -22.453  1.00  0.00     0.001 A 
ATOM      2  C   UNL     1     -33.836  16.249 -22.550  1.00  0.00     0.060 A 
ATOM      3  C   UNL     1     -31.845  16.100 -21.183  1.00  0.00     0.014 A 
ATOM      4  C   UNL     1     -34.628  16.393 -21.403  1.00  0.00     0.158 A 
ATOM      5  C   UNL     1     -32.626  16.244 -20.035  1.00  0.00     0.051 A 
ATOM      6  C   UNL     1     -34.014  16.391 -20.128  1.00  0.00     0.157 A 
ENDROOT
BRANCH   1   7
ATOM      7  C   UNL     1     -31.620  15.949 -23.674  1.00  0.00     0.072 C 
ATOM      8  O   UNL     1     -30.875  14.944 -23.825  1.00  0.00    -0.545 OA
ATOM      9  O   UNL     1     -31.658  16.914 -24.674  1.00  0.00    -0.545 OA
ENDBRANCH   1   7
BRANCH   4  10
ATOM     10  O   UNL     1     -36.006  16.536 -21.576  1.00  0.00    -0.504 OA
ATOM     11  H   UNL     1     -36.489  16.344 -22.442  1.00  0.00     0.293 HD
ENDBRANCH   4  10
BRANCH   6  12
ATOM     12  O   UNL     1     -34.737  16.531 -18.941  1.00  0.00    -0.504 OA
ATOM     13  H   UNL     1     -35.674  16.901 -18.892  1.00  0.00     0.293 HD
ENDBRANCH   6  12
TORSDOF 3
ENDMDL
MODEL 6
REMARK VINA RESULT:    -4.105     12.498     13.907
REMARK INTER + INTRA:          -4.626
REMARK INTER:                  -4.582
REMARK INTRA:                  -0.044
REMARK UNBOUND:                -0.041
REMARK SMILES O=C([O-])c1ccc(O)c(O)c1
REMARK SMILES IDX 4 1 11 2 5 3 9 4 6 5 7 6 2 7 1 8 3 9 10 10 8 12
REMARK H PARENT 10 11 8 13
REMARK Flexibility Score: inf
ROOT
ATOM      1  C   UNL     1     -42.502  16.155 -17.977  1.00  0.00     0.001 A 
ATOM      2  C   UNL     1     -41.430  15.344 -17.571  1.00  0.00     0.060 A 
ATOM      3  C   UNL     1     -42.319  17.037 -19.054  1.00  0.00     0.014 A 
ATOM      4  C   UNL     1     -40.192  15.404 -18.224  1.00  0.00     0.158 A 
ATOM      5  C   UNL     1     -41.088  17.104 -19.710  1.00  0.00     0.051 A 
ATOM      6  C   UNL     1     -40.018  16.297 -19.307  1.00  0.00     0.157 A 
ENDROOT
BRANCH   1   7
ATOM      7  C   UNL     1     -43.805  16.080 -17.278  1.00  0.00     0.072 C 
ATOM      8  O   UNL     1     -44.812  16.685 -17.733  1.00  0.00    -0.545 OA
ATOM      9  O   UNL     1     -43.935  15.340 -16.108  1.00  0.00    -0.545 OA
ENDBRANCH   1   7
BRANCH   4  10
ATOM     10  O   UNL     1     -39.172  14.569 -17.765  1.00  0.00    -0.504 OA
ATOM     11  H   UNL     1     -39.261  13.955 -16.967  1.00  0.00     0.293 HD
ENDBRANCH   4  10
BRANCH   6  12
ATOM     12  O   UNL     1     -38.815  16.413 -20.005  1.00  0.00    -0.504 OA
ATOM     13  H   UNL     1     -37.904  16.368 -19.571  1.00  0.00     0.293 HD
ENDBRANCH   6  12
TORSDOF 3
ENDMDL
MODEL 7
REMARK VINA RESULT:    -4.005     12.396     13.644
REMARK INTER + INTRA:          -4.514
REMARK INTER:                  -4.477
REMARK INTRA:                  -0.037
REMARK UNBOUND:                -0.041
REMARK SMILES O=C([O-])c1ccc(O)c(O)c1
REMARK SMILES IDX 4 1 11 2 5 3 9 4 6 5 7 6 2 7 1 8 3 9 10 10 8 12
REMARK H PARENT 10 11 8 13
REMARK Flexibility Score: inf
ROOT
ATOM      1  C   UNL     1     -41.674  16.239 -17.374  1.00  0.00     0.001 A 
ATOM      2  C   UNL     1     -42.701  15.314 -17.124  1.00  0.00     0.060 A 
ATOM      3  C   UNL     1     -41.762  17.523 -16.812  1.00  0.00     0.014 A 
ATOM      4  C   UNL     1     -43.801  15.657 -16.327  1.00  0.00     0.158 A 
ATOM      5  C   UNL     1     -42.855  17.872 -16.017  1.00  0.00     0.051 A 
ATOM      6  C   UNL     1     -43.879  16.953 -15.767  1.00  0.00     0.157 A 
ENDROOT
BRANCH   1   7
ATOM      7  C   UNL     1     -40.517  15.864 -18.218  1.00  0.00     0.072 C 
ATOM      8  O   UNL     1     -39.719  14.962 -17.848  1.00  0.00    -0.545 OA
ATOM      9  O   UNL     1     -40.296  16.501 -19.434  1.00  0.00    -0.545 OA
ENDBRANCH   1   7
BRANCH   4  10
ATOM     10  O   UNL     1     -44.784  14.686 -16.122  1.00  0.00    -0.504 OA
ATOM     11  H   UNL     1     -45.749  14.792 -16.401  1.00  0.00     0.293 HD
ENDBRANCH   4  10
BRANCH   6  12
ATOM     12  O   UNL     1     -44.944  17.366 -14.963  1.00  0.00    -0.504 OA
ATOM     13  H   UNL     1     -44.980  18.255 -14.487  1.00  0.00     0.293 HD
ENDBRANCH   6  12
TORSDOF 3
ENDMDL
MODEL 8
REMARK VINA RESULT:    -3.966     17.759     18.542
REMARK INTER + INTRA:          -4.471
REMARK INTER:                  -4.430
REMARK INTRA:                  -0.041
REMARK UNBOUND:                -0.041
REMARK SMILES O=C([O-])c1ccc(O)c(O)c1
REMARK SMILES IDX 4 1 11 2 5 3 9 4 6 5 7 6 2 7 1 8 3 9 10 10 8 12
REMARK H PARENT 10 11 8 13
REMARK Flexibility Score: inf
ROOT
ATOM      1  C   UNL     1     -33.018  17.808 -21.248  1.00  0.00     0.001 A 
ATOM      2  C   UNL     1     -32.169  17.926 -22.361  1.00  0.00     0.060 A 
ATOM      3  C   UNL     1     -33.910  16.726 -21.183  1.00  0.00     0.014 A 
ATOM      4  C   UNL     1     -32.203  16.982 -23.396  1.00  0.00     0.158 A 
ATOM      5  C   UNL     1     -33.950  15.782 -22.211  1.00  0.00     0.051 A 
ATOM      6  C   UNL     1     -33.106  15.896 -23.320  1.00  0.00     0.157 A 
ENDROOT
BRANCH   1   7
ATOM      7  C   UNL     1     -32.972  18.813 -20.162  1.00  0.00     0.072 C 
ATOM      8  O   UNL     1     -34.023  19.148 -19.553  1.00  0.00    -0.545 OA
ATOM      9  O   UNL     1     -31.766  19.401 -19.797  1.00  0.00    -0.545 OA
ENDBRANCH   1   7
BRANCH   4  10
ATOM     10  O   UNL     1     -31.330  17.164 -24.471  1.00  0.00    -0.504 OA
ATOM     11  H   UNL     1     -30.504  16.605 -24.627  1.00  0.00     0.293 HD
ENDBRANCH   4  10
BRANCH   6  12
ATOM     12  O   UNL     1     -33.196  14.918 -24.313  1.00  0.00    -0.504 OA
ATOM     13  H   UNL     1     -34.036  14.722 -24.837  1.00  0.00     0.293 HD
ENDBRANCH   6  12
TORSDOF 3
ENDMDL
MODEL 9
REMARK VINA RESULT:    -3.961     12.840     14.582
REMARK INTER + INTRA:          -4.466
REMARK INTER:                  -4.424
REMARK INTRA:                  -0.042
REMARK UNBOUND:                -0.041
REMARK SMILES O=C([O-])c1ccc(O)c(O)c1
REMARK SMILES IDX 4 1 11 2 5 3 9 4 6 5 7 6 2 7 1 8 3 9 10 10 8 12
REMARK H PARENT 10 11 8 13
REMARK Flexibility Score: inf
ROOT
ATOM      1  C   UNL     1     -41.332  17.056 -19.738  1.00  0.00     0.001 A 
ATOM      2  C   UNL     1     -40.225  16.296 -19.327  1.00  0.00     0.060 A 
ATOM      3  C   UNL     1     -42.534  16.952 -19.019  1.00  0.00     0.014 A 
ATOM      4  C   UNL     1     -40.307  15.444 -18.217  1.00  0.00     0.158 A 
ATOM      5  C   UNL     1     -42.624  16.105 -17.912  1.00  0.00     0.051 A 
ATOM      6  C   UNL     1     -41.523  15.347 -17.501  1.00  0.00     0.157 A 
ENDROOT
BRANCH   1   7
ATOM      7  C   UNL     1     -41.231  17.951 -20.912  1.00  0.00     0.072 C 
ATOM      8  O   UNL     1     -41.922  19.003 -20.977  1.00  0.00    -0.545 OA
ATOM      9  O   UNL     1     -40.371  17.644 -21.960  1.00  0.00    -0.545 OA
ENDBRANCH   1   7
BRANCH   4  10
ATOM     10  O   UNL     1     -39.166  14.719 -17.867  1.00  0.00    -0.504 OA
ATOM     11  H   UNL     1     -38.319  14.700 -18.416  1.00  0.00     0.293 HD
ENDBRANCH   4  10
BRANCH   6  12
ATOM     12  O   UNL     1     -41.679  14.521 -16.386  1.00  0.00    -0.504 OA
ATOM     13  H   UNL     1     -40.921  14.238 -15.782  1.00  0.00     0.293 HD
ENDBRANCH   6  12
TORSDOF 3
ENDMDL
