MODEL 1
REMARK VINA RESULT:    -5.560      0.000      0.000
REMARK INTER + INTRA:          -6.680
REMARK INTER:                  -6.536
REMARK INTRA:                  -0.144
REMARK UNBOUND:                -0.144
REMARK SMILES O=C([O-])C=Cc1ccc(O)c(O)c1
REMARK SMILES IDX 6 1 13 2 7 3 11 4 8 5 9 6 5 7 4 8 2 9 1 10 3 11 12 12 10 14
REMARK H PARENT 12 13 10 15
REMARK Flexibility Score: inf
ROOT
ATOM      1  C   UNL     1       6.443  27.505  57.623  1.00  0.00    -0.022 A 
ATOM      2  C   UNL     1       5.152  27.100  57.229  1.00  0.00     0.058 A 
ATOM      3  C   UNL     1       6.925  28.750  57.188  1.00  0.00     0.012 A 
ATOM      4  C   UNL     1       4.373  27.917  56.395  1.00  0.00     0.157 A 
ATOM      5  C   UNL     1       6.150  29.562  56.356  1.00  0.00     0.051 A 
ATOM      6  C   UNL     1       4.874  29.147  55.955  1.00  0.00     0.157 A 
ENDROOT
BRANCH   1   7
ATOM      7  C   UNL     1       7.301  26.684  58.513  1.00  0.00     0.010 C 
ATOM      8  C   UNL     1       8.621  26.525  58.335  1.00  0.00     0.025 C 
BRANCH   8   9
ATOM      9  C   UNL     1       9.443  25.711  59.246  1.00  0.00     0.064 C 
ATOM     10  O   UNL     1       9.015  25.366  60.380  1.00  0.00    -0.545 OA
ATOM     11  O   UNL     1      10.714  25.316  58.848  1.00  0.00    -0.545 OA
ENDBRANCH   8   9
ENDBRANCH   1   7
BRANCH   4  12
ATOM     12  O   UNL     1       3.097  27.512  56.003  1.00  0.00    -0.504 OA
ATOM     13  H   UNL     1       2.855  27.394  55.026  1.00  0.00     0.293 HD
ENDBRANCH   4  12
BRANCH   6  14
ATOM     14  O   UNL     1       4.098  29.953  55.124  1.00  0.00    -0.504 OA
ATOM     15  H   UNL     1       3.169  30.253  55.394  1.00  0.00     0.293 HD
ENDBRANCH   6  14
TORSDOF 4
ENDMDL
MODEL 2
REMARK VINA RESULT:    -5.524      0.389      0.962
REMARK INTER + INTRA:          -6.637
REMARK INTER:                  -6.487
REMARK INTRA:                  -0.150
REMARK UNBOUND:                -0.144
REMARK SMILES O=C([O-])C=Cc1ccc(O)c(O)c1
REMARK SMILES IDX 6 1 13 2 7 3 11 4 8 5 9 6 5 7 4 8 2 9 1 10 3 11 12 12 10 14
REMARK H PARENT 12 13 10 15
REMARK Flexibility Score: inf
ROOT
ATOM      1  C   UNL     1       6.253  27.371  57.548  1.00  0.00    -0.022 A 
ATOM      2  C   UNL     1       4.965  27.078  57.057  1.00  0.00     0.058 A 
ATOM      3  C   UNL     1       6.836  28.608  57.228  1.00  0.00     0.012 A 
ATOM      4  C   UNL     1       4.287  27.998  56.243  1.00  0.00     0.157 A 
ATOM      5  C   UNL     1       6.161  29.523  56.415  1.00  0.00     0.051 A 
ATOM      6  C   UNL     1       4.889  29.219  55.917  1.00  0.00     0.157 A 
ENDROOT
BRANCH   1   7
ATOM      7  C   UNL     1       7.006  26.438  58.423  1.00  0.00     0.010 C 
ATOM      8  C   UNL     1       8.338  26.471  58.576  1.00  0.00     0.025 C 
BRANCH   8   9
ATOM      9  C   UNL     1       9.050  25.536  59.463  1.00  0.00     0.064 C 
ATOM     10  O   UNL     1      10.280  25.308  59.319  1.00  0.00    -0.545 OA
ATOM     11  O   UNL     1       8.351  24.894  60.478  1.00  0.00    -0.545 OA
ENDBRANCH   8   9
ENDBRANCH   1   7
BRANCH   4  12
ATOM     12  O   UNL     1       3.014  27.704  55.755  1.00  0.00    -0.504 OA
ATOM     13  H   UNL     1       2.669  28.112  54.894  1.00  0.00     0.293 HD
ENDBRANCH   4  12
BRANCH   6  14
ATOM     14  O   UNL     1       4.213  30.128  55.104  1.00  0.00    -0.504 OA
ATOM     15  H   UNL     1       3.201  30.151  55.063  1.00  0.00     0.293 HD
ENDBRANCH   6  14
TORSDOF 4
ENDMDL
MODEL 3
REMARK VINA RESULT:    -5.203      1.191      2.209
REMARK INTER + INTRA:          -6.260
REMARK INTER:                  -6.136
REMARK INTRA:                  -0.125
REMARK UNBOUND:                -0.144
REMARK SMILES O=C([O-])C=Cc1ccc(O)c(O)c1
REMARK SMILES IDX 6 1 13 2 7 3 11 4 8 5 9 6 5 7 4 8 2 9 1 10 3 11 12 12 10 14
REMARK H PARENT 12 13 10 15
REMARK Flexibility Score: inf
ROOT
ATOM      1  C   UNL     1       6.212  27.228  57.896  1.00  0.00    -0.022 A 
ATOM      2  C   UNL     1       7.005  28.164  57.203  1.00  0.00     0.058 A 
ATOM      3  C   UNL     1       4.826  27.212  57.669  1.00  0.00     0.012 A 
ATOM      4  C   UNL     1       6.416  29.083  56.321  1.00  0.00     0.157 A 
ATOM      5  C   UNL     1       4.240  28.129  56.792  1.00  0.00     0.051 A 
ATOM      6  C   UNL     1       5.031  29.067  56.120  1.00  0.00     0.157 A 
ENDROOT
BRANCH   1   7
ATOM      7  C   UNL     1       6.789  26.228  58.830  1.00  0.00     0.010 C 
ATOM      8  C   UNL     1       8.100  26.122  59.090  1.00  0.00     0.025 C 
BRANCH   8   9
ATOM      9  C   UNL     1       8.635  25.125  60.032  1.00  0.00     0.064 C 
ATOM     10  O   UNL     1       9.851  25.124  60.361  1.00  0.00    -0.545 OA
ATOM     11  O   UNL     1       7.782  24.168  60.569  1.00  0.00    -0.545 OA
ENDBRANCH   8   9
ENDBRANCH   1   7
BRANCH   4  12
ATOM     12  O   UNL     1       7.202  30.011  55.640  1.00  0.00    -0.504 OA
ATOM     13  H   UNL     1       7.982  30.477  56.089  1.00  0.00     0.293 HD
ENDBRANCH   4  12
BRANCH   6  14
ATOM     14  O   UNL     1       4.449  29.984  55.246  1.00  0.00    -0.504 OA
ATOM     15  H   UNL     1       4.894  30.869  55.032  1.00  0.00     0.293 HD
ENDBRANCH   6  14
TORSDOF 4
ENDMDL
MODEL 4
REMARK VINA RESULT:    -4.988      2.215      3.154
REMARK INTER + INTRA:          -6.007
REMARK INTER:                  -5.856
REMARK INTRA:                  -0.150
REMARK UNBOUND:                -0.144
REMARK SMILES O=C([O-])C=Cc1ccc(O)c(O)c1
REMARK SMILES IDX 6 1 13 2 7 3 11 4 8 5 9 6 5 7 4 8 2 9 1 10 3 11 12 12 10 14
REMARK H PARENT 12 13 10 15
REMARK Flexibility Score: inf
ROOT
ATOM      1  C   UNL     1       6.015  26.954  58.106  1.00  0.00    -0.022 A 
ATOM      2  C   UNL     1       6.958  27.816  57.511  1.00  0.00     0.058 A 
ATOM      3  C   UNL     1       4.658  27.101  57.775  1.00  0.00     0.012 A 
ATOM      4  C   UNL     1       6.544  28.820  56.622  1.00  0.00     0.157 A 
ATOM      5  C   UNL     1       4.246  28.103  56.891  1.00  0.00     0.051 A 
ATOM      6  C   UNL     1       5.186  28.966  56.316  1.00  0.00     0.157 A 
ENDROOT
BRANCH   1   7
ATOM      7  C   UNL     1       6.402  25.869  59.042  1.00  0.00     0.010 C 
ATOM      8  C   UNL     1       5.564  25.319  59.932  1.00  0.00     0.025 C 
BRANCH   8   9
ATOM      9  C   UNL     1       5.981  24.235  60.837  1.00  0.00     0.064 C 
ATOM     10  O   UNL     1       7.200  23.983  61.036  1.00  0.00    -0.545 OA
ATOM     11  O   UNL     1       5.014  23.478  61.485  1.00  0.00    -0.545 OA
ENDBRANCH   8   9
ENDBRANCH   1   7
BRANCH   4  12
ATOM     12  O   UNL     1       7.479  29.674  56.039  1.00  0.00    -0.504 OA
ATOM     13  H   UNL     1       8.257  29.318  55.496  1.00  0.00     0.293 HD
ENDBRANCH   4  12
BRANCH   6  14
ATOM     14  O   UNL     1       4.780  29.967  55.436  1.00  0.00    -0.504 OA
ATOM     15  H   UNL     1       4.141  29.776  54.673  1.00  0.00     0.293 HD
ENDBRANCH   6  14
TORSDOF 4
ENDMDL
MODEL 5
REMARK VINA RESULT:    -4.937      2.894      3.683
REMARK INTER + INTRA:          -5.947
REMARK INTER:                  -5.797
REMARK INTRA:                  -0.149
REMARK UNBOUND:                -0.144
REMARK SMILES O=C([O-])C=Cc1ccc(O)c(O)c1
REMARK SMILES IDX 6 1 13 2 7 3 11 4 8 5 9 6 5 7 4 8 2 9 1 10 3 11 12 12 10 14
REMARK H PARENT 12 13 10 15
REMARK Flexibility Score: inf
ROOT
ATOM      1  C   UNL     1       4.932  27.236  58.159  1.00  0.00    -0.022 A 
ATOM      2  C   UNL     1       4.254  28.034  57.216  1.00  0.00     0.058 A 
ATOM      3  C   UNL     1       6.328  27.349  58.265  1.00  0.00     0.012 A 
ATOM      4  C   UNL     1       4.966  28.908  56.380  1.00  0.00     0.157 A 
ATOM      5  C   UNL     1       7.036  28.217  57.431  1.00  0.00     0.051 A 
ATOM      6  C   UNL     1       6.359  28.996  56.485  1.00  0.00     0.157 A 
ENDROOT
BRANCH   1   7
ATOM      7  C   UNL     1       4.224  26.306  59.075  1.00  0.00     0.010 C 
ATOM      8  C   UNL     1       4.846  25.393  59.835  1.00  0.00     0.025 C 
BRANCH   8   9
ATOM      9  C   UNL     1       4.111  24.495  60.741  1.00  0.00     0.064 C 
ATOM     10  O   UNL     1       4.010  24.749  61.971  1.00  0.00    -0.545 OA
ATOM     11  O   UNL     1       3.517  23.348  60.230  1.00  0.00    -0.545 OA
ENDBRANCH   8   9
ENDBRANCH   1   7
BRANCH   4  12
ATOM     12  O   UNL     1       4.293  29.694  55.445  1.00  0.00    -0.504 OA
ATOM     13  H   UNL     1       4.342  30.706  55.468  1.00  0.00     0.293 HD
ENDBRANCH   4  12
BRANCH   6  14
ATOM     14  O   UNL     1       7.061  29.862  55.649  1.00  0.00    -0.504 OA
ATOM     15  H   UNL     1       6.623  30.681  55.246  1.00  0.00     0.293 HD
ENDBRANCH   6  14
TORSDOF 4
ENDMDL
MODEL 6
REMARK VINA RESULT:    -4.886      1.960      3.098
REMARK INTER + INTRA:          -5.887
REMARK INTER:                  -5.741
REMARK INTRA:                  -0.147
REMARK UNBOUND:                -0.144
REMARK SMILES O=C([O-])C=Cc1ccc(O)c(O)c1
REMARK SMILES IDX 6 1 13 2 7 3 11 4 8 5 9 6 5 7 4 8 2 9 1 10 3 11 12 12 10 14
REMARK H PARENT 12 13 10 15
REMARK Flexibility Score: inf
ROOT
ATOM      1  C   UNL     1       7.067  26.447  58.581  1.00  0.00    -0.022 A 
ATOM      2  C   UNL     1       6.123  27.005  57.697  1.00  0.00     0.058 A 
ATOM      3  C   UNL     1       6.610  25.699  59.678  1.00  0.00     0.012 A 
ATOM      4  C   UNL     1       4.748  26.835  57.923  1.00  0.00     0.157 A 
ATOM      5  C   UNL     1       5.241  25.533  59.905  1.00  0.00     0.051 A 
ATOM      6  C   UNL     1       4.307  26.103  59.031  1.00  0.00     0.157 A 
ENDROOT
BRANCH   1   7
ATOM      7  C   UNL     1       8.531  26.587  58.379  1.00  0.00     0.010 C 
ATOM      8  C   UNL     1       9.443  25.810  58.981  1.00  0.00     0.025 C 
BRANCH   8   9
ATOM      9  C   UNL     1      10.888  25.970  58.747  1.00  0.00     0.064 C 
ATOM     10  O   UNL     1      11.534  26.916  59.272  1.00  0.00    -0.545 OA
ATOM     11  O   UNL     1      11.551  25.061  57.932  1.00  0.00    -0.545 OA
ENDBRANCH   8   9
ENDBRANCH   1   7
BRANCH   4  12
ATOM     12  O   UNL     1       3.815  27.392  57.049  1.00  0.00    -0.504 OA
ATOM     13  H   UNL     1       2.832  27.451  57.288  1.00  0.00     0.293 HD
ENDBRANCH   4  12
BRANCH   6  14
ATOM     14  O   UNL     1       2.941  25.941  59.254  1.00  0.00    -0.504 OA
ATOM     15  H   UNL     1       2.263  26.597  58.887  1.00  0.00     0.293 HD
ENDBRANCH   6  14
TORSDOF 4
ENDMDL
MODEL 7
REMARK VINA RESULT:    -4.442      1.403      5.902
REMARK INTER + INTRA:          -5.366
REMARK INTER:                  -5.217
REMARK INTRA:                  -0.149
REMARK UNBOUND:                -0.144
REMARK SMILES O=C([O-])C=Cc1ccc(O)c(O)c1
REMARK SMILES IDX 6 1 13 2 7 3 11 4 8 5 9 6 5 7 4 8 2 9 1 10 3 11 12 12 10 14
REMARK H PARENT 12 13 10 15
REMARK Flexibility Score: inf
ROOT
ATOM      1  C   UNL     1       6.758  26.246  58.434  1.00  0.00    -0.022 A 
ATOM      2  C   UNL     1       6.404  25.223  59.336  1.00  0.00     0.058 A 
ATOM      3  C   UNL     1       8.097  26.667  58.378  1.00  0.00     0.012 A 
ATOM      4  C   UNL     1       7.369  24.652  60.180  1.00  0.00     0.157 A 
ATOM      5  C   UNL     1       9.056  26.100  59.220  1.00  0.00     0.051 A 
ATOM      6  C   UNL     1       8.695  25.095  60.125  1.00  0.00     0.157 A 
ENDROOT
BRANCH   1   7
ATOM      7  C   UNL     1       5.778  26.873  57.512  1.00  0.00     0.010 C 
ATOM      8  C   UNL     1       5.878  28.132  57.062  1.00  0.00     0.025 C 
BRANCH   8   9
ATOM      9  C   UNL     1       4.893  28.716  56.138  1.00  0.00     0.064 C 
ATOM     10  O   UNL     1       3.795  28.143  55.907  1.00  0.00    -0.545 OA
ATOM     11  O   UNL     1       5.178  29.922  55.510  1.00  0.00    -0.545 OA
ENDBRANCH   8   9
ENDBRANCH   1   7
BRANCH   4  12
ATOM     12  O   UNL     1       7.015  23.643  61.075  1.00  0.00    -0.504 OA
ATOM     13  H   UNL     1       6.249  23.007  60.882  1.00  0.00     0.293 HD
ENDBRANCH   4  12
BRANCH   6  14
ATOM     14  O   UNL     1       9.649  24.529  60.969  1.00  0.00    -0.504 OA
ATOM     15  H   UNL     1       9.515  23.613  61.380  1.00  0.00     0.293 HD
ENDBRANCH   6  14
TORSDOF 4
ENDMDL
MODEL 8
REMARK VINA RESULT:    -4.390      1.233      6.150
REMARK INTER + INTRA:          -5.304
REMARK INTER:                  -5.178
REMARK INTRA:                  -0.126
REMARK UNBOUND:                -0.144
REMARK SMILES O=C([O-])C=Cc1ccc(O)c(O)c1
REMARK SMILES IDX 6 1 13 2 7 3 11 4 8 5 9 6 5 7 4 8 2 9 1 10 3 11 12 12 10 14
REMARK H PARENT 12 13 10 15
REMARK Flexibility Score: inf
ROOT
ATOM      1  C   UNL     1       6.886  26.280  58.369  1.00  0.00    -0.022 A 
ATOM      2  C   UNL     1       8.247  26.641  58.411  1.00  0.00     0.058 A 
ATOM      3  C   UNL     1       6.412  25.313  59.271  1.00  0.00     0.012 A 
ATOM      4  C   UNL     1       9.120  26.025  59.321  1.00  0.00     0.157 A 
ATOM      5  C   UNL     1       7.282  24.698  60.175  1.00  0.00     0.051 A 
ATOM      6  C   UNL     1       8.637  25.049  60.200  1.00  0.00     0.157 A 
ENDROOT
BRANCH   1   7
ATOM      7  C   UNL     1       5.920  26.911  57.435  1.00  0.00     0.010 C 
ATOM      8  C   UNL     1       5.937  28.213  57.113  1.00  0.00     0.025 C 
BRANCH   8   9
ATOM      9  C   UNL     1       4.970  28.801  56.172  1.00  0.00     0.064 C 
ATOM     10  O   UNL     1       5.218  29.880  55.570  1.00  0.00    -0.545 OA
ATOM     11  O   UNL     1       3.762  28.154  55.943  1.00  0.00    -0.545 OA
ENDBRANCH   8   9
ENDBRANCH   1   7
BRANCH   4  12
ATOM     12  O   UNL     1      10.468  26.380  59.357  1.00  0.00    -0.504 OA
ATOM     13  H   UNL     1      11.183  25.791  58.947  1.00  0.00     0.293 HD
ENDBRANCH   4  12
BRANCH   6  14
ATOM     14  O   UNL     1       9.509  24.437  61.099  1.00  0.00    -0.504 OA
ATOM     15  H   UNL     1       9.858  23.499  60.944  1.00  0.00     0.293 HD
ENDBRANCH   6  14
TORSDOF 4
ENDMDL
