MODEL 1
REMARK VINA RESULT:    -6.956      0.000      0.000
REMARK INTER + INTRA:          -8.705
REMARK INTER:                  -8.379
REMARK INTRA:                  -0.325
REMARK UNBOUND:                -0.325
REMARK SMILES O=c1c(O)c(-c2ccc(O)c(O)c2)oc2cc(O)cc(O)c12
REMARK SMILES IDX 5 1 3 2 2 3 1 4 22 5 20 6 19 7 17 8 16 9 15 10 14 11 6 12
REMARK SMILES IDX 7 13 8 14 9 15 13 16 11 17 10 18 12 20 4 22 21 24 18 26
REMARK H PARENT 10 19 12 21 4 23 21 25 18 27
REMARK Flexibility Score: inf
ROOT
ATOM      1  C   UNL     1     127.475 121.274 137.599  1.00  0.00     0.180 A 
ATOM      2  C   UNL     1     126.738 120.080 137.510  1.00  0.00     0.208 A 
ATOM      3  C   UNL     1     125.813 119.926 136.465  1.00  0.00     0.238 A 
ATOM      4  O   UNL     1     125.104 118.888 136.435  1.00  0.00    -0.285 OA
ATOM      5  C   UNL     1     125.677 120.943 135.489  1.00  0.00     0.111 A 
ATOM      6  C   UNL     1     124.803 120.876 134.361  1.00  0.00     0.134 A 
ATOM      7  C   UNL     1     124.674 121.987 133.520  1.00  0.00     0.093 A 
ATOM      8  C   UNL     1     125.431 123.139 133.726  1.00  0.00     0.123 A 
ATOM      9  C   UNL     1     126.329 123.197 134.793  1.00  0.00     0.094 A 
ATOM     10  C   UNL     1     126.452 122.118 135.672  1.00  0.00     0.146 A 
ATOM     11  O   UNL     1     127.302 122.223 136.686  1.00  0.00    -0.452 OA
ENDROOT
BRANCH   1  12
ATOM     12  C   UNL     1     128.458 121.515 138.680  1.00  0.00     0.025 A 
ATOM     13  C   UNL     1     129.792 121.116 138.500  1.00  0.00     0.016 A 
ATOM     14  C   UNL     1     130.742 121.352 139.497  1.00  0.00     0.051 A 
ATOM     15  C   UNL     1     130.374 122.005 140.681  1.00  0.00     0.157 A 
ATOM     16  C   UNL     1     128.097 122.189 139.860  1.00  0.00     0.062 A 
ATOM     17  C   UNL     1     129.051 122.428 140.860  1.00  0.00     0.158 A 
BRANCH  15  18
ATOM     18  O   UNL     1     131.317 122.241 141.679  1.00  0.00    -0.504 OA
ATOM     19  H   UNL     1     131.041 122.465 142.627  1.00  0.00     0.293 HD
ENDBRANCH  15  18
BRANCH  17  20
ATOM     20  O   UNL     1     128.690 123.089 142.034  1.00  0.00    -0.504 OA
ATOM     21  H   UNL     1     128.871 122.688 142.946  1.00  0.00     0.293 HD
ENDBRANCH  17  20
ENDBRANCH   1  12
BRANCH   2  22
ATOM     22  O   UNL     1     126.943 119.057 138.439  1.00  0.00    -0.502 OA
ATOM     23  H   UNL     1     126.761 119.175 139.428  1.00  0.00     0.293 HD
ENDBRANCH   2  22
BRANCH   6  24
ATOM     24  O   UNL     1     124.065 119.741 134.010  1.00  0.00    -0.507 OA
ATOM     25  H   UNL     1     124.279 118.800 134.300  1.00  0.00     0.293 HD
ENDBRANCH   6  24
BRANCH   8  26
ATOM     26  O   UNL     1     125.289 124.221 132.859  1.00  0.00    -0.508 OA
ATOM     27  H   UNL     1     124.922 125.111 133.176  1.00  0.00     0.293 HD
ENDBRANCH   8  26
TORSDOF 6
ENDMDL
MODEL 2
REMARK VINA RESULT:    -6.004      1.459      6.983
REMARK INTER + INTRA:          -7.558
REMARK INTER:                  -7.236
REMARK INTRA:                  -0.322
REMARK UNBOUND:                -0.325
REMARK SMILES O=c1c(O)c(-c2ccc(O)c(O)c2)oc2cc(O)cc(O)c12
REMARK SMILES IDX 5 1 3 2 2 3 1 4 22 5 20 6 19 7 17 8 16 9 15 10 14 11 6 12
REMARK SMILES IDX 7 13 8 14 9 15 13 16 11 17 10 18 12 20 4 22 21 24 18 26
REMARK H PARENT 10 19 12 21 4 23 21 25 18 27
REMARK Flexibility Score: inf
ROOT
ATOM      1  C   UNL     1     127.012 122.118 137.435  1.00  0.00     0.180 A 
ATOM      2  C   UNL     1     126.517 122.406 138.719  1.00  0.00     0.208 A 
ATOM      3  C   UNL     1     127.401 122.388 139.809  1.00  0.00     0.238 A 
ATOM      4  O   UNL     1     126.937 122.572 140.965  1.00  0.00    -0.285 OA
ATOM      5  C   UNL     1     128.778 122.138 139.597  1.00  0.00     0.111 A 
ATOM      6  C   UNL     1     129.773 122.139 140.622  1.00  0.00     0.134 A 
ATOM      7  C   UNL     1     131.088 121.774 140.309  1.00  0.00     0.093 A 
ATOM      8  C   UNL     1     131.460 121.470 139.001  1.00  0.00     0.123 A 
ATOM      9  C   UNL     1     130.509 121.519 137.980  1.00  0.00     0.094 A 
ATOM     10  C   UNL     1     129.180 121.843 138.267  1.00  0.00     0.146 A 
ATOM     11  O   UNL     1     128.304 121.856 137.271  1.00  0.00    -0.452 OA
ENDROOT
BRANCH   1  12
ATOM     12  C   UNL     1     126.139 122.104 136.239  1.00  0.00     0.025 A 
ATOM     13  C   UNL     1     125.922 123.297 135.530  1.00  0.00     0.016 A 
ATOM     14  C   UNL     1     125.120 123.304 134.386  1.00  0.00     0.051 A 
ATOM     15  C   UNL     1     124.538 122.116 133.925  1.00  0.00     0.157 A 
ATOM     16  C   UNL     1     125.571 120.910 135.761  1.00  0.00     0.062 A 
ATOM     17  C   UNL     1     124.767 120.916 134.611  1.00  0.00     0.158 A 
BRANCH  15  18
ATOM     18  O   UNL     1     123.735 122.118 132.786  1.00  0.00    -0.504 OA
ATOM     19  H   UNL     1     123.364 121.260 132.398  1.00  0.00     0.293 HD
ENDBRANCH  15  18
BRANCH  17  20
ATOM     20  O   UNL     1     124.198 119.733 134.143  1.00  0.00    -0.504 OA
ATOM     21  H   UNL     1     123.557 119.191 134.711  1.00  0.00     0.293 HD
ENDBRANCH  17  20
ENDBRANCH   1  12
BRANCH   2  22
ATOM     22  O   UNL     1     125.169 122.726 138.897  1.00  0.00    -0.502 OA
ATOM     23  H   UNL     1     124.421 122.178 138.489  1.00  0.00     0.293 HD
ENDBRANCH   2  22
BRANCH   6  24
ATOM     24  O   UNL     1     129.530 122.513 141.947  1.00  0.00    -0.507 OA
ATOM     25  H   UNL     1     128.661 122.371 142.438  1.00  0.00     0.293 HD
ENDBRANCH   6  24
BRANCH   8  26
ATOM     26  O   UNL     1     132.782 121.127 138.723  1.00  0.00    -0.508 OA
ATOM     27  H   UNL     1     133.456 121.820 138.418  1.00  0.00     0.293 HD
ENDBRANCH   8  26
TORSDOF 6
ENDMDL
MODEL 3
REMARK VINA RESULT:    -5.981      9.376     11.635
REMARK INTER + INTRA:          -7.531
REMARK INTER:                  -7.243
REMARK INTRA:                  -0.288
REMARK UNBOUND:                -0.325
REMARK SMILES O=c1c(O)c(-c2ccc(O)c(O)c2)oc2cc(O)cc(O)c12
REMARK SMILES IDX 5 1 3 2 2 3 1 4 22 5 20 6 19 7 17 8 16 9 15 10 14 11 6 12
REMARK SMILES IDX 7 13 8 14 9 15 13 16 11 17 10 18 12 20 4 22 21 24 18 26
REMARK H PARENT 10 19 12 21 4 23 21 25 18 27
REMARK Flexibility Score: inf
ROOT
ATOM      1  C   UNL     1     125.995 132.363 134.548  1.00  0.00     0.180 A 
ATOM      2  C   UNL     1     125.741 131.485 135.616  1.00  0.00     0.208 A 
ATOM      3  C   UNL     1     124.970 130.335 135.384  1.00  0.00     0.238 A 
ATOM      4  O   UNL     1     124.684 129.593 136.359  1.00  0.00    -0.285 OA
ATOM      5  C   UNL     1     124.510 130.047 134.076  1.00  0.00     0.111 A 
ATOM      6  C   UNL     1     123.758 128.887 133.715  1.00  0.00     0.134 A 
ATOM      7  C   UNL     1     123.266 128.761 132.411  1.00  0.00     0.093 A 
ATOM      8  C   UNL     1     123.549 129.718 131.438  1.00  0.00     0.123 A 
ATOM      9  C   UNL     1     124.330 130.829 131.764  1.00  0.00     0.094 A 
ATOM     10  C   UNL     1     124.803 131.002 133.067  1.00  0.00     0.146 A 
ATOM     11  O   UNL     1     125.523 132.083 133.339  1.00  0.00    -0.452 OA
ENDROOT
BRANCH   1  12
ATOM     12  C   UNL     1     126.787 133.602 134.719  1.00  0.00     0.025 A 
ATOM     13  C   UNL     1     128.095 133.660 134.210  1.00  0.00     0.016 A 
ATOM     14  C   UNL     1     128.854 134.826 134.340  1.00  0.00     0.051 A 
ATOM     15  C   UNL     1     128.310 135.956 134.965  1.00  0.00     0.157 A 
ATOM     16  C   UNL     1     126.238 134.746 135.327  1.00  0.00     0.062 A 
ATOM     17  C   UNL     1     126.999 135.917 135.455  1.00  0.00     0.158 A 
BRANCH  15  18
ATOM     18  O   UNL     1     129.064 137.120 135.099  1.00  0.00    -0.504 OA
ATOM     19  H   UNL     1     129.249 137.530 136.006  1.00  0.00     0.293 HD
ENDBRANCH  15  18
BRANCH  17  20
ATOM     20  O   UNL     1     126.455 137.046 136.066  1.00  0.00    -0.504 OA
ATOM     21  H   UNL     1     125.844 136.973 136.870  1.00  0.00     0.293 HD
ENDBRANCH  17  20
ENDBRANCH   1  12
BRANCH   2  22
ATOM     22  O   UNL     1     126.269 131.747 136.883  1.00  0.00    -0.502 OA
ATOM     23  H   UNL     1     125.694 131.774 137.717  1.00  0.00     0.293 HD
ENDBRANCH   2  22
BRANCH   6  24
ATOM     24  O   UNL     1     123.491 127.826 134.586  1.00  0.00    -0.507 OA
ATOM     25  H   UNL     1     123.221 126.898 134.300  1.00  0.00     0.293 HD
ENDBRANCH   6  24
BRANCH   8  26
ATOM     26  O   UNL     1     123.057 129.551 130.145  1.00  0.00    -0.508 OA
ATOM     27  H   UNL     1     123.314 130.183 129.394  1.00  0.00     0.293 HD
ENDBRANCH   8  26
TORSDOF 6
ENDMDL
MODEL 4
REMARK VINA RESULT:    -5.979      2.342      3.304
REMARK INTER + INTRA:          -7.528
REMARK INTER:                  -7.267
REMARK INTRA:                  -0.261
REMARK UNBOUND:                -0.325
REMARK SMILES O=c1c(O)c(-c2ccc(O)c(O)c2)oc2cc(O)cc(O)c12
REMARK SMILES IDX 5 1 3 2 2 3 1 4 22 5 20 6 19 7 17 8 16 9 15 10 14 11 6 12
REMARK SMILES IDX 7 13 8 14 9 15 13 16 11 17 10 18 12 20 4 22 21 24 18 26
REMARK H PARENT 10 19 12 21 4 23 21 25 18 27
REMARK Flexibility Score: inf
ROOT
ATOM      1  C   UNL     1     127.258 121.949 137.665  1.00  0.00     0.180 A 
ATOM      2  C   UNL     1     126.467 122.724 138.530  1.00  0.00     0.208 A 
ATOM      3  C   UNL     1     125.515 123.599 137.981  1.00  0.00     0.238 A 
ATOM      4  O   UNL     1     124.863 124.345 138.757  1.00  0.00    -0.285 OA
ATOM      5  C   UNL     1     125.328 123.648 136.578  1.00  0.00     0.111 A 
ATOM      6  C   UNL     1     124.363 124.465 135.914  1.00  0.00     0.134 A 
ATOM      7  C   UNL     1     124.341 124.509 134.516  1.00  0.00     0.093 A 
ATOM      8  C   UNL     1     125.203 123.721 133.755  1.00  0.00     0.123 A 
ATOM      9  C   UNL     1     126.114 122.877 134.392  1.00  0.00     0.094 A 
ATOM     10  C   UNL     1     126.186 122.839 135.787  1.00  0.00     0.146 A 
ATOM     11  O   UNL     1     127.082 122.039 136.352  1.00  0.00    -0.452 OA
ENDROOT
BRANCH   1  12
ATOM     12  C   UNL     1     128.291 121.014 138.168  1.00  0.00     0.025 A 
ATOM     13  C   UNL     1     127.898 119.781 138.713  1.00  0.00     0.016 A 
ATOM     14  C   UNL     1     128.855 118.874 139.174  1.00  0.00     0.051 A 
ATOM     15  C   UNL     1     130.219 119.180 139.081  1.00  0.00     0.157 A 
ATOM     16  C   UNL     1     129.662 121.308 138.057  1.00  0.00     0.062 A 
ATOM     17  C   UNL     1     130.623 120.397 138.518  1.00  0.00     0.158 A 
BRANCH  15  18
ATOM     18  O   UNL     1     131.177 118.279 139.542  1.00  0.00    -0.504 OA
ATOM     19  H   UNL     1     130.940 117.539 140.192  1.00  0.00     0.293 HD
ENDBRANCH  15  18
BRANCH  17  20
ATOM     20  O   UNL     1     131.981 120.694 138.415  1.00  0.00    -0.504 OA
ATOM     21  H   UNL     1     132.331 121.345 137.723  1.00  0.00     0.293 HD
ENDBRANCH  17  20
ENDBRANCH   1  12
BRANCH   2  22
ATOM     22  O   UNL     1     126.613 122.605 139.914  1.00  0.00    -0.502 OA
ATOM     23  H   UNL     1     127.433 122.191 140.341  1.00  0.00     0.293 HD
ENDBRANCH   2  22
BRANCH   6  24
ATOM     24  O   UNL     1     123.394 125.226 136.576  1.00  0.00    -0.507 OA
ATOM     25  H   UNL     1     123.053 125.044 137.507  1.00  0.00     0.293 HD
ENDBRANCH   6  24
BRANCH   8  26
ATOM     26  O   UNL     1     125.141 123.778 132.364  1.00  0.00    -0.508 OA
ATOM     27  H   UNL     1     124.951 124.647 131.877  1.00  0.00     0.293 HD
ENDBRANCH   8  26
TORSDOF 6
ENDMDL
MODEL 5
REMARK VINA RESULT:    -5.756      1.509      6.552
REMARK INTER + INTRA:          -7.259
REMARK INTER:                  -6.946
REMARK INTRA:                  -0.313
REMARK UNBOUND:                -0.325
REMARK SMILES O=c1c(O)c(-c2ccc(O)c(O)c2)oc2cc(O)cc(O)c12
REMARK SMILES IDX 5 1 3 2 2 3 1 4 22 5 20 6 19 7 17 8 16 9 15 10 14 11 6 12
REMARK SMILES IDX 7 13 8 14 9 15 13 16 11 17 10 18 12 20 4 22 21 24 18 26
REMARK H PARENT 10 19 12 21 4 23 21 25 18 27
REMARK Flexibility Score: inf
ROOT
ATOM      1  C   UNL     1     126.693 121.664 136.738  1.00  0.00     0.180 A 
ATOM      2  C   UNL     1     126.349 120.306 136.849  1.00  0.00     0.208 A 
ATOM      3  C   UNL     1     127.133 119.468 137.658  1.00  0.00     0.238 A 
ATOM      4  O   UNL     1     126.865 118.239 137.693  1.00  0.00    -0.285 OA
ATOM      5  C   UNL     1     128.217 120.010 138.391  1.00  0.00     0.111 A 
ATOM      6  C   UNL     1     129.053 119.263 139.278  1.00  0.00     0.134 A 
ATOM      7  C   UNL     1     130.161 119.883 139.868  1.00  0.00     0.093 A 
ATOM      8  C   UNL     1     130.429 121.234 139.656  1.00  0.00     0.123 A 
ATOM      9  C   UNL     1     129.587 121.988 138.836  1.00  0.00     0.094 A 
ATOM     10  C   UNL     1     128.496 121.389 138.203  1.00  0.00     0.146 A 
ATOM     11  O   UNL     1     127.734 122.137 137.413  1.00  0.00    -0.452 OA
ENDROOT
BRANCH   1  12
ATOM     12  C   UNL     1     125.923 122.606 135.894  1.00  0.00     0.025 A 
ATOM     13  C   UNL     1     125.007 123.482 136.497  1.00  0.00     0.016 A 
ATOM     14  C   UNL     1     124.285 124.394 135.723  1.00  0.00     0.051 A 
ATOM     15  C   UNL     1     124.481 124.454 134.337  1.00  0.00     0.157 A 
ATOM     16  C   UNL     1     126.133 122.684 134.505  1.00  0.00     0.062 A 
ATOM     17  C   UNL     1     125.410 123.600 133.728  1.00  0.00     0.158 A 
BRANCH  15  18
ATOM     18  O   UNL     1     123.761 125.360 133.561  1.00  0.00    -0.504 OA
ATOM     19  H   UNL     1     124.226 126.015 132.943  1.00  0.00     0.293 HD
ENDBRANCH  15  18
BRANCH  17  20
ATOM     20  O   UNL     1     125.613 123.671 132.351  1.00  0.00    -0.504 OA
ATOM     21  H   UNL     1     126.189 124.393 131.935  1.00  0.00     0.293 HD
ENDBRANCH  17  20
ENDBRANCH   1  12
BRANCH   2  22
ATOM     22  O   UNL     1     125.230 119.807 136.178  1.00  0.00    -0.502 OA
ATOM     23  H   UNL     1     124.309 119.784 136.598  1.00  0.00     0.293 HD
ENDBRANCH   2  22
BRANCH   6  24
ATOM     24  O   UNL     1     128.825 117.929 139.630  1.00  0.00    -0.507 OA
ATOM     25  H   UNL     1     127.926 117.474 139.618  1.00  0.00     0.293 HD
ENDBRANCH   6  24
BRANCH   8  26
ATOM     26  O   UNL     1     131.531 121.822 140.274  1.00  0.00    -0.508 OA
ATOM     27  H   UNL     1     131.422 122.520 141.001  1.00  0.00     0.293 HD
ENDBRANCH   8  26
TORSDOF 6
ENDMDL
MODEL 6
REMARK VINA RESULT:    -5.673      9.212     11.473
REMARK INTER + INTRA:          -7.159
REMARK INTER:                  -6.857
REMARK INTRA:                  -0.302
REMARK UNBOUND:                -0.325
REMARK SMILES O=c1c(O)c(-c2ccc(O)c(O)c2)oc2cc(O)cc(O)c12
REMARK SMILES IDX 5 1 3 2 2 3 1 4 22 5 20 6 19 7 17 8 16 9 15 10 14 11 6 12
REMARK SMILES IDX 7 13 8 14 9 15 13 16 11 17 10 18 12 20 4 22 21 24 18 26
REMARK H PARENT 10 19 12 21 4 23 21 25 18 27
REMARK Flexibility Score: inf
ROOT
ATOM      1  C   UNL     1     125.653 132.255 134.794  1.00  0.00     0.180 A 
ATOM      2  C   UNL     1     125.434 131.305 135.807  1.00  0.00     0.208 A 
ATOM      3  C   UNL     1     124.728 130.131 135.498  1.00  0.00     0.238 A 
ATOM      4  O   UNL     1     124.470 129.321 136.426  1.00  0.00    -0.285 OA
ATOM      5  C   UNL     1     124.299 129.895 134.170  1.00  0.00     0.111 A 
ATOM      6  C   UNL     1     123.614 128.720 133.733  1.00  0.00     0.134 A 
ATOM      7  C   UNL     1     123.145 128.643 132.417  1.00  0.00     0.093 A 
ATOM      8  C   UNL     1     123.389 129.667 131.503  1.00  0.00     0.123 A 
ATOM      9  C   UNL     1     124.105 130.796 131.903  1.00  0.00     0.094 A 
ATOM     10  C   UNL     1     124.553 130.919 133.220  1.00  0.00     0.146 A 
ATOM     11  O   UNL     1     125.211 132.020 133.564  1.00  0.00    -0.452 OA
ENDROOT
BRANCH   1  12
ATOM     12  C   UNL     1     126.377 133.522 135.045  1.00  0.00     0.025 A 
ATOM     13  C   UNL     1     125.693 134.604 135.623  1.00  0.00     0.016 A 
ATOM     14  C   UNL     1     126.360 135.802 135.889  1.00  0.00     0.051 A 
ATOM     15  C   UNL     1     127.724 135.930 135.598  1.00  0.00     0.157 A 
ATOM     16  C   UNL     1     127.752 133.647 134.774  1.00  0.00     0.062 A 
ATOM     17  C   UNL     1     128.422 134.849 135.044  1.00  0.00     0.158 A 
BRANCH  15  18
ATOM     18  O   UNL     1     128.393 137.124 135.860  1.00  0.00    -0.504 OA
ATOM     19  H   UNL     1     128.057 137.778 136.556  1.00  0.00     0.293 HD
ENDBRANCH  15  18
BRANCH  17  20
ATOM     20  O   UNL     1     129.782 134.975 134.766  1.00  0.00    -0.504 OA
ATOM     21  H   UNL     1     130.131 135.677 134.124  1.00  0.00     0.293 HD
ENDBRANCH  17  20
ENDBRANCH   1  12
BRANCH   2  22
ATOM     22  O   UNL     1     125.932 131.522 137.094  1.00  0.00    -0.502 OA
ATOM     23  H   UNL     1     126.924 131.545 137.297  1.00  0.00     0.293 HD
ENDBRANCH   2  22
BRANCH   6  24
ATOM     24  O   UNL     1     123.394 127.598 134.539  1.00  0.00    -0.507 OA
ATOM     25  H   UNL     1     124.055 127.223 135.201  1.00  0.00     0.293 HD
ENDBRANCH   6  24
BRANCH   8  26
ATOM     26  O   UNL     1     122.921 129.549 130.196  1.00  0.00    -0.508 OA
ATOM     27  H   UNL     1     122.138 130.098 129.861  1.00  0.00     0.293 HD
ENDBRANCH   8  26
TORSDOF 6
ENDMDL
MODEL 7
REMARK VINA RESULT:    -5.560      2.422      3.575
REMARK INTER + INTRA:          -7.023
REMARK INTER:                  -6.749
REMARK INTRA:                  -0.274
REMARK UNBOUND:                -0.325
REMARK SMILES O=c1c(O)c(-c2ccc(O)c(O)c2)oc2cc(O)cc(O)c12
REMARK SMILES IDX 5 1 3 2 2 3 1 4 22 5 20 6 19 7 17 8 16 9 15 10 14 11 6 12
REMARK SMILES IDX 7 13 8 14 9 15 13 16 11 17 10 18 12 20 4 22 21 24 18 26
REMARK H PARENT 10 19 12 21 4 23 21 25 18 27
REMARK Flexibility Score: inf
ROOT
ATOM      1  C   UNL     1     127.970 120.033 138.791  1.00  0.00     0.180 A 
ATOM      2  C   UNL     1     127.501 119.081 139.712  1.00  0.00     0.208 A 
ATOM      3  C   UNL     1     126.312 118.389 139.431  1.00  0.00     0.238 A 
ATOM      4  O   UNL     1     125.858 117.594 140.294  1.00  0.00    -0.285 OA
ATOM      5  C   UNL     1     125.637 118.617 138.207  1.00  0.00     0.111 A 
ATOM      6  C   UNL     1     124.447 117.940 137.797  1.00  0.00     0.134 A 
ATOM      7  C   UNL     1     123.809 118.323 136.612  1.00  0.00     0.093 A 
ATOM      8  C   UNL     1     124.347 119.312 135.790  1.00  0.00     0.123 A 
ATOM      9  C   UNL     1     125.538 119.942 136.153  1.00  0.00     0.094 A 
ATOM     10  C   UNL     1     126.179 119.609 137.348  1.00  0.00     0.146 A 
ATOM     11  O   UNL     1     127.298 120.248 137.666  1.00  0.00    -0.452 OA
ENDROOT
BRANCH   1  12
ATOM     12  C   UNL     1     129.208 120.812 139.024  1.00  0.00     0.025 A 
ATOM     13  C   UNL     1     129.189 121.882 139.933  1.00  0.00     0.016 A 
ATOM     14  C   UNL     1     130.349 122.618 140.185  1.00  0.00     0.051 A 
ATOM     15  C   UNL     1     131.549 122.283 139.545  1.00  0.00     0.157 A 
ATOM     16  C   UNL     1     130.420 120.466 138.399  1.00  0.00     0.062 A 
ATOM     17  C   UNL     1     131.586 121.203 138.654  1.00  0.00     0.158 A 
BRANCH  15  18
ATOM     18  O   UNL     1     132.709 123.015 139.791  1.00  0.00    -0.504 OA
ATOM     19  H   UNL     1     133.012 123.226 140.734  1.00  0.00     0.293 HD
ENDBRANCH  15  18
BRANCH  17  20
ATOM     20  O   UNL     1     132.784 120.863 138.028  1.00  0.00    -0.504 OA
ATOM     21  H   UNL     1     133.535 120.404 138.531  1.00  0.00     0.293 HD
ENDBRANCH  17  20
ENDBRANCH   1  12
BRANCH   2  22
ATOM     22  O   UNL     1     128.223 118.816 140.879  1.00  0.00    -0.502 OA
ATOM     23  H   UNL     1     128.403 119.524 141.580  1.00  0.00     0.293 HD
ENDBRANCH   2  22
BRANCH   6  24
ATOM     24  O   UNL     1     123.871 116.876 138.498  1.00  0.00    -0.507 OA
ATOM     25  H   UNL     1     122.883 116.684 138.548  1.00  0.00     0.293 HD
ENDBRANCH   6  24
BRANCH   8  26
ATOM     26  O   UNL     1     123.692 119.656 134.609  1.00  0.00    -0.508 OA
ATOM     27  H   UNL     1     124.174 120.134 133.856  1.00  0.00     0.293 HD
ENDBRANCH   8  26
TORSDOF 6
ENDMDL
MODEL 8
REMARK VINA RESULT:    -5.467      5.517      8.744
REMARK INTER + INTRA:          -6.911
REMARK INTER:                  -6.789
REMARK INTRA:                  -0.122
REMARK UNBOUND:                -0.325
REMARK SMILES O=c1c(O)c(-c2ccc(O)c(O)c2)oc2cc(O)cc(O)c12
REMARK SMILES IDX 5 1 3 2 2 3 1 4 22 5 20 6 19 7 17 8 16 9 15 10 14 11 6 12
REMARK SMILES IDX 7 13 8 14 9 15 13 16 11 17 10 18 12 20 4 22 21 24 18 26
REMARK H PARENT 10 19 12 21 4 23 21 25 18 27
REMARK Flexibility Score: inf
ROOT
ATOM      1  C   UNL     1     124.028 126.584 134.160  1.00  0.00     0.180 A 
ATOM      2  C   UNL     1     123.633 127.169 135.375  1.00  0.00     0.208 A 
ATOM      3  C   UNL     1     123.552 128.569 135.463  1.00  0.00     0.238 A 
ATOM      4  O   UNL     1     123.271 129.088 136.574  1.00  0.00    -0.285 OA
ATOM      5  C   UNL     1     123.813 129.363 134.320  1.00  0.00     0.111 A 
ATOM      6  C   UNL     1     123.719 130.788 134.281  1.00  0.00     0.134 A 
ATOM      7  C   UNL     1     124.104 131.474 133.123  1.00  0.00     0.093 A 
ATOM      8  C   UNL     1     124.518 130.788 131.983  1.00  0.00     0.123 A 
ATOM      9  C   UNL     1     124.562 129.393 131.990  1.00  0.00     0.094 A 
ATOM     10  C   UNL     1     124.221 128.681 133.143  1.00  0.00     0.146 A 
ATOM     11  O   UNL     1     124.297 127.356 133.114  1.00  0.00    -0.452 OA
ENDROOT
BRANCH   1  12
ATOM     12  C   UNL     1     124.149 125.118 133.994  1.00  0.00     0.025 A 
ATOM     13  C   UNL     1     123.009 124.311 134.136  1.00  0.00     0.016 A 
ATOM     14  C   UNL     1     123.094 122.927 133.964  1.00  0.00     0.051 A 
ATOM     15  C   UNL     1     124.318 122.333 133.630  1.00  0.00     0.157 A 
ATOM     16  C   UNL     1     125.371 124.519 133.638  1.00  0.00     0.062 A 
ATOM     17  C   UNL     1     125.457 123.130 133.463  1.00  0.00     0.158 A 
BRANCH  15  18
ATOM     18  O   UNL     1     124.409 120.953 133.459  1.00  0.00    -0.504 OA
ATOM     19  H   UNL     1     124.962 120.377 134.082  1.00  0.00     0.293 HD
ENDBRANCH  15  18
BRANCH  17  20
ATOM     20  O   UNL     1     126.671 122.537 133.118  1.00  0.00    -0.504 OA
ATOM     21  H   UNL     1     127.557 122.977 133.336  1.00  0.00     0.293 HD
ENDBRANCH  17  20
ENDBRANCH   1  12
BRANCH   2  22
ATOM     22  O   UNL     1     123.305 126.365 136.469  1.00  0.00    -0.502 OA
ATOM     23  H   UNL     1     123.373 126.693 137.425  1.00  0.00     0.293 HD
ENDBRANCH   2  22
BRANCH   6  24
ATOM     24  O   UNL     1     123.233 131.569 135.334  1.00  0.00    -0.507 OA
ATOM     25  H   UNL     1     122.714 131.216 136.123  1.00  0.00     0.293 HD
ENDBRANCH   6  24
BRANCH   8  26
ATOM     26  O   UNL     1     124.878 131.503 130.842  1.00  0.00    -0.508 OA
ATOM     27  H   UNL     1     125.383 131.067 130.079  1.00  0.00     0.293 HD
ENDBRANCH   8  26
TORSDOF 6
ENDMDL
MODEL 9
REMARK VINA RESULT:    -5.442      9.468     12.060
REMARK INTER + INTRA:          -6.881
REMARK INTER:                  -6.622
REMARK INTRA:                  -0.258
REMARK UNBOUND:                -0.325
REMARK SMILES O=c1c(O)c(-c2ccc(O)c(O)c2)oc2cc(O)cc(O)c12
REMARK SMILES IDX 5 1 3 2 2 3 1 4 22 5 20 6 19 7 17 8 16 9 15 10 14 11 6 12
REMARK SMILES IDX 7 13 8 14 9 15 13 16 11 17 10 18 12 20 4 22 21 24 18 26
REMARK H PARENT 10 19 12 21 4 23 21 25 18 27
REMARK Flexibility Score: inf
ROOT
ATOM      1  C   UNL     1     125.432 132.759 134.072  1.00  0.00     0.180 A 
ATOM      2  C   UNL     1     125.106 132.801 132.705  1.00  0.00     0.208 A 
ATOM      3  C   UNL     1     124.500 131.680 132.115  1.00  0.00     0.238 A 
ATOM      4  O   UNL     1     124.280 131.696 130.876  1.00  0.00    -0.285 OA
ATOM      5  C   UNL     1     124.176 130.554 132.909  1.00  0.00     0.111 A 
ATOM      6  C   UNL     1     123.521 129.380 132.426  1.00  0.00     0.134 A 
ATOM      7  C   UNL     1     123.347 128.285 133.281  1.00  0.00     0.093 A 
ATOM      8  C   UNL     1     123.746 128.342 134.615  1.00  0.00     0.123 A 
ATOM      9  C   UNL     1     124.337 129.504 135.113  1.00  0.00     0.094 A 
ATOM     10  C   UNL     1     124.559 130.599 134.275  1.00  0.00     0.146 A 
ATOM     11  O   UNL     1     125.145 131.676 134.784  1.00  0.00    -0.452 OA
ENDROOT
BRANCH   1  12
ATOM     12  C   UNL     1     126.084 133.895 134.761  1.00  0.00     0.025 A 
ATOM     13  C   UNL     1     125.323 135.025 135.102  1.00  0.00     0.016 A 
ATOM     14  C   UNL     1     125.912 136.100 135.772  1.00  0.00     0.051 A 
ATOM     15  C   UNL     1     127.267 136.054 136.125  1.00  0.00     0.157 A 
ATOM     16  C   UNL     1     127.439 133.844 135.137  1.00  0.00     0.062 A 
ATOM     17  C   UNL     1     128.030 134.923 135.811  1.00  0.00     0.158 A 
BRANCH  15  18
ATOM     18  O   UNL     1     127.859 137.125 136.791  1.00  0.00    -0.504 OA
ATOM     19  H   UNL     1     127.535 137.428 137.702  1.00  0.00     0.293 HD
ENDBRANCH  15  18
BRANCH  17  20
ATOM     20  O   UNL     1     129.375 134.874 136.175  1.00  0.00    -0.504 OA
ATOM     21  H   UNL     1     129.718 135.344 137.005  1.00  0.00     0.293 HD
ENDBRANCH  17  20
ENDBRANCH   1  12
BRANCH   2  22
ATOM     22  O   UNL     1     125.364 133.951 131.955  1.00  0.00    -0.502 OA
ATOM     23  H   UNL     1     125.654 133.915 130.986  1.00  0.00     0.293 HD
ENDBRANCH   2  22
BRANCH   6  24
ATOM     24  O   UNL     1     123.002 129.249 131.134  1.00  0.00    -0.507 OA
ATOM     25  H   UNL     1     122.051 128.997 130.916  1.00  0.00     0.293 HD
ENDBRANCH   6  24
BRANCH   8  26
ATOM     26  O   UNL     1     123.541 127.238 135.442  1.00  0.00    -0.508 OA
ATOM     27  H   UNL     1     122.963 127.298 136.272  1.00  0.00     0.293 HD
ENDBRANCH   8  26
TORSDOF 6
ENDMDL
