MODEL 1
REMARK VINA RESULT:    -6.293      0.000      0.000
REMARK INTER + INTRA:          -9.592
REMARK INTER:                  -8.868
REMARK INTRA:                  -0.725
REMARK UNBOUND:                -0.725
REMARK SMILES COc1ccc(-c2cc(=O)c3c(OC)c(OC)c(OC)c(OC)c3o2)cc1OC
REMARK SMILES IDX 7 1 8 2 9 3 10 4 11 5 24 6 25 7 21 8 18 9 15 10 12 11 6 12
REMARK SMILES IDX 3 13 27 14 4 15 26 16 5 17 2 18 1 19 28 20 29 21 22 22 23 23
REMARK SMILES IDX 13 24 14 25 19 26 20 27 16 28 17 29
REMARK H PARENT
REMARK Flexibility Score: inf
ROOT
ATOM      1  C   UNL     1      21.831 -22.535 -11.574  1.00  0.00     0.138 A 
ATOM      2  C   UNL     1      21.164 -23.434 -10.738  1.00  0.00     0.100 A 
ATOM      3  C   UNL     1      21.304 -24.799 -10.958  1.00  0.00     0.197 A 
ATOM      4  O   UNL     1      20.698 -25.594 -10.190  1.00  0.00    -0.289 OA
ATOM      5  C   UNL     1      22.114 -25.264 -12.023  1.00  0.00     0.115 A 
ATOM      6  C   UNL     1      22.758 -24.296 -12.829  1.00  0.00     0.188 A 
ATOM      7  O   UNL     1      22.592 -23.001 -12.561  1.00  0.00    -0.452 OA
ATOM      8  C   UNL     1      23.565 -24.693 -13.921  1.00  0.00     0.209 A 
ATOM      9  C   UNL     1      23.767 -26.074 -14.173  1.00  0.00     0.211 A 
ATOM     10  C   UNL     1      23.119 -27.046 -13.369  1.00  0.00     0.208 A 
ATOM     11  C   UNL     1      22.272 -26.639 -12.310  1.00  0.00     0.179 A 
ENDROOT
BRANCH   1  12
ATOM     12  C   UNL     1      21.720 -21.069 -11.377  1.00  0.00     0.021 A 
ATOM     13  C   UNL     1      21.469 -18.280 -11.027  1.00  0.00     0.160 A 
ATOM     14  C   UNL     1      22.600 -18.947 -10.537  1.00  0.00     0.161 A 
ATOM     15  C   UNL     1      20.464 -19.012 -11.682  1.00  0.00     0.051 A 
ATOM     16  C   UNL     1      22.717 -20.342 -10.703  1.00  0.00     0.062 A 
ATOM     17  C   UNL     1      20.591 -20.390 -11.857  1.00  0.00     0.016 A 
BRANCH  13  18
ATOM     18  O   UNL     1      21.380 -16.892 -10.839  1.00  0.00    -0.493 OA
ATOM     19  C   UNL     1      21.431 -15.930 -11.891  1.00  0.00     0.278 C 
ENDBRANCH  13  18
BRANCH  14  20
ATOM     20  O   UNL     1      23.589 -18.190  -9.886  1.00  0.00    -0.493 OA
ATOM     21  C   UNL     1      23.603 -17.901  -8.492  1.00  0.00     0.278 C 
ENDBRANCH  14  20
ENDBRANCH   1  12
BRANCH   8  22
ATOM     22  O   UNL     1      24.165 -23.763 -14.793  1.00  0.00    -0.490 OA
ATOM     23  C   UNL     1      23.550 -23.055 -15.863  1.00  0.00     0.278 C 
ENDBRANCH   8  22
BRANCH  11  24
ATOM     24  O   UNL     1      21.588 -27.571 -11.502  1.00  0.00    -0.492 OA
ATOM     25  C   UNL     1      20.480 -28.379 -11.899  1.00  0.00     0.278 C 
ENDBRANCH  11  24
BRANCH   9  26
ATOM     26  O   UNL     1      24.598 -26.526 -15.217  1.00  0.00    -0.490 OA
ATOM     27  C   UNL     1      26.008 -26.738 -15.177  1.00  0.00     0.279 C 
ENDBRANCH   9  26
BRANCH  10  28
ATOM     28  O   UNL     1      23.300 -28.431 -13.555  1.00  0.00    -0.490 OA
ATOM     29  C   UNL     1      24.289 -29.273 -12.972  1.00  0.00     0.278 C 
ENDBRANCH  10  28
TORSDOF 7
ENDMDL
MODEL 2
REMARK VINA RESULT:    -6.075      1.278      3.394
REMARK INTER + INTRA:          -9.286
REMARK INTER:                  -8.517
REMARK INTRA:                  -0.769
REMARK UNBOUND:                -0.725
REMARK SMILES COc1ccc(-c2cc(=O)c3c(OC)c(OC)c(OC)c(OC)c3o2)cc1OC
REMARK SMILES IDX 7 1 8 2 9 3 10 4 11 5 24 6 25 7 21 8 18 9 15 10 12 11 6 12
REMARK SMILES IDX 3 13 27 14 4 15 26 16 5 17 2 18 1 19 28 20 29 21 22 22 23 23
REMARK SMILES IDX 13 24 14 25 19 26 20 27 16 28 17 29
REMARK H PARENT
REMARK Flexibility Score: inf
ROOT
ATOM      1  C   UNL     1      22.897 -22.906 -12.358  1.00  0.00     0.138 A 
ATOM      2  C   UNL     1      24.106 -23.071 -13.038  1.00  0.00     0.100 A 
ATOM      3  C   UNL     1      24.514 -24.349 -13.400  1.00  0.00     0.197 A 
ATOM      4  O   UNL     1      25.605 -24.477 -14.018  1.00  0.00    -0.289 OA
ATOM      5  C   UNL     1      23.706 -25.467 -13.077  1.00  0.00     0.115 A 
ATOM      6  C   UNL     1      22.495 -25.224 -12.387  1.00  0.00     0.188 A 
ATOM      7  O   UNL     1      22.155 -23.973 -12.076  1.00  0.00    -0.452 OA
ATOM      8  C   UNL     1      21.652 -26.298 -12.016  1.00  0.00     0.209 A 
ATOM      9  C   UNL     1      22.003 -27.621 -12.387  1.00  0.00     0.211 A 
ATOM     10  C   UNL     1      23.219 -27.867 -13.075  1.00  0.00     0.208 A 
ATOM     11  C   UNL     1      24.082 -26.791 -13.397  1.00  0.00     0.179 A 
ENDROOT
BRANCH   1  12
ATOM     12  C   UNL     1      22.414 -21.563 -11.955  1.00  0.00     0.021 A 
ATOM     13  C   UNL     1      21.465 -19.007 -11.224  1.00  0.00     0.160 A 
ATOM     14  C   UNL     1      22.526 -19.587 -10.516  1.00  0.00     0.161 A 
ATOM     15  C   UNL     1      20.877 -19.711 -12.289  1.00  0.00     0.051 A 
ATOM     16  C   UNL     1      22.990 -20.870 -10.876  1.00  0.00     0.062 A 
ATOM     17  C   UNL     1      21.350 -20.973 -12.651  1.00  0.00     0.016 A 
BRANCH  13  18
ATOM     18  O   UNL     1      21.023 -17.733 -10.836  1.00  0.00    -0.493 OA
ATOM     19  C   UNL     1      21.407 -16.516 -11.474  1.00  0.00     0.278 C 
ENDBRANCH  13  18
BRANCH  14  20
ATOM     20  O   UNL     1      23.095 -18.861  -9.456  1.00  0.00    -0.493 OA
ATOM     21  C   UNL     1      24.318 -18.139  -9.532  1.00  0.00     0.278 C 
ENDBRANCH  14  20
ENDBRANCH   1  12
BRANCH   8  22
ATOM     22  O   UNL     1      20.475 -26.108 -11.265  1.00  0.00    -0.490 OA
ATOM     23  C   UNL     1      20.347 -26.061  -9.849  1.00  0.00     0.278 C 
ENDBRANCH   8  22
BRANCH  11  24
ATOM     24  O   UNL     1      25.311 -26.994 -14.058  1.00  0.00    -0.492 OA
ATOM     25  C   UNL     1      25.483 -27.405 -15.414  1.00  0.00     0.278 C 
ENDBRANCH  11  24
BRANCH   9  26
ATOM     26  O   UNL     1      21.179 -28.722 -12.085  1.00  0.00    -0.490 OA
ATOM     27  C   UNL     1      21.215 -29.542 -10.919  1.00  0.00     0.279 C 
ENDBRANCH   9  26
BRANCH  10  28
ATOM     28  O   UNL     1      23.610 -29.155 -13.492  1.00  0.00    -0.490 OA
ATOM     29  C   UNL     1      24.425 -30.093 -12.796  1.00  0.00     0.278 C 
ENDBRANCH  10  28
TORSDOF 7
ENDMDL
MODEL 3
REMARK VINA RESULT:    -5.868      1.490      3.827
REMARK INTER + INTRA:          -8.994
REMARK INTER:                  -8.247
REMARK INTRA:                  -0.747
REMARK UNBOUND:                -0.725
REMARK SMILES COc1ccc(-c2cc(=O)c3c(OC)c(OC)c(OC)c(OC)c3o2)cc1OC
REMARK SMILES IDX 7 1 8 2 9 3 10 4 11 5 24 6 25 7 21 8 18 9 15 10 12 11 6 12
REMARK SMILES IDX 3 13 27 14 4 15 26 16 5 17 2 18 1 19 28 20 29 21 22 22 23 23
REMARK SMILES IDX 13 24 14 25 19 26 20 27 16 28 17 29
REMARK H PARENT
REMARK Flexibility Score: inf
ROOT
ATOM      1  C   UNL     1      23.233 -22.960 -12.275  1.00  0.00     0.138 A 
ATOM      2  C   UNL     1      24.392 -23.214 -13.012  1.00  0.00     0.100 A 
ATOM      3  C   UNL     1      24.648 -24.508 -13.452  1.00  0.00     0.197 A 
ATOM      4  O   UNL     1      25.696 -24.716 -14.121  1.00  0.00    -0.289 OA
ATOM      5  C   UNL     1      23.739 -25.550 -13.148  1.00  0.00     0.115 A 
ATOM      6  C   UNL     1      22.587 -25.219 -12.396  1.00  0.00     0.188 A 
ATOM      7  O   UNL     1      22.394 -23.958 -12.012  1.00  0.00    -0.452 OA
ATOM      8  C   UNL     1      21.650 -26.217 -12.041  1.00  0.00     0.209 A 
ATOM      9  C   UNL     1      21.845 -27.549 -12.489  1.00  0.00     0.211 A 
ATOM     10  C   UNL     1      23.002 -27.884 -13.239  1.00  0.00     0.208 A 
ATOM     11  C   UNL     1      23.960 -26.888 -13.547  1.00  0.00     0.179 A 
ENDROOT
BRANCH   1  12
ATOM     12  C   UNL     1      22.911 -21.597 -11.788  1.00  0.00     0.021 A 
ATOM     13  C   UNL     1      22.337 -19.001 -10.838  1.00  0.00     0.160 A 
ATOM     14  C   UNL     1      21.411 -19.668 -11.652  1.00  0.00     0.161 A 
ATOM     15  C   UNL     1      23.550 -19.631 -10.511  1.00  0.00     0.051 A 
ATOM     16  C   UNL     1      21.706 -20.960 -12.135  1.00  0.00     0.062 A 
ATOM     17  C   UNL     1      23.831 -20.916 -10.979  1.00  0.00     0.016 A 
BRANCH  13  18
ATOM     18  O   UNL     1      22.017 -17.714 -10.380  1.00  0.00    -0.493 OA
ATOM     19  C   UNL     1      22.010 -17.325  -9.008  1.00  0.00     0.278 C 
ENDBRANCH  13  18
BRANCH  14  20
ATOM     20  O   UNL     1      20.207 -19.015 -11.963  1.00  0.00    -0.493 OA
ATOM     21  C   UNL     1      19.938 -18.355 -13.195  1.00  0.00     0.278 C 
ENDBRANCH  14  20
ENDBRANCH   1  12
BRANCH   8  22
ATOM     22  O   UNL     1      20.528 -25.946 -11.232  1.00  0.00    -0.490 OA
ATOM     23  C   UNL     1      20.454 -25.980  -9.812  1.00  0.00     0.278 C 
ENDBRANCH   8  22
BRANCH  11  24
ATOM     24  O   UNL     1      25.136 -27.183 -14.268  1.00  0.00    -0.492 OA
ATOM     25  C   UNL     1      25.208 -27.586 -15.636  1.00  0.00     0.278 C 
ENDBRANCH  11  24
BRANCH   9  26
ATOM     26  O   UNL     1      20.920 -28.573 -12.205  1.00  0.00    -0.490 OA
ATOM     27  C   UNL     1      20.918 -29.456 -11.085  1.00  0.00     0.279 C 
ENDBRANCH   9  26
BRANCH  10  28
ATOM     28  O   UNL     1      23.238 -29.183 -13.733  1.00  0.00    -0.490 OA
ATOM     29  C   UNL     1      23.971 -30.236 -13.116  1.00  0.00     0.278 C 
ENDBRANCH  10  28
TORSDOF 7
ENDMDL
MODEL 4
REMARK VINA RESULT:    -5.860      0.833      1.769
REMARK INTER + INTRA:          -8.982
REMARK INTER:                  -8.232
REMARK INTRA:                  -0.750
REMARK UNBOUND:                -0.725
REMARK SMILES COc1ccc(-c2cc(=O)c3c(OC)c(OC)c(OC)c(OC)c3o2)cc1OC
REMARK SMILES IDX 7 1 8 2 9 3 10 4 11 5 24 6 25 7 21 8 18 9 15 10 12 11 6 12
REMARK SMILES IDX 3 13 27 14 4 15 26 16 5 17 2 18 1 19 28 20 29 21 22 22 23 23
REMARK SMILES IDX 13 24 14 25 19 26 20 27 16 28 17 29
REMARK H PARENT
REMARK Flexibility Score: inf
ROOT
ATOM      1  C   UNL     1      22.145 -22.588 -11.397  1.00  0.00     0.138 A 
ATOM      2  C   UNL     1      21.357 -23.410 -10.588  1.00  0.00     0.100 A 
ATOM      3  C   UNL     1      21.246 -24.761 -10.896  1.00  0.00     0.197 A 
ATOM      4  O   UNL     1      20.535 -25.489 -10.151  1.00  0.00    -0.289 OA
ATOM      5  C   UNL     1      21.927 -25.288 -12.021  1.00  0.00     0.115 A 
ATOM      6  C   UNL     1      22.705 -24.395 -12.794  1.00  0.00     0.188 A 
ATOM      7  O   UNL     1      22.778 -23.112 -12.442  1.00  0.00    -0.452 OA
ATOM      8  C   UNL     1      23.393 -24.853 -13.943  1.00  0.00     0.209 A 
ATOM      9  C   UNL     1      23.340 -26.228 -14.286  1.00  0.00     0.211 A 
ATOM     10  C   UNL     1      22.557 -27.124 -13.514  1.00  0.00     0.208 A 
ATOM     11  C   UNL     1      21.830 -26.647 -12.396  1.00  0.00     0.179 A 
ENDROOT
BRANCH   1  12
ATOM     12  C   UNL     1      22.300 -21.141 -11.108  1.00  0.00     0.021 A 
ATOM     13  C   UNL     1      22.635 -18.398 -10.533  1.00  0.00     0.160 A 
ATOM     14  C   UNL     1      21.530 -18.826 -11.283  1.00  0.00     0.161 A 
ATOM     15  C   UNL     1      23.572 -19.343 -10.082  1.00  0.00     0.051 A 
ATOM     16  C   UNL     1      21.373 -20.195 -11.579  1.00  0.00     0.062 A 
ATOM     17  C   UNL     1      23.403 -20.700 -10.365  1.00  0.00     0.016 A 
BRANCH  13  18
ATOM     18  O   UNL     1      22.766 -17.028 -10.262  1.00  0.00    -0.493 OA
ATOM     19  C   UNL     1      23.703 -16.474  -9.339  1.00  0.00     0.278 C 
ENDBRANCH  13  18
BRANCH  14  20
ATOM     20  O   UNL     1      20.610 -17.859 -11.721  1.00  0.00    -0.493 OA
ATOM     21  C   UNL     1      20.566 -17.318 -13.036  1.00  0.00     0.278 C 
ENDBRANCH  14  20
ENDBRANCH   1  12
BRANCH   8  22
ATOM     22  O   UNL     1      24.120 -23.986 -14.783  1.00  0.00    -0.490 OA
ATOM     23  C   UNL     1      23.606 -23.125 -15.793  1.00  0.00     0.278 C 
ENDBRANCH   8  22
BRANCH  11  24
ATOM     24  O   UNL     1      21.019 -27.498 -11.617  1.00  0.00    -0.492 OA
ATOM     25  C   UNL     1      19.778 -28.081 -12.016  1.00  0.00     0.278 C 
ENDBRANCH  11  24
BRANCH   9  26
ATOM     26  O   UNL     1      24.044 -26.747 -15.391  1.00  0.00    -0.490 OA
ATOM     27  C   UNL     1      25.385 -27.231 -15.418  1.00  0.00     0.279 C 
ENDBRANCH   9  26
BRANCH  10  28
ATOM     28  O   UNL     1      22.485 -28.504 -13.790  1.00  0.00    -0.490 OA
ATOM     29  C   UNL     1      23.323 -29.543 -13.296  1.00  0.00     0.278 C 
ENDBRANCH  10  28
TORSDOF 7
ENDMDL
MODEL 5
REMARK VINA RESULT:    -5.838      1.348      1.484
REMARK INTER + INTRA:          -8.952
REMARK INTER:                  -8.304
REMARK INTRA:                  -0.648
REMARK UNBOUND:                -0.725
REMARK SMILES COc1ccc(-c2cc(=O)c3c(OC)c(OC)c(OC)c(OC)c3o2)cc1OC
REMARK SMILES IDX 7 1 8 2 9 3 10 4 11 5 24 6 25 7 21 8 18 9 15 10 12 11 6 12
REMARK SMILES IDX 3 13 27 14 4 15 26 16 5 17 2 18 1 19 28 20 29 21 22 22 23 23
REMARK SMILES IDX 13 24 14 25 19 26 20 27 16 28 17 29
REMARK H PARENT
REMARK Flexibility Score: inf
ROOT
ATOM      1  C   UNL     1      21.787 -23.561 -11.611  1.00  0.00     0.138 A 
ATOM      2  C   UNL     1      20.934 -24.390 -10.879  1.00  0.00     0.100 A 
ATOM      3  C   UNL     1      21.003 -25.767 -11.059  1.00  0.00     0.197 A 
ATOM      4  O   UNL     1      20.229 -26.499 -10.385  1.00  0.00    -0.289 OA
ATOM      5  C   UNL     1      21.931 -26.313 -11.980  1.00  0.00     0.115 A 
ATOM      6  C   UNL     1      22.762 -25.412 -12.687  1.00  0.00     0.188 A 
ATOM      7  O   UNL     1      22.653 -24.103 -12.462  1.00  0.00    -0.452 OA
ATOM      8  C   UNL     1      23.696 -25.891 -13.636  1.00  0.00     0.209 A 
ATOM      9  C   UNL     1      23.831 -27.288 -13.838  1.00  0.00     0.211 A 
ATOM     10  C   UNL     1      22.995 -28.192 -13.133  1.00  0.00     0.208 A 
ATOM     11  C   UNL     1      22.028 -27.702 -12.223  1.00  0.00     0.179 A 
ENDROOT
BRANCH   1  12
ATOM     12  C   UNL     1      21.756 -22.087 -11.451  1.00  0.00     0.021 A 
ATOM     13  C   UNL     1      21.657 -19.281 -11.166  1.00  0.00     0.160 A 
ATOM     14  C   UNL     1      22.792 -19.986 -10.743  1.00  0.00     0.161 A 
ATOM     15  C   UNL     1      20.573 -19.982 -11.721  1.00  0.00     0.051 A 
ATOM     16  C   UNL     1      22.833 -21.389 -10.876  1.00  0.00     0.062 A 
ATOM     17  C   UNL     1      20.625 -21.369 -11.864  1.00  0.00     0.016 A 
BRANCH  13  18
ATOM     18  O   UNL     1      21.644 -17.885 -11.014  1.00  0.00    -0.493 OA
ATOM     19  C   UNL     1      21.084 -16.976 -11.959  1.00  0.00     0.278 C 
ENDBRANCH  13  18
BRANCH  14  20
ATOM     20  O   UNL     1      23.860 -19.259 -10.192  1.00  0.00    -0.493 OA
ATOM     21  C   UNL     1      25.124 -19.813  -9.844  1.00  0.00     0.278 C 
ENDBRANCH  14  20
ENDBRANCH   1  12
BRANCH   8  22
ATOM     22  O   UNL     1      24.491 -25.026 -14.414  1.00  0.00    -0.490 OA
ATOM     23  C   UNL     1      25.877 -24.746 -14.258  1.00  0.00     0.278 C 
ENDBRANCH   8  22
BRANCH  11  24
ATOM     24  O   UNL     1      21.161 -28.564 -11.521  1.00  0.00    -0.492 OA
ATOM     25  C   UNL     1      21.536 -29.495 -10.505  1.00  0.00     0.278 C 
ENDBRANCH  11  24
BRANCH   9  26
ATOM     26  O   UNL     1      24.776 -27.822 -14.735  1.00  0.00    -0.490 OA
ATOM     27  C   UNL     1      24.601 -28.091 -16.125  1.00  0.00     0.279 C 
ENDBRANCH   9  26
BRANCH  10  28
ATOM     28  O   UNL     1      23.100 -29.591 -13.273  1.00  0.00    -0.490 OA
ATOM     29  C   UNL     1      22.421 -30.434 -14.198  1.00  0.00     0.278 C 
ENDBRANCH  10  28
TORSDOF 7
ENDMDL
MODEL 6
REMARK VINA RESULT:    -5.651      1.522      1.712
REMARK INTER + INTRA:          -8.689
REMARK INTER:                  -8.029
REMARK INTRA:                  -0.660
REMARK UNBOUND:                -0.725
REMARK SMILES COc1ccc(-c2cc(=O)c3c(OC)c(OC)c(OC)c(OC)c3o2)cc1OC
REMARK SMILES IDX 7 1 8 2 9 3 10 4 11 5 24 6 25 7 21 8 18 9 15 10 12 11 6 12
REMARK SMILES IDX 3 13 27 14 4 15 26 16 5 17 2 18 1 19 28 20 29 21 22 22 23 23
REMARK SMILES IDX 13 24 14 25 19 26 20 27 16 28 17 29
REMARK H PARENT
REMARK Flexibility Score: inf
ROOT
ATOM      1  C   UNL     1      21.943 -23.342 -11.904  1.00  0.00     0.138 A 
ATOM      2  C   UNL     1      21.174 -24.100 -11.017  1.00  0.00     0.100 A 
ATOM      3  C   UNL     1      21.273 -25.486 -11.045  1.00  0.00     0.197 A 
ATOM      4  O   UNL     1      20.576 -26.152 -10.233  1.00  0.00    -0.289 OA
ATOM      5  C   UNL     1      22.145 -26.114 -11.968  1.00  0.00     0.115 A 
ATOM      6  C   UNL     1      22.891 -25.282 -12.836  1.00  0.00     0.188 A 
ATOM      7  O   UNL     1      22.758 -23.959 -12.754  1.00  0.00    -0.452 OA
ATOM      8  C   UNL     1      23.764 -25.847 -13.796  1.00  0.00     0.209 A 
ATOM      9  C   UNL     1      23.927 -27.254 -13.848  1.00  0.00     0.211 A 
ATOM     10  C   UNL     1      23.177 -28.090 -12.981  1.00  0.00     0.208 A 
ATOM     11  C   UNL     1      22.267 -27.519 -12.059  1.00  0.00     0.179 A 
ENDROOT
BRANCH   1  12
ATOM     12  C   UNL     1      21.878 -21.860 -11.910  1.00  0.00     0.021 A 
ATOM     13  C   UNL     1      21.710 -19.043 -11.914  1.00  0.00     0.160 A 
ATOM     14  C   UNL     1      22.933 -19.670 -12.189  1.00  0.00     0.161 A 
ATOM     15  C   UNL     1      20.578 -19.826 -11.629  1.00  0.00     0.051 A 
ATOM     16  C   UNL     1      23.016 -21.078 -12.174  1.00  0.00     0.062 A 
ATOM     17  C   UNL     1      20.663 -21.219 -11.631  1.00  0.00     0.016 A 
BRANCH  13  18
ATOM     18  O   UNL     1      21.662 -17.640 -11.929  1.00  0.00    -0.493 OA
ATOM     19  C   UNL     1      20.956 -16.867 -12.898  1.00  0.00     0.278 C 
ENDBRANCH  13  18
BRANCH  14  20
ATOM     20  O   UNL     1      24.047 -18.861 -12.469  1.00  0.00    -0.493 OA
ATOM     21  C   UNL     1      24.376 -18.352 -13.757  1.00  0.00     0.278 C 
ENDBRANCH  14  20
ENDBRANCH   1  12
BRANCH   8  22
ATOM     22  O   UNL     1      24.470 -25.060 -14.728  1.00  0.00    -0.490 OA
ATOM     23  C   UNL     1      25.846 -24.699 -14.693  1.00  0.00     0.278 C 
ENDBRANCH   8  22
BRANCH  11  24
ATOM     24  O   UNL     1      21.483 -28.313 -11.196  1.00  0.00    -0.492 OA
ATOM     25  C   UNL     1      20.304 -29.036 -11.553  1.00  0.00     0.278 C 
ENDBRANCH  11  24
BRANCH   9  26
ATOM     26  O   UNL     1      24.818 -27.868 -14.751  1.00  0.00    -0.490 OA
ATOM     27  C   UNL     1      24.589 -28.175 -16.125  1.00  0.00     0.279 C 
ENDBRANCH   9  26
BRANCH  10  28
ATOM     28  O   UNL     1      23.314 -29.492 -12.969  1.00  0.00    -0.490 OA
ATOM     29  C   UNL     1      22.719 -30.440 -13.849  1.00  0.00     0.278 C 
ENDBRANCH  10  28
TORSDOF 7
ENDMDL
MODEL 7
REMARK VINA RESULT:    -5.627      2.033      3.982
REMARK INTER + INTRA:          -8.654
REMARK INTER:                  -7.870
REMARK INTRA:                  -0.784
REMARK UNBOUND:                -0.725
REMARK SMILES COc1ccc(-c2cc(=O)c3c(OC)c(OC)c(OC)c(OC)c3o2)cc1OC
REMARK SMILES IDX 7 1 8 2 9 3 10 4 11 5 24 6 25 7 21 8 18 9 15 10 12 11 6 12
REMARK SMILES IDX 3 13 27 14 4 15 26 16 5 17 2 18 1 19 28 20 29 21 22 22 23 23
REMARK SMILES IDX 13 24 14 25 19 26 20 27 16 28 17 29
REMARK H PARENT
REMARK Flexibility Score: inf
ROOT
ATOM      1  C   UNL     1      23.326 -23.898 -12.756  1.00  0.00     0.138 A 
ATOM      2  C   UNL     1      24.631 -23.996 -13.245  1.00  0.00     0.100 A 
ATOM      3  C   UNL     1      25.181 -25.253 -13.470  1.00  0.00     0.197 A 
ATOM      4  O   UNL     1      26.358 -25.321 -13.917  1.00  0.00    -0.289 OA
ATOM      5  C   UNL     1      24.419 -26.416 -13.200  1.00  0.00     0.115 A 
ATOM      6  C   UNL     1      23.105 -26.240 -12.705  1.00  0.00     0.188 A 
ATOM      7  O   UNL     1      22.632 -25.008 -12.520  1.00  0.00    -0.452 OA
ATOM      8  C   UNL     1      22.299 -27.360 -12.396  1.00  0.00     0.209 A 
ATOM      9  C   UNL     1      22.798 -28.666 -12.634  1.00  0.00     0.211 A 
ATOM     10  C   UNL     1      24.116 -28.845 -13.126  1.00  0.00     0.208 A 
ATOM     11  C   UNL     1      24.935 -27.719 -13.384  1.00  0.00     0.179 A 
ENDROOT
BRANCH   1  12
ATOM     12  C   UNL     1      22.692 -22.581 -12.506  1.00  0.00     0.021 A 
ATOM     13  C   UNL     1      21.443 -20.096 -12.027  1.00  0.00     0.160 A 
ATOM     14  C   UNL     1      22.814 -20.145 -12.317  1.00  0.00     0.161 A 
ATOM     15  C   UNL     1      20.705 -21.290 -11.969  1.00  0.00     0.051 A 
ATOM     16  C   UNL     1      23.437 -21.389 -12.544  1.00  0.00     0.062 A 
ATOM     17  C   UNL     1      21.324 -22.518 -12.209  1.00  0.00     0.016 A 
BRANCH  13  18
ATOM     18  O   UNL     1      20.855 -18.842 -11.799  1.00  0.00    -0.493 OA
ATOM     19  C   UNL     1      20.241 -18.043 -12.808  1.00  0.00     0.278 C 
ENDBRANCH  13  18
BRANCH  14  20
ATOM     20  O   UNL     1      23.527 -18.936 -12.367  1.00  0.00    -0.493 OA
ATOM     21  C   UNL     1      24.137 -18.402 -13.537  1.00  0.00     0.278 C 
ENDBRANCH  14  20
ENDBRANCH   1  12
BRANCH   8  22
ATOM     22  O   UNL     1      21.013 -27.232 -11.833  1.00  0.00    -0.490 OA
ATOM     23  C   UNL     1      20.676 -27.131 -10.454  1.00  0.00     0.278 C 
ENDBRANCH   8  22
BRANCH  11  24
ATOM     24  O   UNL     1      26.259 -27.852 -13.850  1.00  0.00    -0.492 OA
ATOM     25  C   UNL     1      27.393 -28.236 -13.071  1.00  0.00     0.278 C 
ENDBRANCH  11  24
BRANCH   9  26
ATOM     26  O   UNL     1      22.021 -29.816 -12.389  1.00  0.00    -0.490 OA
ATOM     27  C   UNL     1      21.976 -30.597 -11.196  1.00  0.00     0.279 C 
ENDBRANCH   9  26
BRANCH  10  28
ATOM     28  O   UNL     1      24.658 -30.115 -13.405  1.00  0.00    -0.490 OA
ATOM     29  C   UNL     1      24.605 -30.843 -14.628  1.00  0.00     0.278 C 
ENDBRANCH  10  28
TORSDOF 7
ENDMDL
MODEL 8
REMARK VINA RESULT:    -5.545      2.120      8.569
REMARK INTER + INTRA:          -8.538
REMARK INTER:                  -7.812
REMARK INTRA:                  -0.726
REMARK UNBOUND:                -0.725
REMARK SMILES COc1ccc(-c2cc(=O)c3c(OC)c(OC)c(OC)c(OC)c3o2)cc1OC
REMARK SMILES IDX 7 1 8 2 9 3 10 4 11 5 24 6 25 7 21 8 18 9 15 10 12 11 6 12
REMARK SMILES IDX 3 13 27 14 4 15 26 16 5 17 2 18 1 19 28 20 29 21 22 22 23 23
REMARK SMILES IDX 13 24 14 25 19 26 20 27 16 28 17 29
REMARK H PARENT
REMARK Flexibility Score: inf
ROOT
ATOM      1  C   UNL     1      23.667 -22.765 -13.440  1.00  0.00     0.138 A 
ATOM      2  C   UNL     1      22.636 -22.389 -14.304  1.00  0.00     0.100 A 
ATOM      3  C   UNL     1      22.087 -21.116 -14.194  1.00  0.00     0.197 A 
ATOM      4  O   UNL     1      21.161 -20.793 -14.987  1.00  0.00    -0.289 OA
ATOM      5  C   UNL     1      22.574 -20.219 -13.212  1.00  0.00     0.115 A 
ATOM      6  C   UNL     1      23.619 -20.669 -12.372  1.00  0.00     0.188 A 
ATOM      7  O   UNL     1      24.109 -21.898 -12.533  1.00  0.00    -0.452 OA
ATOM      8  C   UNL     1      24.136 -19.830 -11.357  1.00  0.00     0.209 A 
ATOM      9  C   UNL     1      23.635 -18.511 -11.220  1.00  0.00     0.211 A 
ATOM     10  C   UNL     1      22.584 -18.059 -12.059  1.00  0.00     0.208 A 
ATOM     11  C   UNL     1      22.037 -18.923 -13.038  1.00  0.00     0.179 A 
ENDROOT
BRANCH   1  12
ATOM     12  C   UNL     1      24.290 -24.108 -13.520  1.00  0.00     0.021 A 
ATOM     13  C   UNL     1      25.514 -26.646 -13.695  1.00  0.00     0.160 A 
ATOM     14  C   UNL     1      24.224 -26.527 -13.158  1.00  0.00     0.161 A 
ATOM     15  C   UNL     1      26.190 -25.495 -14.134  1.00  0.00     0.051 A 
ATOM     16  C   UNL     1      23.621 -25.256 -13.061  1.00  0.00     0.062 A 
ATOM     17  C   UNL     1      25.582 -24.241 -14.049  1.00  0.00     0.016 A 
BRANCH  13  18
ATOM     18  O   UNL     1      26.089 -27.924 -13.770  1.00  0.00    -0.493 OA
ATOM     19  C   UNL     1      27.018 -28.448 -12.823  1.00  0.00     0.278 C 
ENDBRANCH  13  18
BRANCH  14  20
ATOM     20  O   UNL     1      23.573 -27.695 -12.727  1.00  0.00    -0.493 OA
ATOM     21  C   UNL     1      22.304 -28.137 -13.197  1.00  0.00     0.278 C 
ENDBRANCH  14  20
ENDBRANCH   1  12
BRANCH   8  22
ATOM     22  O   UNL     1      25.125 -20.263 -10.452  1.00  0.00    -0.490 OA
ATOM     23  C   UNL     1      24.936 -20.754  -9.130  1.00  0.00     0.278 C 
ENDBRANCH   8  22
BRANCH  11  24
ATOM     24  O   UNL     1      20.975 -18.523 -13.876  1.00  0.00    -0.492 OA
ATOM     25  C   UNL     1      19.634 -18.253 -13.467  1.00  0.00     0.278 C 
ENDBRANCH  11  24
BRANCH   9  26
ATOM     26  O   UNL     1      24.145 -17.616 -10.259  1.00  0.00    -0.490 OA
ATOM     27  C   UNL     1      23.592 -17.304  -8.982  1.00  0.00     0.279 C 
ENDBRANCH   9  26
BRANCH  10  28
ATOM     28  O   UNL     1      22.061 -16.752 -11.987  1.00  0.00    -0.490 OA
ATOM     29  C   UNL     1      22.510 -15.588 -12.674  1.00  0.00     0.278 C 
ENDBRANCH  10  28
TORSDOF 7
ENDMDL
MODEL 9
REMARK VINA RESULT:    -5.434      2.430      4.542
REMARK INTER + INTRA:          -8.383
REMARK INTER:                  -7.639
REMARK INTRA:                  -0.744
REMARK UNBOUND:                -0.725
REMARK SMILES COc1ccc(-c2cc(=O)c3c(OC)c(OC)c(OC)c(OC)c3o2)cc1OC
REMARK SMILES IDX 7 1 8 2 9 3 10 4 11 5 24 6 25 7 21 8 18 9 15 10 12 11 6 12
REMARK SMILES IDX 3 13 27 14 4 15 26 16 5 17 2 18 1 19 28 20 29 21 22 22 23 23
REMARK SMILES IDX 13 24 14 25 19 26 20 27 16 28 17 29
REMARK H PARENT
REMARK Flexibility Score: inf
ROOT
ATOM      1  C   UNL     1      21.361 -24.368 -11.718  1.00  0.00     0.138 A 
ATOM      2  C   UNL     1      21.232 -24.969 -12.972  1.00  0.00     0.100 A 
ATOM      3  C   UNL     1      21.058 -26.346 -13.052  1.00  0.00     0.197 A 
ATOM      4  O   UNL     1      20.938 -26.869 -14.193  1.00  0.00    -0.289 OA
ATOM      5  C   UNL     1      21.017 -27.122 -11.869  1.00  0.00     0.115 A 
ATOM      6  C   UNL     1      21.156 -26.446 -10.635  1.00  0.00     0.188 A 
ATOM      7  O   UNL     1      21.310 -25.123 -10.624  1.00  0.00    -0.452 OA
ATOM      8  C   UNL     1      21.144 -27.165  -9.416  1.00  0.00     0.209 A 
ATOM      9  C   UNL     1      20.940 -28.569  -9.437  1.00  0.00     0.211 A 
ATOM     10  C   UNL     1      20.804 -29.249 -10.674  1.00  0.00     0.208 A 
ATOM     11  C   UNL     1      20.869 -28.528 -11.891  1.00  0.00     0.179 A 
ENDROOT
BRANCH   1  12
ATOM     12  C   UNL     1      21.541 -22.903 -11.578  1.00  0.00     0.021 A 
ATOM     13  C   UNL     1      21.840 -20.107 -11.326  1.00  0.00     0.160 A 
ATOM     14  C   UNL     1      22.938 -20.950 -11.104  1.00  0.00     0.161 A 
ATOM     15  C   UNL     1      20.596 -20.666 -11.664  1.00  0.00     0.051 A 
ATOM     16  C   UNL     1      22.782 -22.347 -11.220  1.00  0.00     0.062 A 
ATOM     17  C   UNL     1      20.451 -22.048 -11.791  1.00  0.00     0.016 A 
BRANCH  13  18
ATOM     18  O   UNL     1      22.027 -18.722 -11.197  1.00  0.00    -0.493 OA
ATOM     19  C   UNL     1      21.615 -17.955 -10.067  1.00  0.00     0.278 C 
ENDBRANCH  13  18
BRANCH  14  20
ATOM     20  O   UNL     1      24.169 -20.364 -10.768  1.00  0.00    -0.493 OA
ATOM     21  C   UNL     1      24.667 -20.228  -9.441  1.00  0.00     0.278 C 
ENDBRANCH  14  20
ENDBRANCH   1  12
BRANCH   8  22
ATOM     22  O   UNL     1      21.352 -26.542  -8.170  1.00  0.00    -0.490 OA
ATOM     23  C   UNL     1      20.366 -26.151  -7.220  1.00  0.00     0.278 C 
ENDBRANCH   8  22
BRANCH  11  24
ATOM     24  O   UNL     1      20.764 -29.168 -13.143  1.00  0.00    -0.492 OA
ATOM     25  C   UNL     1      21.740 -30.025 -13.737  1.00  0.00     0.278 C 
ENDBRANCH  11  24
BRANCH   9  26
ATOM     26  O   UNL     1      20.872 -29.328  -8.252  1.00  0.00    -0.490 OA
ATOM     27  C   UNL     1      19.700 -29.769  -7.568  1.00  0.00     0.279 C 
ENDBRANCH   9  26
BRANCH  10  28
ATOM     28  O   UNL     1      20.575 -30.637 -10.758  1.00  0.00    -0.490 OA
ATOM     29  C   UNL     1      19.327 -31.316 -10.861  1.00  0.00     0.278 C 
ENDBRANCH  10  28
TORSDOF 7
ENDMDL
