MODEL 1
REMARK VINA RESULT:    -4.358      0.000      0.000
REMARK INTER + INTRA:          -9.059
REMARK INTER:                  -7.669
REMARK INTRA:                  -1.389
REMARK UNBOUND:                -1.389
REMARK SMILES CCCCCCCCCCCCCCC(=O)[O-]
REMARK SMILES IDX 9 1 10 2 11 3 12 4 13 5 14 6 15 7 16 8 17 9 8 10 7 11 6 12
REMARK SMILES IDX 5 13 4 14 3 15 2 16 1 17
REMARK H PARENT
REMARK Flexibility Score: inf
ROOT
ATOM      1  C   UNL     1      -3.380 -36.670  45.354  1.00  0.00     0.000 C 
ENDROOT
BRANCH   1   2
ATOM      2  C   UNL     1      -4.871 -36.399  45.099  1.00  0.00     0.000 C 
BRANCH   2   3
ATOM      3  C   UNL     1      -5.107 -35.211  44.150  1.00  0.00     0.000 C 
BRANCH   3   4
ATOM      4  C   UNL     1      -6.214 -34.250  44.631  1.00  0.00     0.000 C 
BRANCH   4   5
ATOM      5  C   UNL     1      -6.866 -34.724  45.942  1.00  0.00     0.006 C 
BRANCH   5   6
ATOM      6  C   UNL     1      -6.668 -33.719  47.084  1.00  0.00     0.053 C 
BRANCH   6   7
ATOM      7  C   UNL     1      -5.404 -33.988  47.843  1.00  0.00     0.041 C 
ATOM      8  O   UNL     1      -4.551 -33.075  47.998  1.00  0.00    -0.550 OA
ATOM      9  O   UNL     1      -5.183 -35.240  48.403  1.00  0.00    -0.550 OA
ENDBRANCH   6   7
ENDBRANCH   5   6
ENDBRANCH   4   5
ENDBRANCH   3   4
ENDBRANCH   2   3
ENDBRANCH   1   2
BRANCH   1  10
ATOM     10  C   UNL     1      -2.644 -35.446  45.921  1.00  0.00     0.000 C 
BRANCH  10  11
ATOM     11  C   UNL     1      -1.117 -35.620  45.917  1.00  0.00    -0.000 C 
BRANCH  11  12
ATOM     12  C   UNL     1      -0.683 -36.629  44.846  1.00  0.00    -0.000 C 
BRANCH  12  13
ATOM     13  C   UNL     1       0.723 -36.306  44.325  1.00  0.00    -0.000 C 
BRANCH  13  14
ATOM     14  C   UNL     1       0.953 -34.792  44.265  1.00  0.00    -0.000 C 
BRANCH  14  15
ATOM     15  C   UNL     1       2.425 -34.450  44.543  1.00  0.00    -0.000 C 
BRANCH  15  16
ATOM     16  C   UNL     1       2.794 -34.592  46.028  1.00  0.00    -0.003 C 
ATOM     17  C   UNL     1       2.033 -33.615  46.924  1.00  0.00     0.004 C 
ENDBRANCH  15  16
ENDBRANCH  14  15
ENDBRANCH  13  14
ENDBRANCH  12  13
ENDBRANCH  11  12
ENDBRANCH  10  11
ENDBRANCH   1  10
TORSDOF 13
ENDMDL
MODEL 2
REMARK VINA RESULT:    -4.284      2.860      7.073
REMARK INTER + INTRA:          -8.930
REMARK INTER:                  -7.556
REMARK INTRA:                  -1.374
REMARK UNBOUND:                -1.389
REMARK SMILES CCCCCCCCCCCCCCC(=O)[O-]
REMARK SMILES IDX 9 1 10 2 11 3 12 4 13 5 14 6 15 7 16 8 17 9 8 10 7 11 6 12
REMARK SMILES IDX 5 13 4 14 3 15 2 16 1 17
REMARK H PARENT
REMARK Flexibility Score: inf
ROOT
ATOM      1  C   UNL     1      -1.926 -34.069  45.818  1.00  0.00     0.000 C 
ENDROOT
BRANCH   1   2
ATOM      2  C   UNL     1      -0.486 -34.584  45.973  1.00  0.00     0.000 C 
BRANCH   2   3
ATOM      3  C   UNL     1       0.309 -34.538  44.656  1.00  0.00     0.000 C 
BRANCH   3   4
ATOM      4  C   UNL     1       1.306 -35.705  44.499  1.00  0.00     0.000 C 
BRANCH   4   5
ATOM      5  C   UNL     1       2.221 -35.857  45.727  1.00  0.00     0.006 C 
BRANCH   5   6
ATOM      6  C   UNL     1       3.257 -34.730  45.821  1.00  0.00     0.053 C 
BRANCH   6   7
ATOM      7  C   UNL     1       3.226 -34.063  47.163  1.00  0.00     0.041 C 
ATOM      8  O   UNL     1       2.376 -33.166  47.406  1.00  0.00    -0.550 OA
ATOM      9  O   UNL     1       4.118 -34.452  48.154  1.00  0.00    -0.550 OA
ENDBRANCH   6   7
ENDBRANCH   5   6
ENDBRANCH   4   5
ENDBRANCH   3   4
ENDBRANCH   2   3
ENDBRANCH   1   2
BRANCH   1  10
ATOM     10  C   UNL     1      -2.830 -34.480  46.990  1.00  0.00     0.000 C 
BRANCH  10  11
ATOM     11  C   UNL     1      -3.308 -35.937  46.884  1.00  0.00    -0.000 C 
BRANCH  11  12
ATOM     12  C   UNL     1      -3.581 -36.320  45.425  1.00  0.00    -0.000 C 
BRANCH  12  13
ATOM     13  C   UNL     1      -5.082 -36.256  45.112  1.00  0.00    -0.000 C 
BRANCH  13  14
ATOM     14  C   UNL     1      -5.385 -35.147  44.098  1.00  0.00    -0.000 C 
BRANCH  14  15
ATOM     15  C   UNL     1      -6.238 -34.040  44.735  1.00  0.00    -0.000 C 
BRANCH  15  16
ATOM     16  C   UNL     1      -6.787 -34.437  46.114  1.00  0.00    -0.003 C 
ATOM     17  C   UNL     1      -6.646 -33.323  47.152  1.00  0.00     0.004 C 
ENDBRANCH  15  16
ENDBRANCH  14  15
ENDBRANCH  13  14
ENDBRANCH  12  13
ENDBRANCH  11  12
ENDBRANCH  10  11
ENDBRANCH   1  10
TORSDOF 13
ENDMDL
MODEL 3
REMARK VINA RESULT:    -4.161      2.740      6.889
REMARK INTER + INTRA:          -8.713
REMARK INTER:                  -6.913
REMARK INTRA:                  -1.799
REMARK UNBOUND:                -1.389
REMARK SMILES CCCCCCCCCCCCCCC(=O)[O-]
REMARK SMILES IDX 9 1 10 2 11 3 12 4 13 5 14 6 15 7 16 8 17 9 8 10 7 11 6 12
REMARK SMILES IDX 5 13 4 14 3 15 2 16 1 17
REMARK H PARENT
REMARK Flexibility Score: inf
ROOT
ATOM      1  C   UNL     1      -2.779 -33.726  46.985  1.00  0.00     0.000 C 
ENDROOT
BRANCH   1   2
ATOM      2  C   UNL     1      -1.916 -34.322  45.862  1.00  0.00     0.000 C 
BRANCH   2   3
ATOM      3  C   UNL     1      -1.649 -35.826  46.049  1.00  0.00     0.000 C 
BRANCH   3   4
ATOM      4  C   UNL     1      -0.992 -36.491  44.822  1.00  0.00     0.000 C 
BRANCH   4   5
ATOM      5  C   UNL     1       0.483 -36.850  45.076  1.00  0.00     0.006 C 
BRANCH   5   6
ATOM      6  C   UNL     1       1.426 -36.167  44.077  1.00  0.00     0.053 C 
BRANCH   6   7
ATOM      7  C   UNL     1       1.885 -34.830  44.577  1.00  0.00     0.041 C 
ATOM      8  O   UNL     1       2.444 -34.018  43.794  1.00  0.00    -0.550 OA
ATOM      9  O   UNL     1       1.671 -34.473  45.902  1.00  0.00    -0.550 OA
ENDBRANCH   6   7
ENDBRANCH   5   6
ENDBRANCH   4   5
ENDBRANCH   3   4
ENDBRANCH   2   3
ENDBRANCH   1   2
BRANCH   1  10
ATOM     10  C   UNL     1      -3.315 -34.795  47.951  1.00  0.00     0.000 C 
BRANCH  10  11
ATOM     11  C   UNL     1      -4.821 -34.651  48.214  1.00  0.00    -0.000 C 
BRANCH  11  12
ATOM     12  C   UNL     1      -5.356 -33.335  47.636  1.00  0.00    -0.000 C 
BRANCH  12  13
ATOM     13  C   UNL     1      -6.808 -33.489  47.167  1.00  0.00    -0.000 C 
BRANCH  13  14
ATOM     14  C   UNL     1      -6.914 -34.517  46.034  1.00  0.00    -0.000 C 
BRANCH  14  15
ATOM     15  C   UNL     1      -6.027 -34.116  44.846  1.00  0.00    -0.000 C 
BRANCH  15  16
ATOM     16  C   UNL     1      -5.471 -35.331  44.088  1.00  0.00    -0.003 C 
ATOM     17  C   UNL     1      -4.941 -36.420  45.021  1.00  0.00     0.004 C 
ENDBRANCH  15  16
ENDBRANCH  14  15
ENDBRANCH  13  14
ENDBRANCH  12  13
ENDBRANCH  11  12
ENDBRANCH  10  11
ENDBRANCH   1  10
TORSDOF 13
ENDMDL
MODEL 4
REMARK VINA RESULT:    -4.161      1.936      2.906
REMARK INTER + INTRA:          -8.713
REMARK INTER:                  -7.687
REMARK INTRA:                  -1.025
REMARK UNBOUND:                -1.389
REMARK SMILES CCCCCCCCCCCCCCC(=O)[O-]
REMARK SMILES IDX 9 1 10 2 11 3 12 4 13 5 14 6 15 7 16 8 17 9 8 10 7 11 6 12
REMARK SMILES IDX 5 13 4 14 3 15 2 16 1 17
REMARK H PARENT
REMARK Flexibility Score: inf
ROOT
ATOM      1  C   UNL     1      -1.800 -34.077  46.066  1.00  0.00     0.000 C 
ENDROOT
BRANCH   1   2
ATOM      2  C   UNL     1      -2.855 -33.968  47.179  1.00  0.00     0.000 C 
BRANCH   2   3
ATOM      3  C   UNL     1      -3.617 -35.284  47.410  1.00  0.00     0.000 C 
BRANCH   3   4
ATOM      4  C   UNL     1      -5.054 -35.079  47.934  1.00  0.00     0.000 C 
BRANCH   4   5
ATOM      5  C   UNL     1      -6.113 -35.590  46.942  1.00  0.00     0.006 C 
BRANCH   5   6
ATOM      6  C   UNL     1      -6.626 -34.479  46.018  1.00  0.00     0.053 C 
BRANCH   6   7
ATOM      7  C   UNL     1      -6.066 -34.610  44.633  1.00  0.00     0.041 C 
ATOM      8  O   UNL     1      -6.342 -33.751  43.754  1.00  0.00    -0.550 OA
ATOM      9  O   UNL     1      -5.218 -35.665  44.323  1.00  0.00    -0.550 OA
ENDBRANCH   6   7
ENDBRANCH   5   6
ENDBRANCH   4   5
ENDBRANCH   3   4
ENDBRANCH   2   3
ENDBRANCH   1   2
BRANCH   1  10
ATOM     10  C   UNL     1      -1.523 -35.532  45.654  1.00  0.00     0.000 C 
BRANCH  10  11
ATOM     11  C   UNL     1      -0.183 -35.692  44.921  1.00  0.00    -0.000 C 
BRANCH  11  12
ATOM     12  C   UNL     1       0.586 -34.366  44.885  1.00  0.00    -0.000 C 
BRANCH  12  13
ATOM     13  C   UNL     1       2.084 -34.604  44.659  1.00  0.00    -0.000 C 
BRANCH  13  14
ATOM     14  C   UNL     1       2.816 -34.806  45.991  1.00  0.00    -0.000 C 
BRANCH  14  15
ATOM     15  C   UNL     1       2.285 -33.840  47.061  1.00  0.00    -0.000 C 
BRANCH  15  16
ATOM     16  C   UNL     1       3.407 -33.050  47.752  1.00  0.00    -0.003 C 
ATOM     17  C   UNL     1       2.916 -31.741  48.369  1.00  0.00     0.004 C 
ENDBRANCH  15  16
ENDBRANCH  14  15
ENDBRANCH  13  14
ENDBRANCH  12  13
ENDBRANCH  11  12
ENDBRANCH  10  11
ENDBRANCH   1  10
TORSDOF 13
ENDMDL
MODEL 5
REMARK VINA RESULT:    -4.117      2.757      7.000
REMARK INTER + INTRA:          -8.635
REMARK INTER:                  -7.186
REMARK INTRA:                  -1.449
REMARK UNBOUND:                -1.389
REMARK SMILES CCCCCCCCCCCCCCC(=O)[O-]
REMARK SMILES IDX 9 1 10 2 11 3 12 4 13 5 14 6 15 7 16 8 17 9 8 10 7 11 6 12
REMARK SMILES IDX 5 13 4 14 3 15 2 16 1 17
REMARK H PARENT
REMARK Flexibility Score: inf
ROOT
ATOM      1  C   UNL     1      -2.433 -34.268  46.031  1.00  0.00     0.000 C 
ENDROOT
BRANCH   1   2
ATOM      2  C   UNL     1      -0.942 -34.424  45.692  1.00  0.00     0.000 C 
BRANCH   2   3
ATOM      3  C   UNL     1      -0.593 -35.828  45.168  1.00  0.00     0.000 C 
BRANCH   3   4
ATOM      4  C   UNL     1       0.770 -35.894  44.448  1.00  0.00     0.000 C 
BRANCH   4   5
ATOM      5  C   UNL     1       1.502 -34.540  44.463  1.00  0.00     0.006 C 
BRANCH   5   6
ATOM      6  C   UNL     1       2.808 -34.597  45.266  1.00  0.00     0.053 C 
BRANCH   6   7
ATOM      7  C   UNL     1       2.564 -34.399  46.731  1.00  0.00     0.041 C 
ATOM      8  O   UNL     1       2.529 -35.390  47.507  1.00  0.00    -0.550 OA
ATOM      9  O   UNL     1       2.405 -33.118  47.243  1.00  0.00    -0.550 OA
ENDBRANCH   6   7
ENDBRANCH   5   6
ENDBRANCH   4   5
ENDBRANCH   3   4
ENDBRANCH   2   3
ENDBRANCH   1   2
BRANCH   1  10
ATOM     10  C   UNL     1      -2.691 -34.181  47.543  1.00  0.00     0.000 C 
BRANCH  10  11
ATOM     11  C   UNL     1      -3.678 -35.250  48.036  1.00  0.00    -0.000 C 
BRANCH  11  12
ATOM     12  C   UNL     1      -3.811 -36.387  47.015  1.00  0.00    -0.000 C 
BRANCH  12  13
ATOM     13  C   UNL     1      -5.274 -36.582  46.596  1.00  0.00    -0.000 C 
BRANCH  13  14
ATOM     14  C   UNL     1      -6.192 -35.602  47.334  1.00  0.00    -0.000 C 
BRANCH  14  15
ATOM     15  C   UNL     1      -7.030 -34.782  46.342  1.00  0.00    -0.000 C 
BRANCH  15  16
ATOM     16  C   UNL     1      -6.182 -33.795  45.527  1.00  0.00    -0.003 C 
ATOM     17  C   UNL     1      -6.194 -34.099  44.029  1.00  0.00     0.004 C 
ENDBRANCH  15  16
ENDBRANCH  14  15
ENDBRANCH  13  14
ENDBRANCH  12  13
ENDBRANCH  11  12
ENDBRANCH  10  11
ENDBRANCH   1  10
TORSDOF 13
ENDMDL
MODEL 6
REMARK VINA RESULT:    -4.092      3.072      7.257
REMARK INTER + INTRA:          -8.591
REMARK INTER:                  -7.412
REMARK INTRA:                  -1.179
REMARK UNBOUND:                -1.389
REMARK SMILES CCCCCCCCCCCCCCC(=O)[O-]
REMARK SMILES IDX 9 1 10 2 11 3 12 4 13 5 14 6 15 7 16 8 17 9 8 10 7 11 6 12
REMARK SMILES IDX 5 13 4 14 3 15 2 16 1 17
REMARK H PARENT
REMARK Flexibility Score: inf
ROOT
ATOM      1  C   UNL     1      -1.008 -35.611  45.638  1.00  0.00     0.000 C 
ENDROOT
BRANCH   1   2
ATOM      2  C   UNL     1       0.275 -35.851  44.826  1.00  0.00     0.000 C 
BRANCH   2   3
ATOM      3  C   UNL     1       0.994 -34.545  44.446  1.00  0.00     0.000 C 
BRANCH   3   4
ATOM      4  C   UNL     1       2.474 -34.508  44.879  1.00  0.00     0.000 C 
BRANCH   4   5
ATOM      5  C   UNL     1       2.639 -34.661  46.401  1.00  0.00     0.006 C 
BRANCH   5   6
ATOM      6  C   UNL     1       2.087 -33.453  47.168  1.00  0.00     0.053 C 
BRANCH   6   7
ATOM      7  C   UNL     1       3.159 -32.763  47.956  1.00  0.00     0.041 C 
ATOM      8  O   UNL     1       3.022 -31.558  48.295  1.00  0.00    -0.550 OA
ATOM      9  O   UNL     1       4.297 -33.461  48.341  1.00  0.00    -0.550 OA
ENDBRANCH   6   7
ENDBRANCH   5   6
ENDBRANCH   4   5
ENDBRANCH   3   4
ENDBRANCH   2   3
ENDBRANCH   1   2
BRANCH   1  10
ATOM     10  C   UNL     1      -1.299 -34.118  45.858  1.00  0.00     0.000 C 
BRANCH  10  11
ATOM     11  C   UNL     1      -2.646 -33.876  46.555  1.00  0.00    -0.000 C 
BRANCH  11  12
ATOM     12  C   UNL     1      -3.268 -35.198  47.021  1.00  0.00    -0.000 C 
BRANCH  12  13
ATOM     13  C   UNL     1      -4.320 -34.957  48.111  1.00  0.00    -0.000 C 
BRANCH  13  14
ATOM     14  C   UNL     1      -5.679 -35.539  47.703  1.00  0.00    -0.000 C 
BRANCH  14  15
ATOM     15  C   UNL     1      -5.803 -35.622  46.174  1.00  0.00    -0.000 C 
BRANCH  15  16
ATOM     16  C   UNL     1      -6.551 -34.420  45.577  1.00  0.00    -0.003 C 
ATOM     17  C   UNL     1      -6.057 -34.051  44.178  1.00  0.00     0.004 C 
ENDBRANCH  15  16
ENDBRANCH  14  15
ENDBRANCH  13  14
ENDBRANCH  12  13
ENDBRANCH  11  12
ENDBRANCH  10  11
ENDBRANCH   1  10
TORSDOF 13
ENDMDL
MODEL 7
REMARK VINA RESULT:    -4.040      1.798      2.682
REMARK INTER + INTRA:          -8.499
REMARK INTER:                  -6.936
REMARK INTRA:                  -1.563
REMARK UNBOUND:                -1.389
REMARK SMILES CCCCCCCCCCCCCCC(=O)[O-]
REMARK SMILES IDX 9 1 10 2 11 3 12 4 13 5 14 6 15 7 16 8 17 9 8 10 7 11 6 12
REMARK SMILES IDX 5 13 4 14 3 15 2 16 1 17
REMARK H PARENT
REMARK Flexibility Score: inf
ROOT
ATOM      1  C   UNL     1      -1.985 -34.323  45.860  1.00  0.00     0.000 C 
ENDROOT
BRANCH   1   2
ATOM      2  C   UNL     1      -2.661 -33.695  47.090  1.00  0.00     0.000 C 
BRANCH   2   3
ATOM      3  C   UNL     1      -3.570 -34.684  47.841  1.00  0.00     0.000 C 
BRANCH   3   4
ATOM      4  C   UNL     1      -5.042 -34.228  47.919  1.00  0.00     0.000 C 
BRANCH   4   5
ATOM      5  C   UNL     1      -5.991 -35.204  47.201  1.00  0.00     0.006 C 
BRANCH   5   6
ATOM      6  C   UNL     1      -6.777 -34.523  46.072  1.00  0.00     0.053 C 
BRANCH   6   7
ATOM      7  C   UNL     1      -6.046 -34.603  44.766  1.00  0.00     0.041 C 
ATOM      8  O   UNL     1      -6.288 -33.770  43.853  1.00  0.00    -0.550 OA
ATOM      9  O   UNL     1      -5.079 -35.580  44.568  1.00  0.00    -0.550 OA
ENDBRANCH   6   7
ENDBRANCH   5   6
ENDBRANCH   4   5
ENDBRANCH   3   4
ENDBRANCH   2   3
ENDBRANCH   1   2
BRANCH   1  10
ATOM     10  C   UNL     1      -1.784 -35.840  46.005  1.00  0.00     0.000 C 
BRANCH  10  11
ATOM     11  C   UNL     1      -0.750 -36.395  45.013  1.00  0.00    -0.000 C 
BRANCH  11  12
ATOM     12  C   UNL     1       0.178 -35.284  44.508  1.00  0.00    -0.000 C 
BRANCH  12  13
ATOM     13  C   UNL     1       1.649 -35.702  44.622  1.00  0.00    -0.000 C 
BRANCH  13  14
ATOM     14  C   UNL     1       2.542 -34.493  44.928  1.00  0.00    -0.000 C 
BRANCH  14  15
ATOM     15  C   UNL     1       2.886 -34.429  46.424  1.00  0.00    -0.000 C 
BRANCH  15  16
ATOM     16  C   UNL     1       1.834 -33.664  47.240  1.00  0.00    -0.003 C 
ATOM     17  C   UNL     1       1.047 -34.568  48.188  1.00  0.00     0.004 C 
ENDBRANCH  15  16
ENDBRANCH  14  15
ENDBRANCH  13  14
ENDBRANCH  12  13
ENDBRANCH  11  12
ENDBRANCH  10  11
ENDBRANCH   1  10
TORSDOF 13
ENDMDL
MODEL 8
REMARK VINA RESULT:    -4.022      3.033      6.579
REMARK INTER + INTRA:          -8.469
REMARK INTER:                  -6.522
REMARK INTRA:                  -1.947
REMARK UNBOUND:                -1.389
REMARK SMILES CCCCCCCCCCCCCCC(=O)[O-]
REMARK SMILES IDX 9 1 10 2 11 3 12 4 13 5 14 6 15 7 16 8 17 9 8 10 7 11 6 12
REMARK SMILES IDX 5 13 4 14 3 15 2 16 1 17
REMARK H PARENT
REMARK Flexibility Score: inf
ROOT
ATOM      1  C   UNL     1      -3.538 -34.487  48.682  1.00  0.00     0.000 C 
ENDROOT
BRANCH   1   2
ATOM      2  C   UNL     1      -2.613 -33.609  47.824  1.00  0.00     0.000 C 
BRANCH   2   3
ATOM      3  C   UNL     1      -1.407 -34.382  47.264  1.00  0.00     0.000 C 
BRANCH   3   4
ATOM      4  C   UNL     1      -1.181 -34.162  45.754  1.00  0.00     0.000 C 
BRANCH   4   5
ATOM      5  C   UNL     1      -0.342 -35.286  45.121  1.00  0.00     0.006 C 
BRANCH   5   6
ATOM      6  C   UNL     1       0.961 -34.760  44.507  1.00  0.00     0.053 C 
BRANCH   6   7
ATOM      7  C   UNL     1       2.119 -34.926  45.445  1.00  0.00     0.041 C 
ATOM      8  O   UNL     1       3.258 -34.493  45.128  1.00  0.00    -0.550 OA
ATOM      9  O   UNL     1       1.932 -35.533  46.680  1.00  0.00    -0.550 OA
ENDBRANCH   6   7
ENDBRANCH   5   6
ENDBRANCH   4   5
ENDBRANCH   3   4
ENDBRANCH   2   3
ENDBRANCH   1   2
BRANCH   1  10
ATOM     10  C   UNL     1      -3.372 -35.986  48.387  1.00  0.00     0.000 C 
BRANCH  10  11
ATOM     11  C   UNL     1      -4.423 -36.514  47.399  1.00  0.00    -0.000 C 
BRANCH  11  12
ATOM     12  C   UNL     1      -3.788 -36.824  46.037  1.00  0.00    -0.000 C 
BRANCH  12  13
ATOM     13  C   UNL     1      -4.583 -36.172  44.899  1.00  0.00    -0.000 C 
BRANCH  13  14
ATOM     14  C   UNL     1      -4.997 -34.742  45.265  1.00  0.00    -0.000 C 
BRANCH  14  15
ATOM     15  C   UNL     1      -6.519 -34.569  45.166  1.00  0.00    -0.000 C 
BRANCH  15  16
ATOM     16  C   UNL     1      -7.173 -34.292  46.528  1.00  0.00    -0.003 C 
ATOM     17  C   UNL     1      -6.580 -33.072  47.233  1.00  0.00     0.004 C 
ENDBRANCH  15  16
ENDBRANCH  14  15
ENDBRANCH  13  14
ENDBRANCH  12  13
ENDBRANCH  11  12
ENDBRANCH  10  11
ENDBRANCH   1  10
TORSDOF 13
ENDMDL
MODEL 9
REMARK VINA RESULT:    -3.935      1.976      3.297
REMARK INTER + INTRA:          -8.316
REMARK INTER:                  -6.905
REMARK INTRA:                  -1.411
REMARK UNBOUND:                -1.389
REMARK SMILES CCCCCCCCCCCCCCC(=O)[O-]
REMARK SMILES IDX 9 1 10 2 11 3 12 4 13 5 14 6 15 7 16 8 17 9 8 10 7 11 6 12
REMARK SMILES IDX 5 13 4 14 3 15 2 16 1 17
REMARK H PARENT
REMARK Flexibility Score: inf
ROOT
ATOM      1  C   UNL     1      -1.254 -34.301  46.130  1.00  0.00     0.000 C 
ENDROOT
BRANCH   1   2
ATOM      2  C   UNL     1      -2.781 -34.224  46.288  1.00  0.00     0.000 C 
BRANCH   2   3
ATOM      3  C   UNL     1      -3.212 -33.516  47.585  1.00  0.00     0.000 C 
BRANCH   3   4
ATOM      4  C   UNL     1      -4.726 -33.612  47.864  1.00  0.00     0.000 C 
BRANCH   4   5
ATOM      5  C   UNL     1      -5.391 -34.756  47.078  1.00  0.00     0.006 C 
BRANCH   5   6
ATOM      6  C   UNL     1      -6.468 -34.246  46.113  1.00  0.00     0.053 C 
BRANCH   6   7
ATOM      7  C   UNL     1      -6.113 -34.538  44.686  1.00  0.00     0.041 C 
ATOM      8  O   UNL     1      -6.429 -33.727  43.776  1.00  0.00    -0.550 OA
ATOM      9  O   UNL     1      -5.409 -35.692  44.367  1.00  0.00    -0.550 OA
ENDBRANCH   6   7
ENDBRANCH   5   6
ENDBRANCH   4   5
ENDBRANCH   3   4
ENDBRANCH   2   3
ENDBRANCH   1   2
BRANCH   1  10
ATOM     10  C   UNL     1      -0.511 -34.112  47.461  1.00  0.00     0.000 C 
BRANCH  10  11
ATOM     11  C   UNL     1       0.389 -35.308  47.810  1.00  0.00    -0.000 C 
BRANCH  11  12
ATOM     12  C   UNL     1       1.850 -34.869  47.963  1.00  0.00    -0.000 C 
BRANCH  12  13
ATOM     13  C   UNL     1       2.256 -33.905  46.841  1.00  0.00    -0.000 C 
BRANCH  13  14
ATOM     14  C   UNL     1       2.863 -34.665  45.656  1.00  0.00    -0.000 C 
BRANCH  14  15
ATOM     15  C   UNL     1       1.930 -34.617  44.437  1.00  0.00    -0.000 C 
BRANCH  15  16
ATOM     16  C   UNL     1       1.311 -35.985  44.113  1.00  0.00    -0.003 C 
ATOM     17  C   UNL     1       1.936 -37.124  44.918  1.00  0.00     0.004 C 
ENDBRANCH  15  16
ENDBRANCH  14  15
ENDBRANCH  13  14
ENDBRANCH  12  13
ENDBRANCH  11  12
ENDBRANCH  10  11
ENDBRANCH   1  10
TORSDOF 13
ENDMDL
