MODEL 1
REMARK VINA RESULT:    -3.883      0.000      0.000
REMARK INTER + INTRA:          -4.309
REMARK INTER:                  -4.110
REMARK INTRA:                  -0.200
REMARK UNBOUND:                -0.200
REMARK SMILES CC1=CC[C@@H](C(C)C)C=C1
REMARK SMILES IDX 1 1 2 2 3 3 4 4 5 5 9 6 10 7 6 8 7 9 8 10
REMARK H PARENT
REMARK Flexibility Score: inf
ROOT
ATOM      1  C   UNL     1      15.804   2.285  18.500  1.00  0.00     0.044 C 
ATOM      2  C   UNL     1      14.645   3.232  18.424  1.00  0.00    -0.055 C 
ATOM      3  C   UNL     1      13.864   3.436  19.496  1.00  0.00    -0.023 C 
ATOM      4  C   UNL     1      12.736   4.433  19.446  1.00  0.00     0.035 C 
ATOM      5  C   UNL     1      12.064   4.448  18.048  1.00  0.00     0.018 C 
ATOM      6  C   UNL     1      13.142   4.520  16.978  1.00  0.00    -0.023 C 
ATOM      7  C   UNL     1      14.315   3.897  17.145  1.00  0.00    -0.001 C 
ENDROOT
BRANCH   5   8
ATOM      8  C   UNL     1      11.023   5.600  17.885  1.00  0.00    -0.010 C 
ATOM      9  C   UNL     1      10.876   6.060  16.422  1.00  0.00     0.008 C 
ATOM     10  C   UNL     1      11.404   6.821  18.745  1.00  0.00     0.008 C 
ENDBRANCH   5   8
TORSDOF 1
ENDMDL
MODEL 2
REMARK VINA RESULT:    -3.771      1.644      2.200
REMARK INTER + INTRA:          -4.191
REMARK INTER:                  -3.991
REMARK INTRA:                  -0.199
REMARK UNBOUND:                -0.200
REMARK SMILES CC1=CC[C@@H](C(C)C)C=C1
REMARK SMILES IDX 1 1 2 2 3 3 4 4 5 5 9 6 10 7 6 8 7 9 8 10
REMARK H PARENT
REMARK Flexibility Score: inf
ROOT
ATOM      1  C   UNL     1      16.686   4.525  16.626  1.00  0.00     0.044 C 
ATOM      2  C   UNL     1      15.265   4.985  16.759  1.00  0.00    -0.055 C 
ATOM      3  C   UNL     1      14.325   4.154  17.234  1.00  0.00    -0.023 C 
ATOM      4  C   UNL     1      12.909   4.629  17.429  1.00  0.00     0.035 C 
ATOM      5  C   UNL     1      12.495   5.629  16.319  1.00  0.00     0.018 C 
ATOM      6  C   UNL     1      13.591   6.670  16.154  1.00  0.00    -0.023 C 
ATOM      7  C   UNL     1      14.879   6.338  16.303  1.00  0.00    -0.001 C 
ENDROOT
BRANCH   5   8
ATOM      8  C   UNL     1      11.110   6.299  16.587  1.00  0.00    -0.010 C 
ATOM      9  C   UNL     1      10.965   7.658  15.877  1.00  0.00     0.008 C 
ATOM     10  C   UNL     1      10.876   6.509  18.096  1.00  0.00     0.008 C 
ENDBRANCH   5   8
TORSDOF 1
ENDMDL
MODEL 3
REMARK VINA RESULT:    -3.726      1.607      2.400
REMARK INTER + INTRA:          -4.144
REMARK INTER:                  -4.007
REMARK INTRA:                  -0.137
REMARK UNBOUND:                -0.200
REMARK SMILES CC1=CC[C@@H](C(C)C)C=C1
REMARK SMILES IDX 1 1 2 2 3 3 4 4 5 5 9 6 10 7 6 8 7 9 8 10
REMARK H PARENT
REMARK Flexibility Score: inf
ROOT
ATOM      1  C   UNL     1      17.183   4.588  16.460  1.00  0.00     0.044 C 
ATOM      2  C   UNL     1      15.705   4.828  16.529  1.00  0.00    -0.055 C 
ATOM      3  C   UNL     1      15.196   6.022  16.186  1.00  0.00    -0.023 C 
ATOM      4  C   UNL     1      13.707   6.251  16.193  1.00  0.00     0.035 C 
ATOM      5  C   UNL     1      13.027   5.481  17.354  1.00  0.00     0.018 C 
ATOM      6  C   UNL     1      13.539   4.050  17.369  1.00  0.00    -0.023 C 
ATOM      7  C   UNL     1      14.806   3.771  17.040  1.00  0.00    -0.001 C 
ENDROOT
BRANCH   5   8
ATOM      8  C   UNL     1      11.467   5.527  17.285  1.00  0.00    -0.010 C 
ATOM      9  C   UNL     1      10.953   6.238  16.020  1.00  0.00     0.008 C 
ATOM     10  C   UNL     1      10.876   6.237  18.519  1.00  0.00     0.008 C 
ENDBRANCH   5   8
TORSDOF 1
ENDMDL
MODEL 4
REMARK VINA RESULT:    -3.722      1.131      4.460
REMARK INTER + INTRA:          -4.140
REMARK INTER:                  -3.948
REMARK INTRA:                  -0.192
REMARK UNBOUND:                -0.200
REMARK SMILES CC1=CC[C@@H](C(C)C)C=C1
REMARK SMILES IDX 1 1 2 2 3 3 4 4 5 5 9 6 10 7 6 8 7 9 8 10
REMARK H PARENT
REMARK Flexibility Score: inf
ROOT
ATOM      1  C   UNL     1      10.875   7.738  15.894  1.00  0.00     0.044 C 
ATOM      2  C   UNL     1      11.711   6.727  16.622  1.00  0.00    -0.055 C 
ATOM      3  C   UNL     1      12.990   6.527  16.272  1.00  0.00    -0.023 C 
ATOM      4  C   UNL     1      13.853   5.559  17.038  1.00  0.00     0.035 C 
ATOM      5  C   UNL     1      13.033   4.331  17.510  1.00  0.00     0.018 C 
ATOM      6  C   UNL     1      11.741   4.813  18.151  1.00  0.00    -0.023 C 
ATOM      7  C   UNL     1      11.107   5.895  17.685  1.00  0.00    -0.001 C 
ENDROOT
BRANCH   5   8
ATOM      8  C   UNL     1      13.833   3.399  18.475  1.00  0.00    -0.010 C 
ATOM      9  C   UNL     1      13.636   3.773  19.955  1.00  0.00     0.008 C 
ATOM     10  C   UNL     1      15.342   3.432  18.159  1.00  0.00     0.008 C 
ENDBRANCH   5   8
TORSDOF 1
ENDMDL
MODEL 5
REMARK VINA RESULT:    -3.663     11.602     14.800
REMARK INTER + INTRA:          -4.077
REMARK INTER:                  -3.876
REMARK INTRA:                  -0.200
REMARK UNBOUND:                -0.200
REMARK SMILES CC1=CC[C@@H](C(C)C)C=C1
REMARK SMILES IDX 1 1 2 2 3 3 4 4 5 5 9 6 10 7 6 8 7 9 8 10
REMARK H PARENT
REMARK Flexibility Score: inf
ROOT
ATOM      1  C   UNL     1      23.684   1.369  17.375  1.00  0.00     0.044 C 
ATOM      2  C   UNL     1      25.065   1.901  17.132  1.00  0.00    -0.055 C 
ATOM      3  C   UNL     1      25.269   2.870  16.227  1.00  0.00    -0.023 C 
ATOM      4  C   UNL     1      26.643   3.453  16.023  1.00  0.00     0.035 C 
ATOM      5  C   UNL     1      27.740   2.369  16.181  1.00  0.00     0.018 C 
ATOM      6  C   UNL     1      27.473   1.572  17.448  1.00  0.00    -0.023 C 
ATOM      7  C   UNL     1      26.221   1.312  17.843  1.00  0.00    -0.001 C 
ENDROOT
BRANCH   5   8
ATOM      8  C   UNL     1      29.186   2.959  16.176  1.00  0.00    -0.010 C 
ATOM      9  C   UNL     1      30.092   2.312  17.239  1.00  0.00     0.008 C 
ATOM     10  C   UNL     1      29.167   4.482  16.413  1.00  0.00     0.008 C 
ENDBRANCH   5   8
TORSDOF 1
ENDMDL
MODEL 6
REMARK VINA RESULT:    -3.608      0.912      2.131
REMARK INTER + INTRA:          -4.018
REMARK INTER:                  -3.820
REMARK INTRA:                  -0.199
REMARK UNBOUND:                -0.200
REMARK SMILES CC1=CC[C@@H](C(C)C)C=C1
REMARK SMILES IDX 1 1 2 2 3 3 4 4 5 5 9 6 10 7 6 8 7 9 8 10
REMARK H PARENT
REMARK Flexibility Score: inf
ROOT
ATOM      1  C   UNL     1      15.492   2.421  18.333  1.00  0.00     0.044 C 
ATOM      2  C   UNL     1      14.495   3.471  17.941  1.00  0.00    -0.055 C 
ATOM      3  C   UNL     1      14.631   4.136  16.785  1.00  0.00    -0.023 C 
ATOM      4  C   UNL     1      13.600   5.147  16.355  1.00  0.00     0.035 C 
ATOM      5  C   UNL     1      13.034   5.922  17.574  1.00  0.00     0.018 C 
ATOM      6  C   UNL     1      12.665   4.931  18.666  1.00  0.00    -0.023 C 
ATOM      7  C   UNL     1      13.393   3.825  18.862  1.00  0.00    -0.001 C 
ENDROOT
BRANCH   5   8
ATOM      8  C   UNL     1      11.824   6.838  17.205  1.00  0.00    -0.010 C 
ATOM      9  C   UNL     1      10.997   7.247  18.438  1.00  0.00     0.008 C 
ATOM     10  C   UNL     1      10.888   6.145  16.196  1.00  0.00     0.008 C 
ENDBRANCH   5   8
TORSDOF 1
ENDMDL
MODEL 7
REMARK VINA RESULT:    -3.588      1.508      1.938
REMARK INTER + INTRA:          -3.997
REMARK INTER:                  -3.797
REMARK INTRA:                  -0.200
REMARK UNBOUND:                -0.200
REMARK SMILES CC1=CC[C@@H](C(C)C)C=C1
REMARK SMILES IDX 1 1 2 2 3 3 4 4 5 5 9 6 10 7 6 8 7 9 8 10
REMARK H PARENT
REMARK Flexibility Score: inf
ROOT
ATOM      1  C   UNL     1      13.857   2.867  21.051  1.00  0.00     0.044 C 
ATOM      2  C   UNL     1      13.221   3.947  20.227  1.00  0.00    -0.055 C 
ATOM      3  C   UNL     1      12.697   5.031  20.819  1.00  0.00    -0.023 C 
ATOM      4  C   UNL     1      12.113   6.148  19.994  1.00  0.00     0.035 C 
ATOM      5  C   UNL     1      11.401   5.599  18.731  1.00  0.00     0.018 C 
ATOM      6  C   UNL     1      12.312   4.593  18.045  1.00  0.00    -0.023 C 
ATOM      7  C   UNL     1      13.108   3.790  18.760  1.00  0.00    -0.001 C 
ENDROOT
BRANCH   5   8
ATOM      8  C   UNL     1      10.953   6.725  17.745  1.00  0.00    -0.010 C 
ATOM      9  C   UNL     1      10.875   6.236  16.287  1.00  0.00     0.008 C 
ATOM     10  C   UNL     1      11.911   7.931  17.805  1.00  0.00     0.008 C 
ENDBRANCH   5   8
TORSDOF 1
ENDMDL
MODEL 8
REMARK VINA RESULT:    -3.533      1.975      3.522
REMARK INTER + INTRA:          -3.939
REMARK INTER:                  -3.743
REMARK INTRA:                  -0.196
REMARK UNBOUND:                -0.200
REMARK SMILES CC1=CC[C@@H](C(C)C)C=C1
REMARK SMILES IDX 1 1 2 2 3 3 4 4 5 5 9 6 10 7 6 8 7 9 8 10
REMARK H PARENT
REMARK Flexibility Score: inf
ROOT
ATOM      1  C   UNL     1      13.581   2.423  21.591  1.00  0.00     0.044 C 
ATOM      2  C   UNL     1      14.000   3.017  20.279  1.00  0.00    -0.055 C 
ATOM      3  C   UNL     1      13.156   3.799  19.590  1.00  0.00    -0.023 C 
ATOM      4  C   UNL     1      13.591   4.450  18.303  1.00  0.00     0.035 C 
ATOM      5  C   UNL     1      14.538   3.522  17.498  1.00  0.00     0.018 C 
ATOM      6  C   UNL     1      15.607   2.973  18.430  1.00  0.00    -0.023 C 
ATOM      7  C   UNL     1      15.323   2.687  19.706  1.00  0.00    -0.001 C 
ENDROOT
BRANCH   5   8
ATOM      8  C   UNL     1      15.172   4.226  16.257  1.00  0.00    -0.010 C 
ATOM      9  C   UNL     1      16.645   4.613  16.486  1.00  0.00     0.008 C 
ATOM     10  C   UNL     1      14.387   5.496  15.875  1.00  0.00     0.008 C 
ENDBRANCH   5   8
TORSDOF 1
ENDMDL
MODEL 9
REMARK VINA RESULT:    -2.056      1.938      4.822
REMARK INTER + INTRA:          -2.376
REMARK INTER:                  -2.180
REMARK INTRA:                  -0.196
REMARK UNBOUND:                -0.200
REMARK SMILES CC1=CC[C@@H](C(C)C)C=C1
REMARK SMILES IDX 1 1 2 2 3 3 4 4 5 5 9 6 10 7 6 8 7 9 8 10
REMARK H PARENT
REMARK Flexibility Score: inf
ROOT
ATOM      1  C   UNL     1      11.803   6.038  17.985  1.00  0.00     0.044 C 
ATOM      2  C   UNL     1      12.978   5.273  18.518  1.00  0.00    -0.055 C 
ATOM      3  C   UNL     1      12.959   3.932  18.543  1.00  0.00    -0.023 C 
ATOM      4  C   UNL     1      14.159   3.156  19.018  1.00  0.00     0.035 C 
ATOM      5  C   UNL     1      14.876   3.890  20.181  1.00  0.00     0.018 C 
ATOM      6  C   UNL     1      15.061   5.353  19.806  1.00  0.00    -0.023 C 
ATOM      7  C   UNL     1      14.138   5.997  19.083  1.00  0.00    -0.001 C 
ENDROOT
BRANCH   5   8
ATOM      8  C   UNL     1      16.235   3.228  20.574  1.00  0.00    -0.010 C 
ATOM      9  C   UNL     1      17.067   4.109  21.524  1.00  0.00     0.008 C 
ATOM     10  C   UNL     1      17.085   2.916  19.327  1.00  0.00     0.008 C 
ENDBRANCH   5   8
TORSDOF 1
ENDMDL
