MODEL 1
REMARK VINA RESULT:    -1.714      0.000      0.000
REMARK INTER + INTRA:          -2.739
REMARK INTER:                  -3.017
REMARK INTRA:                   0.278
REMARK UNBOUND:                 0.278
REMARK SMILES CCCCCCCCCCCCCCC(=O)[O-]
REMARK SMILES IDX 9 1 10 2 11 3 12 4 13 5 14 6 15 7 16 8 17 9 8 10 7 11 6 12
REMARK SMILES IDX 5 13 4 14 3 15 2 16 1 17
REMARK H PARENT
REMARK Flexibility Score: inf
ROOT
ATOM      1  C   UNL     1      -1.332  37.869  19.187  1.00  0.00     0.000 C 
ENDROOT
BRANCH   1   2
ATOM      2  C   UNL     1      -1.400  37.841  17.647  1.00  0.00     0.000 C 
BRANCH   2   3
ATOM      3  C   UNL     1      -1.350  36.438  17.014  1.00  0.00     0.000 C 
BRANCH   3   4
ATOM      4  C   UNL     1      -2.580  36.132  16.144  1.00  0.00     0.000 C 
BRANCH   4   5
ATOM      5  C   UNL     1      -2.334  36.405  14.649  1.00  0.00     0.006 C 
BRANCH   5   6
ATOM      6  C   UNL     1      -3.511  37.074  13.921  1.00  0.00     0.053 C 
BRANCH   6   7
ATOM      7  C   UNL     1      -3.962  38.323  14.615  1.00  0.00     0.041 C 
ATOM      8  O   UNL     1      -3.762  38.471  15.850  1.00  0.00    -0.550 OA
ATOM      9  O   UNL     1      -4.575  39.338  13.891  1.00  0.00    -0.550 OA
ENDBRANCH   6   7
ENDBRANCH   5   6
ENDBRANCH   4   5
ENDBRANCH   3   4
ENDBRANCH   2   3
ENDBRANCH   1   2
BRANCH   1  10
ATOM     10  C   UNL     1      -2.457  37.098  19.908  1.00  0.00     0.000 C 
BRANCH  10  11
ATOM     11  C   UNL     1      -3.817  37.817  19.947  1.00  0.00    -0.000 C 
BRANCH  11  12
ATOM     12  C   UNL     1      -4.999  36.847  20.114  1.00  0.00    -0.000 C 
BRANCH  12  13
ATOM     13  C   UNL     1      -4.766  35.824  21.239  1.00  0.00    -0.000 C 
BRANCH  13  14
ATOM     14  C   UNL     1      -5.096  36.391  22.629  1.00  0.00    -0.000 C 
BRANCH  14  15
ATOM     15  C   UNL     1      -4.744  35.421  23.771  1.00  0.00    -0.000 C 
BRANCH  15  16
ATOM     16  C   UNL     1      -5.120  35.913  25.180  1.00  0.00    -0.003 C 
ATOM     17  C   UNL     1      -4.492  37.262  25.530  1.00  0.00     0.004 C 
ENDBRANCH  15  16
ENDBRANCH  14  15
ENDBRANCH  13  14
ENDBRANCH  12  13
ENDBRANCH  11  12
ENDBRANCH  10  11
ENDBRANCH   1  10
TORSDOF 13
ENDMDL
MODEL 2
REMARK VINA RESULT:    -1.443      3.588      7.332
REMARK INTER + INTRA:          -2.261
REMARK INTER:                  -2.931
REMARK INTRA:                   0.671
REMARK UNBOUND:                 0.278
REMARK SMILES CCCCCCCCCCCCCCC(=O)[O-]
REMARK SMILES IDX 9 1 10 2 11 3 12 4 13 5 14 6 15 7 16 8 17 9 8 10 7 11 6 12
REMARK SMILES IDX 5 13 4 14 3 15 2 16 1 17
REMARK H PARENT
REMARK Flexibility Score: inf
ROOT
ATOM      1  C   UNL     1      -2.912  38.212  19.856  1.00  0.00     0.000 C 
ENDROOT
BRANCH   1   2
ATOM      2  C   UNL     1      -4.258  37.503  19.598  1.00  0.00     0.000 C 
BRANCH   2   3
ATOM      3  C   UNL     1      -4.165  36.195  18.791  1.00  0.00     0.000 C 
BRANCH   3   4
ATOM      4  C   UNL     1      -5.119  35.106  19.309  1.00  0.00     0.000 C 
BRANCH   4   5
ATOM      5  C   UNL     1      -4.757  34.625  20.727  1.00  0.00     0.006 C 
BRANCH   5   6
ATOM      6  C   UNL     1      -4.694  35.741  21.781  1.00  0.00     0.053 C 
BRANCH   6   7
ATOM      7  C   UNL     1      -5.001  35.233  23.156  1.00  0.00     0.041 C 
ATOM      8  O   UNL     1      -5.118  33.997  23.364  1.00  0.00    -0.550 OA
ATOM      9  O   UNL     1      -5.125  36.124  24.215  1.00  0.00    -0.550 OA
ENDBRANCH   6   7
ENDBRANCH   5   6
ENDBRANCH   4   5
ENDBRANCH   3   4
ENDBRANCH   2   3
ENDBRANCH   1   2
BRANCH   1  10
ATOM     10  C   UNL     1      -1.658  37.363  19.567  1.00  0.00     0.000 C 
BRANCH  10  11
ATOM     11  C   UNL     1      -1.112  37.477  18.132  1.00  0.00    -0.000 C 
BRANCH  11  12
ATOM     12  C   UNL     1      -2.222  37.451  17.068  1.00  0.00    -0.000 C 
BRANCH  12  13
ATOM     13  C   UNL     1      -1.962  36.404  15.972  1.00  0.00    -0.000 C 
BRANCH  13  14
ATOM     14  C   UNL     1      -3.216  36.107  15.132  1.00  0.00    -0.000 C 
BRANCH  14  15
ATOM     15  C   UNL     1      -3.376  37.064  13.937  1.00  0.00    -0.000 C 
BRANCH  15  16
ATOM     16  C   UNL     1      -4.677  37.886  13.934  1.00  0.00    -0.003 C 
ATOM     17  C   UNL     1      -4.523  39.254  14.598  1.00  0.00     0.004 C 
ENDBRANCH  15  16
ENDBRANCH  14  15
ENDBRANCH  13  14
ENDBRANCH  12  13
ENDBRANCH  11  12
ENDBRANCH  10  11
ENDBRANCH   1  10
TORSDOF 13
ENDMDL
MODEL 3
REMARK VINA RESULT:    -0.853      1.231      1.881
REMARK INTER + INTRA:          -1.223
REMARK INTER:                  -1.740
REMARK INTRA:                   0.517
REMARK UNBOUND:                 0.278
REMARK SMILES CCCCCCCCCCCCCCC(=O)[O-]
REMARK SMILES IDX 9 1 10 2 11 3 12 4 13 5 14 6 15 7 16 8 17 9 8 10 7 11 6 12
REMARK SMILES IDX 5 13 4 14 3 15 2 16 1 17
REMARK H PARENT
REMARK Flexibility Score: inf
ROOT
ATOM      1  C   UNL     1      -3.538  36.178  19.340  1.00  0.00     0.000 C 
ENDROOT
BRANCH   1   2
ATOM      2  C   UNL     1      -3.306  36.861  17.977  1.00  0.00     0.000 C 
BRANCH   2   3
ATOM      3  C   UNL     1      -3.299  35.915  16.762  1.00  0.00     0.000 C 
BRANCH   3   4
ATOM      4  C   UNL     1      -2.326  36.366  15.661  1.00  0.00     0.000 C 
BRANCH   4   5
ATOM      5  C   UNL     1      -2.928  36.244  14.248  1.00  0.00     0.006 C 
BRANCH   5   6
ATOM      6  C   UNL     1      -4.228  37.037  14.040  1.00  0.00     0.053 C 
BRANCH   6   7
ATOM      7  C   UNL     1      -4.087  38.467  14.468  1.00  0.00     0.041 C 
ATOM      8  O   UNL     1      -3.240  38.787  15.342  1.00  0.00    -0.550 OA
ATOM      9  O   UNL     1      -4.871  39.450  13.877  1.00  0.00    -0.550 OA
ENDBRANCH   6   7
ENDBRANCH   5   6
ENDBRANCH   4   5
ENDBRANCH   3   4
ENDBRANCH   2   3
ENDBRANCH   1   2
BRANCH   1  10
ATOM     10  C   UNL     1      -4.987  36.236  19.865  1.00  0.00     0.000 C 
BRANCH  10  11
ATOM     11  C   UNL     1      -5.124  36.287  21.397  1.00  0.00    -0.000 C 
BRANCH  11  12
ATOM     12  C   UNL     1      -4.340  35.168  22.103  1.00  0.00    -0.000 C 
BRANCH  12  13
ATOM     13  C   UNL     1      -4.837  34.916  23.537  1.00  0.00    -0.000 C 
BRANCH  13  14
ATOM     14  C   UNL     1      -5.125  36.220  24.298  1.00  0.00    -0.000 C 
BRANCH  14  15
ATOM     15  C   UNL     1      -4.479  36.254  25.695  1.00  0.00    -0.000 C 
BRANCH  15  16
ATOM     16  C   UNL     1      -4.267  37.663  26.278  1.00  0.00    -0.003 C 
ATOM     17  C   UNL     1      -4.884  38.766  25.418  1.00  0.00     0.004 C 
ENDBRANCH  15  16
ENDBRANCH  14  15
ENDBRANCH  13  14
ENDBRANCH  12  13
ENDBRANCH  11  12
ENDBRANCH  10  11
ENDBRANCH   1  10
TORSDOF 13
ENDMDL
MODEL 4
REMARK VINA RESULT:    -0.478      2.428      6.538
REMARK INTER + INTRA:          -0.563
REMARK INTER:                  -0.201
REMARK INTRA:                  -0.361
REMARK UNBOUND:                 0.278
REMARK SMILES CCCCCCCCCCCCCCC(=O)[O-]
REMARK SMILES IDX 9 1 10 2 11 3 12 4 13 5 14 6 15 7 16 8 17 9 8 10 7 11 6 12
REMARK SMILES IDX 5 13 4 14 3 15 2 16 1 17
REMARK H PARENT
REMARK Flexibility Score: inf
ROOT
ATOM      1  C   UNL     1      -3.709  35.235  21.394  1.00  0.00     0.000 C 
ENDROOT
BRANCH   1   2
ATOM      2  C   UNL     1      -5.047  35.849  21.858  1.00  0.00     0.000 C 
BRANCH   2   3
ATOM      3  C   UNL     1      -5.125  37.385  21.780  1.00  0.00     0.000 C 
BRANCH   3   4
ATOM      4  C   UNL     1      -5.011  37.915  20.342  1.00  0.00     0.000 C 
BRANCH   4   5
ATOM      5  C   UNL     1      -3.642  38.558  20.051  1.00  0.00     0.006 C 
BRANCH   5   6
ATOM      6  C   UNL     1      -2.810  37.829  18.985  1.00  0.00     0.053 C 
BRANCH   6   7
ATOM      7  C   UNL     1      -1.349  37.825  19.319  1.00  0.00     0.041 C 
ATOM      8  O   UNL     1      -0.531  38.453  18.597  1.00  0.00    -0.550 OA
ATOM      9  O   UNL     1      -0.896  37.153  20.448  1.00  0.00    -0.550 OA
ENDBRANCH   6   7
ENDBRANCH   5   6
ENDBRANCH   4   5
ENDBRANCH   3   4
ENDBRANCH   2   3
ENDBRANCH   1   2
BRANCH   1  10
ATOM     10  C   UNL     1      -3.735  34.589  19.994  1.00  0.00     0.000 C 
BRANCH  10  11
ATOM     11  C   UNL     1      -4.980  34.914  19.149  1.00  0.00    -0.000 C 
BRANCH  11  12
ATOM     12  C   UNL     1      -4.699  34.884  17.637  1.00  0.00    -0.000 C 
BRANCH  12  13
ATOM     13  C   UNL     1      -3.627  35.904  17.218  1.00  0.00    -0.000 C 
BRANCH  13  14
ATOM     14  C   UNL     1      -2.979  35.557  15.868  1.00  0.00    -0.000 C 
BRANCH  14  15
ATOM     15  C   UNL     1      -2.514  36.800  15.089  1.00  0.00    -0.000 C 
BRANCH  15  16
ATOM     16  C   UNL     1      -3.414  37.201  13.907  1.00  0.00    -0.003 C 
ATOM     17  C   UNL     1      -4.390  38.325  14.252  1.00  0.00     0.004 C 
ENDBRANCH  15  16
ENDBRANCH  14  15
ENDBRANCH  13  14
ENDBRANCH  12  13
ENDBRANCH  11  12
ENDBRANCH  10  11
ENDBRANCH   1  10
TORSDOF 13
ENDMDL
MODEL 5
REMARK VINA RESULT:     0.144      1.525      2.106
REMARK INTER + INTRA:           0.532
REMARK INTER:                   0.816
REMARK INTRA:                  -0.284
REMARK UNBOUND:                 0.278
REMARK SMILES CCCCCCCCCCCCCCC(=O)[O-]
REMARK SMILES IDX 9 1 10 2 11 3 12 4 13 5 14 6 15 7 16 8 17 9 8 10 7 11 6 12
REMARK SMILES IDX 5 13 4 14 3 15 2 16 1 17
REMARK H PARENT
REMARK Flexibility Score: inf
ROOT
ATOM      1  C   UNL     1      -2.759  37.117  20.102  1.00  0.00     0.000 C 
ENDROOT
BRANCH   1   2
ATOM      2  C   UNL     1      -1.632  37.803  19.304  1.00  0.00     0.000 C 
BRANCH   2   3
ATOM      3  C   UNL     1      -1.906  37.976  17.799  1.00  0.00     0.000 C 
BRANCH   3   4
ATOM      4  C   UNL     1      -2.068  36.635  17.064  1.00  0.00     0.000 C 
BRANCH   4   5
ATOM      5  C   UNL     1      -1.505  36.670  15.631  1.00  0.00     0.006 C 
BRANCH   5   6
ATOM      6  C   UNL     1      -2.544  36.395  14.533  1.00  0.00     0.053 C 
BRANCH   6   7
ATOM      7  C   UNL     1      -3.731  37.303  14.643  1.00  0.00     0.041 C 
ATOM      8  O   UNL     1      -4.885  36.873  14.383  1.00  0.00    -0.550 OA
ATOM      9  O   UNL     1      -3.565  38.616  15.065  1.00  0.00    -0.550 OA
ENDBRANCH   6   7
ENDBRANCH   5   6
ENDBRANCH   4   5
ENDBRANCH   3   4
ENDBRANCH   2   3
ENDBRANCH   1   2
BRANCH   1  10
ATOM     10  C   UNL     1      -4.165  37.226  19.477  1.00  0.00     0.000 C 
BRANCH  10  11
ATOM     11  C   UNL     1      -5.097  38.252  20.146  1.00  0.00    -0.000 C 
BRANCH  11  12
ATOM     12  C   UNL     1      -5.050  38.188  21.682  1.00  0.00    -0.000 C 
BRANCH  12  13
ATOM     13  C   UNL     1      -5.124  39.581  22.331  1.00  0.00    -0.000 C 
BRANCH  13  14
ATOM     14  C   UNL     1      -4.790  39.549  23.831  1.00  0.00    -0.000 C 
BRANCH  14  15
ATOM     15  C   UNL     1      -5.124  38.199  24.491  1.00  0.00    -0.000 C 
BRANCH  15  16
ATOM     16  C   UNL     1      -4.674  38.064  25.957  1.00  0.00    -0.003 C 
ATOM     17  C   UNL     1      -4.074  36.695  26.276  1.00  0.00     0.004 C 
ENDBRANCH  15  16
ENDBRANCH  14  15
ENDBRANCH  13  14
ENDBRANCH  12  13
ENDBRANCH  11  12
ENDBRANCH  10  11
ENDBRANCH   1  10
TORSDOF 13
ENDMDL
MODEL 6
REMARK VINA RESULT:     0.205      2.971      7.900
REMARK INTER + INTRA:           0.639
REMARK INTER:                   1.405
REMARK INTRA:                  -0.765
REMARK UNBOUND:                 0.278
REMARK SMILES CCCCCCCCCCCCCCC(=O)[O-]
REMARK SMILES IDX 9 1 10 2 11 3 12 4 13 5 14 6 15 7 16 8 17 9 8 10 7 11 6 12
REMARK SMILES IDX 5 13 4 14 3 15 2 16 1 17
REMARK H PARENT
REMARK Flexibility Score: inf
ROOT
ATOM      1  C   UNL     1      -3.924  35.244  22.114  1.00  0.00     0.000 C 
ENDROOT
BRANCH   1   2
ATOM      2  C   UNL     1      -5.093  35.682  23.019  1.00  0.00     0.000 C 
BRANCH   2   3
ATOM      3  C   UNL     1      -4.855  35.504  24.530  1.00  0.00     0.000 C 
BRANCH   3   4
ATOM      4  C   UNL     1      -5.066  36.804  25.324  1.00  0.00     0.000 C 
BRANCH   4   5
ATOM      5  C   UNL     1      -4.278  37.992  24.741  1.00  0.00     0.006 C 
BRANCH   5   6
ATOM      6  C   UNL     1      -5.120  39.253  24.494  1.00  0.00     0.053 C 
BRANCH   6   7
ATOM      7  C   UNL     1      -4.856  39.848  23.143  1.00  0.00     0.041 C 
ATOM      8  O   UNL     1      -4.591  39.103  22.164  1.00  0.00    -0.550 OA
ATOM      9  O   UNL     1      -4.936  41.223  22.962  1.00  0.00    -0.550 OA
ENDBRANCH   6   7
ENDBRANCH   5   6
ENDBRANCH   4   5
ENDBRANCH   3   4
ENDBRANCH   2   3
ENDBRANCH   1   2
BRANCH   1  10
ATOM     10  C   UNL     1      -3.842  35.966  20.753  1.00  0.00     0.000 C 
BRANCH  10  11
ATOM     11  C   UNL     1      -5.090  35.824  19.864  1.00  0.00    -0.000 C 
BRANCH  11  12
ATOM     12  C   UNL     1      -4.791  35.135  18.522  1.00  0.00    -0.000 C 
BRANCH  12  13
ATOM     13  C   UNL     1      -3.626  35.797  17.767  1.00  0.00    -0.000 C 
BRANCH  13  14
ATOM     14  C   UNL     1      -4.056  36.372  16.408  1.00  0.00    -0.000 C 
BRANCH  14  15
ATOM     15  C   UNL     1      -2.934  36.325  15.355  1.00  0.00    -0.000 C 
BRANCH  15  16
ATOM     16  C   UNL     1      -3.251  37.050  14.035  1.00  0.00    -0.003 C 
ATOM     17  C   UNL     1      -4.194  38.239  14.217  1.00  0.00     0.004 C 
ENDBRANCH  15  16
ENDBRANCH  14  15
ENDBRANCH  13  14
ENDBRANCH  12  13
ENDBRANCH  11  12
ENDBRANCH  10  11
ENDBRANCH   1  10
TORSDOF 13
ENDMDL
