MODEL 1
REMARK VINA RESULT:    -7.209      0.000      0.000
REMARK INTER + INTRA:         -11.128
REMARK INTER:                  -9.737
REMARK INTRA:                  -1.391
REMARK UNBOUND:                -1.391
REMARK SMILES O=c1c(-c2ccc(O)cc2)coc2c([C@H]3O[C@@H](CO)[C@@H](O)[C@@H](O)[C@@H]3O)c(O)ccc12
REMARK SMILES IDX 3 1 11 2 12 3 13 4 30 5 2 6 1 7 29 8 28 9 26 10 14 11 4 12
REMARK SMILES IDX 5 13 6 14 7 15 10 16 9 17 8 18 15 20 24 21 16 22 22 23 17 24
REMARK SMILES IDX 20 25 25 26 23 28 18 30 19 31 21 33 27 35
REMARK H PARENT 8 19 25 27 23 29 19 32 21 34 27 36
REMARK Flexibility Score: inf
ROOT
ATOM      1  C   UNL     1      -5.691  -4.026  14.170  1.00  0.00     0.065 A 
ATOM      2  C   UNL     1      -6.009  -2.863  13.453  1.00  0.00     0.208 A 
ATOM      3  O   UNL     1      -5.144  -2.329  12.600  1.00  0.00    -0.463 OA
ATOM      4  C   UNL     1      -3.937  -2.840  12.374  1.00  0.00     0.147 A 
ATOM      5  C   UNL     1      -3.527  -4.003  13.067  1.00  0.00     0.066 A 
ATOM      6  C   UNL     1      -4.429  -4.608  13.959  1.00  0.00     0.200 A 
ATOM      7  O   UNL     1      -4.115  -5.675  14.555  1.00  0.00    -0.288 OA
ATOM      8  C   UNL     1      -2.242  -4.523  12.851  1.00  0.00     0.020 A 
ATOM      9  C   UNL     1      -1.369  -3.889  11.969  1.00  0.00     0.047 A 
ATOM     10  C   UNL     1      -1.767  -2.745  11.269  1.00  0.00     0.125 A 
ATOM     11  C   UNL     1      -3.068  -2.221  11.445  1.00  0.00     0.069 A 
ENDROOT
BRANCH   1  12
ATOM     12  C   UNL     1      -6.675  -4.605  15.120  1.00  0.00    -0.011 A 
ATOM     13  C   UNL     1      -6.629  -4.260  16.483  1.00  0.00     0.013 A 
ATOM     14  C   UNL     1      -7.541  -4.815  17.385  1.00  0.00     0.047 A 
ATOM     15  C   UNL     1      -8.506  -5.726  16.938  1.00  0.00     0.115 A 
ATOM     16  C   UNL     1      -7.644  -5.525  14.679  1.00  0.00     0.013 A 
ATOM     17  C   UNL     1      -8.557  -6.078  15.581  1.00  0.00     0.047 A 
BRANCH  15  18
ATOM     18  O   UNL     1      -9.406  -6.275  17.848  1.00  0.00    -0.508 OA
ATOM     19  H   UNL     1      -9.371  -7.257  18.103  1.00  0.00     0.293 HD
ENDBRANCH  15  18
ENDBRANCH   1  12
BRANCH  11  20
ATOM     20  C   UNL     1      -3.500  -0.972  10.694  1.00  0.00     0.188 C 
ATOM     21  C   UNL     1      -3.814  -1.308   9.210  1.00  0.00     0.179 C 
ATOM     22  O   UNL     1      -2.481   0.009  10.765  1.00  0.00    -0.362 OA
ATOM     23  C   UNL     1      -3.589  -0.082   8.285  1.00  0.00     0.177 C 
ATOM     24  C   UNL     1      -2.966   1.288  10.369  1.00  0.00     0.176 C 
ATOM     25  C   UNL     1      -3.827   1.233   9.059  1.00  0.00     0.177 C 
BRANCH  21  26
ATOM     26  O   UNL     1      -5.126  -1.801   9.084  1.00  0.00    -0.387 OA
ATOM     27  H   UNL     1      -5.178  -2.655   9.583  1.00  0.00     0.211 HD
ENDBRANCH  21  26
BRANCH  23  28
ATOM     28  O   UNL     1      -2.278  -0.117   7.782  1.00  0.00    -0.387 OA
ATOM     29  H   UNL     1      -1.765   0.588   8.257  1.00  0.00     0.211 HD
ENDBRANCH  23  28
BRANCH  24  30
ATOM     30  C   UNL     1      -1.769   2.246  10.283  1.00  0.00     0.191 C 
BRANCH  30  31
ATOM     31  O   UNL     1      -1.025   2.004   9.116  1.00  0.00    -0.394 OA
ATOM     32  H   UNL     1      -0.114   1.733   9.396  1.00  0.00     0.210 HD
ENDBRANCH  30  31
ENDBRANCH  24  30
BRANCH  25  33
ATOM     33  O   UNL     1      -3.593   2.345   8.230  1.00  0.00    -0.388 OA
ATOM     34  H   UNL     1      -4.343   2.981   8.376  1.00  0.00     0.211 HD
ENDBRANCH  25  33
ENDBRANCH  11  20
BRANCH  10  35
ATOM     35  O   UNL     1      -0.868  -2.126  10.402  1.00  0.00    -0.507 OA
ATOM     36  H   UNL     1      -0.083  -2.621  10.004  1.00  0.00     0.293 HD
ENDBRANCH  10  35
TORSDOF 9
ENDMDL
MODEL 2
REMARK VINA RESULT:    -7.173      1.971      3.102
REMARK INTER + INTRA:         -11.080
REMARK INTER:                  -9.657
REMARK INTRA:                  -1.423
REMARK UNBOUND:                -1.391
REMARK SMILES O=c1c(-c2ccc(O)cc2)coc2c([C@H]3O[C@@H](CO)[C@@H](O)[C@@H](O)[C@@H]3O)c(O)ccc12
REMARK SMILES IDX 3 1 11 2 12 3 13 4 30 5 2 6 1 7 29 8 28 9 26 10 14 11 4 12
REMARK SMILES IDX 5 13 6 14 7 15 10 16 9 17 8 18 15 20 24 21 16 22 22 23 17 24
REMARK SMILES IDX 20 25 25 26 23 28 18 30 19 31 21 33 27 35
REMARK H PARENT 8 19 25 27 23 29 19 32 21 34 27 36
REMARK Flexibility Score: inf
ROOT
ATOM      1  C   UNL     1      -5.886  -3.824  14.187  1.00  0.00     0.065 A 
ATOM      2  C   UNL     1      -4.780  -2.968  14.070  1.00  0.00     0.208 A 
ATOM      3  O   UNL     1      -4.587  -2.249  12.972  1.00  0.00    -0.463 OA
ATOM      4  C   UNL     1      -5.402  -2.291  11.923  1.00  0.00     0.147 A 
ATOM      5  C   UNL     1      -6.533  -3.140  11.948  1.00  0.00     0.066 A 
ATOM      6  C   UNL     1      -6.782  -3.896  13.106  1.00  0.00     0.200 A 
ATOM      7  O   UNL     1      -7.810  -4.625  13.182  1.00  0.00    -0.288 OA
ATOM      8  C   UNL     1      -7.376  -3.207  10.828  1.00  0.00     0.020 A 
ATOM      9  C   UNL     1      -7.092  -2.452   9.692  1.00  0.00     0.047 A 
ATOM     10  C   UNL     1      -5.982  -1.600   9.660  1.00  0.00     0.125 A 
ATOM     11  C   UNL     1      -5.137  -1.491  10.787  1.00  0.00     0.069 A 
ENDROOT
BRANCH   1  12
ATOM     12  C   UNL     1      -6.083  -4.620  15.425  1.00  0.00    -0.011 A 
ATOM     13  C   UNL     1      -5.581  -5.932  15.509  1.00  0.00     0.013 A 
ATOM     14  C   UNL     1      -5.778  -6.693  16.664  1.00  0.00     0.047 A 
ATOM     15  C   UNL     1      -6.482  -6.155  17.748  1.00  0.00     0.115 A 
ATOM     16  C   UNL     1      -6.793  -4.088  16.517  1.00  0.00     0.013 A 
ATOM     17  C   UNL     1      -6.987  -4.849  17.674  1.00  0.00     0.047 A 
BRANCH  15  18
ATOM     18  O   UNL     1      -6.675  -6.925  18.893  1.00  0.00    -0.508 OA
ATOM     19  H   UNL     1      -6.273  -6.659  19.787  1.00  0.00     0.293 HD
ENDBRANCH  15  18
ENDBRANCH   1  12
BRANCH  11  20
ATOM     20  C   UNL     1      -3.925  -0.574  10.751  1.00  0.00     0.188 C 
ATOM     21  C   UNL     1      -4.360   0.911  10.885  1.00  0.00     0.179 C 
ATOM     22  O   UNL     1      -3.213  -0.766   9.542  1.00  0.00    -0.362 OA
ATOM     23  C   UNL     1      -3.347   1.868  10.200  1.00  0.00     0.177 C 
ATOM     24  C   UNL     1      -1.915  -0.184   9.610  1.00  0.00     0.176 C 
ATOM     25  C   UNL     1      -1.927   1.261  10.221  1.00  0.00     0.177 C 
BRANCH  21  26
ATOM     26  O   UNL     1      -4.539   1.252  12.239  1.00  0.00    -0.387 OA
ATOM     27  H   UNL     1      -5.512   1.265  12.421  1.00  0.00     0.211 HD
ENDBRANCH  21  26
BRANCH  23  28
ATOM     28  O   UNL     1      -3.754   2.101   8.876  1.00  0.00    -0.387 OA
ATOM     29  H   UNL     1      -4.218   2.979   8.865  1.00  0.00     0.211 HD
ENDBRANCH  23  28
BRANCH  24  30
ATOM     30  C   UNL     1      -1.287  -0.257   8.210  1.00  0.00     0.191 C 
BRANCH  30  31
ATOM     31  O   UNL     1      -1.933   0.626   7.330  1.00  0.00    -0.394 OA
ATOM     32  H   UNL     1      -1.562   1.531   7.492  1.00  0.00     0.210 HD
ENDBRANCH  30  31
ENDBRANCH  24  30
BRANCH  25  33
ATOM     33  O   UNL     1      -1.014   2.113   9.574  1.00  0.00    -0.388 OA
ATOM     34  H   UNL     1      -0.543   2.628  10.281  1.00  0.00     0.211 HD
ENDBRANCH  25  33
ENDBRANCH  11  20
BRANCH  10  35
ATOM     35  O   UNL     1      -5.716  -0.866   8.504  1.00  0.00    -0.507 OA
ATOM     36  H   UNL     1      -4.846  -0.960   8.001  1.00  0.00     0.293 HD
ENDBRANCH  10  35
TORSDOF 9
ENDMDL
MODEL 3
REMARK VINA RESULT:    -7.044      2.315      3.523
REMARK INTER + INTRA:         -10.905
REMARK INTER:                 -10.267
REMARK INTRA:                  -0.638
REMARK UNBOUND:                -1.391
REMARK SMILES O=c1c(-c2ccc(O)cc2)coc2c([C@H]3O[C@@H](CO)[C@@H](O)[C@@H](O)[C@@H]3O)c(O)ccc12
REMARK SMILES IDX 3 1 11 2 12 3 13 4 30 5 2 6 1 7 29 8 28 9 26 10 14 11 4 12
REMARK SMILES IDX 5 13 6 14 7 15 10 16 9 17 8 18 15 20 24 21 16 22 22 23 17 24
REMARK SMILES IDX 20 25 25 26 23 28 18 30 19 31 21 33 27 35
REMARK H PARENT 8 19 25 27 23 29 19 32 21 34 27 36
REMARK Flexibility Score: inf
ROOT
ATOM      1  C   UNL     1      -6.030  -3.728  14.356  1.00  0.00     0.065 A 
ATOM      2  C   UNL     1      -5.056  -2.718  14.406  1.00  0.00     0.208 A 
ATOM      3  O   UNL     1      -4.845  -1.922  13.365  1.00  0.00    -0.463 OA
ATOM      4  C   UNL     1      -5.519  -2.025  12.223  1.00  0.00     0.147 A 
ATOM      5  C   UNL     1      -6.507  -3.026  12.080  1.00  0.00     0.066 A 
ATOM      6  C   UNL     1      -6.774  -3.870  13.172  1.00  0.00     0.200 A 
ATOM      7  O   UNL     1      -7.685  -4.741  13.096  1.00  0.00    -0.288 OA
ATOM      8  C   UNL     1      -7.195  -3.153  10.864  1.00  0.00     0.020 A 
ATOM      9  C   UNL     1      -6.896  -2.307   9.798  1.00  0.00     0.047 A 
ATOM     10  C   UNL     1      -5.929  -1.306   9.932  1.00  0.00     0.125 A 
ATOM     11  C   UNL     1      -5.245  -1.137  11.157  1.00  0.00     0.069 A 
ENDROOT
BRANCH   1  12
ATOM     12  C   UNL     1      -6.248  -4.608  15.532  1.00  0.00    -0.011 A 
ATOM     13  C   UNL     1      -5.628  -5.869  15.596  1.00  0.00     0.013 A 
ATOM     14  C   UNL     1      -5.844  -6.710  16.692  1.00  0.00     0.047 A 
ATOM     15  C   UNL     1      -6.685  -6.302  17.735  1.00  0.00     0.115 A 
ATOM     16  C   UNL     1      -7.096  -4.208  16.582  1.00  0.00     0.013 A 
ATOM     17  C   UNL     1      -7.309  -5.048  17.679  1.00  0.00     0.047 A 
BRANCH  15  18
ATOM     18  O   UNL     1      -6.895  -7.151  18.819  1.00  0.00    -0.508 OA
ATOM     19  H   UNL     1      -6.247  -7.187  19.600  1.00  0.00     0.293 HD
ENDBRANCH  15  18
ENDBRANCH   1  12
BRANCH  11  20
ATOM     20  C   UNL     1      -4.185  -0.056  11.302  1.00  0.00     0.188 C 
ATOM     21  C   UNL     1      -2.818  -0.681  11.695  1.00  0.00     0.179 C 
ATOM     22  O   UNL     1      -4.589   0.885  12.280  1.00  0.00    -0.362 OA
ATOM     23  C   UNL     1      -1.939   0.320  12.491  1.00  0.00     0.177 C 
ATOM     24  C   UNL     1      -3.801   2.069  12.213  1.00  0.00     0.176 C 
ATOM     25  C   UNL     1      -2.266   1.773  12.084  1.00  0.00     0.177 C 
BRANCH  21  26
ATOM     26  O   UNL     1      -2.143  -1.147  10.551  1.00  0.00    -0.387 OA
ATOM     27  H   UNL     1      -2.441  -2.076  10.381  1.00  0.00     0.211 HD
ENDBRANCH  21  26
BRANCH  23  28
ATOM     28  O   UNL     1      -2.163   0.140  13.866  1.00  0.00    -0.387 OA
ATOM     29  H   UNL     1      -3.146   0.138  14.002  1.00  0.00     0.211 HD
ENDBRANCH  23  28
BRANCH  24  30
ATOM     30  C   UNL     1      -4.162   2.950  13.418  1.00  0.00     0.191 C 
BRANCH  30  31
ATOM     31  O   UNL     1      -3.649   4.248  13.254  1.00  0.00    -0.394 OA
ATOM     32  H   UNL     1      -3.929   4.566  12.357  1.00  0.00     0.210 HD
ENDBRANCH  30  31
ENDBRANCH  24  30
BRANCH  25  33
ATOM     33  O   UNL     1      -1.492   2.683  12.827  1.00  0.00    -0.388 OA
ATOM     34  H   UNL     1      -1.691   2.522  13.786  1.00  0.00     0.211 HD
ENDBRANCH  25  33
ENDBRANCH  11  20
BRANCH  10  35
ATOM     35  O   UNL     1      -5.642  -0.482   8.844  1.00  0.00    -0.507 OA
ATOM     36  H   UNL     1      -5.741   0.522   8.894  1.00  0.00     0.293 HD
ENDBRANCH  10  35
TORSDOF 9
ENDMDL
MODEL 4
REMARK VINA RESULT:    -6.940      1.967      3.103
REMARK INTER + INTRA:         -10.766
REMARK INTER:                  -9.343
REMARK INTRA:                  -1.423
REMARK UNBOUND:                -1.391
REMARK SMILES O=c1c(-c2ccc(O)cc2)coc2c([C@H]3O[C@@H](CO)[C@@H](O)[C@@H](O)[C@@H]3O)c(O)ccc12
REMARK SMILES IDX 3 1 11 2 12 3 13 4 30 5 2 6 1 7 29 8 28 9 26 10 14 11 4 12
REMARK SMILES IDX 5 13 6 14 7 15 10 16 9 17 8 18 15 20 24 21 16 22 22 23 17 24
REMARK SMILES IDX 20 25 25 26 23 28 18 30 19 31 21 33 27 35
REMARK H PARENT 8 19 25 27 23 29 19 32 21 34 27 36
REMARK Flexibility Score: inf
ROOT
ATOM      1  C   UNL     1      -5.605  -3.835  14.321  1.00  0.00     0.065 A 
ATOM      2  C   UNL     1      -5.056  -3.862  13.029  1.00  0.00     0.208 A 
ATOM      3  O   UNL     1      -4.570  -2.761  12.471  1.00  0.00    -0.463 OA
ATOM      4  C   UNL     1      -4.576  -1.576  13.075  1.00  0.00     0.147 A 
ATOM      5  C   UNL     1      -5.125  -1.454  14.372  1.00  0.00     0.066 A 
ATOM      6  C   UNL     1      -5.625  -2.606  15.004  1.00  0.00     0.200 A 
ATOM      7  O   UNL     1      -6.076  -2.542  16.181  1.00  0.00    -0.288 OA
ATOM      8  C   UNL     1      -5.159  -0.198  14.997  1.00  0.00     0.020 A 
ATOM      9  C   UNL     1      -4.666   0.926  14.336  1.00  0.00     0.047 A 
ATOM     10  C   UNL     1      -4.109   0.815  13.057  1.00  0.00     0.125 A 
ATOM     11  C   UNL     1      -4.035  -0.445  12.421  1.00  0.00     0.069 A 
ENDROOT
BRANCH   1  12
ATOM     12  C   UNL     1      -6.143  -5.079  14.926  1.00  0.00    -0.011 A 
ATOM     13  C   UNL     1      -7.522  -5.353  14.871  1.00  0.00     0.013 A 
ATOM     14  C   UNL     1      -8.038  -6.513  15.455  1.00  0.00     0.047 A 
ATOM     15  C   UNL     1      -7.183  -7.413  16.103  1.00  0.00     0.115 A 
ATOM     16  C   UNL     1      -5.291  -5.986  15.583  1.00  0.00     0.013 A 
ATOM     17  C   UNL     1      -5.807  -7.148  16.164  1.00  0.00     0.047 A 
BRANCH  15  18
ATOM     18  O   UNL     1      -7.710  -8.565  16.684  1.00  0.00    -0.508 OA
ATOM     19  H   UNL     1      -7.122  -9.224  17.184  1.00  0.00     0.293 HD
ENDBRANCH  15  18
ENDBRANCH   1  12
BRANCH  11  20
ATOM     20  C   UNL     1      -3.440  -0.567  11.028  1.00  0.00     0.188 C 
ATOM     21  C   UNL     1      -1.890  -0.471  11.085  1.00  0.00     0.179 C 
ATOM     22  O   UNL     1      -3.960   0.452  10.192  1.00  0.00    -0.362 OA
ATOM     23  C   UNL     1      -1.302   0.085   9.760  1.00  0.00     0.177 C 
ATOM     24  C   UNL     1      -3.693   0.181   8.820  1.00  0.00     0.176 C 
ATOM     25  C   UNL     1      -2.214  -0.277   8.567  1.00  0.00     0.177 C 
BRANCH  21  26
ATOM     26  O   UNL     1      -1.331  -1.723  11.399  1.00  0.00    -0.387 OA
ATOM     27  H   UNL     1      -1.509  -1.902  12.357  1.00  0.00     0.211 HD
ENDBRANCH  21  26
BRANCH  23  28
ATOM     28  O   UNL     1      -1.168   1.479   9.862  1.00  0.00    -0.387 OA
ATOM     29  H   UNL     1      -0.280   1.657  10.269  1.00  0.00     0.211 HD
ENDBRANCH  23  28
BRANCH  24  30
ATOM     30  C   UNL     1      -4.106   1.414   8.002  1.00  0.00     0.191 C 
BRANCH  30  31
ATOM     31  O   UNL     1      -3.245   2.492   8.262  1.00  0.00    -0.394 OA
ATOM     32  H   UNL     1      -3.797   3.316   8.276  1.00  0.00     0.210 HD
ENDBRANCH  30  31
ENDBRANCH  24  30
BRANCH  25  33
ATOM     33  O   UNL     1      -1.697   0.252   7.370  1.00  0.00    -0.388 OA
ATOM     34  H   UNL     1      -1.683  -0.488   6.706  1.00  0.00     0.211 HD
ENDBRANCH  25  33
ENDBRANCH  11  20
BRANCH  10  35
ATOM     35  O   UNL     1      -3.635   1.959  12.416  1.00  0.00    -0.507 OA
ATOM     36  H   UNL     1      -3.088   1.908  11.569  1.00  0.00     0.293 HD
ENDBRANCH  10  35
TORSDOF 9
ENDMDL
MODEL 5
REMARK VINA RESULT:    -6.783      1.509      2.630
REMARK INTER + INTRA:         -10.552
REMARK INTER:                 -10.000
REMARK INTRA:                  -0.552
REMARK UNBOUND:                -1.391
REMARK SMILES O=c1c(-c2ccc(O)cc2)coc2c([C@H]3O[C@@H](CO)[C@@H](O)[C@@H](O)[C@@H]3O)c(O)ccc12
REMARK SMILES IDX 3 1 11 2 12 3 13 4 30 5 2 6 1 7 29 8 28 9 26 10 14 11 4 12
REMARK SMILES IDX 5 13 6 14 7 15 10 16 9 17 8 18 15 20 24 21 16 22 22 23 17 24
REMARK SMILES IDX 20 25 25 26 23 28 18 30 19 31 21 33 27 35
REMARK H PARENT 8 19 25 27 23 29 19 32 21 34 27 36
REMARK Flexibility Score: inf
ROOT
ATOM      1  C   UNL     1      -5.837  -4.163  14.010  1.00  0.00     0.065 A 
ATOM      2  C   UNL     1      -6.315  -3.184  13.125  1.00  0.00     0.208 A 
ATOM      3  O   UNL     1      -5.529  -2.667  12.190  1.00  0.00    -0.463 OA
ATOM      4  C   UNL     1      -4.257  -3.022  12.032  1.00  0.00     0.147 A 
ATOM      5  C   UNL     1      -3.688  -3.990  12.891  1.00  0.00     0.066 A 
ATOM      6  C   UNL     1      -4.500  -4.578  13.876  1.00  0.00     0.200 A 
ATOM      7  O   UNL     1      -4.039  -5.482  14.626  1.00  0.00    -0.288 OA
ATOM      8  C   UNL     1      -2.338  -4.342  12.743  1.00  0.00     0.020 A 
ATOM      9  C   UNL     1      -1.559  -3.730  11.763  1.00  0.00     0.047 A 
ATOM     10  C   UNL     1      -2.114  -2.779  10.900  1.00  0.00     0.125 A 
ATOM     11  C   UNL     1      -3.479  -2.432  11.008  1.00  0.00     0.069 A 
ENDROOT
BRANCH   1  12
ATOM     12  C   UNL     1      -6.735  -4.728  15.049  1.00  0.00    -0.011 A 
ATOM     13  C   UNL     1      -6.659  -4.265  16.376  1.00  0.00     0.013 A 
ATOM     14  C   UNL     1      -7.489  -4.805  17.362  1.00  0.00     0.047 A 
ATOM     15  C   UNL     1      -8.401  -5.817  17.037  1.00  0.00     0.115 A 
ATOM     16  C   UNL     1      -7.650  -5.748  14.731  1.00  0.00     0.013 A 
ATOM     17  C   UNL     1      -8.482  -6.286  15.718  1.00  0.00     0.047 A 
BRANCH  15  18
ATOM     18  O   UNL     1      -9.220  -6.350  18.031  1.00  0.00    -0.508 OA
ATOM     19  H   UNL     1     -10.083  -6.834  17.805  1.00  0.00     0.293 HD
ENDBRANCH  15  18
ENDBRANCH   1  12
BRANCH  11  20
ATOM     20  C   UNL     1      -4.083  -1.392  10.079  1.00  0.00     0.188 C 
ATOM     21  C   UNL     1      -4.624  -0.183  10.890  1.00  0.00     0.179 C 
ATOM     22  O   UNL     1      -5.127  -1.974   9.318  1.00  0.00    -0.362 OA
ATOM     23  C   UNL     1      -5.791   0.527  10.152  1.00  0.00     0.177 C 
ATOM     24  C   UNL     1      -5.491  -1.144   8.221  1.00  0.00     0.176 C 
ATOM     25  C   UNL     1      -5.644   0.365   8.623  1.00  0.00     0.177 C 
BRANCH  21  26
ATOM     26  O   UNL     1      -3.585   0.722  11.178  1.00  0.00    -0.387 OA
ATOM     27  H   UNL     1      -3.997   1.563  11.501  1.00  0.00     0.211 HD
ENDBRANCH  21  26
BRANCH  23  28
ATOM     28  O   UNL     1      -7.011  -0.021  10.581  1.00  0.00    -0.387 OA
ATOM     29  H   UNL     1      -6.915  -0.223  11.548  1.00  0.00     0.211 HD
ENDBRANCH  23  28
BRANCH  24  30
ATOM     30  C   UNL     1      -6.747  -1.740   7.569  1.00  0.00     0.191 C 
BRANCH  30  31
ATOM     31  O   UNL     1      -7.036  -1.085   6.360  1.00  0.00    -0.394 OA
ATOM     32  H   UNL     1      -7.334  -1.775   5.713  1.00  0.00     0.210 HD
ENDBRANCH  30  31
ENDBRANCH  24  30
BRANCH  25  33
ATOM     33  O   UNL     1      -6.716   0.981   7.953  1.00  0.00    -0.388 OA
ATOM     34  H   UNL     1      -7.550   0.549   8.276  1.00  0.00     0.211 HD
ENDBRANCH  25  33
ENDBRANCH  11  20
BRANCH  10  35
ATOM     35  O   UNL     1      -1.306  -2.175   9.937  1.00  0.00    -0.507 OA
ATOM     36  H   UNL     1      -0.480  -2.628   9.572  1.00  0.00     0.293 HD
ENDBRANCH  10  35
TORSDOF 9
ENDMDL
MODEL 6
REMARK VINA RESULT:    -6.528      2.160      3.336
REMARK INTER + INTRA:         -10.209
REMARK INTER:                  -9.633
REMARK INTRA:                  -0.576
REMARK UNBOUND:                -1.391
REMARK SMILES O=c1c(-c2ccc(O)cc2)coc2c([C@H]3O[C@@H](CO)[C@@H](O)[C@@H](O)[C@@H]3O)c(O)ccc12
REMARK SMILES IDX 3 1 11 2 12 3 13 4 30 5 2 6 1 7 29 8 28 9 26 10 14 11 4 12
REMARK SMILES IDX 5 13 6 14 7 15 10 16 9 17 8 18 15 20 24 21 16 22 22 23 17 24
REMARK SMILES IDX 20 25 25 26 23 28 18 30 19 31 21 33 27 35
REMARK H PARENT 8 19 25 27 23 29 19 32 21 34 27 36
REMARK Flexibility Score: inf
ROOT
ATOM      1  C   UNL     1      -5.510  -3.977  14.476  1.00  0.00     0.065 A 
ATOM      2  C   UNL     1      -4.783  -4.103  13.282  1.00  0.00     0.208 A 
ATOM      3  O   UNL     1      -4.218  -3.046  12.712  1.00  0.00    -0.463 OA
ATOM      4  C   UNL     1      -4.305  -1.817  13.212  1.00  0.00     0.147 A 
ATOM      5  C   UNL     1      -5.033  -1.596  14.404  1.00  0.00     0.066 A 
ATOM      6  C   UNL     1      -5.622  -2.697  15.049  1.00  0.00     0.200 A 
ATOM      7  O   UNL     1      -6.235  -2.543  16.141  1.00  0.00    -0.288 OA
ATOM      8  C   UNL     1      -5.150  -0.294  14.915  1.00  0.00     0.020 A 
ATOM      9  C   UNL     1      -4.564   0.777  14.243  1.00  0.00     0.047 A 
ATOM     10  C   UNL     1      -3.831   0.569  13.069  1.00  0.00     0.125 A 
ATOM     11  C   UNL     1      -3.672  -0.737  12.553  1.00  0.00     0.069 A 
ENDROOT
BRANCH   1  12
ATOM     12  C   UNL     1      -6.133  -5.173  15.097  1.00  0.00    -0.011 A 
ATOM     13  C   UNL     1      -5.336  -6.113  15.776  1.00  0.00     0.013 A 
ATOM     14  C   UNL     1      -5.914  -7.250  16.347  1.00  0.00     0.047 A 
ATOM     15  C   UNL     1      -7.293  -7.465  16.242  1.00  0.00     0.115 A 
ATOM     16  C   UNL     1      -7.518  -5.398  14.992  1.00  0.00     0.013 A 
ATOM     17  C   UNL     1      -8.095  -6.535  15.565  1.00  0.00     0.047 A 
BRANCH  15  18
ATOM     18  O   UNL     1      -7.856  -8.605  16.813  1.00  0.00    -0.508 OA
ATOM     19  H   UNL     1      -8.282  -8.583  17.734  1.00  0.00     0.293 HD
ENDBRANCH  15  18
ENDBRANCH   1  12
BRANCH  11  20
ATOM     20  C   UNL     1      -2.886  -0.966  11.272  1.00  0.00     0.188 C 
ATOM     21  C   UNL     1      -3.754  -1.717  10.225  1.00  0.00     0.179 C 
ATOM     22  O   UNL     1      -1.713  -1.707  11.554  1.00  0.00    -0.362 OA
ATOM     23  C   UNL     1      -2.881  -2.548   9.248  1.00  0.00     0.177 C 
ATOM     24  C   UNL     1      -0.798  -1.658  10.464  1.00  0.00     0.176 C 
ATOM     25  C   UNL     1      -1.490  -1.899   9.077  1.00  0.00     0.177 C 
BRANCH  21  26
ATOM     26  O   UNL     1      -4.574  -0.813   9.525  1.00  0.00    -0.387 OA
ATOM     27  H   UNL     1      -4.414   0.091   9.898  1.00  0.00     0.211 HD
ENDBRANCH  21  26
BRANCH  23  28
ATOM     28  O   UNL     1      -2.747  -3.855   9.744  1.00  0.00    -0.387 OA
ATOM     29  H   UNL     1      -3.220  -4.457   9.111  1.00  0.00     0.211 HD
ENDBRANCH  23  28
BRANCH  24  30
ATOM     30  C   UNL     1       0.348  -2.637  10.761  1.00  0.00     0.191 C 
BRANCH  30  31
ATOM     31  O   UNL     1       1.423  -2.421   9.883  1.00  0.00    -0.394 OA
ATOM     32  H   UNL     1       1.060  -1.980   9.072  1.00  0.00     0.210 HD
ENDBRANCH  30  31
ENDBRANCH  24  30
BRANCH  25  33
ATOM     33  O   UNL     1      -0.686  -2.667   8.215  1.00  0.00    -0.388 OA
ATOM     34  H   UNL     1      -0.640  -3.583   8.596  1.00  0.00     0.211 HD
ENDBRANCH  25  33
ENDBRANCH  11  20
BRANCH  10  35
ATOM     35  O   UNL     1      -3.266   1.662  12.412  1.00  0.00    -0.507 OA
ATOM     36  H   UNL     1      -3.644   2.594  12.505  1.00  0.00     0.293 HD
ENDBRANCH  10  35
TORSDOF 9
ENDMDL
MODEL 7
REMARK VINA RESULT:    -6.011      2.350      3.468
REMARK INTER + INTRA:          -9.511
REMARK INTER:                  -8.810
REMARK INTRA:                  -0.701
REMARK UNBOUND:                -1.391
REMARK SMILES O=c1c(-c2ccc(O)cc2)coc2c([C@H]3O[C@@H](CO)[C@@H](O)[C@@H](O)[C@@H]3O)c(O)ccc12
REMARK SMILES IDX 3 1 11 2 12 3 13 4 30 5 2 6 1 7 29 8 28 9 26 10 14 11 4 12
REMARK SMILES IDX 5 13 6 14 7 15 10 16 9 17 8 18 15 20 24 21 16 22 22 23 17 24
REMARK SMILES IDX 20 25 25 26 23 28 18 30 19 31 21 33 27 35
REMARK H PARENT 8 19 25 27 23 29 19 32 21 34 27 36
REMARK Flexibility Score: inf
ROOT
ATOM      1  C   UNL     1      -6.372  -4.053  14.503  1.00  0.00     0.065 A 
ATOM      2  C   UNL     1      -5.433  -3.061  14.824  1.00  0.00     0.208 A 
ATOM      3  O   UNL     1      -5.096  -2.128  13.943  1.00  0.00    -0.463 OA
ATOM      4  C   UNL     1      -5.604  -2.070  12.716  1.00  0.00     0.147 A 
ATOM      5  C   UNL     1      -6.546  -3.041  12.301  1.00  0.00     0.066 A 
ATOM      6  C   UNL     1      -6.944  -4.028  13.218  1.00  0.00     0.200 A 
ATOM      7  O   UNL     1      -7.820  -4.879  12.898  1.00  0.00    -0.288 OA
ATOM      8  C   UNL     1      -7.059  -2.997  10.996  1.00  0.00     0.020 A 
ATOM      9  C   UNL     1      -6.632  -2.011  10.108  1.00  0.00     0.047 A 
ATOM     10  C   UNL     1      -5.710  -1.039  10.511  1.00  0.00     0.125 A 
ATOM     11  C   UNL     1      -5.204  -1.043  11.830  1.00  0.00     0.069 A 
ENDROOT
BRANCH   1  12
ATOM     12  C   UNL     1      -6.733  -5.087  15.504  1.00  0.00    -0.011 A 
ATOM     13  C   UNL     1      -7.919  -4.963  16.251  1.00  0.00     0.013 A 
ATOM     14  C   UNL     1      -8.256  -5.924  17.209  1.00  0.00     0.047 A 
ATOM     15  C   UNL     1      -7.411  -7.017  17.435  1.00  0.00     0.115 A 
ATOM     16  C   UNL     1      -5.886  -6.186  15.741  1.00  0.00     0.013 A 
ATOM     17  C   UNL     1      -6.226  -7.147  16.697  1.00  0.00     0.047 A 
BRANCH  15  18
ATOM     18  O   UNL     1      -7.757  -7.966  18.396  1.00  0.00    -0.508 OA
ATOM     19  H   UNL     1      -7.144  -8.743  18.619  1.00  0.00     0.293 HD
ENDBRANCH  15  18
ENDBRANCH   1  12
BRANCH  11  20
ATOM     20  C   UNL     1      -4.194   0.006  12.267  1.00  0.00     0.188 C 
ATOM     21  C   UNL     1      -4.843   1.007  13.263  1.00  0.00     0.179 C 
ATOM     22  O   UNL     1      -3.698   0.698  11.135  1.00  0.00    -0.362 OA
ATOM     23  C   UNL     1      -4.154   2.398  13.206  1.00  0.00     0.177 C 
ATOM     24  C   UNL     1      -2.529   1.444  11.457  1.00  0.00     0.176 C 
ATOM     25  C   UNL     1      -2.673   2.254  12.793  1.00  0.00     0.177 C 
BRANCH  21  26
ATOM     26  O   UNL     1      -4.820   0.486  14.569  1.00  0.00    -0.387 OA
ATOM     27  H   UNL     1      -4.386   1.157  15.155  1.00  0.00     0.211 HD
ENDBRANCH  21  26
BRANCH  23  28
ATOM     28  O   UNL     1      -4.836   3.214  12.289  1.00  0.00    -0.387 OA
ATOM     29  H   UNL     1      -4.409   3.075  11.403  1.00  0.00     0.211 HD
ENDBRANCH  23  28
BRANCH  24  30
ATOM     30  C   UNL     1      -2.171   2.315  10.243  1.00  0.00     0.191 C 
BRANCH  30  31
ATOM     31  O   UNL     1      -3.026   2.036   9.165  1.00  0.00    -0.394 OA
ATOM     32  H   UNL     1      -3.691   1.370   9.477  1.00  0.00     0.210 HD
ENDBRANCH  30  31
ENDBRANCH  24  30
BRANCH  25  33
ATOM     33  O   UNL     1      -2.056   3.515  12.712  1.00  0.00    -0.388 OA
ATOM     34  H   UNL     1      -1.934   3.841  13.643  1.00  0.00     0.211 HD
ENDBRANCH  25  33
ENDBRANCH  11  20
BRANCH  10  35
ATOM     35  O   UNL     1      -5.292  -0.072   9.596  1.00  0.00    -0.507 OA
ATOM     36  H   UNL     1      -5.493  -0.149   8.609  1.00  0.00     0.293 HD
ENDBRANCH  10  35
TORSDOF 9
ENDMDL
MODEL 8
REMARK VINA RESULT:    -5.359      2.412      3.426
REMARK INTER + INTRA:          -8.629
REMARK INTER:                  -8.344
REMARK INTRA:                  -0.285
REMARK UNBOUND:                -1.391
REMARK SMILES O=c1c(-c2ccc(O)cc2)coc2c([C@H]3O[C@@H](CO)[C@@H](O)[C@@H](O)[C@@H]3O)c(O)ccc12
REMARK SMILES IDX 3 1 11 2 12 3 13 4 30 5 2 6 1 7 29 8 28 9 26 10 14 11 4 12
REMARK SMILES IDX 5 13 6 14 7 15 10 16 9 17 8 18 15 20 24 21 16 22 22 23 17 24
REMARK SMILES IDX 20 25 25 26 23 28 18 30 19 31 21 33 27 35
REMARK H PARENT 8 19 25 27 23 29 19 32 21 34 27 36
REMARK Flexibility Score: inf
ROOT
ATOM      1  C   UNL     1      -6.007  -3.654  14.729  1.00  0.00     0.065 A 
ATOM      2  C   UNL     1      -5.981  -3.926  13.352  1.00  0.00     0.208 A 
ATOM      3  O   UNL     1      -5.636  -2.990  12.477  1.00  0.00    -0.463 OA
ATOM      4  C   UNL     1      -5.306  -1.751  12.831  1.00  0.00     0.147 A 
ATOM      5  C   UNL     1      -5.321  -1.385  14.197  1.00  0.00     0.066 A 
ATOM      6  C   UNL     1      -5.656  -2.359  15.152  1.00  0.00     0.200 A 
ATOM      7  O   UNL     1      -5.631  -2.080  16.383  1.00  0.00    -0.288 OA
ATOM      8  C   UNL     1      -5.002  -0.070  14.566  1.00  0.00     0.020 A 
ATOM      9  C   UNL     1      -4.685   0.875  13.591  1.00  0.00     0.047 A 
ATOM     10  C   UNL     1      -4.655   0.521  12.238  1.00  0.00     0.125 A 
ATOM     11  C   UNL     1      -4.941  -0.806  11.844  1.00  0.00     0.069 A 
ENDROOT
BRANCH   1  12
ATOM     12  C   UNL     1      -6.397  -4.716  15.689  1.00  0.00    -0.011 A 
ATOM     13  C   UNL     1      -7.543  -4.559  16.490  1.00  0.00     0.013 A 
ATOM     14  C   UNL     1      -7.906  -5.548  17.409  1.00  0.00     0.047 A 
ATOM     15  C   UNL     1      -7.126  -6.703  17.543  1.00  0.00     0.115 A 
ATOM     16  C   UNL     1      -5.616  -5.878  15.833  1.00  0.00     0.013 A 
ATOM     17  C   UNL     1      -5.981  -6.867  16.750  1.00  0.00     0.047 A 
BRANCH  15  18
ATOM     18  O   UNL     1      -7.496  -7.679  18.465  1.00  0.00    -0.508 OA
ATOM     19  H   UNL     1      -6.892  -8.466  18.678  1.00  0.00     0.293 HD
ENDBRANCH  15  18
ENDBRANCH   1  12
BRANCH  11  20
ATOM     20  C   UNL     1      -4.920  -1.191  10.374  1.00  0.00     0.188 C 
ATOM     21  C   UNL     1      -5.848  -2.410  10.115  1.00  0.00     0.179 C 
ATOM     22  O   UNL     1      -3.596  -1.494   9.974  1.00  0.00    -0.362 OA
ATOM     23  C   UNL     1      -5.375  -3.240   8.891  1.00  0.00     0.177 C 
ATOM     24  C   UNL     1      -3.480  -1.535   8.556  1.00  0.00     0.176 C 
ATOM     25  C   UNL     1      -4.642  -2.338   7.874  1.00  0.00     0.177 C 
BRANCH  21  26
ATOM     26  O   UNL     1      -7.181  -1.989   9.954  1.00  0.00    -0.387 OA
ATOM     27  H   UNL     1      -7.323  -1.202  10.539  1.00  0.00     0.211 HD
ENDBRANCH  21  26
BRANCH  23  28
ATOM     28  O   UNL     1      -4.523  -4.266   9.330  1.00  0.00    -0.387 OA
ATOM     29  H   UNL     1      -3.639  -3.852   9.512  1.00  0.00     0.211 HD
ENDBRANCH  23  28
BRANCH  24  30
ATOM     30  C   UNL     1      -2.079  -2.060   8.207  1.00  0.00     0.191 C 
BRANCH  30  31
ATOM     31  O   UNL     1      -1.787  -3.219   8.945  1.00  0.00    -0.394 OA
ATOM     32  H   UNL     1      -2.395  -3.233   9.728  1.00  0.00     0.210 HD
ENDBRANCH  30  31
ENDBRANCH  24  30
BRANCH  25  33
ATOM     33  O   UNL     1      -4.187  -3.094   6.778  1.00  0.00    -0.388 OA
ATOM     34  H   UNL     1      -3.332  -2.688   6.478  1.00  0.00     0.211 HD
ENDBRANCH  25  33
ENDBRANCH  11  20
BRANCH  10  35
ATOM     35  O   UNL     1      -4.347   1.490  11.284  1.00  0.00    -0.507 OA
ATOM     36  H   UNL     1      -4.337   1.282  10.296  1.00  0.00     0.293 HD
ENDBRANCH  10  35
TORSDOF 9
ENDMDL
MODEL 9
REMARK VINA RESULT:    -4.404      2.134      3.206
REMARK INTER + INTRA:          -7.340
REMARK INTER:                  -6.573
REMARK INTRA:                  -0.766
REMARK UNBOUND:                -1.391
REMARK SMILES O=c1c(-c2ccc(O)cc2)coc2c([C@H]3O[C@@H](CO)[C@@H](O)[C@@H](O)[C@@H]3O)c(O)ccc12
REMARK SMILES IDX 3 1 11 2 12 3 13 4 30 5 2 6 1 7 29 8 28 9 26 10 14 11 4 12
REMARK SMILES IDX 5 13 6 14 7 15 10 16 9 17 8 18 15 20 24 21 16 22 22 23 17 24
REMARK SMILES IDX 20 25 25 26 23 28 18 30 19 31 21 33 27 35
REMARK H PARENT 8 19 25 27 23 29 19 32 21 34 27 36
REMARK Flexibility Score: inf
ROOT
ATOM      1  C   UNL     1      -5.008  -2.492  13.231  1.00  0.00     0.065 A 
ATOM      2  C   UNL     1      -4.855  -2.417  11.838  1.00  0.00     0.208 A 
ATOM      3  O   UNL     1      -4.296  -1.357  11.268  1.00  0.00    -0.463 OA
ATOM      4  C   UNL     1      -3.858  -0.307  11.958  1.00  0.00     0.147 A 
ATOM      5  C   UNL     1      -3.988  -0.291  13.366  1.00  0.00     0.066 A 
ATOM      6  C   UNL     1      -4.552  -1.409  14.004  1.00  0.00     0.200 A 
ATOM      7  O   UNL     1      -4.636  -1.449  15.263  1.00  0.00    -0.288 OA
ATOM      8  C   UNL     1      -3.554   0.830  14.090  1.00  0.00     0.020 A 
ATOM      9  C   UNL     1      -3.011   1.927  13.424  1.00  0.00     0.047 A 
ATOM     10  C   UNL     1      -2.867   1.917  12.033  1.00  0.00     0.125 A 
ATOM     11  C   UNL     1      -3.267   0.787  11.284  1.00  0.00     0.069 A 
ENDROOT
BRANCH   1  12
ATOM     12  C   UNL     1      -5.636  -3.688  13.846  1.00  0.00    -0.011 A 
ATOM     13  C   UNL     1      -4.852  -4.605  14.570  1.00  0.00     0.013 A 
ATOM     14  C   UNL     1      -5.434  -5.742  15.137  1.00  0.00     0.047 A 
ATOM     15  C   UNL     1      -6.805  -5.980  14.984  1.00  0.00     0.115 A 
ATOM     16  C   UNL     1      -7.013  -3.936  13.693  1.00  0.00     0.013 A 
ATOM     17  C   UNL     1      -7.594  -5.073  14.262  1.00  0.00     0.047 A 
BRANCH  15  18
ATOM     18  O   UNL     1      -7.372  -7.119  15.550  1.00  0.00    -0.508 OA
ATOM     19  H   UNL     1      -8.150  -7.059  16.200  1.00  0.00     0.293 HD
ENDBRANCH  15  18
ENDBRANCH   1  12
BRANCH  11  20
ATOM     20  C   UNL     1      -3.121   0.778   9.772  1.00  0.00     0.188 C 
ATOM     21  C   UNL     1      -2.023  -0.231   9.335  1.00  0.00     0.179 C 
ATOM     22  O   UNL     1      -2.798   2.078   9.311  1.00  0.00    -0.362 OA
ATOM     23  C   UNL     1      -1.370   0.181   7.988  1.00  0.00     0.177 C 
ATOM     24  C   UNL     1      -2.977   2.186   7.903  1.00  0.00     0.176 C 
ATOM     25  C   UNL     1      -2.373   0.970   7.118  1.00  0.00     0.177 C 
BRANCH  21  26
ATOM     26  O   UNL     1      -2.553  -1.533   9.261  1.00  0.00    -0.387 OA
ATOM     27  H   UNL     1      -3.102  -1.683  10.072  1.00  0.00     0.211 HD
ENDBRANCH  21  26
BRANCH  23  28
ATOM     28  O   UNL     1      -0.233   0.963   8.246  1.00  0.00    -0.387 OA
ATOM     29  H   UNL     1      -0.083   1.531   7.446  1.00  0.00     0.211 HD
ENDBRANCH  23  28
BRANCH  24  30
ATOM     30  C   UNL     1      -2.423   3.547   7.456  1.00  0.00     0.191 C 
BRANCH  30  31
ATOM     31  O   UNL     1      -1.084   3.692   7.856  1.00  0.00    -0.394 OA
ATOM     32  H   UNL     1      -0.819   2.853   8.312  1.00  0.00     0.210 HD
ENDBRANCH  30  31
ENDBRANCH  24  30
BRANCH  25  33
ATOM     33  O   UNL     1      -1.773   1.370   5.910  1.00  0.00    -0.388 OA
ATOM     34  H   UNL     1      -1.989   2.331   5.780  1.00  0.00     0.211 HD
ENDBRANCH  25  33
ENDBRANCH  11  20
BRANCH  10  35
ATOM     35  O   UNL     1      -2.331   3.034  11.392  1.00  0.00    -0.507 OA
ATOM     36  H   UNL     1      -2.672   3.968  11.573  1.00  0.00     0.293 HD
ENDBRANCH  10  35
TORSDOF 9
ENDMDL
