MODEL 1
REMARK VINA RESULT:    -4.135      0.000      0.000
REMARK INTER + INTRA:          -6.636
REMARK INTER:                  -6.310
REMARK INTRA:                  -0.326
REMARK UNBOUND:                -0.326
REMARK SMILES CC1=CCC[C@@H](C)C(=O)C[C@H](C(C)C)C(=O)C1
REMARK SMILES IDX 8 1 9 2 6 3 7 4 5 5 4 6 3 7 2 8 1 9 10 11 11 12 15 13 16 14
REMARK SMILES IDX 17 15 12 17 13 18 14 19
REMARK H PARENT
REMARK Flexibility Score: 70.00
ROOT
ATOM      1  C   UNL     1     -27.183  18.852 -32.591  1.00  0.00     0.136 C 
ATOM      2  O   UNL     1     -27.830  18.117 -33.323  1.00  0.00    -0.299 OA
ENDROOT
BRANCH   1   3
ATOM      3  C   UNL     1     -26.845  20.254 -33.074  1.00  0.00     0.053 C 
ATOM      4  C   UNL     1     -28.128  21.069 -33.270  1.00  0.00     0.016 C 
BRANCH   3   5
ATOM      5  C   UNL     1     -25.997  20.247 -34.363  1.00  0.00     0.015 C 
BRANCH   5   6
ATOM      6  C   UNL     1     -24.490  20.251 -34.055  1.00  0.00     0.028 C 
BRANCH   6   7
ATOM      7  C   UNL     1     -24.068  21.374 -33.140  1.00  0.00    -0.028 C 
ATOM      8  C   UNL     1     -23.614  21.250 -31.864  1.00  0.00    -0.070 CG0
ATOM      9  C   UNL     1     -23.371  22.526 -31.095  1.00  0.00     0.039 C 
ATOM     10  G   UNL     1     -23.259  19.926 -31.191  1.00  0.00     0.000 G0
ENDBRANCH   6   7
ENDBRANCH   5   6
ENDBRANCH   3   5
ENDBRANCH   1   3
BRANCH   1  11
ATOM     11  C   UNL     1     -26.674  18.317 -31.271  1.00  0.00     0.087 C 
BRANCH  11  12
ATOM     12  C   UNL     1     -25.137  18.075 -31.216  1.00  0.00     0.066 C 
BRANCH  12  13
ATOM     13  C   UNL     1     -24.426  19.233 -30.515  1.00  0.00     0.140 C 
ATOM     14  O   UNL     1     -24.748  19.564 -29.382  1.00  0.00    -0.299 OA
BRANCH  13  15
ATOM     15  C   UNL     1     -23.262  19.923 -31.184  1.00  0.00     0.106 CG0
ATOM     16  G   UNL     1     -23.604  21.246 -31.868  1.00  0.00     0.000 G0
ENDBRANCH  13  15
ENDBRANCH  12  13
BRANCH  12  17
ATOM     17  C   UNL     1     -24.713  16.678 -30.643  1.00  0.00    -0.006 C 
ATOM     18  C   UNL     1     -25.885  15.685 -30.544  1.00  0.00     0.008 C 
ATOM     19  C   UNL     1     -23.610  16.041 -31.513  1.00  0.00     0.008 C 
ENDBRANCH  12  17
ENDBRANCH  11  12
ENDBRANCH   1  11
TORSDOF 1
ENDMDL
MODEL 2
REMARK VINA RESULT:    -3.918      9.267     12.129
REMARK INTER + INTRA:          -6.305
REMARK INTER:                  -6.249
REMARK INTRA:                  -0.056
REMARK UNBOUND:                -0.326
REMARK SMILES CC1=CCC[C@@H](C)C(=O)C[C@H](C(C)C)C(=O)C1
REMARK SMILES IDX 8 1 9 2 6 3 7 4 5 5 4 6 3 7 2 8 1 9 10 11 11 12 15 13 16 14
REMARK SMILES IDX 17 15 12 17 13 18 14 19
REMARK H PARENT
REMARK Flexibility Score: 70.00
ROOT
ATOM      1  C   UNL     1     -15.007  14.256 -28.639  1.00  0.00     0.136 C 
ATOM      2  O   UNL     1     -14.066  14.723 -28.013  1.00  0.00    -0.299 OA
ENDROOT
BRANCH   1   3
ATOM      3  C   UNL     1     -15.682  12.999 -28.115  1.00  0.00     0.053 C 
ATOM      4  C   UNL     1     -15.263  12.738 -26.664  1.00  0.00     0.016 C 
BRANCH   3   5
ATOM      5  C   UNL     1     -15.400  11.764 -28.998  1.00  0.00     0.015 C 
BRANCH   5   6
ATOM      6  C   UNL     1     -16.667  10.923 -29.226  1.00  0.00     0.028 C 
BRANCH   6   7
ATOM      7  C   UNL     1     -17.869  11.745 -29.623  1.00  0.00    -0.028 C 
ATOM      8  C   UNL     1     -17.996  12.501 -30.746  1.00  0.00    -0.070 CG0
ATOM      9  C   UNL     1     -19.244  13.341 -30.870  1.00  0.00     0.039 C 
ATOM     10  G   UNL     1     -17.012  12.497 -31.914  1.00  0.00     0.000 G0
ENDBRANCH   6   7
ENDBRANCH   5   6
ENDBRANCH   3   5
ENDBRANCH   1   3
BRANCH   1  11
ATOM     11  C   UNL     1     -15.414  14.896 -29.948  1.00  0.00     0.087 C 
BRANCH  11  12
ATOM     12  C   UNL     1     -15.014  14.090 -31.218  1.00  0.00     0.066 C 
BRANCH  12  13
ATOM     13  C   UNL     1     -16.235  13.809 -32.094  1.00  0.00     0.140 C 
ATOM     14  O   UNL     1     -16.552  14.588 -32.983  1.00  0.00    -0.299 OA
BRANCH  13  15
ATOM     15  C   UNL     1     -17.010  12.525 -31.925  1.00  0.00     0.106 CG0
ATOM     16  G   UNL     1     -17.995  12.517 -30.757  1.00  0.00     0.000 G0
ENDBRANCH  13  15
ENDBRANCH  12  13
BRANCH  12  17
ATOM     17  C   UNL     1     -13.820  14.699 -32.032  1.00  0.00    -0.006 C 
ATOM     18  C   UNL     1     -13.773  16.237 -31.975  1.00  0.00     0.008 C 
ATOM     19  C   UNL     1     -12.472  14.153 -31.519  1.00  0.00     0.008 C 
ENDBRANCH  12  17
ENDBRANCH  11  12
ENDBRANCH   1  11
TORSDOF 1
ENDMDL
MODEL 3
REMARK VINA RESULT:    -3.890      9.721     12.030
REMARK INTER + INTRA:          -6.263
REMARK INTER:                  -6.005
REMARK INTRA:                  -0.258
REMARK UNBOUND:                -0.326
REMARK SMILES CC1=CCC[C@@H](C)C(=O)C[C@H](C(C)C)C(=O)C1
REMARK SMILES IDX 8 1 9 2 6 3 7 4 5 5 4 6 3 7 2 8 1 9 10 11 11 12 15 13 16 14
REMARK SMILES IDX 17 15 12 17 13 18 14 19
REMARK H PARENT
REMARK Flexibility Score: 70.00
ROOT
ATOM      1  C   UNL     1     -16.148  13.535 -32.219  1.00  0.00     0.136 C 
ATOM      2  O   UNL     1     -16.309  14.397 -33.070  1.00  0.00    -0.299 OA
ENDROOT
BRANCH   1   3
ATOM      3  C   UNL     1     -17.288  12.573 -31.927  1.00  0.00     0.053 C 
ATOM      4  C   UNL     1     -18.496  13.335 -31.369  1.00  0.00     0.016 C 
BRANCH   3   5
ATOM      5  C   UNL     1     -16.871  11.433 -30.973  1.00  0.00     0.015 C 
BRANCH   5   6
ATOM      6  C   UNL     1     -17.537  11.570 -29.594  1.00  0.00     0.028 C 
BRANCH   6   7
ATOM      7  C   UNL     1     -16.549  11.632 -28.454  1.00  0.00    -0.028 C 
ATOM      8  C   UNL     1     -15.797  12.705 -28.094  1.00  0.00    -0.070 CG0
ATOM      9  C   UNL     1     -14.781  12.495 -26.997  1.00  0.00     0.039 C 
ATOM     10  G   UNL     1     -15.963  14.115 -28.659  1.00  0.00     0.000 G0
ENDBRANCH   6   7
ENDBRANCH   5   6
ENDBRANCH   3   5
ENDBRANCH   1   3
BRANCH   1  11
ATOM     11  C   UNL     1     -14.856  13.506 -31.432  1.00  0.00     0.087 C 
BRANCH  11  12
ATOM     12  C   UNL     1     -14.488  14.849 -30.736  1.00  0.00     0.066 C 
BRANCH  12  13
ATOM     13  C   UNL     1     -14.702  14.759 -29.225  1.00  0.00     0.140 C 
ATOM     14  O   UNL     1     -13.891  15.255 -28.454  1.00  0.00    -0.299 OA
BRANCH  13  15
ATOM     15  C   UNL     1     -15.958  14.131 -28.674  1.00  0.00     0.106 CG0
ATOM     16  G   UNL     1     -15.779  12.725 -28.104  1.00  0.00     0.000 G0
ENDBRANCH  13  15
ENDBRANCH  12  13
BRANCH  12  17
ATOM     17  C   UNL     1     -13.072  15.414 -31.108  1.00  0.00    -0.006 C 
ATOM     18  C   UNL     1     -12.066  14.313 -31.491  1.00  0.00     0.008 C 
ATOM     19  C   UNL     1     -13.171  16.410 -32.280  1.00  0.00     0.008 C 
ENDBRANCH  12  17
ENDBRANCH  11  12
ENDBRANCH   1  11
TORSDOF 1
ENDMDL
MODEL 4
REMARK VINA RESULT:    -3.873     10.603     12.556
REMARK INTER + INTRA:          -6.237
REMARK INTER:                  -5.830
REMARK INTRA:                  -0.407
REMARK UNBOUND:                -0.326
REMARK SMILES CC1=CCC[C@@H](C)C(=O)C[C@H](C(C)C)C(=O)C1
REMARK SMILES IDX 8 1 9 2 6 3 7 4 5 5 4 6 3 7 2 8 1 9 10 11 11 12 15 13 16 14
REMARK SMILES IDX 17 15 12 17 13 18 14 19
REMARK H PARENT
REMARK Flexibility Score: 70.00
ROOT
ATOM      1  C   UNL     1     -14.557  14.757 -32.074  1.00  0.00     0.136 C 
ATOM      2  O   UNL     1     -14.622  14.214 -33.167  1.00  0.00    -0.299 OA
ENDROOT
BRANCH   1   3
ATOM      3  C   UNL     1     -13.249  15.411 -31.658  1.00  0.00     0.053 C 
ATOM      4  C   UNL     1     -13.050  16.728 -32.416  1.00  0.00     0.016 C 
BRANCH   3   5
ATOM      5  C   UNL     1     -12.034  14.478 -31.852  1.00  0.00     0.015 C 
BRANCH   5   6
ATOM      6  C   UNL     1     -11.893  13.475 -30.695  1.00  0.00     0.028 C 
BRANCH   6   7
ATOM      7  C   UNL     1     -11.893  14.126 -29.333  1.00  0.00    -0.028 C 
ATOM      8  C   UNL     1     -12.857  14.008 -28.381  1.00  0.00    -0.070 CG0
ATOM      9  C   UNL     1     -12.703  14.855 -27.141  1.00  0.00     0.039 C 
ATOM     10  G   UNL     1     -14.028  13.030 -28.444  1.00  0.00     0.000 G0
ENDBRANCH   6   7
ENDBRANCH   5   6
ENDBRANCH   3   5
ENDBRANCH   1   3
BRANCH   1  11
ATOM     11  C   UNL     1     -15.749  14.691 -31.145  1.00  0.00     0.087 C 
BRANCH  11  12
ATOM     12  C   UNL     1     -15.850  13.382 -30.309  1.00  0.00     0.066 C 
BRANCH  12  13
ATOM     13  C   UNL     1     -15.350  13.604 -28.881  1.00  0.00     0.140 C 
ATOM     14  O   UNL     1     -16.042  14.199 -28.067  1.00  0.00    -0.299 OA
BRANCH  13  15
ATOM     15  C   UNL     1     -14.031  13.016 -28.441  1.00  0.00     0.106 CG0
ATOM     16  G   UNL     1     -12.871  14.008 -28.386  1.00  0.00     0.000 G0
ENDBRANCH  13  15
ENDBRANCH  12  13
BRANCH  12  17
ATOM     17  C   UNL     1     -17.256  12.686 -30.349  1.00  0.00    -0.006 C 
ATOM     18  C   UNL     1     -17.932  12.772 -31.729  1.00  0.00     0.008 C 
ATOM     19  C   UNL     1     -17.142  11.200 -29.956  1.00  0.00     0.008 C 
ENDBRANCH  12  17
ENDBRANCH  11  12
ENDBRANCH   1  11
TORSDOF 1
ENDMDL
MODEL 5
REMARK VINA RESULT:    -3.525     10.724     13.080
REMARK INTER + INTRA:          -5.705
REMARK INTER:                  -5.557
REMARK INTRA:                  -0.148
REMARK UNBOUND:                -0.326
REMARK SMILES CC1=CCC[C@@H](C)C(=O)C[C@H](C(C)C)C(=O)C1
REMARK SMILES IDX 8 1 9 2 6 3 7 4 5 5 4 6 3 7 2 8 1 9 10 11 11 12 15 13 16 14
REMARK SMILES IDX 17 15 12 17 13 18 14 19
REMARK H PARENT
REMARK Flexibility Score: 70.00
ROOT
ATOM      1  C   UNL     1     -15.143  13.967 -31.905  1.00  0.00     0.136 C 
ATOM      2  O   UNL     1     -15.476  14.810 -32.725  1.00  0.00    -0.299 OA
ENDROOT
BRANCH   1   3
ATOM      3  C   UNL     1     -16.226  13.177 -31.187  1.00  0.00     0.053 C 
ATOM      4  C   UNL     1     -17.546  13.263 -31.962  1.00  0.00     0.016 C 
BRANCH   3   5
ATOM      5  C   UNL     1     -16.418  13.630 -29.724  1.00  0.00     0.015 C 
BRANCH   5   6
ATOM      6  C   UNL     1     -15.910  12.575 -28.728  1.00  0.00     0.028 C 
BRANCH   6   7
ATOM      7  C   UNL     1     -15.083  13.157 -27.607  1.00  0.00    -0.028 C 
ATOM      8  C   UNL     1     -13.743  13.387 -27.627  1.00  0.00    -0.070 CG0
ATOM      9  C   UNL     1     -13.108  13.858 -26.341  1.00  0.00     0.039 C 
ATOM     10  G   UNL     1     -12.860  13.282 -28.869  1.00  0.00     0.000 G0
ENDBRANCH   6   7
ENDBRANCH   5   6
ENDBRANCH   3   5
ENDBRANCH   1   3
BRANCH   1  11
ATOM     11  C   UNL     1     -13.677  13.796 -31.574  1.00  0.00     0.087 C 
BRANCH  11  12
ATOM     12  C   UNL     1     -13.025  15.015 -30.860  1.00  0.00     0.066 C 
BRANCH  12  13
ATOM     13  C   UNL     1     -12.465  14.614 -29.495  1.00  0.00     0.140 C 
ATOM     14  O   UNL     1     -11.756  15.386 -28.864  1.00  0.00    -0.299 OA
BRANCH  13  15
ATOM     15  C   UNL     1     -12.853  13.294 -28.875  1.00  0.00     0.106 CG0
ATOM     16  G   UNL     1     -13.742  13.399 -27.638  1.00  0.00     0.000 G0
ENDBRANCH  13  15
ENDBRANCH  12  13
BRANCH  12  17
ATOM     17  C   UNL     1     -11.980  15.802 -31.727  1.00  0.00    -0.006 C 
ATOM     18  C   UNL     1     -11.061  14.879 -32.549  1.00  0.00     0.008 C 
ATOM     19  C   UNL     1     -12.690  16.768 -32.696  1.00  0.00     0.008 C 
ENDBRANCH  12  17
ENDBRANCH  11  12
ENDBRANCH   1  11
TORSDOF 1
ENDMDL
MODEL 6
REMARK VINA RESULT:    -3.489     10.981     13.370
REMARK INTER + INTRA:          -5.651
REMARK INTER:                  -5.172
REMARK INTRA:                  -0.480
REMARK UNBOUND:                -0.326
REMARK SMILES CC1=CCC[C@@H](C)C(=O)C[C@H](C(C)C)C(=O)C1
REMARK SMILES IDX 8 1 9 2 6 3 7 4 5 5 4 6 3 7 2 8 1 9 10 11 11 12 15 13 16 14
REMARK SMILES IDX 17 15 12 17 13 18 14 19
REMARK H PARENT
REMARK Flexibility Score: 70.00
ROOT
ATOM      1  C   UNL     1     -16.095  12.475 -30.281  1.00  0.00     0.136 C 
ATOM      2  O   UNL     1     -16.692  12.626 -31.336  1.00  0.00    -0.299 OA
ENDROOT
BRANCH   1   3
ATOM      3  C   UNL     1     -16.890  12.116 -29.035  1.00  0.00     0.053 C 
ATOM      4  C   UNL     1     -17.386  13.388 -28.338  1.00  0.00     0.016 C 
BRANCH   3   5
ATOM      5  C   UNL     1     -16.088  11.232 -28.056  1.00  0.00     0.015 C 
BRANCH   5   6
ATOM      6  C   UNL     1     -15.773  11.972 -26.745  1.00  0.00     0.028 C 
BRANCH   6   7
ATOM      7  C   UNL     1     -14.398  11.669 -26.201  1.00  0.00    -0.028 C 
ATOM      8  C   UNL     1     -13.273  12.407 -26.393  1.00  0.00    -0.070 CG0
ATOM      9  C   UNL     1     -11.981  11.840 -25.857  1.00  0.00     0.039 C 
ATOM     10  G   UNL     1     -13.238  13.792 -27.036  1.00  0.00     0.000 G0
ENDBRANCH   6   7
ENDBRANCH   5   6
ENDBRANCH   3   5
ENDBRANCH   1   3
BRANCH   1  11
ATOM     11  C   UNL     1     -14.604  12.728 -30.232  1.00  0.00     0.087 C 
BRANCH  11  12
ATOM     12  C   UNL     1     -14.190  14.034 -29.493  1.00  0.00     0.066 C 
BRANCH  12  13
ATOM     13  C   UNL     1     -13.018  13.778 -28.546  1.00  0.00     0.140 C 
ATOM     14  O   UNL     1     -11.885  13.629 -28.985  1.00  0.00    -0.299 OA
BRANCH  13  15
ATOM     15  C   UNL     1     -13.234  13.791 -27.052  1.00  0.00     0.106 CG0
ATOM     16  G   UNL     1     -13.275  12.412 -26.395  1.00  0.00     0.000 G0
ENDBRANCH  13  15
ENDBRANCH  12  13
BRANCH  12  17
ATOM     17  C   UNL     1     -13.942  15.267 -30.431  1.00  0.00    -0.006 C 
ATOM     18  C   UNL     1     -13.677  14.869 -31.894  1.00  0.00     0.008 C 
ATOM     19  C   UNL     1     -15.148  16.228 -30.401  1.00  0.00     0.008 C 
ENDBRANCH  12  17
ENDBRANCH  11  12
ENDBRANCH   1  11
TORSDOF 1
ENDMDL
MODEL 7
REMARK VINA RESULT:    -3.487     10.525     13.004
REMARK INTER + INTRA:          -5.647
REMARK INTER:                  -5.331
REMARK INTRA:                  -0.316
REMARK UNBOUND:                -0.326
REMARK SMILES CC1=CCC[C@@H](C)C(=O)C[C@H](C(C)C)C(=O)C1
REMARK SMILES IDX 8 1 9 2 6 3 7 4 5 5 4 6 3 7 2 8 1 9 10 11 11 12 15 13 16 14
REMARK SMILES IDX 17 15 12 17 13 18 14 19
REMARK H PARENT
REMARK Flexibility Score: 70.00
ROOT
ATOM      1  C   UNL     1     -13.485  11.661 -29.786  1.00  0.00     0.136 C 
ATOM      2  O   UNL     1     -12.896  11.396 -30.823  1.00  0.00    -0.299 OA
ENDROOT
BRANCH   1   3
ATOM      3  C   UNL     1     -12.671  11.953 -28.536  1.00  0.00     0.053 C 
ATOM      4  C   UNL     1     -13.599  12.318 -27.372  1.00  0.00     0.016 C 
BRANCH   3   5
ATOM      5  C   UNL     1     -11.616  13.057 -28.762  1.00  0.00     0.015 C 
BRANCH   5   6
ATOM      6  C   UNL     1     -12.266  14.437 -28.962  1.00  0.00     0.028 C 
BRANCH   6   7
ATOM      7  C   UNL     1     -12.165  14.948 -30.379  1.00  0.00    -0.028 C 
ATOM      8  C   UNL     1     -13.199  15.178 -31.230  1.00  0.00    -0.070 CG0
ATOM      9  C   UNL     1     -12.849  15.569 -32.646  1.00  0.00     0.039 C 
ATOM     10  G   UNL     1     -14.675  15.150 -30.837  1.00  0.00     0.000 G0
ENDBRANCH   6   7
ENDBRANCH   5   6
ENDBRANCH   3   5
ENDBRANCH   1   3
BRANCH   1  11
ATOM     11  C   UNL     1     -14.997  11.610 -29.761  1.00  0.00     0.087 C 
BRANCH  11  12
ATOM     12  C   UNL     1     -15.694  13.001 -29.727  1.00  0.00     0.066 C 
BRANCH  12  13
ATOM     13  C   UNL     1     -15.350  13.816 -30.974  1.00  0.00     0.140 C 
ATOM     14  O   UNL     1     -15.675  13.418 -32.085  1.00  0.00    -0.299 OA
BRANCH  13  15
ATOM     15  C   UNL     1     -14.681  15.162 -30.838  1.00  0.00     0.106 CG0
ATOM     16  G   UNL     1     -13.202  15.187 -31.219  1.00  0.00     0.000 G0
ENDBRANCH  13  15
ENDBRANCH  12  13
BRANCH  12  17
ATOM     17  C   UNL     1     -17.238  12.954 -29.450  1.00  0.00    -0.006 C 
ATOM     18  C   UNL     1     -17.650  11.796 -28.523  1.00  0.00     0.008 C 
ATOM     19  C   UNL     1     -17.721  14.275 -28.819  1.00  0.00     0.008 C 
ENDBRANCH  12  17
ENDBRANCH  11  12
ENDBRANCH   1  11
TORSDOF 1
ENDMDL
MODEL 8
REMARK VINA RESULT:    -3.481     10.937     13.323
REMARK INTER + INTRA:          -5.638
REMARK INTER:                  -5.371
REMARK INTRA:                  -0.267
REMARK UNBOUND:                -0.326
REMARK SMILES CC1=CCC[C@@H](C)C(=O)C[C@H](C(C)C)C(=O)C1
REMARK SMILES IDX 8 1 9 2 6 3 7 4 5 5 4 6 3 7 2 8 1 9 10 11 11 12 15 13 16 14
REMARK SMILES IDX 17 15 12 17 13 18 14 19
REMARK H PARENT
REMARK Flexibility Score: 70.00
ROOT
ATOM      1  C   UNL     1     -11.789  14.219 -30.610  1.00  0.00     0.136 C 
ATOM      2  O   UNL     1     -11.002  15.027 -30.138  1.00  0.00    -0.299 OA
ENDROOT
BRANCH   1   3
ATOM      3  C   UNL     1     -12.502  14.565 -31.907  1.00  0.00     0.053 C 
ATOM      4  C   UNL     1     -11.499  14.627 -33.064  1.00  0.00     0.016 C 
BRANCH   3   5
ATOM      5  C   UNL     1     -13.306  15.880 -31.808  1.00  0.00     0.015 C 
BRANCH   5   6
ATOM      6  C   UNL     1     -14.574  15.710 -30.954  1.00  0.00     0.028 C 
BRANCH   6   7
ATOM      7  C   UNL     1     -15.642  14.879 -31.623  1.00  0.00    -0.028 C 
ATOM      8  C   UNL     1     -16.154  13.704 -31.171  1.00  0.00    -0.070 CG0
ATOM      9  C   UNL     1     -17.126  12.985 -32.075  1.00  0.00     0.039 C 
ATOM     10  G   UNL     1     -15.878  13.108 -29.791  1.00  0.00     0.000 G0
ENDBRANCH   6   7
ENDBRANCH   5   6
ENDBRANCH   3   5
ENDBRANCH   1   3
BRANCH   1  11
ATOM     11  C   UNL     1     -12.085  12.945 -29.850  1.00  0.00     0.087 C 
BRANCH  11  12
ATOM     12  C   UNL     1     -13.364  12.998 -28.965  1.00  0.00     0.066 C 
BRANCH  12  13
ATOM     13  C   UNL     1     -14.553  12.360 -29.684  1.00  0.00     0.140 C 
ATOM     14  O   UNL     1     -14.479  11.216 -30.111  1.00  0.00    -0.299 OA
BRANCH  13  15
ATOM     15  C   UNL     1     -15.859  13.108 -29.798  1.00  0.00     0.106 CG0
ATOM     16  G   UNL     1     -16.146  13.697 -31.178  1.00  0.00     0.000 G0
ENDBRANCH  13  15
ENDBRANCH  12  13
BRANCH  12  17
ATOM     17  C   UNL     1     -13.178  12.444 -27.509  1.00  0.00    -0.006 C 
ATOM     18  C   UNL     1     -11.805  11.784 -27.286  1.00  0.00     0.008 C 
ATOM     19  C   UNL     1     -13.349  13.569 -26.469  1.00  0.00     0.008 C 
ENDBRANCH  12  17
ENDBRANCH  11  12
ENDBRANCH   1  11
TORSDOF 1
ENDMDL
MODEL 9
REMARK VINA RESULT:    -3.361     10.688     13.086
REMARK INTER + INTRA:          -5.455
REMARK INTER:                  -5.107
REMARK INTRA:                  -0.348
REMARK UNBOUND:                -0.326
REMARK SMILES CC1=CCC[C@@H](C)C(=O)C[C@H](C(C)C)C(=O)C1
REMARK SMILES IDX 8 1 9 2 6 3 7 4 5 5 4 6 3 7 2 8 1 9 10 11 11 12 15 13 16 14
REMARK SMILES IDX 17 15 12 17 13 18 14 19
REMARK H PARENT
REMARK Flexibility Score: 70.00
ROOT
ATOM      1  C   UNL     1     -15.169  12.853 -30.835  1.00  0.00     0.136 C 
ATOM      2  O   UNL     1     -15.052  13.655 -31.750  1.00  0.00    -0.299 OA
ENDROOT
BRANCH   1   3
ATOM      3  C   UNL     1     -16.564  12.409 -30.424  1.00  0.00     0.053 C 
ATOM      4  C   UNL     1     -17.230  11.631 -31.565  1.00  0.00     0.016 C 
BRANCH   3   5
ATOM      5  C   UNL     1     -17.452  13.589 -29.974  1.00  0.00     0.015 C 
BRANCH   5   6
ATOM      6  C   UNL     1     -17.138  14.022 -28.532  1.00  0.00     0.028 C 
BRANCH   6   7
ATOM      7  C   UNL     1     -16.967  12.863 -27.581  1.00  0.00    -0.028 C 
ATOM      8  C   UNL     1     -15.836  12.534 -26.903  1.00  0.00    -0.070 CG0
ATOM      9  C   UNL     1     -15.862  11.253 -26.104  1.00  0.00     0.039 C 
ATOM     10  G   UNL     1     -14.582  13.403 -26.828  1.00  0.00     0.000 G0
ENDBRANCH   6   7
ENDBRANCH   5   6
ENDBRANCH   3   5
ENDBRANCH   1   3
BRANCH   1  11
ATOM     11  C   UNL     1     -13.933  12.392 -30.095  1.00  0.00     0.087 C 
BRANCH  11  12
ATOM     12  C   UNL     1     -13.328  13.445 -29.121  1.00  0.00     0.066 C 
BRANCH  12  13
ATOM     13  C   UNL     1     -13.422  12.969 -27.672  1.00  0.00     0.140 C 
ATOM     14  O   UNL     1     -12.531  12.288 -27.184  1.00  0.00    -0.299 OA
BRANCH  13  15
ATOM     15  C   UNL     1     -14.577  13.406 -26.805  1.00  0.00     0.106 CG0
ATOM     16  G   UNL     1     -15.828  12.535 -26.911  1.00  0.00     0.000 G0
ENDBRANCH  13  15
ENDBRANCH  12  13
BRANCH  12  17
ATOM     17  C   UNL     1     -11.885  13.933 -29.498  1.00  0.00    -0.006 C 
ATOM     18  C   UNL     1     -10.990  12.806 -30.045  1.00  0.00     0.008 C 
ATOM     19  C   UNL     1     -11.945  15.058 -30.550  1.00  0.00     0.008 C 
ENDBRANCH  12  17
ENDBRANCH  11  12
ENDBRANCH   1  11
TORSDOF 1
ENDMDL
