MODEL 1
REMARK VINA RESULT:    -1.451      0.000      0.000
REMARK INTER + INTRA:          -2.596
REMARK INTER:                  -2.130
REMARK INTRA:                  -0.466
REMARK UNBOUND:                -0.466
REMARK SMILES C=C1C=C[C@H](C(C)C)CCC(C)=CCC1
REMARK SMILES IDX 3 1 4 2 5 3 9 4 10 5 11 6 12 7 13 8 6 10 7 11 8 12 2 13 1 14
REMARK SMILES IDX 15 15 14 16
REMARK H PARENT
REMARK Flexibility Score: 70.00
ROOT
ATOM      1  C   UNL     1     168.697 170.651 138.968  1.00  0.00    -0.001 C 
ATOM      2  C   UNL     1     167.781 171.095 139.849  1.00  0.00    -0.023 C 
ENDROOT
BRANCH   2   3
ATOM      3  C   UNL     1     167.870 172.312 140.767  1.00  0.00     0.014 C 
BRANCH   3   4
ATOM      4  C   UNL     1     166.722 173.331 140.546  1.00  0.00     0.012 C 
BRANCH   4   5
ATOM      5  C   UNL     1     166.353 173.539 139.064  1.00  0.00     0.031 C 
BRANCH   5   6
ATOM      6  C   UNL     1     167.185 174.654 138.467  1.00  0.00    -0.077 C 
ATOM      7  C   UNL     1     166.758 176.078 138.714  1.00  0.00     0.039 C 
ATOM      8  C   UNL     1     168.248 174.436 137.658  1.00  0.00    -0.028 CG0
ATOM      9  G   UNL     1     168.833 173.088 137.295  1.00  0.00     0.000 G0
ENDBRANCH   5   6
ENDBRANCH   4   5
ENDBRANCH   3   4
BRANCH   3  10
ATOM     10  C   UNL     1     168.032 171.929 142.274  1.00  0.00    -0.010 C 
ATOM     11  C   UNL     1     167.805 173.140 143.197  1.00  0.00     0.008 C 
ATOM     12  C   UNL     1     169.418 171.329 142.579  1.00  0.00     0.008 C 
ENDBRANCH   3  10
ENDBRANCH   2   3
BRANCH   1  13
ATOM     13  C   UNL     1     170.003 171.278 138.688  1.00  0.00    -0.055 C 
ATOM     14  C   UNL     1     171.106 170.746 139.221  1.00  0.00     0.012 C 
BRANCH  13  15
ATOM     15  C   UNL     1     170.058 172.691 138.146  1.00  0.00     0.039 C 
BRANCH  15  16
ATOM     16  C   UNL     1     168.848 173.094 137.284  1.00  0.00     0.032 CG0
ATOM     17  G   UNL     1     168.272 174.438 137.676  1.00  0.00     0.000 G0
ENDBRANCH  15  16
ENDBRANCH  13  15
ENDBRANCH   1  13
TORSDOF 1
ENDMDL
MODEL 2
REMARK VINA RESULT:    -1.279      2.669      4.410
REMARK INTER + INTRA:          -2.343
REMARK INTER:                  -1.744
REMARK INTRA:                  -0.599
REMARK UNBOUND:                -0.466
REMARK SMILES C=C1C=C[C@H](C(C)C)CCC(C)=CCC1
REMARK SMILES IDX 3 1 4 2 5 3 9 4 10 5 11 6 12 7 13 8 6 10 7 11 8 12 2 13 1 14
REMARK SMILES IDX 15 15 14 16
REMARK H PARENT
REMARK Flexibility Score: 70.00
ROOT
ATOM      1  C   UNL     1     168.287 172.603 141.732  1.00  0.00    -0.001 C 
ATOM      2  C   UNL     1     167.809 173.705 141.126  1.00  0.00    -0.023 C 
ENDROOT
BRANCH   2   3
ATOM      3  C   UNL     1     167.140 173.813 139.756  1.00  0.00     0.014 C 
BRANCH   3   4
ATOM      4  C   UNL     1     165.603 173.999 139.839  1.00  0.00     0.012 C 
BRANCH   4   5
ATOM      5  C   UNL     1     164.801 172.797 139.302  1.00  0.00     0.031 C 
BRANCH   5   6
ATOM      6  C   UNL     1     164.161 172.040 140.445  1.00  0.00    -0.077 C 
ATOM      7  C   UNL     1     162.894 172.588 141.048  1.00  0.00     0.039 C 
ATOM      8  C   UNL     1     164.710 170.935 141.004  1.00  0.00    -0.028 CG0
ATOM      9  G   UNL     1     165.968 170.232 140.541  1.00  0.00     0.000 G0
ENDBRANCH   5   6
ENDBRANCH   4   5
ENDBRANCH   3   4
BRANCH   3  10
ATOM     10  C   UNL     1     167.812 174.879 138.832  1.00  0.00    -0.010 C 
ATOM     11  C   UNL     1     168.213 174.280 137.471  1.00  0.00     0.008 C 
ATOM     12  C   UNL     1     169.059 175.511 139.479  1.00  0.00     0.008 C 
ENDBRANCH   3  10
ENDBRANCH   2   3
BRANCH   1  13
ATOM     13  C   UNL     1     168.247 171.231 141.189  1.00  0.00    -0.055 C 
ATOM     14  C   UNL     1     168.988 170.934 140.118  1.00  0.00     0.012 C 
BRANCH  13  15
ATOM     15  C   UNL     1     167.119 170.301 141.582  1.00  0.00     0.039 C 
BRANCH  15  16
ATOM     16  C   UNL     1     165.973 170.215 140.557  1.00  0.00     0.032 CG0
ATOM     17  G   UNL     1     164.723 170.937 141.013  1.00  0.00     0.000 G0
ENDBRANCH  15  16
ENDBRANCH  13  15
ENDBRANCH   1  13
TORSDOF 1
ENDMDL
MODEL 3
REMARK VINA RESULT:    -1.278      1.771      3.561
REMARK INTER + INTRA:          -2.342
REMARK INTER:                  -1.853
REMARK INTRA:                  -0.489
REMARK UNBOUND:                -0.466
REMARK SMILES C=C1C=C[C@H](C(C)C)CCC(C)=CCC1
REMARK SMILES IDX 3 1 4 2 5 3 9 4 10 5 11 6 12 7 13 8 6 10 7 11 8 12 2 13 1 14
REMARK SMILES IDX 15 15 14 16
REMARK H PARENT
REMARK Flexibility Score: 70.00
ROOT
ATOM      1  C   UNL     1     168.944 171.221 141.879  1.00  0.00    -0.001 C 
ATOM      2  C   UNL     1     170.020 171.783 141.297  1.00  0.00    -0.023 C 
ENDROOT
BRANCH   2   3
ATOM      3  C   UNL     1     170.146 172.327 139.876  1.00  0.00     0.014 C 
BRANCH   3   4
ATOM      4  C   UNL     1     169.545 173.746 139.708  1.00  0.00     0.012 C 
BRANCH   4   5
ATOM      5  C   UNL     1     168.544 173.864 138.541  1.00  0.00     0.031 C 
BRANCH   5   6
ATOM      6  C   UNL     1     167.313 174.626 138.980  1.00  0.00    -0.077 C 
ATOM      7  C   UNL     1     167.284 176.119 138.781  1.00  0.00     0.039 C 
ATOM      8  C   UNL     1     166.266 174.045 139.613  1.00  0.00    -0.028 CG0
ATOM      9  G   UNL     1     166.104 172.567 139.899  1.00  0.00     0.000 G0
ENDBRANCH   5   6
ENDBRANCH   4   5
ENDBRANCH   3   4
BRANCH   3  10
ATOM     10  C   UNL     1     171.602 172.236 139.315  1.00  0.00    -0.010 C 
ATOM     11  C   UNL     1     172.389 173.535 139.564  1.00  0.00     0.008 C 
ATOM     12  C   UNL     1     171.629 171.924 137.806  1.00  0.00     0.008 C 
ENDBRANCH   3  10
ENDBRANCH   2   3
BRANCH   1  13
ATOM     13  C   UNL     1     167.623 171.027 141.250  1.00  0.00    -0.055 C 
ATOM     14  C   UNL     1     167.457 170.023 140.385  1.00  0.00     0.012 C 
BRANCH  13  15
ATOM     15  C   UNL     1     166.606 172.148 141.277  1.00  0.00     0.039 C 
BRANCH  15  16
ATOM     16  C   UNL     1     166.074 172.563 139.893  1.00  0.00     0.032 CG0
ATOM     17  G   UNL     1     166.264 174.038 139.611  1.00  0.00     0.000 G0
ENDBRANCH  15  16
ENDBRANCH  13  15
ENDBRANCH   1  13
TORSDOF 1
ENDMDL
MODEL 4
REMARK VINA RESULT:    -1.268     12.546     14.243
REMARK INTER + INTRA:          -2.327
REMARK INTER:                  -1.811
REMARK INTRA:                  -0.516
REMARK UNBOUND:                -0.466
REMARK SMILES C=C1C=C[C@H](C(C)C)CCC(C)=CCC1
REMARK SMILES IDX 3 1 4 2 5 3 9 4 10 5 11 6 12 7 13 8 6 10 7 11 8 12 2 13 1 14
REMARK SMILES IDX 15 15 14 16
REMARK H PARENT
REMARK Flexibility Score: 70.00
ROOT
ATOM      1  C   UNL     1     166.464 159.736 138.665  1.00  0.00    -0.001 C 
ATOM      2  C   UNL     1     165.917 158.507 138.675  1.00  0.00    -0.023 C 
ENDROOT
BRANCH   2   3
ATOM      3  C   UNL     1     165.179 157.813 139.819  1.00  0.00     0.014 C 
BRANCH   3   4
ATOM      4  C   UNL     1     163.653 157.687 139.575  1.00  0.00     0.012 C 
BRANCH   4   5
ATOM      5  C   UNL     1     163.101 158.699 138.552  1.00  0.00     0.031 C 
BRANCH   5   6
ATOM      6  C   UNL     1     162.396 159.834 139.263  1.00  0.00    -0.077 C 
ATOM      7  C   UNL     1     161.035 159.573 139.855  1.00  0.00     0.039 C 
ATOM      8  C   UNL     1     162.891 161.092 139.328  1.00  0.00    -0.028 CG0
ATOM      9  G   UNL     1     164.235 161.550 138.802  1.00  0.00     0.000 G0
ENDBRANCH   5   6
ENDBRANCH   4   5
ENDBRANCH   3   4
BRANCH   3  10
ATOM     10  C   UNL     1     165.824 156.446 140.220  1.00  0.00    -0.010 C 
ATOM     11  C   UNL     1     166.000 156.327 141.745  1.00  0.00     0.008 C 
ATOM     12  C   UNL     1     167.192 156.226 139.546  1.00  0.00     0.008 C 
ENDBRANCH   3  10
ENDBRANCH   2   3
BRANCH   1  13
ATOM     13  C   UNL     1     166.447 160.699 139.783  1.00  0.00    -0.055 C 
ATOM     14  C   UNL     1     167.247 160.491 140.832  1.00  0.00     0.012 C 
BRANCH  13  15
ATOM     15  C   UNL     1     165.292 161.669 139.923  1.00  0.00     0.039 C 
BRANCH  15  16
ATOM     16  C   UNL     1     164.236 161.572 138.807  1.00  0.00     0.032 CG0
ATOM     17  G   UNL     1     162.893 161.090 139.312  1.00  0.00     0.000 G0
ENDBRANCH  15  16
ENDBRANCH  13  15
ENDBRANCH   1  13
TORSDOF 1
ENDMDL
MODEL 5
REMARK VINA RESULT:    -1.257     12.716     14.376
REMARK INTER + INTRA:          -2.312
REMARK INTER:                  -1.673
REMARK INTRA:                  -0.639
REMARK UNBOUND:                -0.466
REMARK SMILES C=C1C=C[C@H](C(C)C)CCC(C)=CCC1
REMARK SMILES IDX 3 1 4 2 5 3 9 4 10 5 11 6 12 7 13 8 6 10 7 11 8 12 2 13 1 14
REMARK SMILES IDX 15 15 14 16
REMARK H PARENT
REMARK Flexibility Score: 70.00
ROOT
ATOM      1  C   UNL     1     164.140 158.514 142.206  1.00  0.00    -0.001 C 
ATOM      2  C   UNL     1     163.831 159.768 141.826  1.00  0.00    -0.023 C 
ENDROOT
BRANCH   2   3
ATOM      3  C   UNL     1     164.576 160.664 140.839  1.00  0.00     0.014 C 
BRANCH   3   4
ATOM      4  C   UNL     1     163.805 160.885 139.512  1.00  0.00     0.012 C 
BRANCH   4   5
ATOM      5  C   UNL     1     164.523 160.312 138.273  1.00  0.00     0.031 C 
BRANCH   5   6
ATOM      6  C   UNL     1     163.878 159.012 137.846  1.00  0.00    -0.077 C 
ATOM      7  C   UNL     1     162.662 159.072 136.959  1.00  0.00     0.039 C 
ATOM      8  C   UNL     1     164.292 157.798 138.283  1.00  0.00    -0.028 CG0
ATOM      9  G   UNL     1     165.489 157.530 139.169  1.00  0.00     0.000 G0
ENDBRANCH   5   6
ENDBRANCH   4   5
ENDBRANCH   3   4
BRANCH   3  10
ATOM     10  C   UNL     1     165.047 162.012 141.475  1.00  0.00    -0.010 C 
ATOM     11  C   UNL     1     166.512 161.938 141.944  1.00  0.00     0.008 C 
ATOM     12  C   UNL     1     164.167 162.435 142.667  1.00  0.00     0.008 C 
ENDBRANCH   3  10
ENDBRANCH   2   3
BRANCH   1  13
ATOM     13  C   UNL     1     165.285 157.720 141.718  1.00  0.00    -0.055 C 
ATOM     14  C   UNL     1     166.516 158.037 142.127  1.00  0.00     0.012 C 
BRANCH  13  15
ATOM     15  C   UNL     1     165.121 156.836 140.500  1.00  0.00     0.039 C 
BRANCH  15  16
ATOM     16  C   UNL     1     165.494 157.508 139.165  1.00  0.00     0.032 CG0
ATOM     17  G   UNL     1     164.288 157.785 138.293  1.00  0.00     0.000 G0
ENDBRANCH  15  16
ENDBRANCH  13  15
ENDBRANCH   1  13
TORSDOF 1
ENDMDL
MODEL 6
REMARK VINA RESULT:    -1.255      2.361      5.259
REMARK INTER + INTRA:          -2.309
REMARK INTER:                  -1.796
REMARK INTRA:                  -0.513
REMARK UNBOUND:                -0.466
REMARK SMILES C=C1C=C[C@H](C(C)C)CCC(C)=CCC1
REMARK SMILES IDX 3 1 4 2 5 3 9 4 10 5 11 6 12 7 13 8 6 10 7 11 8 12 2 13 1 14
REMARK SMILES IDX 15 15 14 16
REMARK H PARENT
REMARK Flexibility Score: 70.00
ROOT
ATOM      1  C   UNL     1     169.721 172.788 137.778  1.00  0.00    -0.001 C 
ATOM      2  C   UNL     1     170.933 172.203 137.738  1.00  0.00    -0.023 C 
ENDROOT
BRANCH   2   3
ATOM      3  C   UNL     1     171.925 172.012 138.884  1.00  0.00     0.014 C 
BRANCH   3   4
ATOM      4  C   UNL     1     172.271 170.524 139.152  1.00  0.00     0.012 C 
BRANCH   4   5
ATOM      5  C   UNL     1     171.043 169.592 139.156  1.00  0.00     0.031 C 
BRANCH   5   6
ATOM      6  C   UNL     1     170.325 169.674 140.485  1.00  0.00    -0.077 C 
ATOM      7  C   UNL     1     170.949 169.001 141.680  1.00  0.00     0.039 C 
ATOM      8  C   UNL     1     169.112 170.256 140.640  1.00  0.00    -0.028 CG0
ATOM      9  G   UNL     1     168.329 170.985 139.568  1.00  0.00     0.000 G0
ENDBRANCH   5   6
ENDBRANCH   4   5
ENDBRANCH   3   4
BRANCH   3  10
ATOM     10  C   UNL     1     173.206 172.895 138.735  1.00  0.00    -0.010 C 
ATOM     11  C   UNL     1     173.058 174.240 139.469  1.00  0.00     0.008 C 
ATOM     12  C   UNL     1     173.556 173.172 137.261  1.00  0.00     0.008 C 
ENDBRANCH   3  10
ENDBRANCH   2   3
BRANCH   1  13
ATOM     13  C   UNL     1     169.078 173.364 138.975  1.00  0.00    -0.055 C 
ATOM     14  C   UNL     1     169.539 174.516 139.469  1.00  0.00     0.012 C 
BRANCH  13  15
ATOM     15  C   UNL     1     168.191 172.497 139.843  1.00  0.00     0.039 C 
BRANCH  15  16
ATOM     16  C   UNL     1     168.312 170.986 139.574  1.00  0.00     0.032 CG0
ATOM     17  G   UNL     1     169.105 170.263 140.643  1.00  0.00     0.000 G0
ENDBRANCH  15  16
ENDBRANCH  13  15
ENDBRANCH   1  13
TORSDOF 1
ENDMDL
MODEL 7
REMARK VINA RESULT:    -1.252     12.030     13.944
REMARK INTER + INTRA:          -2.303
REMARK INTER:                  -1.758
REMARK INTRA:                  -0.546
REMARK UNBOUND:                -0.466
REMARK SMILES C=C1C=C[C@H](C(C)C)CCC(C)=CCC1
REMARK SMILES IDX 3 1 4 2 5 3 9 4 10 5 11 6 12 7 13 8 6 10 7 11 8 12 2 13 1 14
REMARK SMILES IDX 15 15 14 16
REMARK H PARENT
REMARK Flexibility Score: 70.00
ROOT
ATOM      1  C   UNL     1     163.590 159.850 140.966  1.00  0.00    -0.001 C 
ATOM      2  C   UNL     1     164.585 158.955 140.827  1.00  0.00    -0.023 C 
ENDROOT
BRANCH   2   3
ATOM      3  C   UNL     1     165.116 158.330 139.538  1.00  0.00     0.014 C 
BRANCH   3   4
ATOM      4  C   UNL     1     166.411 159.005 139.019  1.00  0.00     0.012 C 
BRANCH   4   5
ATOM      5  C   UNL     1     166.269 159.625 137.614  1.00  0.00     0.031 C 
BRANCH   5   6
ATOM      6  C   UNL     1     166.410 161.129 137.686  1.00  0.00    -0.077 C 
ATOM      7  C   UNL     1     167.796 161.720 137.686  1.00  0.00     0.039 C 
ATOM      8  C   UNL     1     165.357 161.969 137.828  1.00  0.00    -0.028 CG0
ATOM      9  G   UNL     1     163.896 161.573 137.844  1.00  0.00     0.000 G0
ENDBRANCH   5   6
ENDBRANCH   4   5
ENDBRANCH   3   4
BRANCH   3  10
ATOM     10  C   UNL     1     165.260 156.776 139.630  1.00  0.00    -0.010 C 
ATOM     11  C   UNL     1     166.730 156.351 139.797  1.00  0.00     0.008 C 
ATOM     12  C   UNL     1     164.677 156.061 138.396  1.00  0.00     0.008 C 
ENDBRANCH   3  10
ENDBRANCH   2   3
BRANCH   1  13
ATOM     13  C   UNL     1     162.797 160.441 139.870  1.00  0.00    -0.055 C 
ATOM     14  C   UNL     1     161.911 159.678 139.225  1.00  0.00     0.012 C 
BRANCH  13  15
ATOM     15  C   UNL     1     163.243 161.741 139.236  1.00  0.00     0.039 C 
BRANCH  15  16
ATOM     16  C   UNL     1     163.876 161.591 137.841  1.00  0.00     0.032 CG0
ATOM     17  G   UNL     1     165.339 161.979 137.817  1.00  0.00     0.000 G0
ENDBRANCH  15  16
ENDBRANCH  13  15
ENDBRANCH   1  13
TORSDOF 1
ENDMDL
MODEL 8
REMARK VINA RESULT:    -1.071      2.225      4.236
REMARK INTER + INTRA:          -2.039
REMARK INTER:                  -1.646
REMARK INTRA:                  -0.393
REMARK UNBOUND:                -0.466
REMARK SMILES C=C1C=C[C@H](C(C)C)CCC(C)=CCC1
REMARK SMILES IDX 3 1 4 2 5 3 9 4 10 5 11 6 12 7 13 8 6 10 7 11 8 12 2 13 1 14
REMARK SMILES IDX 15 15 14 16
REMARK H PARENT
REMARK Flexibility Score: 70.00
ROOT
ATOM      1  C   UNL     1     169.411 172.719 141.241  1.00  0.00    -0.001 C 
ATOM      2  C   UNL     1     168.380 173.327 140.624  1.00  0.00    -0.023 C 
ENDROOT
BRANCH   2   3
ATOM      3  C   UNL     1     168.048 173.336 139.133  1.00  0.00     0.014 C 
BRANCH   3   4
ATOM      4  C   UNL     1     167.506 171.978 138.618  1.00  0.00     0.012 C 
BRANCH   4   5
ATOM      5  C   UNL     1     168.346 171.365 137.480  1.00  0.00     0.031 C 
BRANCH   5   6
ATOM      6  C   UNL     1     168.413 169.861 137.628  1.00  0.00    -0.077 C 
ATOM      7  C   UNL     1     167.311 169.030 137.023  1.00  0.00     0.039 C 
ATOM      8  C   UNL     1     169.373 169.226 138.342  1.00  0.00    -0.028 CG0
ATOM      9  G   UNL     1     170.561 169.879 139.016  1.00  0.00     0.000 G0
ENDBRANCH   5   6
ENDBRANCH   4   5
ENDBRANCH   3   4
BRANCH   3  10
ATOM     10  C   UNL     1     167.125 174.530 138.722  1.00  0.00    -0.010 C 
ATOM     11  C   UNL     1     167.944 175.787 138.375  1.00  0.00     0.008 C 
ATOM     12  C   UNL     1     166.110 174.890 139.824  1.00  0.00     0.008 C 
ENDBRANCH   3  10
ENDBRANCH   2   3
BRANCH   1  13
ATOM     13  C   UNL     1     170.449 171.899 140.586  1.00  0.00    -0.055 C 
ATOM     14  C   UNL     1     171.390 172.505 139.856  1.00  0.00     0.012 C 
BRANCH  13  15
ATOM     15  C   UNL     1     170.236 170.410 140.418  1.00  0.00     0.039 C 
BRANCH  15  16
ATOM     16  C   UNL     1     170.571 169.869 139.016  1.00  0.00     0.032 CG0
ATOM     17  G   UNL     1     169.379 169.234 138.332  1.00  0.00     0.000 G0
ENDBRANCH  15  16
ENDBRANCH  13  15
ENDBRANCH   1  13
TORSDOF 1
ENDMDL
