MODEL 1
REMARK VINA RESULT:    -3.921      0.000      0.000
REMARK INTER + INTRA:         -13.874
REMARK INTER:                  -9.880
REMARK INTRA:                  -3.994
REMARK UNBOUND:                -3.994
REMARK SMILES CCCCCCCCCCCCCCCCCCCCCCCCCCCC(=O)[O-]
REMARK SMILES IDX 15 1 16 2 17 3 18 4 19 5 20 6 21 7 22 8 23 9 24 10 25 11
REMARK SMILES IDX 26 12 27 13 28 14 29 15 30 16 14 17 13 18 12 19 11 20 10 21
REMARK SMILES IDX 9 22 8 23 7 24 6 25 5 26 4 27 3 28 2 29 1 30
REMARK H PARENT
REMARK Flexibility Score: inf
ROOT
ATOM      1  C   UNL     1      -5.303  -6.010   5.107  1.00  0.00     0.000 C 
ENDROOT
BRANCH   1   2
ATOM      2  C   UNL     1      -6.442  -6.947   5.538  1.00  0.00     0.000 C 
BRANCH   2   3
ATOM      3  C   UNL     1      -6.433  -8.289   4.780  1.00  0.00     0.000 C 
BRANCH   3   4
ATOM      4  C   UNL     1      -5.092  -8.653   4.116  1.00  0.00     0.000 C 
BRANCH   4   5
ATOM      5  C   UNL     1      -5.240  -9.034   2.635  1.00  0.00     0.000 C 
BRANCH   5   6
ATOM      6  C   UNL     1      -6.699  -8.906   2.180  1.00  0.00     0.000 C 
BRANCH   6   7
ATOM      7  C   UNL     1      -6.788  -8.349   0.750  1.00  0.00     0.000 C 
BRANCH   7   8
ATOM      8  C   UNL     1      -7.515  -6.988   0.690  1.00  0.00     0.000 C 
BRANCH   8   9
ATOM      9  C   UNL     1      -7.125  -6.020   1.821  1.00  0.00     0.000 C 
BRANCH   9  10
ATOM     10  C   UNL     1      -8.302  -5.665   2.743  1.00  0.00     0.000 C 
BRANCH  10  11
ATOM     11  C   UNL     1      -8.607  -4.158   2.776  1.00  0.00     0.000 C 
BRANCH  11  12
ATOM     12  C   UNL     1      -8.402  -3.453   1.418  1.00  0.00     0.006 C 
BRANCH  12  13
ATOM     13  C   UNL     1      -7.715  -2.089   1.568  1.00  0.00     0.053 C 
BRANCH  13  14
ATOM     14  C   UNL     1      -6.322  -2.140   1.022  1.00  0.00     0.041 C 
ATOM     15  O   UNL     1      -5.983  -3.063   0.236  1.00  0.00    -0.550 OA
ATOM     16  O   UNL     1      -5.410  -1.143   1.347  1.00  0.00    -0.550 OA
ENDBRANCH  13  14
ENDBRANCH  12  13
ENDBRANCH  11  12
ENDBRANCH  10  11
ENDBRANCH   9  10
ENDBRANCH   8   9
ENDBRANCH   7   8
ENDBRANCH   6   7
ENDBRANCH   5   6
ENDBRANCH   4   5
ENDBRANCH   3   4
ENDBRANCH   2   3
ENDBRANCH   1   2
BRANCH   1  17
ATOM     17  C   UNL     1      -5.713  -4.535   5.247  1.00  0.00     0.000 C 
BRANCH  17  18
ATOM     18  C   UNL     1      -6.962  -4.357   6.126  1.00  0.00     0.000 C 
BRANCH  18  19
ATOM     19  C   UNL     1      -7.460  -2.901   6.149  1.00  0.00     0.000 C 
BRANCH  19  20
ATOM     20  C   UNL     1      -6.344  -1.891   5.837  1.00  0.00     0.000 C 
BRANCH  20  21
ATOM     21  C   UNL     1      -6.799  -0.800   4.852  1.00  0.00     0.000 C 
BRANCH  21  22
ATOM     22  C   UNL     1      -6.486   0.619   5.348  1.00  0.00    -0.000 C 
BRANCH  22  23
ATOM     23  C   UNL     1      -5.710   0.627   6.675  1.00  0.00    -0.000 C 
BRANCH  23  24
ATOM     24  C   UNL     1      -6.340   1.579   7.716  1.00  0.00    -0.000 C 
BRANCH  24  25
ATOM     25  C   UNL     1      -7.311   2.607   7.105  1.00  0.00    -0.000 C 
BRANCH  25  26
ATOM     26  C   UNL     1      -6.662   3.941   6.690  1.00  0.00    -0.000 C 
BRANCH  26  27
ATOM     27  C   UNL     1      -5.505   4.416   7.594  1.00  0.00    -0.000 C 
BRANCH  27  28
ATOM     28  C   UNL     1      -4.172   4.676   6.869  1.00  0.00    -0.000 C 
BRANCH  28  29
ATOM     29  C   UNL     1      -3.826   3.588   5.842  1.00  0.00    -0.003 C 
ATOM     30  C   UNL     1      -3.798   4.160   4.428  1.00  0.00     0.004 C 
ENDBRANCH  28  29
ENDBRANCH  27  28
ENDBRANCH  26  27
ENDBRANCH  25  26
ENDBRANCH  24  25
ENDBRANCH  23  24
ENDBRANCH  22  23
ENDBRANCH  21  22
ENDBRANCH  20  21
ENDBRANCH  19  20
ENDBRANCH  18  19
ENDBRANCH  17  18
ENDBRANCH   1  17
TORSDOF 26
ENDMDL
MODEL 2
REMARK VINA RESULT:    -3.909      1.861      4.399
REMARK INTER + INTRA:         -13.845
REMARK INTER:                  -9.664
REMARK INTRA:                  -4.181
REMARK UNBOUND:                -3.994
REMARK SMILES CCCCCCCCCCCCCCCCCCCCCCCCCCCC(=O)[O-]
REMARK SMILES IDX 15 1 16 2 17 3 18 4 19 5 20 6 21 7 22 8 23 9 24 10 25 11
REMARK SMILES IDX 26 12 27 13 28 14 29 15 30 16 14 17 13 18 12 19 11 20 10 21
REMARK SMILES IDX 9 22 8 23 7 24 6 25 5 26 4 27 3 28 2 29 1 30
REMARK H PARENT
REMARK Flexibility Score: inf
ROOT
ATOM      1  C   UNL     1      -6.613  -2.160   0.880  1.00  0.00     0.000 C 
ENDROOT
BRANCH   1   2
ATOM      2  C   UNL     1      -8.061  -2.115   1.390  1.00  0.00     0.000 C 
BRANCH   2   3
ATOM      3  C   UNL     1      -8.677  -3.516   1.569  1.00  0.00     0.000 C 
BRANCH   3   4
ATOM      4  C   UNL     1      -7.761  -4.687   1.168  1.00  0.00     0.000 C 
BRANCH   4   5
ATOM      5  C   UNL     1      -7.138  -5.402   2.376  1.00  0.00     0.000 C 
BRANCH   5   6
ATOM      6  C   UNL     1      -8.223  -6.016   3.269  1.00  0.00     0.000 C 
BRANCH   6   7
ATOM      7  C   UNL     1      -7.616  -6.991   4.291  1.00  0.00     0.000 C 
BRANCH   7   8
ATOM      8  C   UNL     1      -6.097  -6.782   4.477  1.00  0.00     0.000 C 
BRANCH   8   9
ATOM      9  C   UNL     1      -5.242  -7.982   4.033  1.00  0.00     0.000 C 
BRANCH   9  10
ATOM     10  C   UNL     1      -6.054  -9.061   3.301  1.00  0.00     0.000 C 
BRANCH  10  11
ATOM     11  C   UNL     1      -6.107  -8.845   1.779  1.00  0.00     0.000 C 
BRANCH  11  12
ATOM     12  C   UNL     1      -7.418  -9.335   1.128  1.00  0.00     0.006 C 
BRANCH  12  13
ATOM     13  C   UNL     1      -7.399  -9.188  -0.400  1.00  0.00     0.053 C 
BRANCH  13  14
ATOM     14  C   UNL     1      -7.757  -7.791  -0.799  1.00  0.00     0.041 C 
ATOM     15  O   UNL     1      -8.958  -7.413  -0.771  1.00  0.00    -0.550 OA
ATOM     16  O   UNL     1      -6.761  -6.892  -1.158  1.00  0.00    -0.550 OA
ENDBRANCH  13  14
ENDBRANCH  12  13
ENDBRANCH  11  12
ENDBRANCH  10  11
ENDBRANCH   9  10
ENDBRANCH   8   9
ENDBRANCH   7   8
ENDBRANCH   6   7
ENDBRANCH   5   6
ENDBRANCH   4   5
ENDBRANCH   3   4
ENDBRANCH   2   3
ENDBRANCH   1   2
BRANCH   1  17
ATOM     17  C   UNL     1      -5.624  -1.708   1.967  1.00  0.00     0.000 C 
BRANCH  17  18
ATOM     18  C   UNL     1      -6.273  -1.652   3.360  1.00  0.00     0.000 C 
BRANCH  18  19
ATOM     19  C   UNL     1      -5.602  -2.611   4.358  1.00  0.00     0.000 C 
BRANCH  19  20
ATOM     20  C   UNL     1      -6.610  -3.265   5.316  1.00  0.00     0.000 C 
BRANCH  20  21
ATOM     21  C   UNL     1      -8.033  -2.704   5.144  1.00  0.00     0.000 C 
BRANCH  21  22
ATOM     22  C   UNL     1      -8.715  -2.390   6.484  1.00  0.00    -0.000 C 
BRANCH  22  23
ATOM     23  C   UNL     1      -7.713  -2.237   7.640  1.00  0.00    -0.000 C 
BRANCH  23  24
ATOM     24  C   UNL     1      -7.383  -0.756   7.936  1.00  0.00    -0.000 C 
BRANCH  24  25
ATOM     25  C   UNL     1      -5.956  -0.347   7.526  1.00  0.00    -0.000 C 
BRANCH  25  26
ATOM     26  C   UNL     1      -5.884   0.723   6.419  1.00  0.00    -0.000 C 
BRANCH  26  27
ATOM     27  C   UNL     1      -4.901   1.882   6.692  1.00  0.00    -0.000 C 
BRANCH  27  28
ATOM     28  C   UNL     1      -5.257   3.216   6.013  1.00  0.00    -0.000 C 
BRANCH  28  29
ATOM     29  C   UNL     1      -4.022   4.026   5.597  1.00  0.00    -0.003 C 
ATOM     30  C   UNL     1      -3.780   3.922   4.094  1.00  0.00     0.004 C 
ENDBRANCH  28  29
ENDBRANCH  27  28
ENDBRANCH  26  27
ENDBRANCH  25  26
ENDBRANCH  24  25
ENDBRANCH  23  24
ENDBRANCH  22  23
ENDBRANCH  21  22
ENDBRANCH  20  21
ENDBRANCH  19  20
ENDBRANCH  18  19
ENDBRANCH  17  18
ENDBRANCH   1  17
TORSDOF 26
ENDMDL
MODEL 3
REMARK VINA RESULT:    -3.813      2.150      8.082
REMARK INTER + INTRA:         -13.603
REMARK INTER:                  -9.687
REMARK INTRA:                  -3.916
REMARK UNBOUND:                -3.994
REMARK SMILES CCCCCCCCCCCCCCCCCCCCCCCCCCCC(=O)[O-]
REMARK SMILES IDX 15 1 16 2 17 3 18 4 19 5 20 6 21 7 22 8 23 9 24 10 25 11
REMARK SMILES IDX 26 12 27 13 28 14 29 15 30 16 14 17 13 18 12 19 11 20 10 21
REMARK SMILES IDX 9 22 8 23 7 24 6 25 5 26 4 27 3 28 2 29 1 30
REMARK H PARENT
REMARK Flexibility Score: inf
ROOT
ATOM      1  C   UNL     1      -6.631  -5.995   6.288  1.00  0.00     0.000 C 
ENDROOT
BRANCH   1   2
ATOM      2  C   UNL     1      -5.397  -5.768   5.403  1.00  0.00     0.000 C 
BRANCH   2   3
ATOM      3  C   UNL     1      -5.242  -4.303   4.955  1.00  0.00     0.000 C 
BRANCH   3   4
ATOM      4  C   UNL     1      -6.180  -3.303   5.657  1.00  0.00     0.000 C 
BRANCH   4   5
ATOM      5  C   UNL     1      -6.097  -1.887   5.069  1.00  0.00     0.000 C 
BRANCH   5   6
ATOM      6  C   UNL     1      -5.940  -0.841   6.180  1.00  0.00     0.000 C 
BRANCH   6   7
ATOM      7  C   UNL     1      -6.727  -1.245   7.438  1.00  0.00     0.000 C 
BRANCH   7   8
ATOM      8  C   UNL     1      -6.496  -0.273   8.616  1.00  0.00     0.000 C 
BRANCH   8   9
ATOM      9  C   UNL     1      -5.253   0.620   8.457  1.00  0.00     0.000 C 
BRANCH   9  10
ATOM     10  C   UNL     1      -5.582   2.120   8.487  1.00  0.00     0.000 C 
BRANCH  10  11
ATOM     11  C   UNL     1      -6.798   2.487   7.620  1.00  0.00     0.000 C 
BRANCH  11  12
ATOM     12  C   UNL     1      -6.459   3.417   6.436  1.00  0.00     0.006 C 
BRANCH  12  13
ATOM     13  C   UNL     1      -5.619   2.711   5.363  1.00  0.00     0.053 C 
BRANCH  13  14
ATOM     14  C   UNL     1      -4.421   3.535   5.007  1.00  0.00     0.041 C 
ATOM     15  O   UNL     1      -3.556   3.805   5.881  1.00  0.00    -0.550 OA
ATOM     16  O   UNL     1      -4.237   3.968   3.700  1.00  0.00    -0.550 OA
ENDBRANCH  13  14
ENDBRANCH  12  13
ENDBRANCH  11  12
ENDBRANCH  10  11
ENDBRANCH   9  10
ENDBRANCH   8   9
ENDBRANCH   7   8
ENDBRANCH   6   7
ENDBRANCH   5   6
ENDBRANCH   4   5
ENDBRANCH   3   4
ENDBRANCH   2   3
ENDBRANCH   1   2
BRANCH   1  17
ATOM     17  C   UNL     1      -6.580  -7.370   6.973  1.00  0.00     0.000 C 
BRANCH  17  18
ATOM     18  C   UNL     1      -6.922  -8.517   6.007  1.00  0.00     0.000 C 
BRANCH  18  19
ATOM     19  C   UNL     1      -5.795  -9.562   5.915  1.00  0.00     0.000 C 
BRANCH  19  20
ATOM     20  C   UNL     1      -5.595 -10.089   4.486  1.00  0.00     0.000 C 
BRANCH  20  21
ATOM     21  C   UNL     1      -4.974  -9.035   3.553  1.00  0.00     0.000 C 
BRANCH  21  22
ATOM     22  C   UNL     1      -5.831  -8.763   2.307  1.00  0.00    -0.000 C 
BRANCH  22  23
ATOM     23  C   UNL     1      -6.447  -7.354   2.306  1.00  0.00    -0.000 C 
BRANCH  23  24
ATOM     24  C   UNL     1      -7.990  -7.390   2.246  1.00  0.00    -0.000 C 
BRANCH  24  25
ATOM     25  C   UNL     1      -8.657  -6.072   2.684  1.00  0.00    -0.000 C 
BRANCH  25  26
ATOM     26  C   UNL     1      -7.742  -4.834   2.624  1.00  0.00    -0.000 C 
BRANCH  26  27
ATOM     27  C   UNL     1      -8.475  -3.476   2.644  1.00  0.00    -0.000 C 
BRANCH  27  28
ATOM     28  C   UNL     1      -7.988  -2.454   1.602  1.00  0.00    -0.000 C 
BRANCH  28  29
ATOM     29  C   UNL     1      -6.577  -2.756   1.079  1.00  0.00    -0.003 C 
ATOM     30  C   UNL     1      -5.665  -1.543   1.234  1.00  0.00     0.004 C 
ENDBRANCH  28  29
ENDBRANCH  27  28
ENDBRANCH  26  27
ENDBRANCH  25  26
ENDBRANCH  24  25
ENDBRANCH  23  24
ENDBRANCH  22  23
ENDBRANCH  21  22
ENDBRANCH  20  21
ENDBRANCH  19  20
ENDBRANCH  18  19
ENDBRANCH  17  18
ENDBRANCH   1  17
TORSDOF 26
ENDMDL
MODEL 4
REMARK VINA RESULT:    -3.799      2.406      4.782
REMARK INTER + INTRA:         -13.567
REMARK INTER:                  -9.068
REMARK INTRA:                  -4.499
REMARK UNBOUND:                -3.994
REMARK SMILES CCCCCCCCCCCCCCCCCCCCCCCCCCCC(=O)[O-]
REMARK SMILES IDX 15 1 16 2 17 3 18 4 19 5 20 6 21 7 22 8 23 9 24 10 25 11
REMARK SMILES IDX 26 12 27 13 28 14 29 15 30 16 14 17 13 18 12 19 11 20 10 21
REMARK SMILES IDX 9 22 8 23 7 24 6 25 5 26 4 27 3 28 2 29 1 30
REMARK H PARENT
REMARK Flexibility Score: inf
ROOT
ATOM      1  C   UNL     1      -6.544  -2.077   0.755  1.00  0.00     0.000 C 
ENDROOT
BRANCH   1   2
ATOM      2  C   UNL     1      -7.993  -2.190   1.251  1.00  0.00     0.000 C 
BRANCH   2   3
ATOM      3  C   UNL     1      -8.483  -3.648   1.343  1.00  0.00     0.000 C 
BRANCH   3   4
ATOM      4  C   UNL     1      -7.370  -4.712   1.319  1.00  0.00     0.000 C 
BRANCH   4   5
ATOM      5  C   UNL     1      -7.741  -5.987   2.091  1.00  0.00     0.000 C 
BRANCH   5   6
ATOM      6  C   UNL     1      -9.005  -5.769   2.932  1.00  0.00     0.000 C 
BRANCH   6   7
ATOM      7  C   UNL     1      -9.162  -6.868   3.995  1.00  0.00     0.000 C 
BRANCH   7   8
ATOM      8  C   UNL     1      -8.583  -6.452   5.365  1.00  0.00     0.000 C 
BRANCH   8   9
ATOM      9  C   UNL     1      -7.609  -7.477   5.971  1.00  0.00     0.000 C 
BRANCH   9  10
ATOM     10  C   UNL     1      -6.148  -7.002   5.956  1.00  0.00     0.000 C 
BRANCH  10  11
ATOM     11  C   UNL     1      -5.505  -7.078   4.561  1.00  0.00     0.000 C 
BRANCH  11  12
ATOM     12  C   UNL     1      -5.199  -8.518   4.096  1.00  0.00     0.006 C 
BRANCH  12  13
ATOM     13  C   UNL     1      -5.585  -8.751   2.629  1.00  0.00     0.053 C 
BRANCH  13  14
ATOM     14  C   UNL     1      -6.886  -9.485   2.539  1.00  0.00     0.041 C 
ATOM     15  O   UNL     1      -7.430  -9.940   3.579  1.00  0.00    -0.550 OA
ATOM     16  O   UNL     1      -7.521  -9.628   1.311  1.00  0.00    -0.550 OA
ENDBRANCH  13  14
ENDBRANCH  12  13
ENDBRANCH  11  12
ENDBRANCH  10  11
ENDBRANCH   9  10
ENDBRANCH   8   9
ENDBRANCH   7   8
ENDBRANCH   6   7
ENDBRANCH   5   6
ENDBRANCH   4   5
ENDBRANCH   3   4
ENDBRANCH   2   3
ENDBRANCH   1   2
BRANCH   1  17
ATOM     17  C   UNL     1      -5.630  -1.483   1.839  1.00  0.00     0.000 C 
BRANCH  17  18
ATOM     18  C   UNL     1      -6.250  -1.578   3.243  1.00  0.00     0.000 C 
BRANCH  18  19
ATOM     19  C   UNL     1      -5.536  -2.613   4.131  1.00  0.00     0.000 C 
BRANCH  19  20
ATOM     20  C   UNL     1      -6.520  -3.484   4.929  1.00  0.00     0.000 C 
BRANCH  20  21
ATOM     21  C   UNL     1      -7.941  -2.895   4.951  1.00  0.00     0.000 C 
BRANCH  21  22
ATOM     22  C   UNL     1      -8.432  -2.576   6.371  1.00  0.00    -0.000 C 
BRANCH  22  23
ATOM     23  C   UNL     1      -7.302  -2.618   7.413  1.00  0.00    -0.000 C 
BRANCH  23  24
ATOM     24  C   UNL     1      -6.954  -1.213   7.954  1.00  0.00    -0.000 C 
BRANCH  24  25
ATOM     25  C   UNL     1      -6.523  -0.218   6.859  1.00  0.00    -0.000 C 
BRANCH  25  26
ATOM     26  C   UNL     1      -5.379   0.732   7.263  1.00  0.00    -0.000 C 
BRANCH  26  27
ATOM     27  C   UNL     1      -5.386   2.103   6.554  1.00  0.00    -0.000 C 
BRANCH  27  28
ATOM     28  C   UNL     1      -4.006   2.767   6.402  1.00  0.00    -0.000 C 
BRANCH  28  29
ATOM     29  C   UNL     1      -4.067   4.115   5.669  1.00  0.00    -0.003 C 
ATOM     30  C   UNL     1      -3.779   3.941   4.181  1.00  0.00     0.004 C 
ENDBRANCH  28  29
ENDBRANCH  27  28
ENDBRANCH  26  27
ENDBRANCH  25  26
ENDBRANCH  24  25
ENDBRANCH  23  24
ENDBRANCH  22  23
ENDBRANCH  21  22
ENDBRANCH  20  21
ENDBRANCH  19  20
ENDBRANCH  18  19
ENDBRANCH  17  18
ENDBRANCH   1  17
TORSDOF 26
ENDMDL
MODEL 5
REMARK VINA RESULT:    -3.770      2.155      8.681
REMARK INTER + INTRA:         -13.494
REMARK INTER:                  -8.876
REMARK INTRA:                  -4.618
REMARK UNBOUND:                -3.994
REMARK SMILES CCCCCCCCCCCCCCCCCCCCCCCCCCCC(=O)[O-]
REMARK SMILES IDX 15 1 16 2 17 3 18 4 19 5 20 6 21 7 22 8 23 9 24 10 25 11
REMARK SMILES IDX 26 12 27 13 28 14 29 15 30 16 14 17 13 18 12 19 11 20 10 21
REMARK SMILES IDX 9 22 8 23 7 24 6 25 5 26 4 27 3 28 2 29 1 30
REMARK H PARENT
REMARK Flexibility Score: inf
ROOT
ATOM      1  C   UNL     1      -5.655  -1.504   1.972  1.00  0.00     0.000 C 
ENDROOT
BRANCH   1   2
ATOM      2  C   UNL     1      -6.240  -1.613   3.388  1.00  0.00     0.000 C 
BRANCH   2   3
ATOM      3  C   UNL     1      -5.459  -2.592   4.285  1.00  0.00     0.000 C 
BRANCH   3   4
ATOM      4  C   UNL     1      -6.301  -3.723   4.905  1.00  0.00     0.000 C 
BRANCH   4   5
ATOM      5  C   UNL     1      -7.793  -3.373   5.006  1.00  0.00     0.000 C 
BRANCH   5   6
ATOM      6  C   UNL     1      -8.265  -3.404   6.465  1.00  0.00     0.000 C 
BRANCH   6   7
ATOM      7  C   UNL     1      -7.720  -2.200   7.251  1.00  0.00     0.000 C 
BRANCH   7   8
ATOM      8  C   UNL     1      -8.346  -0.864   6.795  1.00  0.00     0.000 C 
BRANCH   8   9
ATOM      9  C   UNL     1      -7.314   0.219   6.433  1.00  0.00     0.000 C 
BRANCH   9  10
ATOM     10  C   UNL     1      -5.951   0.001   7.107  1.00  0.00     0.000 C 
BRANCH  10  11
ATOM     11  C   UNL     1      -5.298   1.311   7.579  1.00  0.00     0.000 C 
BRANCH  11  12
ATOM     12  C   UNL     1      -4.058   1.719   6.754  1.00  0.00     0.006 C 
BRANCH  12  13
ATOM     13  C   UNL     1      -4.075   3.205   6.372  1.00  0.00     0.053 C 
BRANCH  13  14
ATOM     14  C   UNL     1      -4.698   3.394   5.025  1.00  0.00     0.041 C 
ATOM     15  O   UNL     1      -5.898   3.067   4.831  1.00  0.00    -0.550 OA
ATOM     16  O   UNL     1      -3.967   3.972   3.994  1.00  0.00    -0.550 OA
ENDBRANCH  13  14
ENDBRANCH  12  13
ENDBRANCH  11  12
ENDBRANCH  10  11
ENDBRANCH   9  10
ENDBRANCH   8   9
ENDBRANCH   7   8
ENDBRANCH   6   7
ENDBRANCH   5   6
ENDBRANCH   4   5
ENDBRANCH   3   4
ENDBRANCH   2   3
ENDBRANCH   1   2
BRANCH   1  17
ATOM     17  C   UNL     1      -6.452  -2.361   0.974  1.00  0.00     0.000 C 
BRANCH  17  18
ATOM     18  C   UNL     1      -7.940  -2.462   1.348  1.00  0.00     0.000 C 
BRANCH  18  19
ATOM     19  C   UNL     1      -8.426  -3.920   1.430  1.00  0.00     0.000 C 
BRANCH  19  20
ATOM     20  C   UNL     1      -7.268  -4.931   1.393  1.00  0.00     0.000 C 
BRANCH  20  21
ATOM     21  C   UNL     1      -7.763  -6.387   1.345  1.00  0.00     0.000 C 
BRANCH  21  22
ATOM     22  C   UNL     1      -7.152  -7.185   0.183  1.00  0.00    -0.000 C 
BRANCH  22  23
ATOM     23  C   UNL     1      -6.743  -8.610   0.591  1.00  0.00    -0.000 C 
BRANCH  23  24
ATOM     24  C   UNL     1      -7.397  -9.048   1.921  1.00  0.00    -0.000 C 
BRANCH  24  25
ATOM     25  C   UNL     1      -6.380  -9.403   3.022  1.00  0.00    -0.000 C 
BRANCH  25  26
ATOM     26  C   UNL     1      -5.247  -8.377   3.210  1.00  0.00    -0.000 C 
BRANCH  26  27
ATOM     27  C   UNL     1      -5.485  -7.334   4.323  1.00  0.00    -0.000 C 
BRANCH  27  28
ATOM     28  C   UNL     1      -6.197  -7.868   5.579  1.00  0.00    -0.000 C 
BRANCH  28  29
ATOM     29  C   UNL     1      -7.402  -7.013   5.994  1.00  0.00    -0.003 C 
ATOM     30  C   UNL     1      -8.532  -7.130   4.977  1.00  0.00     0.004 C 
ENDBRANCH  28  29
ENDBRANCH  27  28
ENDBRANCH  26  27
ENDBRANCH  25  26
ENDBRANCH  24  25
ENDBRANCH  23  24
ENDBRANCH  22  23
ENDBRANCH  21  22
ENDBRANCH  20  21
ENDBRANCH  19  20
ENDBRANCH  18  19
ENDBRANCH  17  18
ENDBRANCH   1  17
TORSDOF 26
ENDMDL
MODEL 6
REMARK VINA RESULT:    -3.712      1.659      3.573
REMARK INTER + INTRA:         -13.348
REMARK INTER:                  -8.279
REMARK INTRA:                  -5.069
REMARK UNBOUND:                -3.994
REMARK SMILES CCCCCCCCCCCCCCCCCCCCCCCCCCCC(=O)[O-]
REMARK SMILES IDX 15 1 16 2 17 3 18 4 19 5 20 6 21 7 22 8 23 9 24 10 25 11
REMARK SMILES IDX 26 12 27 13 28 14 29 15 30 16 14 17 13 18 12 19 11 20 10 21
REMARK SMILES IDX 9 22 8 23 7 24 6 25 5 26 4 27 3 28 2 29 1 30
REMARK H PARENT
REMARK Flexibility Score: inf
ROOT
ATOM      1  C   UNL     1      -5.206  -2.914   4.627  1.00  0.00     0.000 C 
ENDROOT
BRANCH   1   2
ATOM      2  C   UNL     1      -4.906  -4.268   5.287  1.00  0.00     0.000 C 
BRANCH   2   3
ATOM      3  C   UNL     1      -5.984  -5.330   4.994  1.00  0.00     0.000 C 
BRANCH   3   4
ATOM      4  C   UNL     1      -6.173  -6.388   6.096  1.00  0.00     0.000 C 
BRANCH   4   5
ATOM      5  C   UNL     1      -7.597  -6.964   6.137  1.00  0.00     0.000 C 
BRANCH   5   6
ATOM      6  C   UNL     1      -7.570  -8.496   6.074  1.00  0.00     0.000 C 
BRANCH   6   7
ATOM      7  C   UNL     1      -6.132  -9.022   5.942  1.00  0.00     0.000 C 
BRANCH   7   8
ATOM      8  C   UNL     1      -5.894  -9.761   4.606  1.00  0.00     0.000 C 
BRANCH   8   9
ATOM      9  C   UNL     1      -5.019  -8.984   3.608  1.00  0.00     0.000 C 
BRANCH   9  10
ATOM     10  C   UNL     1      -5.747  -8.662   2.293  1.00  0.00     0.000 C 
BRANCH  10  11
ATOM     11  C   UNL     1      -7.275  -8.803   2.402  1.00  0.00     0.000 C 
BRANCH  11  12
ATOM     12  C   UNL     1      -8.026  -7.455   2.369  1.00  0.00     0.006 C 
BRANCH  12  13
ATOM     13  C   UNL     1      -7.129  -6.299   1.905  1.00  0.00     0.053 C 
BRANCH  13  14
ATOM     14  C   UNL     1      -7.735  -5.604   0.726  1.00  0.00     0.041 C 
ATOM     15  O   UNL     1      -7.930  -6.233  -0.348  1.00  0.00    -0.550 OA
ATOM     16  O   UNL     1      -8.126  -4.275   0.826  1.00  0.00    -0.550 OA
ENDBRANCH  13  14
ENDBRANCH  12  13
ENDBRANCH  11  12
ENDBRANCH  10  11
ENDBRANCH   9  10
ENDBRANCH   8   9
ENDBRANCH   7   8
ENDBRANCH   6   7
ENDBRANCH   5   6
ENDBRANCH   4   5
ENDBRANCH   3   4
ENDBRANCH   2   3
ENDBRANCH   1   2
BRANCH   1  17
ATOM     17  C   UNL     1      -6.284  -3.052   3.539  1.00  0.00     0.000 C 
BRANCH  17  18
ATOM     18  C   UNL     1      -6.995  -1.720   3.249  1.00  0.00     0.000 C 
BRANCH  18  19
ATOM     19  C   UNL     1      -8.496  -1.771   3.587  1.00  0.00     0.000 C 
BRANCH  19  20
ATOM     20  C   UNL     1      -8.860  -2.971   4.475  1.00  0.00     0.000 C 
BRANCH  20  21
ATOM     21  C   UNL     1      -9.174  -2.555   5.923  1.00  0.00     0.000 C 
BRANCH  21  22
ATOM     22  C   UNL     1      -8.205  -3.170   6.944  1.00  0.00    -0.000 C 
BRANCH  22  23
ATOM     23  C   UNL     1      -7.187  -2.152   7.483  1.00  0.00    -0.000 C 
BRANCH  23  24
ATOM     24  C   UNL     1      -7.480  -0.716   6.995  1.00  0.00    -0.000 C 
BRANCH  24  25
ATOM     25  C   UNL     1      -6.213   0.093   6.659  1.00  0.00    -0.000 C 
BRANCH  25  26
ATOM     26  C   UNL     1      -6.397   1.155   5.557  1.00  0.00    -0.000 C 
BRANCH  26  27
ATOM     27  C   UNL     1      -6.870   2.538   6.053  1.00  0.00    -0.000 C 
BRANCH  27  28
ATOM     28  C   UNL     1      -5.810   3.652   5.992  1.00  0.00    -0.000 C 
BRANCH  28  29
ATOM     29  C   UNL     1      -4.436   3.148   5.529  1.00  0.00    -0.003 C 
ATOM     30  C   UNL     1      -3.947   3.932   4.314  1.00  0.00     0.004 C 
ENDBRANCH  28  29
ENDBRANCH  27  28
ENDBRANCH  26  27
ENDBRANCH  25  26
ENDBRANCH  24  25
ENDBRANCH  23  24
ENDBRANCH  22  23
ENDBRANCH  21  22
ENDBRANCH  20  21
ENDBRANCH  19  20
ENDBRANCH  18  19
ENDBRANCH  17  18
ENDBRANCH   1  17
TORSDOF 26
ENDMDL
MODEL 7
REMARK VINA RESULT:    -3.685      1.755      4.077
REMARK INTER + INTRA:         -13.281
REMARK INTER:                  -9.477
REMARK INTRA:                  -3.804
REMARK UNBOUND:                -3.994
REMARK SMILES CCCCCCCCCCCCCCCCCCCCCCCCCCCC(=O)[O-]
REMARK SMILES IDX 15 1 16 2 17 3 18 4 19 5 20 6 21 7 22 8 23 9 24 10 25 11
REMARK SMILES IDX 26 12 27 13 28 14 29 15 30 16 14 17 13 18 12 19 11 20 10 21
REMARK SMILES IDX 9 22 8 23 7 24 6 25 5 26 4 27 3 28 2 29 1 30
REMARK H PARENT
REMARK Flexibility Score: inf
ROOT
ATOM      1  C   UNL     1      -6.733  -2.354   1.041  1.00  0.00     0.000 C 
ENDROOT
BRANCH   1   2
ATOM      2  C   UNL     1      -6.980  -3.866   1.161  1.00  0.00     0.000 C 
BRANCH   2   3
ATOM      3  C   UNL     1      -8.456  -4.212   1.434  1.00  0.00     0.000 C 
BRANCH   3   4
ATOM      4  C   UNL     1      -8.704  -5.060   2.695  1.00  0.00     0.000 C 
BRANCH   4   5
ATOM      5  C   UNL     1      -7.409  -5.604   3.317  1.00  0.00     0.000 C 
BRANCH   5   6
ATOM      6  C   UNL     1      -7.672  -6.174   4.717  1.00  0.00     0.000 C 
BRANCH   6   7
ATOM      7  C   UNL     1      -6.356  -6.533   5.426  1.00  0.00     0.000 C 
BRANCH   7   8
ATOM      8  C   UNL     1      -5.272  -7.028   4.444  1.00  0.00     0.000 C 
BRANCH   8   9
ATOM      9  C   UNL     1      -5.295  -8.547   4.199  1.00  0.00     0.000 C 
BRANCH   9  10
ATOM     10  C   UNL     1      -5.702  -8.919   2.765  1.00  0.00     0.000 C 
BRANCH  10  11
ATOM     11  C   UNL     1      -7.198  -9.251   2.632  1.00  0.00     0.000 C 
BRANCH  11  12
ATOM     12  C   UNL     1      -7.777  -8.954   1.233  1.00  0.00     0.006 C 
BRANCH  12  13
ATOM     13  C   UNL     1      -6.802  -8.158   0.356  1.00  0.00     0.053 C 
BRANCH  13  14
ATOM     14  C   UNL     1      -7.515  -7.566  -0.819  1.00  0.00     0.041 C 
ATOM     15  O   UNL     1      -8.499  -8.163  -1.329  1.00  0.00    -0.550 OA
ATOM     16  O   UNL     1      -7.122  -6.332  -1.324  1.00  0.00    -0.550 OA
ENDBRANCH  13  14
ENDBRANCH  12  13
ENDBRANCH  11  12
ENDBRANCH  10  11
ENDBRANCH   9  10
ENDBRANCH   8   9
ENDBRANCH   7   8
ENDBRANCH   6   7
ENDBRANCH   5   6
ENDBRANCH   4   5
ENDBRANCH   3   4
ENDBRANCH   2   3
ENDBRANCH   1   2
BRANCH   1  17
ATOM     17  C   UNL     1      -5.809  -1.851   2.162  1.00  0.00     0.000 C 
BRANCH  17  18
ATOM     18  C   UNL     1      -6.492  -1.878   3.539  1.00  0.00     0.000 C 
BRANCH  18  19
ATOM     19  C   UNL     1      -5.649  -2.611   4.597  1.00  0.00     0.000 C 
BRANCH  19  20
ATOM     20  C   UNL     1      -6.336  -2.656   5.971  1.00  0.00     0.000 C 
BRANCH  20  21
ATOM     21  C   UNL     1      -6.843  -1.274   6.420  1.00  0.00     0.000 C 
BRANCH  21  22
ATOM     22  C   UNL     1      -5.708  -0.340   6.865  1.00  0.00    -0.000 C 
BRANCH  22  23
ATOM     23  C   UNL     1      -5.845   0.105   8.331  1.00  0.00    -0.000 C 
BRANCH  23  24
ATOM     24  C   UNL     1      -7.081   1.005   8.555  1.00  0.00    -0.000 C 
BRANCH  24  25
ATOM     25  C   UNL     1      -6.735   2.407   9.091  1.00  0.00    -0.000 C 
BRANCH  25  26
ATOM     26  C   UNL     1      -5.686   3.175   8.264  1.00  0.00    -0.000 C 
BRANCH  26  27
ATOM     27  C   UNL     1      -6.253   3.999   7.089  1.00  0.00    -0.000 C 
BRANCH  27  28
ATOM     28  C   UNL     1      -6.119   3.343   5.703  1.00  0.00    -0.000 C 
BRANCH  28  29
ATOM     29  C   UNL     1      -4.682   2.909   5.382  1.00  0.00    -0.003 C 
ATOM     30  C   UNL     1      -3.854   4.089   4.882  1.00  0.00     0.004 C 
ENDBRANCH  28  29
ENDBRANCH  27  28
ENDBRANCH  26  27
ENDBRANCH  25  26
ENDBRANCH  24  25
ENDBRANCH  23  24
ENDBRANCH  22  23
ENDBRANCH  21  22
ENDBRANCH  20  21
ENDBRANCH  19  20
ENDBRANCH  18  19
ENDBRANCH  17  18
ENDBRANCH   1  17
TORSDOF 26
ENDMDL
MODEL 8
REMARK VINA RESULT:    -3.653      2.433      8.988
REMARK INTER + INTRA:         -13.199
REMARK INTER:                  -8.596
REMARK INTRA:                  -4.603
REMARK UNBOUND:                -3.994
REMARK SMILES CCCCCCCCCCCCCCCCCCCCCCCCCCCC(=O)[O-]
REMARK SMILES IDX 15 1 16 2 17 3 18 4 19 5 20 6 21 7 22 8 23 9 24 10 25 11
REMARK SMILES IDX 26 12 27 13 28 14 29 15 30 16 14 17 13 18 12 19 11 20 10 21
REMARK SMILES IDX 9 22 8 23 7 24 6 25 5 26 4 27 3 28 2 29 1 30
REMARK H PARENT
REMARK Flexibility Score: inf
ROOT
ATOM      1  C   UNL     1      -5.629  -1.370   1.870  1.00  0.00     0.000 C 
ENDROOT
BRANCH   1   2
ATOM      2  C   UNL     1      -6.358  -1.592   3.204  1.00  0.00     0.000 C 
BRANCH   2   3
ATOM      3  C   UNL     1      -5.494  -2.331   4.243  1.00  0.00     0.000 C 
BRANCH   3   4
ATOM      4  C   UNL     1      -6.250  -2.815   5.494  1.00  0.00     0.000 C 
BRANCH   4   5
ATOM      5  C   UNL     1      -7.776  -2.717   5.348  1.00  0.00     0.000 C 
BRANCH   5   6
ATOM      6  C   UNL     1      -8.438  -2.428   6.701  1.00  0.00     0.000 C 
BRANCH   6   7
ATOM      7  C   UNL     1      -7.389  -2.084   7.771  1.00  0.00     0.000 C 
BRANCH   7   8
ATOM      8  C   UNL     1      -7.634  -0.701   8.416  1.00  0.00     0.000 C 
BRANCH   8   9
ATOM      9  C   UNL     1      -8.453   0.262   7.538  1.00  0.00     0.000 C 
BRANCH   9  10
ATOM     10  C   UNL     1      -7.636   1.464   7.040  1.00  0.00     0.000 C 
BRANCH  10  11
ATOM     11  C   UNL     1      -6.707   1.114   5.866  1.00  0.00     0.000 C 
BRANCH  11  12
ATOM     12  C   UNL     1      -5.599   2.160   5.618  1.00  0.00     0.006 C 
BRANCH  12  13
ATOM     13  C   UNL     1      -5.555   3.233   6.715  1.00  0.00     0.053 C 
BRANCH  13  14
ATOM     14  C   UNL     1      -4.544   4.285   6.381  1.00  0.00     0.041 C 
ATOM     15  O   UNL     1      -3.717   4.094   5.452  1.00  0.00    -0.550 OA
ATOM     16  O   UNL     1      -4.545   5.493   7.066  1.00  0.00    -0.550 OA
ENDBRANCH  13  14
ENDBRANCH  12  13
ENDBRANCH  11  12
ENDBRANCH  10  11
ENDBRANCH   9  10
ENDBRANCH   8   9
ENDBRANCH   7   8
ENDBRANCH   6   7
ENDBRANCH   5   6
ENDBRANCH   4   5
ENDBRANCH   3   4
ENDBRANCH   2   3
ENDBRANCH   1   2
BRANCH   1  17
ATOM     17  C   UNL     1      -6.231  -2.239   0.755  1.00  0.00     0.000 C 
BRANCH  17  18
ATOM     18  C   UNL     1      -7.449  -3.045   1.235  1.00  0.00     0.000 C 
BRANCH  18  19
ATOM     19  C   UNL     1      -7.190  -4.562   1.224  1.00  0.00     0.000 C 
BRANCH  19  20
ATOM     20  C   UNL     1      -7.174  -5.169   2.636  1.00  0.00     0.000 C 
BRANCH  20  21
ATOM     21  C   UNL     1      -8.552  -5.704   3.061  1.00  0.00     0.000 C 
BRANCH  21  22
ATOM     22  C   UNL     1      -8.486  -6.595   4.310  1.00  0.00    -0.000 C 
BRANCH  22  23
ATOM     23  C   UNL     1      -7.204  -6.375   5.130  1.00  0.00    -0.000 C 
BRANCH  23  24
ATOM     24  C   UNL     1      -6.362  -7.664   5.257  1.00  0.00    -0.000 C 
BRANCH  24  25
ATOM     25  C   UNL     1      -5.231  -7.768   4.217  1.00  0.00    -0.000 C 
BRANCH  25  26
ATOM     26  C   UNL     1      -5.329  -8.984   3.275  1.00  0.00    -0.000 C 
BRANCH  26  27
ATOM     27  C   UNL     1      -6.013  -8.709   1.919  1.00  0.00    -0.000 C 
BRANCH  27  28
ATOM     28  C   UNL     1      -7.488  -9.140   1.831  1.00  0.00    -0.000 C 
BRANCH  28  29
ATOM     29  C   UNL     1      -8.200  -8.591   0.587  1.00  0.00    -0.003 C 
ATOM     30  C   UNL     1      -7.212  -7.904  -0.350  1.00  0.00     0.004 C 
ENDBRANCH  28  29
ENDBRANCH  27  28
ENDBRANCH  26  27
ENDBRANCH  25  26
ENDBRANCH  24  25
ENDBRANCH  23  24
ENDBRANCH  22  23
ENDBRANCH  21  22
ENDBRANCH  20  21
ENDBRANCH  19  20
ENDBRANCH  18  19
ENDBRANCH  17  18
ENDBRANCH   1  17
TORSDOF 26
ENDMDL
MODEL 9
REMARK VINA RESULT:    -3.632      2.255      8.667
REMARK INTER + INTRA:         -13.146
REMARK INTER:                  -8.682
REMARK INTRA:                  -4.464
REMARK UNBOUND:                -3.994
REMARK SMILES CCCCCCCCCCCCCCCCCCCCCCCCCCCC(=O)[O-]
REMARK SMILES IDX 15 1 16 2 17 3 18 4 19 5 20 6 21 7 22 8 23 9 24 10 25 11
REMARK SMILES IDX 26 12 27 13 28 14 29 15 30 16 14 17 13 18 12 19 11 20 10 21
REMARK SMILES IDX 9 22 8 23 7 24 6 25 5 26 4 27 3 28 2 29 1 30
REMARK H PARENT
REMARK Flexibility Score: inf
ROOT
ATOM      1  C   UNL     1      -5.994  -2.717   0.731  1.00  0.00     0.000 C 
ENDROOT
BRANCH   1   2
ATOM      2  C   UNL     1      -5.873  -1.586   1.763  1.00  0.00     0.000 C 
BRANCH   2   3
ATOM      3  C   UNL     1      -6.336  -2.008   3.171  1.00  0.00     0.000 C 
BRANCH   3   4
ATOM      4  C   UNL     1      -7.469  -1.154   3.768  1.00  0.00     0.000 C 
BRANCH   4   5
ATOM      5  C   UNL     1      -7.650  -1.368   5.278  1.00  0.00     0.000 C 
BRANCH   5   6
ATOM      6  C   UNL     1      -6.585  -2.325   5.827  1.00  0.00     0.000 C 
BRANCH   6   7
ATOM      7  C   UNL     1      -7.060  -3.002   7.123  1.00  0.00     0.000 C 
BRANCH   7   8
ATOM      8  C   UNL     1      -8.034  -2.115   7.930  1.00  0.00     0.000 C 
BRANCH   8   9
ATOM      9  C   UNL     1      -7.357  -1.292   9.040  1.00  0.00     0.000 C 
BRANCH   9  10
ATOM     10  C   UNL     1      -7.019   0.142   8.605  1.00  0.00     0.000 C 
BRANCH  10  11
ATOM     11  C   UNL     1      -5.569   0.297   8.116  1.00  0.00     0.000 C 
BRANCH  11  12
ATOM     12  C   UNL     1      -5.300   1.628   7.383  1.00  0.00     0.006 C 
BRANCH  12  13
ATOM     13  C   UNL     1      -6.596   2.338   6.970  1.00  0.00     0.053 C 
BRANCH  13  14
ATOM     14  C   UNL     1      -6.664   2.483   5.482  1.00  0.00     0.041 C 
ATOM     15  O   UNL     1      -5.632   2.788   4.828  1.00  0.00    -0.550 OA
ATOM     16  O   UNL     1      -7.857   2.239   4.812  1.00  0.00    -0.550 OA
ENDBRANCH  13  14
ENDBRANCH  12  13
ENDBRANCH  11  12
ENDBRANCH  10  11
ENDBRANCH   9  10
ENDBRANCH   8   9
ENDBRANCH   7   8
ENDBRANCH   6   7
ENDBRANCH   5   6
ENDBRANCH   4   5
ENDBRANCH   3   4
ENDBRANCH   2   3
ENDBRANCH   1   2
BRANCH   1  17
ATOM     17  C   UNL     1      -7.099  -3.712   1.122  1.00  0.00     0.000 C 
BRANCH  17  18
ATOM     18  C   UNL     1      -6.710  -5.168   0.816  1.00  0.00     0.000 C 
BRANCH  18  19
ATOM     19  C   UNL     1      -7.923  -6.027   0.415  1.00  0.00     0.000 C 
BRANCH  19  20
ATOM     20  C   UNL     1      -7.569  -7.099  -0.627  1.00  0.00     0.000 C 
BRANCH  20  21
ATOM     21  C   UNL     1      -7.082  -8.408   0.020  1.00  0.00     0.000 C 
BRANCH  21  22
ATOM     22  C   UNL     1      -7.989  -8.879   1.166  1.00  0.00    -0.000 C 
BRANCH  22  23
ATOM     23  C   UNL     1      -7.209  -9.182   2.456  1.00  0.00    -0.000 C 
BRANCH  23  24
ATOM     24  C   UNL     1      -5.751  -8.674   2.391  1.00  0.00    -0.000 C 
BRANCH  24  25
ATOM     25  C   UNL     1      -5.043  -8.650   3.759  1.00  0.00    -0.000 C 
BRANCH  25  26
ATOM     26  C   UNL     1      -5.858  -8.008   4.897  1.00  0.00    -0.000 C 
BRANCH  26  27
ATOM     27  C   UNL     1      -5.615  -6.498   5.107  1.00  0.00    -0.000 C 
BRANCH  27  28
ATOM     28  C   UNL     1      -6.547  -5.568   4.310  1.00  0.00    -0.000 C 
BRANCH  28  29
ATOM     29  C   UNL     1      -8.026  -5.963   4.420  1.00  0.00    -0.003 C 
ATOM     30  C   UNL     1      -8.933  -4.777   4.109  1.00  0.00     0.004 C 
ENDBRANCH  28  29
ENDBRANCH  27  28
ENDBRANCH  26  27
ENDBRANCH  25  26
ENDBRANCH  24  25
ENDBRANCH  23  24
ENDBRANCH  22  23
ENDBRANCH  21  22
ENDBRANCH  20  21
ENDBRANCH  19  20
ENDBRANCH  18  19
ENDBRANCH  17  18
ENDBRANCH   1  17
TORSDOF 26
ENDMDL
