MODEL 1
REMARK VINA RESULT:    -3.933      0.000      0.000
REMARK INTER + INTRA:         -11.956
REMARK INTER:                  -8.532
REMARK INTRA:                  -3.424
REMARK UNBOUND:                -3.424
REMARK SMILES CCCCCCCCCCCCCCCCCCCCCC(=O)[O-]
REMARK SMILES IDX 12 1 11 2 10 3 9 4 8 5 7 6 6 7 5 8 4 9 3 10 2 11 1 12 13 13
REMARK SMILES IDX 14 14 15 15 16 16 17 17 18 18 19 19 20 20 21 21 22 22 23 23
REMARK SMILES IDX 24 24
REMARK H PARENT
REMARK Flexibility Score: inf
ROOT
ATOM      1  C   UNL     1       9.965   3.123   0.523  1.00  0.00     0.000 C 
ENDROOT
BRANCH   1   2
ATOM      2  C   UNL     1      10.203   1.933  -0.422  1.00  0.00     0.000 C 
BRANCH   2   3
ATOM      3  C   UNL     1      11.695   1.585  -0.612  1.00  0.00     0.000 C 
BRANCH   3   4
ATOM      4  C   UNL     1      12.240   2.084  -1.958  1.00  0.00    -0.000 C 
BRANCH   4   5
ATOM      5  C   UNL     1      11.739   1.209  -3.114  1.00  0.00    -0.000 C 
BRANCH   5   6
ATOM      6  C   UNL     1      11.505   2.049  -4.379  1.00  0.00    -0.000 C 
BRANCH   6   7
ATOM      7  C   UNL     1      10.991   3.468  -4.057  1.00  0.00    -0.000 C 
BRANCH   7   8
ATOM      8  C   UNL     1      10.469   4.236  -5.287  1.00  0.00    -0.000 C 
BRANCH   8   9
ATOM      9  C   UNL     1      10.556   5.768  -5.184  1.00  0.00    -0.000 C 
BRANCH   9  10
ATOM     10  C   UNL     1       9.836   6.323  -3.942  1.00  0.00    -0.000 C 
BRANCH  10  11
ATOM     11  C   UNL     1      10.783   7.090  -3.005  1.00  0.00    -0.003 C 
ATOM     12  C   UNL     1      11.267   6.241  -1.829  1.00  0.00     0.004 C 
ENDBRANCH  10  11
ENDBRANCH   9  10
ENDBRANCH   8   9
ENDBRANCH   7   8
ENDBRANCH   6   7
ENDBRANCH   5   6
ENDBRANCH   4   5
ENDBRANCH   3   4
ENDBRANCH   2   3
ENDBRANCH   1   2
BRANCH   1  13
ATOM     13  C   UNL     1       8.970   4.145  -0.046  1.00  0.00     0.000 C 
BRANCH  13  14
ATOM     14  C   UNL     1       8.500   3.796  -1.469  1.00  0.00     0.000 C 
BRANCH  14  15
ATOM     15  C   UNL     1       7.120   4.388  -1.828  1.00  0.00     0.000 C 
BRANCH  15  16
ATOM     16  C   UNL     1       6.645   5.414  -0.784  1.00  0.00     0.000 C 
BRANCH  16  17
ATOM     17  C   UNL     1       6.479   6.822  -1.373  1.00  0.00     0.000 C 
BRANCH  17  18
ATOM     18  C   UNL     1       7.706   7.718  -1.125  1.00  0.00     0.000 C 
BRANCH  18  19
ATOM     19  C   UNL     1       8.018   7.868   0.379  1.00  0.00     0.000 C 
BRANCH  19  20
ATOM     20  C   UNL     1       9.519   8.017   0.691  1.00  0.00     0.006 C 
BRANCH  20  21
ATOM     21  C   UNL     1       9.852   8.039   2.194  1.00  0.00     0.053 C 
BRANCH  21  22
ATOM     22  C   UNL     1       9.628   6.714   2.862  1.00  0.00     0.041 C 
ATOM     23  O   UNL     1      10.468   5.784   2.732  1.00  0.00    -0.550 OA
ATOM     24  O   UNL     1       8.456   6.480   3.570  1.00  0.00    -0.550 OA
ENDBRANCH  21  22
ENDBRANCH  20  21
ENDBRANCH  19  20
ENDBRANCH  18  19
ENDBRANCH  17  18
ENDBRANCH  16  17
ENDBRANCH  15  16
ENDBRANCH  14  15
ENDBRANCH  13  14
ENDBRANCH   1  13
TORSDOF 20
ENDMDL
MODEL 2
REMARK VINA RESULT:    -3.920      2.849      6.390
REMARK INTER + INTRA:         -11.928
REMARK INTER:                  -8.501
REMARK INTRA:                  -3.427
REMARK UNBOUND:                -3.424
REMARK SMILES CCCCCCCCCCCCCCCCCCCCCC(=O)[O-]
REMARK SMILES IDX 12 1 11 2 10 3 9 4 8 5 7 6 6 7 5 8 4 9 3 10 2 11 1 12 13 13
REMARK SMILES IDX 14 14 15 15 16 16 17 17 18 18 19 19 20 20 21 21 22 22 23 23
REMARK SMILES IDX 24 24
REMARK H PARENT
REMARK Flexibility Score: inf
ROOT
ATOM      1  C   UNL     1       8.534   3.729   0.827  1.00  0.00     0.000 C 
ENDROOT
BRANCH   1   2
ATOM      2  C   UNL     1       7.814   4.606  -0.212  1.00  0.00     0.000 C 
BRANCH   2   3
ATOM      3  C   UNL     1       7.538   3.879  -1.546  1.00  0.00     0.000 C 
BRANCH   3   4
ATOM      4  C   UNL     1       8.235   4.561  -2.733  1.00  0.00    -0.000 C 
BRANCH   4   5
ATOM      5  C   UNL     1       8.733   5.959  -2.350  1.00  0.00    -0.000 C 
BRANCH   5   6
ATOM      6  C   UNL     1      10.265   5.984  -2.229  1.00  0.00    -0.000 C 
BRANCH   6   7
ATOM      7  C   UNL     1      10.742   6.721  -0.960  1.00  0.00    -0.000 C 
BRANCH   7   8
ATOM      8  C   UNL     1       9.782   7.828  -0.482  1.00  0.00    -0.000 C 
BRANCH   8   9
ATOM      9  C   UNL     1       9.794   8.093   1.032  1.00  0.00    -0.000 C 
BRANCH   9  10
ATOM     10  C   UNL     1      10.059   6.820   1.857  1.00  0.00    -0.000 C 
BRANCH  10  11
ATOM     11  C   UNL     1       9.162   6.724   3.100  1.00  0.00    -0.003 C 
ATOM     12  C   UNL     1       7.674   6.852   2.769  1.00  0.00     0.004 C 
ENDBRANCH  10  11
ENDBRANCH   9  10
ENDBRANCH   8   9
ENDBRANCH   7   8
ENDBRANCH   6   7
ENDBRANCH   5   6
ENDBRANCH   4   5
ENDBRANCH   3   4
ENDBRANCH   2   3
ENDBRANCH   1   2
BRANCH   1  13
ATOM     13  C   UNL     1       9.981   3.402   0.430  1.00  0.00     0.000 C 
BRANCH  13  14
ATOM     14  C   UNL     1      10.135   1.989  -0.160  1.00  0.00     0.000 C 
BRANCH  14  15
ATOM     15  C   UNL     1      11.605   1.554  -0.346  1.00  0.00     0.000 C 
BRANCH  15  16
ATOM     16  C   UNL     1      12.171   2.001  -1.705  1.00  0.00     0.000 C 
BRANCH  16  17
ATOM     17  C   UNL     1      11.132   1.922  -2.833  1.00  0.00     0.000 C 
BRANCH  17  18
ATOM     18  C   UNL     1      11.721   1.374  -4.145  1.00  0.00     0.000 C 
BRANCH  18  19
ATOM     19  C   UNL     1      11.449   2.314  -5.338  1.00  0.00     0.000 C 
BRANCH  19  20
ATOM     20  C   UNL     1      10.794   3.650  -4.942  1.00  0.00     0.006 C 
BRANCH  20  21
ATOM     21  C   UNL     1      10.204   4.440  -6.124  1.00  0.00     0.053 C 
BRANCH  21  22
ATOM     22  C   UNL     1      10.159   5.919  -5.875  1.00  0.00     0.041 C 
ATOM     23  O   UNL     1       9.053   6.518  -5.796  1.00  0.00    -0.550 OA
ATOM     24  O   UNL     1      11.338   6.649  -5.799  1.00  0.00    -0.550 OA
ENDBRANCH  21  22
ENDBRANCH  20  21
ENDBRANCH  19  20
ENDBRANCH  18  19
ENDBRANCH  17  18
ENDBRANCH  16  17
ENDBRANCH  15  16
ENDBRANCH  14  15
ENDBRANCH  13  14
ENDBRANCH   1  13
TORSDOF 20
ENDMDL
MODEL 3
REMARK VINA RESULT:    -3.823      2.824      5.590
REMARK INTER + INTRA:         -11.716
REMARK INTER:                  -8.225
REMARK INTRA:                  -3.491
REMARK UNBOUND:                -3.424
REMARK SMILES CCCCCCCCCCCCCCCCCCCCCC(=O)[O-]
REMARK SMILES IDX 12 1 11 2 10 3 9 4 8 5 7 6 6 7 5 8 4 9 3 10 2 11 1 12 13 13
REMARK SMILES IDX 14 14 15 15 16 16 17 17 18 18 19 19 20 20 21 21 22 22 23 23
REMARK SMILES IDX 24 24
REMARK H PARENT
REMARK Flexibility Score: inf
ROOT
ATOM      1  C   UNL     1      12.192   2.115  -2.447  1.00  0.00     0.000 C 
ENDROOT
BRANCH   1   2
ATOM      2  C   UNL     1      11.853   1.682  -1.010  1.00  0.00     0.000 C 
BRANCH   2   3
ATOM      3  C   UNL     1      10.398   1.995  -0.599  1.00  0.00     0.000 C 
BRANCH   3   4
ATOM      4  C   UNL     1      10.325   2.792   0.712  1.00  0.00    -0.000 C 
BRANCH   4   5
ATOM      5  C   UNL     1       8.960   3.472   0.868  1.00  0.00    -0.000 C 
BRANCH   5   6
ATOM      6  C   UNL     1       8.329   3.763  -0.503  1.00  0.00    -0.000 C 
BRANCH   6   7
ATOM      7  C   UNL     1       7.328   4.936  -0.452  1.00  0.00    -0.000 C 
BRANCH   7   8
ATOM      8  C   UNL     1       7.497   5.849   0.779  1.00  0.00    -0.000 C 
BRANCH   8   9
ATOM      9  C   UNL     1       8.100   7.233   0.487  1.00  0.00    -0.000 C 
BRANCH   9  10
ATOM     10  C   UNL     1       9.353   7.526   1.331  1.00  0.00    -0.000 C 
BRANCH  10  11
ATOM     11  C   UNL     1       9.348   6.777   2.673  1.00  0.00    -0.003 C 
ATOM     12  C   UNL     1      10.662   6.044   2.948  1.00  0.00     0.004 C 
ENDBRANCH  10  11
ENDBRANCH   9  10
ENDBRANCH   8   9
ENDBRANCH   7   8
ENDBRANCH   6   7
ENDBRANCH   5   6
ENDBRANCH   4   5
ENDBRANCH   3   4
ENDBRANCH   2   3
ENDBRANCH   1   2
BRANCH   1  13
ATOM     13  C   UNL     1      11.499   1.247  -3.508  1.00  0.00     0.000 C 
BRANCH  13  14
ATOM     14  C   UNL     1      11.241   2.003  -4.824  1.00  0.00     0.000 C 
BRANCH  14  15
ATOM     15  C   UNL     1      11.360   3.537  -4.689  1.00  0.00     0.000 C 
BRANCH  15  16
ATOM     16  C   UNL     1       9.998   4.236  -4.835  1.00  0.00     0.000 C 
BRANCH  16  17
ATOM     17  C   UNL     1       9.578   4.985  -3.562  1.00  0.00     0.000 C 
BRANCH  17  18
ATOM     18  C   UNL     1      10.752   5.216  -2.594  1.00  0.00     0.000 C 
BRANCH  18  19
ATOM     19  C   UNL     1      10.734   6.636  -1.991  1.00  0.00     0.000 C 
BRANCH  19  20
ATOM     20  C   UNL     1      10.129   7.701  -2.924  1.00  0.00     0.006 C 
BRANCH  20  21
ATOM     21  C   UNL     1      11.168   8.475  -3.756  1.00  0.00     0.053 C 
BRANCH  21  22
ATOM     22  C   UNL     1      11.204   8.045  -5.193  1.00  0.00     0.041 C 
ATOM     23  O   UNL     1      10.148   7.678  -5.775  1.00  0.00    -0.550 OA
ATOM     24  O   UNL     1      12.415   7.980  -5.871  1.00  0.00    -0.550 OA
ENDBRANCH  21  22
ENDBRANCH  20  21
ENDBRANCH  19  20
ENDBRANCH  18  19
ENDBRANCH  17  18
ENDBRANCH  16  17
ENDBRANCH  15  16
ENDBRANCH  14  15
ENDBRANCH  13  14
ENDBRANCH   1  13
TORSDOF 20
ENDMDL
MODEL 4
REMARK VINA RESULT:    -3.816      1.400      3.674
REMARK INTER + INTRA:         -11.702
REMARK INTER:                  -8.206
REMARK INTRA:                  -3.496
REMARK UNBOUND:                -3.424
REMARK SMILES CCCCCCCCCCCCCCCCCCCCCC(=O)[O-]
REMARK SMILES IDX 12 1 11 2 10 3 9 4 8 5 7 6 6 7 5 8 4 9 3 10 2 11 1 12 13 13
REMARK SMILES IDX 14 14 15 15 16 16 17 17 18 18 19 19 20 20 21 21 22 22 23 23
REMARK SMILES IDX 24 24
REMARK H PARENT
REMARK Flexibility Score: inf
ROOT
ATOM      1  C   UNL     1      12.338   1.579  -2.103  1.00  0.00     0.000 C 
ENDROOT
BRANCH   1   2
ATOM      2  C   UNL     1      11.144   1.690  -3.067  1.00  0.00     0.000 C 
BRANCH   2   3
ATOM      3  C   UNL     1      11.452   2.513  -4.337  1.00  0.00     0.000 C 
BRANCH   3   4
ATOM      4  C   UNL     1      10.729   3.868  -4.339  1.00  0.00    -0.000 C 
BRANCH   4   5
ATOM      5  C   UNL     1      10.133   4.177  -2.960  1.00  0.00    -0.000 C 
BRANCH   5   6
ATOM      6  C   UNL     1      11.061   5.097  -2.153  1.00  0.00    -0.000 C 
BRANCH   6   7
ATOM      7  C   UNL     1      10.806   6.591  -2.443  1.00  0.00    -0.000 C 
BRANCH   7   8
ATOM      8  C   UNL     1       9.916   7.288  -1.395  1.00  0.00    -0.000 C 
BRANCH   8   9
ATOM      9  C   UNL     1       8.483   7.597  -1.857  1.00  0.00    -0.000 C 
BRANCH   9  10
ATOM     10  C   UNL     1       7.456   6.576  -1.332  1.00  0.00    -0.000 C 
BRANCH  10  11
ATOM     11  C   UNL     1       6.875   5.696  -2.450  1.00  0.00    -0.003 C 
ATOM     12  C   UNL     1       6.287   4.385  -1.928  1.00  0.00     0.004 C 
ENDBRANCH  10  11
ENDBRANCH   9  10
ENDBRANCH   8   9
ENDBRANCH   7   8
ENDBRANCH   6   7
ENDBRANCH   5   6
ENDBRANCH   4   5
ENDBRANCH   3   4
ENDBRANCH   2   3
ENDBRANCH   1   2
BRANCH   1  13
ATOM     13  C   UNL     1      11.906   1.425  -0.637  1.00  0.00     0.000 C 
BRANCH  13  14
ATOM     14  C   UNL     1      10.423   1.765  -0.411  1.00  0.00     0.000 C 
BRANCH  14  15
ATOM     15  C   UNL     1      10.193   2.834   0.680  1.00  0.00     0.000 C 
BRANCH  15  16
ATOM     16  C   UNL     1       8.888   3.615   0.455  1.00  0.00     0.000 C 
BRANCH  16  17
ATOM     17  C   UNL     1       8.758   4.830   1.386  1.00  0.00     0.000 C 
BRANCH  17  18
ATOM     18  C   UNL     1      10.117   5.473   1.717  1.00  0.00     0.000 C 
BRANCH  18  19
ATOM     19  C   UNL     1       9.982   6.608   2.753  1.00  0.00     0.000 C 
BRANCH  19  20
ATOM     20  C   UNL     1       9.713   7.990   2.132  1.00  0.00     0.006 C 
BRANCH  20  21
ATOM     21  C   UNL     1       8.220   8.322   1.952  1.00  0.00     0.053 C 
BRANCH  21  22
ATOM     22  C   UNL     1       7.401   8.008   3.169  1.00  0.00     0.041 C 
ATOM     23  O   UNL     1       7.521   8.702   4.215  1.00  0.00    -0.550 OA
ATOM     24  O   UNL     1       6.555   6.906   3.176  1.00  0.00    -0.550 OA
ENDBRANCH  21  22
ENDBRANCH  20  21
ENDBRANCH  19  20
ENDBRANCH  18  19
ENDBRANCH  17  18
ENDBRANCH  16  17
ENDBRANCH  15  16
ENDBRANCH  14  15
ENDBRANCH  13  14
ENDBRANCH   1  13
TORSDOF 20
ENDMDL
MODEL 5
REMARK VINA RESULT:    -3.757      2.767      5.697
REMARK INTER + INTRA:         -11.572
REMARK INTER:                  -8.024
REMARK INTRA:                  -3.549
REMARK UNBOUND:                -3.424
REMARK SMILES CCCCCCCCCCCCCCCCCCCCCC(=O)[O-]
REMARK SMILES IDX 12 1 11 2 10 3 9 4 8 5 7 6 6 7 5 8 4 9 3 10 2 11 1 12 13 13
REMARK SMILES IDX 14 14 15 15 16 16 17 17 18 18 19 19 20 20 21 21 22 22 23 23
REMARK SMILES IDX 24 24
REMARK H PARENT
REMARK Flexibility Score: inf
ROOT
ATOM      1  C   UNL     1      11.530   1.656  -0.587  1.00  0.00     0.000 C 
ENDROOT
BRANCH   1   2
ATOM      2  C   UNL     1      10.036   2.019  -0.632  1.00  0.00     0.000 C 
BRANCH   2   3
ATOM      3  C   UNL     1       9.663   3.210   0.276  1.00  0.00     0.000 C 
BRANCH   3   4
ATOM      4  C   UNL     1       8.442   3.979  -0.250  1.00  0.00    -0.000 C 
BRANCH   4   5
ATOM      5  C   UNL     1       8.861   5.057  -1.256  1.00  0.00    -0.000 C 
BRANCH   5   6
ATOM      6  C   UNL     1      10.306   5.516  -1.004  1.00  0.00    -0.000 C 
BRANCH   6   7
ATOM      7  C   UNL     1      10.541   6.980  -1.430  1.00  0.00    -0.000 C 
BRANCH   7   8
ATOM      8  C   UNL     1       9.624   7.993  -0.716  1.00  0.00    -0.000 C 
BRANCH   8   9
ATOM      9  C   UNL     1       9.788   8.058   0.811  1.00  0.00    -0.000 C 
BRANCH   9  10
ATOM     10  C   UNL     1       8.523   7.610   1.565  1.00  0.00    -0.000 C 
BRANCH  10  11
ATOM     11  C   UNL     1       8.796   6.449   2.535  1.00  0.00    -0.003 C 
ATOM     12  C   UNL     1      10.287   6.172   2.725  1.00  0.00     0.004 C 
ENDBRANCH  10  11
ENDBRANCH   9  10
ENDBRANCH   8   9
ENDBRANCH   7   8
ENDBRANCH   6   7
ENDBRANCH   5   6
ENDBRANCH   4   5
ENDBRANCH   3   4
ENDBRANCH   2   3
ENDBRANCH   1   2
BRANCH   1  13
ATOM     13  C   UNL     1      12.245   1.910  -1.923  1.00  0.00     0.000 C 
BRANCH  13  14
ATOM     14  C   UNL     1      11.513   1.282  -3.122  1.00  0.00     0.000 C 
BRANCH  14  15
ATOM     15  C   UNL     1      11.398   2.225  -4.339  1.00  0.00     0.000 C 
BRANCH  15  16
ATOM     16  C   UNL     1      10.830   3.600  -3.950  1.00  0.00     0.000 C 
BRANCH  16  17
ATOM     17  C   UNL     1      10.245   4.360  -5.150  1.00  0.00     0.000 C 
BRANCH  17  18
ATOM     18  C   UNL     1      10.630   5.850  -5.155  1.00  0.00     0.000 C 
BRANCH  18  19
ATOM     19  C   UNL     1       9.418   6.761  -4.871  1.00  0.00     0.000 C 
BRANCH  19  20
ATOM     20  C   UNL     1       8.081   6.196  -5.384  1.00  0.00     0.006 C 
BRANCH  20  21
ATOM     21  C   UNL     1       7.012   6.013  -4.291  1.00  0.00     0.053 C 
BRANCH  21  22
ATOM     22  C   UNL     1       6.283   4.707  -4.399  1.00  0.00     0.041 C 
ATOM     23  O   UNL     1       5.875   4.294  -5.518  1.00  0.00    -0.550 OA
ATOM     24  O   UNL     1       5.989   3.975  -3.254  1.00  0.00    -0.550 OA
ENDBRANCH  21  22
ENDBRANCH  20  21
ENDBRANCH  19  20
ENDBRANCH  18  19
ENDBRANCH  17  18
ENDBRANCH  16  17
ENDBRANCH  15  16
ENDBRANCH  14  15
ENDBRANCH  13  14
ENDBRANCH   1  13
TORSDOF 20
ENDMDL
MODEL 6
REMARK VINA RESULT:    -3.727      0.971      3.003
REMARK INTER + INTRA:         -11.509
REMARK INTER:                  -7.977
REMARK INTRA:                  -3.532
REMARK UNBOUND:                -3.424
REMARK SMILES CCCCCCCCCCCCCCCCCCCCCC(=O)[O-]
REMARK SMILES IDX 12 1 11 2 10 3 9 4 8 5 7 6 6 7 5 8 4 9 3 10 2 11 1 12 13 13
REMARK SMILES IDX 14 14 15 15 16 16 17 17 18 18 19 19 20 20 21 21 22 22 23 23
REMARK SMILES IDX 24 24
REMARK H PARENT
REMARK Flexibility Score: inf
ROOT
ATOM      1  C   UNL     1      12.119   2.056  -1.675  1.00  0.00     0.000 C 
ENDROOT
BRANCH   1   2
ATOM      2  C   UNL     1      11.449   1.447  -2.918  1.00  0.00     0.000 C 
BRANCH   2   3
ATOM      3  C   UNL     1      11.570   2.330  -4.179  1.00  0.00     0.000 C 
BRANCH   3   4
ATOM      4  C   UNL     1      10.820   3.662  -4.027  1.00  0.00    -0.000 C 
BRANCH   4   5
ATOM      5  C   UNL     1      10.258   4.134  -5.373  1.00  0.00    -0.000 C 
BRANCH   5   6
ATOM      6  C   UNL     1      10.483   5.642  -5.567  1.00  0.00    -0.000 C 
BRANCH   6   7
ATOM      7  C   UNL     1      10.462   6.416  -4.232  1.00  0.00    -0.000 C 
BRANCH   7   8
ATOM      8  C   UNL     1       9.183   7.246  -4.012  1.00  0.00    -0.000 C 
BRANCH   8   9
ATOM      9  C   UNL     1       7.866   6.498  -4.273  1.00  0.00    -0.000 C 
BRANCH   9  10
ATOM     10  C   UNL     1       6.823   6.723  -3.162  1.00  0.00    -0.000 C 
BRANCH  10  11
ATOM     11  C   UNL     1       6.435   5.421  -2.445  1.00  0.00    -0.003 C 
ATOM     12  C   UNL     1       7.337   4.245  -2.821  1.00  0.00     0.004 C 
ENDBRANCH  10  11
ENDBRANCH   9  10
ENDBRANCH   8   9
ENDBRANCH   7   8
ENDBRANCH   6   7
ENDBRANCH   5   6
ENDBRANCH   4   5
ENDBRANCH   3   4
ENDBRANCH   2   3
ENDBRANCH   1   2
BRANCH   1  13
ATOM     13  C   UNL     1      11.336   1.780  -0.382  1.00  0.00     0.000 C 
BRANCH  13  14
ATOM     14  C   UNL     1       9.915   2.370  -0.405  1.00  0.00     0.000 C 
BRANCH  14  15
ATOM     15  C   UNL     1       9.631   3.342   0.761  1.00  0.00     0.000 C 
BRANCH  15  16
ATOM     16  C   UNL     1       9.095   4.696   0.264  1.00  0.00     0.000 C 
BRANCH  16  17
ATOM     17  C   UNL     1      10.078   5.414  -0.672  1.00  0.00     0.000 C 
BRANCH  17  18
ATOM     18  C   UNL     1       9.999   6.946  -0.553  1.00  0.00     0.000 C 
BRANCH  18  19
ATOM     19  C   UNL     1       8.611   7.418  -0.075  1.00  0.00     0.000 C 
BRANCH  19  20
ATOM     20  C   UNL     1       8.653   8.300   1.187  1.00  0.00     0.006 C 
BRANCH  20  21
ATOM     21  C   UNL     1       9.877   8.053   2.089  1.00  0.00     0.053 C 
BRANCH  21  22
ATOM     22  C   UNL     1       9.673   6.925   3.056  1.00  0.00     0.041 C 
ATOM     23  O   UNL     1      10.613   6.126   3.312  1.00  0.00    -0.550 OA
ATOM     24  O   UNL     1       8.422   6.711   3.623  1.00  0.00    -0.550 OA
ENDBRANCH  21  22
ENDBRANCH  20  21
ENDBRANCH  19  20
ENDBRANCH  18  19
ENDBRANCH  17  18
ENDBRANCH  16  17
ENDBRANCH  15  16
ENDBRANCH  14  15
ENDBRANCH  13  14
ENDBRANCH   1  13
TORSDOF 20
ENDMDL
MODEL 7
REMARK VINA RESULT:    -3.710      1.298      3.642
REMARK INTER + INTRA:         -11.472
REMARK INTER:                  -7.917
REMARK INTRA:                  -3.555
REMARK UNBOUND:                -3.424
REMARK SMILES CCCCCCCCCCCCCCCCCCCCCC(=O)[O-]
REMARK SMILES IDX 12 1 11 2 10 3 9 4 8 5 7 6 6 7 5 8 4 9 3 10 2 11 1 12 13 13
REMARK SMILES IDX 14 14 15 15 16 16 17 17 18 18 19 19 20 20 21 21 22 22 23 23
REMARK SMILES IDX 24 24
REMARK H PARENT
REMARK Flexibility Score: inf
ROOT
ATOM      1  C   UNL     1      11.555   1.370  -3.419  1.00  0.00     0.000 C 
ENDROOT
BRANCH   1   2
ATOM      2  C   UNL     1      11.531   2.232  -4.693  1.00  0.00     0.000 C 
BRANCH   2   3
ATOM      3  C   UNL     1      10.724   3.539  -4.538  1.00  0.00     0.000 C 
BRANCH   3   4
ATOM      4  C   UNL     1      10.808   4.423  -5.791  1.00  0.00    -0.000 C 
BRANCH   4   5
ATOM      5  C   UNL     1      10.176   5.797  -5.539  1.00  0.00    -0.000 C 
BRANCH   5   6
ATOM      6  C   UNL     1       8.876   5.666  -4.731  1.00  0.00    -0.000 C 
BRANCH   6   7
ATOM      7  C   UNL     1       8.069   6.981  -4.699  1.00  0.00    -0.000 C 
BRANCH   7   8
ATOM      8  C   UNL     1       8.264   7.802  -3.409  1.00  0.00    -0.000 C 
BRANCH   8   9
ATOM      9  C   UNL     1       9.390   8.847  -3.465  1.00  0.00    -0.000 C 
BRANCH   9  10
ATOM     10  C   UNL     1      10.696   8.351  -2.817  1.00  0.00    -0.000 C 
BRANCH  10  11
ATOM     11  C   UNL     1      10.444   7.379  -1.654  1.00  0.00    -0.003 C 
ATOM     12  C   UNL     1      11.188   6.053  -1.817  1.00  0.00     0.004 C 
ENDBRANCH  10  11
ENDBRANCH   9  10
ENDBRANCH   8   9
ENDBRANCH   7   8
ENDBRANCH   6   7
ENDBRANCH   5   6
ENDBRANCH   4   5
ENDBRANCH   3   4
ENDBRANCH   2   3
ENDBRANCH   1   2
BRANCH   1  13
ATOM     13  C   UNL     1      12.227   2.079  -2.234  1.00  0.00     0.000 C 
BRANCH  13  14
ATOM     14  C   UNL     1      11.609   1.696  -0.878  1.00  0.00     0.000 C 
BRANCH  14  15
ATOM     15  C   UNL     1      10.519   2.679  -0.396  1.00  0.00     0.000 C 
BRANCH  15  16
ATOM     16  C   UNL     1       9.148   2.371  -1.022  1.00  0.00     0.000 C 
BRANCH  16  17
ATOM     17  C   UNL     1       8.594   3.548  -1.839  1.00  0.00     0.000 C 
BRANCH  17  18
ATOM     18  C   UNL     1       7.357   4.192  -1.187  1.00  0.00     0.000 C 
BRANCH  18  19
ATOM     19  C   UNL     1       7.722   5.450  -0.372  1.00  0.00     0.000 C 
BRANCH  19  20
ATOM     20  C   UNL     1       7.893   5.188   1.136  1.00  0.00     0.006 C 
BRANCH  20  21
ATOM     21  C   UNL     1       9.306   5.482   1.672  1.00  0.00     0.053 C 
BRANCH  21  22
ATOM     22  C   UNL     1       9.319   6.542   2.734  1.00  0.00     0.041 C 
ATOM     23  O   UNL     1      10.406   7.063   3.102  1.00  0.00    -0.550 OA
ATOM     24  O   UNL     1       8.138   6.906   3.369  1.00  0.00    -0.550 OA
ENDBRANCH  21  22
ENDBRANCH  20  21
ENDBRANCH  19  20
ENDBRANCH  18  19
ENDBRANCH  17  18
ENDBRANCH  16  17
ENDBRANCH  15  16
ENDBRANCH  14  15
ENDBRANCH  13  14
ENDBRANCH   1  13
TORSDOF 20
ENDMDL
MODEL 8
REMARK VINA RESULT:    -3.698      1.578      2.810
REMARK INTER + INTRA:         -11.445
REMARK INTER:                  -8.673
REMARK INTRA:                  -2.772
REMARK UNBOUND:                -3.424
REMARK SMILES CCCCCCCCCCCCCCCCCCCCCC(=O)[O-]
REMARK SMILES IDX 12 1 11 2 10 3 9 4 8 5 7 6 6 7 5 8 4 9 3 10 2 11 1 12 13 13
REMARK SMILES IDX 14 14 15 15 16 16 17 17 18 18 19 19 20 20 21 21 22 22 23 23
REMARK SMILES IDX 24 24
REMARK H PARENT
REMARK Flexibility Score: inf
ROOT
ATOM      1  C   UNL     1      11.241   1.785  -0.380  1.00  0.00     0.000 C 
ENDROOT
BRANCH   1   2
ATOM      2  C   UNL     1      11.891   1.639  -1.766  1.00  0.00     0.000 C 
BRANCH   2   3
ATOM      3  C   UNL     1      10.872   1.617  -2.926  1.00  0.00     0.000 C 
BRANCH   3   4
ATOM      4  C   UNL     1      11.531   1.271  -4.269  1.00  0.00    -0.000 C 
BRANCH   4   5
ATOM      5  C   UNL     1      11.399   2.432  -5.263  1.00  0.00    -0.000 C 
BRANCH   5   6
ATOM      6  C   UNL     1      10.855   3.691  -4.571  1.00  0.00    -0.000 C 
BRANCH   6   7
ATOM      7  C   UNL     1      10.129   4.635  -5.553  1.00  0.00    -0.000 C 
BRANCH   7   8
ATOM      8  C   UNL     1       8.986   5.445  -4.911  1.00  0.00    -0.000 C 
BRANCH   8   9
ATOM      9  C   UNL     1       8.426   4.860  -3.603  1.00  0.00    -0.000 C 
BRANCH   9  10
ATOM     10  C   UNL     1       8.632   5.795  -2.398  1.00  0.00    -0.000 C 
BRANCH  10  11
ATOM     11  C   UNL     1       9.841   6.727  -2.574  1.00  0.00    -0.003 C 
ATOM     12  C   UNL     1      11.121   6.162  -1.955  1.00  0.00     0.004 C 
ENDBRANCH  10  11
ENDBRANCH   9  10
ENDBRANCH   8   9
ENDBRANCH   7   8
ENDBRANCH   6   7
ENDBRANCH   5   6
ENDBRANCH   4   5
ENDBRANCH   3   4
ENDBRANCH   2   3
ENDBRANCH   1   2
BRANCH   1  13
ATOM     13  C   UNL     1      10.064   2.771  -0.375  1.00  0.00     0.000 C 
BRANCH  13  14
ATOM     14  C   UNL     1       9.806   3.388   1.011  1.00  0.00     0.000 C 
BRANCH  14  15
ATOM     15  C   UNL     1       9.634   4.923   0.981  1.00  0.00     0.000 C 
BRANCH  15  16
ATOM     16  C   UNL     1      10.378   5.608   2.139  1.00  0.00     0.000 C 
BRANCH  16  17
ATOM     17  C   UNL     1       9.925   7.059   2.357  1.00  0.00     0.000 C 
BRANCH  17  18
ATOM     18  C   UNL     1       9.494   7.749   1.051  1.00  0.00     0.000 C 
BRANCH  18  19
ATOM     19  C   UNL     1       8.231   8.614   1.244  1.00  0.00     0.000 C 
BRANCH  19  20
ATOM     20  C   UNL     1       7.526   8.395   2.595  1.00  0.00     0.006 C 
BRANCH  20  21
ATOM     21  C   UNL     1       6.369   7.381   2.548  1.00  0.00     0.053 C 
BRANCH  21  22
ATOM     22  C   UNL     1       6.502   6.295   3.575  1.00  0.00     0.041 C 
ATOM     23  O   UNL     1       7.232   6.461   4.588  1.00  0.00    -0.550 OA
ATOM     24  O   UNL     1       5.875   5.071   3.379  1.00  0.00    -0.550 OA
ENDBRANCH  21  22
ENDBRANCH  20  21
ENDBRANCH  19  20
ENDBRANCH  18  19
ENDBRANCH  17  18
ENDBRANCH  16  17
ENDBRANCH  15  16
ENDBRANCH  14  15
ENDBRANCH  13  14
ENDBRANCH   1  13
TORSDOF 20
ENDMDL
MODEL 9
REMARK VINA RESULT:    -3.670      2.097      5.209
REMARK INTER + INTRA:         -11.385
REMARK INTER:                  -8.192
REMARK INTRA:                  -3.193
REMARK UNBOUND:                -3.424
REMARK SMILES CCCCCCCCCCCCCCCCCCCCCC(=O)[O-]
REMARK SMILES IDX 12 1 11 2 10 3 9 4 8 5 7 6 6 7 5 8 4 9 3 10 2 11 1 12 13 13
REMARK SMILES IDX 14 14 15 15 16 16 17 17 18 18 19 19 20 20 21 21 22 22 23 23
REMARK SMILES IDX 24 24
REMARK H PARENT
REMARK Flexibility Score: inf
ROOT
ATOM      1  C   UNL     1      11.023   1.461  -3.523  1.00  0.00     0.000 C 
ENDROOT
BRANCH   1   2
ATOM      2  C   UNL     1      12.177   1.878  -2.596  1.00  0.00     0.000 C 
BRANCH   2   3
ATOM      3  C   UNL     1      11.869   1.673  -1.097  1.00  0.00     0.000 C 
BRANCH   3   4
ATOM      4  C   UNL     1      10.416   2.030  -0.750  1.00  0.00    -0.000 C 
BRANCH   4   5
ATOM      5  C   UNL     1      10.340   2.813   0.566  1.00  0.00    -0.000 C 
BRANCH   5   6
ATOM      6  C   UNL     1       8.887   3.184   0.903  1.00  0.00    -0.000 C 
BRANCH   6   7
ATOM      7  C   UNL     1       8.259   4.118  -0.153  1.00  0.00    -0.000 C 
BRANCH   7   8
ATOM      8  C   UNL     1       7.993   5.548   0.357  1.00  0.00    -0.000 C 
BRANCH   8   9
ATOM      9  C   UNL     1       8.552   5.856   1.756  1.00  0.00    -0.000 C 
BRANCH   9  10
ATOM     10  C   UNL     1       9.924   6.552   1.708  1.00  0.00    -0.000 C 
BRANCH  10  11
ATOM     11  C   UNL     1       9.866   8.006   2.203  1.00  0.00    -0.003 C 
ATOM     12  C   UNL     1       8.596   8.311   2.998  1.00  0.00     0.004 C 
ENDBRANCH  10  11
ENDBRANCH   9  10
ENDBRANCH   8   9
ENDBRANCH   7   8
ENDBRANCH   6   7
ENDBRANCH   5   6
ENDBRANCH   4   5
ENDBRANCH   3   4
ENDBRANCH   2   3
ENDBRANCH   1   2
BRANCH   1  13
ATOM     13  C   UNL     1      11.503   1.054  -4.924  1.00  0.00     0.000 C 
BRANCH  13  14
ATOM     14  C   UNL     1      11.733   2.260  -5.852  1.00  0.00     0.000 C 
BRANCH  14  15
ATOM     15  C   UNL     1      10.470   3.123  -6.068  1.00  0.00     0.000 C 
BRANCH  15  16
ATOM     16  C   UNL     1      10.706   4.594  -5.685  1.00  0.00     0.000 C 
BRANCH  16  17
ATOM     17  C   UNL     1       9.467   5.247  -5.055  1.00  0.00     0.000 C 
BRANCH  17  18
ATOM     18  C   UNL     1       9.342   4.954  -3.549  1.00  0.00     0.000 C 
BRANCH  18  19
ATOM     19  C   UNL     1      10.693   5.098  -2.818  1.00  0.00     0.000 C 
BRANCH  19  20
ATOM     20  C   UNL     1      10.765   6.313  -1.875  1.00  0.00     0.006 C 
BRANCH  20  21
ATOM     21  C   UNL     1      10.656   7.673  -2.589  1.00  0.00     0.053 C 
BRANCH  21  22
ATOM     22  C   UNL     1       9.355   8.371  -2.322  1.00  0.00     0.041 C 
ATOM     23  O   UNL     1       8.976   8.584  -1.139  1.00  0.00    -0.550 OA
ATOM     24  O   UNL     1       8.524   8.724  -3.378  1.00  0.00    -0.550 OA
ENDBRANCH  21  22
ENDBRANCH  20  21
ENDBRANCH  19  20
ENDBRANCH  18  19
ENDBRANCH  17  18
ENDBRANCH  16  17
ENDBRANCH  15  16
ENDBRANCH  14  15
ENDBRANCH  13  14
ENDBRANCH   1  13
TORSDOF 20
ENDMDL
