MODEL 1
REMARK VINA RESULT:    -3.872      0.000      0.000
REMARK INTER + INTRA:         -15.207
REMARK INTER:                  -9.758
REMARK INTRA:                  -5.449
REMARK UNBOUND:                -5.449
REMARK SMILES CCCCCCCCCCCCCCCCCCCCCCCCCCCC(=O)[O-]
REMARK SMILES IDX 15 1 16 2 17 3 18 4 19 5 20 6 21 7 22 8 23 9 24 10 25 11
REMARK SMILES IDX 26 12 27 13 28 14 29 15 30 16 14 17 13 18 12 19 11 20 10 21
REMARK SMILES IDX 9 22 8 23 7 24 6 25 5 26 4 27 3 28 2 29 1 30
REMARK H PARENT
REMARK Flexibility Score: inf
ROOT
ATOM      1  C   UNL     1     -24.741  -8.329  -3.875  1.00  0.00     0.000 C 
ENDROOT
BRANCH   1   2
ATOM      2  C   UNL     1     -24.132  -6.931  -4.095  1.00  0.00     0.000 C 
BRANCH   2   3
ATOM      3  C   UNL     1     -25.160  -5.811  -3.850  1.00  0.00     0.000 C 
BRANCH   3   4
ATOM      4  C   UNL     1     -26.573  -6.201  -4.326  1.00  0.00     0.000 C 
BRANCH   4   5
ATOM      5  C   UNL     1     -26.978  -5.531  -5.655  1.00  0.00     0.000 C 
BRANCH   5   6
ATOM      6  C   UNL     1     -26.517  -6.303  -6.906  1.00  0.00     0.000 C 
BRANCH   6   7
ATOM      7  C   UNL     1     -25.646  -5.442  -7.839  1.00  0.00     0.000 C 
BRANCH   7   8
ATOM      8  C   UNL     1     -24.146  -5.725  -7.663  1.00  0.00     0.000 C 
BRANCH   8   9
ATOM      9  C   UNL     1     -23.403  -4.557  -6.986  1.00  0.00     0.000 C 
BRANCH   9  10
ATOM     10  C   UNL     1     -24.263  -3.278  -6.901  1.00  0.00     0.000 C 
BRANCH  10  11
ATOM     11  C   UNL     1     -24.371  -2.689  -5.482  1.00  0.00     0.000 C 
BRANCH  11  12
ATOM     12  C   UNL     1     -25.784  -2.240  -5.064  1.00  0.00     0.006 C 
BRANCH  12  13
ATOM     13  C   UNL     1     -25.818  -1.265  -3.876  1.00  0.00     0.053 C 
BRANCH  13  14
ATOM     14  C   UNL     1     -25.148  -1.830  -2.660  1.00  0.00     0.041 C 
ATOM     15  O   UNL     1     -24.027  -1.391  -2.291  1.00  0.00    -0.550 OA
ATOM     16  O   UNL     1     -25.755  -2.858  -1.945  1.00  0.00    -0.550 OA
ENDBRANCH  13  14
ENDBRANCH  12  13
ENDBRANCH  11  12
ENDBRANCH  10  11
ENDBRANCH   9  10
ENDBRANCH   8   9
ENDBRANCH   7   8
ENDBRANCH   6   7
ENDBRANCH   5   6
ENDBRANCH   4   5
ENDBRANCH   3   4
ENDBRANCH   2   3
ENDBRANCH   1   2
BRANCH   1  17
ATOM     17  C   UNL     1     -24.118  -9.408  -4.780  1.00  0.00     0.000 C 
BRANCH  17  18
ATOM     18  C   UNL     1     -24.452  -9.173  -6.263  1.00  0.00     0.000 C 
BRANCH  18  19
ATOM     19  C   UNL     1     -23.226  -9.321  -7.183  1.00  0.00     0.000 C 
BRANCH  19  20
ATOM     20  C   UNL     1     -21.980  -8.522  -6.746  1.00  0.00     0.000 C 
BRANCH  20  21
ATOM     21  C   UNL     1     -20.633  -9.090  -7.233  1.00  0.00     0.000 C 
BRANCH  21  22
ATOM     22  C   UNL     1     -20.544 -10.619  -7.097  1.00  0.00    -0.000 C 
BRANCH  22  23
ATOM     23  C   UNL     1     -20.113 -11.064  -5.688  1.00  0.00    -0.000 C 
BRANCH  23  24
ATOM     24  C   UNL     1     -18.892 -10.314  -5.126  1.00  0.00    -0.000 C 
BRANCH  24  25
ATOM     25  C   UNL     1     -19.099  -9.788  -3.687  1.00  0.00    -0.000 C 
BRANCH  25  26
ATOM     26  C   UNL     1     -20.564  -9.909  -3.233  1.00  0.00    -0.000 C 
BRANCH  26  27
ATOM     27  C   UNL     1     -21.135  -8.570  -2.719  1.00  0.00    -0.000 C 
BRANCH  27  28
ATOM     28  C   UNL     1     -21.988  -8.709  -1.447  1.00  0.00    -0.000 C 
BRANCH  28  29
ATOM     29  C   UNL     1     -22.411  -7.356  -0.858  1.00  0.00    -0.003 C 
ATOM     30  C   UNL     1     -23.853  -7.398  -0.363  1.00  0.00     0.004 C 
ENDBRANCH  28  29
ENDBRANCH  27  28
ENDBRANCH  26  27
ENDBRANCH  25  26
ENDBRANCH  24  25
ENDBRANCH  23  24
ENDBRANCH  22  23
ENDBRANCH  21  22
ENDBRANCH  20  21
ENDBRANCH  19  20
ENDBRANCH  18  19
ENDBRANCH  17  18
ENDBRANCH   1  17
TORSDOF 26
ENDMDL
MODEL 2
REMARK VINA RESULT:    -3.842      2.983      7.189
REMARK INTER + INTRA:         -15.131
REMARK INTER:                 -10.338
REMARK INTRA:                  -4.793
REMARK UNBOUND:                -5.449
REMARK SMILES CCCCCCCCCCCCCCCCCCCCCCCCCCCC(=O)[O-]
REMARK SMILES IDX 15 1 16 2 17 3 18 4 19 5 20 6 21 7 22 8 23 9 24 10 25 11
REMARK SMILES IDX 26 12 27 13 28 14 29 15 30 16 14 17 13 18 12 19 11 20 10 21
REMARK SMILES IDX 9 22 8 23 7 24 6 25 5 26 4 27 3 28 2 29 1 30
REMARK H PARENT
REMARK Flexibility Score: inf
ROOT
ATOM      1  C   UNL     1     -24.098  -9.314  -4.175  1.00  0.00     0.000 C 
ENDROOT
BRANCH   1   2
ATOM      2  C   UNL     1     -24.196  -9.473  -5.705  1.00  0.00     0.000 C 
BRANCH   2   3
ATOM      3  C   UNL     1     -22.809  -9.492  -6.372  1.00  0.00     0.000 C 
BRANCH   3   4
ATOM      4  C   UNL     1     -22.365 -10.918  -6.754  1.00  0.00     0.000 C 
BRANCH   4   5
ATOM      5  C   UNL     1     -21.125 -11.403  -5.975  1.00  0.00     0.000 C 
BRANCH   5   6
ATOM      6  C   UNL     1     -20.889 -10.650  -4.652  1.00  0.00     0.000 C 
BRANCH   6   7
ATOM      7  C   UNL     1     -19.509  -9.970  -4.602  1.00  0.00     0.000 C 
BRANCH   7   8
ATOM      8  C   UNL     1     -18.368 -10.936  -4.957  1.00  0.00     0.000 C 
BRANCH   8   9
ATOM      9  C   UNL     1     -17.385 -10.334  -5.979  1.00  0.00     0.000 C 
BRANCH   9  10
ATOM     10  C   UNL     1     -17.965  -9.101  -6.704  1.00  0.00     0.000 C 
BRANCH  10  11
ATOM     11  C   UNL     1     -18.492  -9.397  -8.121  1.00  0.00     0.000 C 
BRANCH  11  12
ATOM     12  C   UNL     1     -19.906  -8.866  -8.419  1.00  0.00     0.006 C 
BRANCH  12  13
ATOM     13  C   UNL     1     -19.943  -7.620  -9.320  1.00  0.00     0.053 C 
BRANCH  13  14
ATOM     14  C   UNL     1     -21.325  -7.319  -9.815  1.00  0.00     0.041 C 
ATOM     15  O   UNL     1     -22.235  -8.185  -9.722  1.00  0.00    -0.550 OA
ATOM     16  O   UNL     1     -21.603  -6.087 -10.397  1.00  0.00    -0.550 OA
ENDBRANCH  13  14
ENDBRANCH  12  13
ENDBRANCH  11  12
ENDBRANCH  10  11
ENDBRANCH   9  10
ENDBRANCH   8   9
ENDBRANCH   7   8
ENDBRANCH   6   7
ENDBRANCH   5   6
ENDBRANCH   4   5
ENDBRANCH   3   4
ENDBRANCH   2   3
ENDBRANCH   1   2
BRANCH   1  17
ATOM     17  C   UNL     1     -24.668  -7.976  -3.669  1.00  0.00     0.000 C 
BRANCH  17  18
ATOM     18  C   UNL     1     -25.962  -7.590  -4.406  1.00  0.00     0.000 C 
BRANCH  18  19
ATOM     19  C   UNL     1     -26.315  -6.100  -4.252  1.00  0.00     0.000 C 
BRANCH  19  20
ATOM     20  C   UNL     1     -26.828  -5.411  -5.534  1.00  0.00     0.000 C 
BRANCH  20  21
ATOM     21  C   UNL     1     -26.568  -6.183  -6.843  1.00  0.00     0.000 C 
BRANCH  21  22
ATOM     22  C   UNL     1     -25.463  -5.546  -7.702  1.00  0.00    -0.000 C 
BRANCH  22  23
ATOM     23  C   UNL     1     -24.082  -6.179  -7.457  1.00  0.00    -0.000 C 
BRANCH  23  24
ATOM     24  C   UNL     1     -23.058  -5.242  -6.790  1.00  0.00    -0.000 C 
BRANCH  24  25
ATOM     25  C   UNL     1     -22.548  -5.758  -5.425  1.00  0.00    -0.000 C 
BRANCH  25  26
ATOM     26  C   UNL     1     -22.830  -4.761  -4.288  1.00  0.00    -0.000 C 
BRANCH  26  27
ATOM     27  C   UNL     1     -23.161  -3.347  -4.812  1.00  0.00    -0.000 C 
BRANCH  27  28
ATOM     28  C   UNL     1     -24.593  -2.888  -4.491  1.00  0.00    -0.000 C 
BRANCH  28  29
ATOM     29  C   UNL     1     -24.644  -1.781  -3.428  1.00  0.00    -0.003 C 
ATOM     30  C   UNL     1     -25.491  -2.205  -2.232  1.00  0.00     0.004 C 
ENDBRANCH  28  29
ENDBRANCH  27  28
ENDBRANCH  26  27
ENDBRANCH  25  26
ENDBRANCH  24  25
ENDBRANCH  23  24
ENDBRANCH  22  23
ENDBRANCH  21  22
ENDBRANCH  20  21
ENDBRANCH  19  20
ENDBRANCH  18  19
ENDBRANCH  17  18
ENDBRANCH   1  17
TORSDOF 26
ENDMDL
MODEL 3
REMARK VINA RESULT:    -3.833      1.558      4.076
REMARK INTER + INTRA:         -15.107
REMARK INTER:                  -9.350
REMARK INTRA:                  -5.757
REMARK UNBOUND:                -5.449
REMARK SMILES CCCCCCCCCCCCCCCCCCCCCCCCCCCC(=O)[O-]
REMARK SMILES IDX 15 1 16 2 17 3 18 4 19 5 20 6 21 7 22 8 23 9 24 10 25 11
REMARK SMILES IDX 26 12 27 13 28 14 29 15 30 16 14 17 13 18 12 19 11 20 10 21
REMARK SMILES IDX 9 22 8 23 7 24 6 25 5 26 4 27 3 28 2 29 1 30
REMARK H PARENT
REMARK Flexibility Score: inf
ROOT
ATOM      1  C   UNL     1     -22.774  -7.886  -2.936  1.00  0.00     0.000 C 
ENDROOT
BRANCH   1   2
ATOM      2  C   UNL     1     -24.104  -8.201  -3.649  1.00  0.00     0.000 C 
BRANCH   2   3
ATOM      3  C   UNL     1     -25.284  -7.428  -3.032  1.00  0.00     0.000 C 
BRANCH   3   4
ATOM      4  C   UNL     1     -24.967  -5.932  -2.845  1.00  0.00     0.000 C 
BRANCH   4   5
ATOM      5  C   UNL     1     -26.006  -4.999  -3.502  1.00  0.00     0.000 C 
BRANCH   5   6
ATOM      6  C   UNL     1     -26.996  -5.728  -4.431  1.00  0.00     0.000 C 
BRANCH   6   7
ATOM      7  C   UNL     1     -26.770  -5.384  -5.914  1.00  0.00     0.000 C 
BRANCH   7   8
ATOM      8  C   UNL     1     -26.138  -6.547  -6.695  1.00  0.00     0.000 C 
BRANCH   8   9
ATOM      9  C   UNL     1     -24.616  -6.383  -6.864  1.00  0.00     0.000 C 
BRANCH   9  10
ATOM     10  C   UNL     1     -24.183  -4.902  -6.932  1.00  0.00     0.000 C 
BRANCH  10  11
ATOM     11  C   UNL     1     -23.265  -4.464  -5.775  1.00  0.00     0.000 C 
BRANCH  11  12
ATOM     12  C   UNL     1     -23.246  -2.950  -5.491  1.00  0.00     0.006 C 
BRANCH  12  13
ATOM     13  C   UNL     1     -24.367  -2.158  -6.183  1.00  0.00     0.053 C 
BRANCH  13  14
ATOM     14  C   UNL     1     -25.418  -1.700  -5.216  1.00  0.00     0.041 C 
ATOM     15  O   UNL     1     -26.625  -2.011  -5.396  1.00  0.00    -0.550 OA
ATOM     16  O   UNL     1     -25.064  -0.911  -4.127  1.00  0.00    -0.550 OA
ENDBRANCH  13  14
ENDBRANCH  12  13
ENDBRANCH  11  12
ENDBRANCH  10  11
ENDBRANCH   9  10
ENDBRANCH   8   9
ENDBRANCH   7   8
ENDBRANCH   6   7
ENDBRANCH   5   6
ENDBRANCH   4   5
ENDBRANCH   3   4
ENDBRANCH   2   3
ENDBRANCH   1   2
BRANCH   1  17
ATOM     17  C   UNL     1     -21.659  -7.453  -3.905  1.00  0.00     0.000 C 
BRANCH  17  18
ATOM     18  C   UNL     1     -20.259  -7.721  -3.324  1.00  0.00     0.000 C 
BRANCH  18  19
ATOM     19  C   UNL     1     -19.502  -8.831  -4.075  1.00  0.00     0.000 C 
BRANCH  19  20
ATOM     20  C   UNL     1     -20.254 -10.174  -4.191  1.00  0.00     0.000 C 
BRANCH  20  21
ATOM     21  C   UNL     1     -19.965 -10.979  -5.473  1.00  0.00     0.000 C 
BRANCH  21  22
ATOM     22  C   UNL     1     -21.244 -11.437  -6.193  1.00  0.00    -0.000 C 
BRANCH  22  23
ATOM     23  C   UNL     1     -22.486 -10.636  -5.761  1.00  0.00    -0.000 C 
BRANCH  23  24
ATOM     24  C   UNL     1     -23.051  -9.700  -6.844  1.00  0.00    -0.000 C 
BRANCH  24  25
ATOM     25  C   UNL     1     -22.395  -9.893  -8.230  1.00  0.00    -0.000 C 
BRANCH  25  26
ATOM     26  C   UNL     1     -21.563  -8.668  -8.651  1.00  0.00    -0.000 C 
BRANCH  26  27
ATOM     27  C   UNL     1     -21.353  -7.672  -7.491  1.00  0.00    -0.000 C 
BRANCH  27  28
ATOM     28  C   UNL     1     -19.883  -7.272  -7.278  1.00  0.00    -0.000 C 
BRANCH  28  29
ATOM     29  C   UNL     1     -18.895  -8.361  -7.719  1.00  0.00    -0.003 C 
ATOM     30  C   UNL     1     -17.644  -7.750  -8.342  1.00  0.00     0.004 C 
ENDBRANCH  28  29
ENDBRANCH  27  28
ENDBRANCH  26  27
ENDBRANCH  25  26
ENDBRANCH  24  25
ENDBRANCH  23  24
ENDBRANCH  22  23
ENDBRANCH  21  22
ENDBRANCH  20  21
ENDBRANCH  19  20
ENDBRANCH  18  19
ENDBRANCH  17  18
ENDBRANCH   1  17
TORSDOF 26
ENDMDL
MODEL 4
REMARK VINA RESULT:    -3.829      1.699      3.526
REMARK INTER + INTRA:         -15.098
REMARK INTER:                 -10.238
REMARK INTRA:                  -4.859
REMARK UNBOUND:                -5.449
REMARK SMILES CCCCCCCCCCCCCCCCCCCCCCCCCCCC(=O)[O-]
REMARK SMILES IDX 15 1 16 2 17 3 18 4 19 5 20 6 21 7 22 8 23 9 24 10 25 11
REMARK SMILES IDX 26 12 27 13 28 14 29 15 30 16 14 17 13 18 12 19 11 20 10 21
REMARK SMILES IDX 9 22 8 23 7 24 6 25 5 26 4 27 3 28 2 29 1 30
REMARK H PARENT
REMARK Flexibility Score: inf
ROOT
ATOM      1  C   UNL     1     -24.304  -9.167  -4.403  1.00  0.00     0.000 C 
ENDROOT
BRANCH   1   2
ATOM      2  C   UNL     1     -25.276  -8.049  -4.827  1.00  0.00     0.000 C 
BRANCH   2   3
ATOM      3  C   UNL     1     -25.644  -7.129  -3.650  1.00  0.00     0.000 C 
BRANCH   3   4
ATOM      4  C   UNL     1     -26.321  -5.825  -4.117  1.00  0.00     0.000 C 
BRANCH   4   5
ATOM      5  C   UNL     1     -26.609  -5.794  -5.632  1.00  0.00     0.000 C 
BRANCH   5   6
ATOM      6  C   UNL     1     -25.684  -4.844  -6.420  1.00  0.00     0.000 C 
BRANCH   6   7
ATOM      7  C   UNL     1     -24.406  -4.490  -5.640  1.00  0.00     0.000 C 
BRANCH   7   8
ATOM      8  C   UNL     1     -24.254  -2.976  -5.422  1.00  0.00     0.000 C 
BRANCH   8   9
ATOM      9  C   UNL     1     -25.565  -2.210  -5.685  1.00  0.00     0.000 C 
BRANCH   9  10
ATOM     10  C   UNL     1     -26.045  -1.418  -4.450  1.00  0.00     0.000 C 
BRANCH  10  11
ATOM     11  C   UNL     1     -25.177  -1.627  -3.195  1.00  0.00     0.000 C 
BRANCH  11  12
ATOM     12  C   UNL     1     -25.776  -2.569  -2.133  1.00  0.00     0.006 C 
BRANCH  12  13
ATOM     13  C   UNL     1     -24.737  -3.388  -1.350  1.00  0.00     0.053 C 
BRANCH  13  14
ATOM     14  C   UNL     1     -24.314  -2.705  -0.084  1.00  0.00     0.041 C 
ATOM     15  O   UNL     1     -25.010  -1.772   0.397  1.00  0.00    -0.550 OA
ATOM     16  O   UNL     1     -23.140  -3.088   0.555  1.00  0.00    -0.550 OA
ENDBRANCH  13  14
ENDBRANCH  12  13
ENDBRANCH  11  12
ENDBRANCH  10  11
ENDBRANCH   9  10
ENDBRANCH   8   9
ENDBRANCH   7   8
ENDBRANCH   6   7
ENDBRANCH   5   6
ENDBRANCH   4   5
ENDBRANCH   3   4
ENDBRANCH   2   3
ENDBRANCH   1   2
BRANCH   1  17
ATOM     17  C   UNL     1     -23.017  -8.631  -3.748  1.00  0.00     0.000 C 
BRANCH  17  18
ATOM     18  C   UNL     1     -22.035  -9.764  -3.403  1.00  0.00     0.000 C 
BRANCH  18  19
ATOM     19  C   UNL     1     -22.243 -11.019  -4.269  1.00  0.00     0.000 C 
BRANCH  19  20
ATOM     20  C   UNL     1     -21.396 -11.074  -5.558  1.00  0.00     0.000 C 
BRANCH  20  21
ATOM     21  C   UNL     1     -22.197 -11.007  -6.873  1.00  0.00     0.000 C 
BRANCH  21  22
ATOM     22  C   UNL     1     -21.814  -9.799  -7.745  1.00  0.00    -0.000 C 
BRANCH  22  23
ATOM     23  C   UNL     1     -22.839  -8.654  -7.654  1.00  0.00    -0.000 C 
BRANCH  23  24
ATOM     24  C   UNL     1     -22.252  -7.307  -7.196  1.00  0.00    -0.000 C 
BRANCH  24  25
ATOM     25  C   UNL     1     -20.791  -7.407  -6.699  1.00  0.00    -0.000 C 
BRANCH  25  26
ATOM     26  C   UNL     1     -20.574  -6.638  -5.384  1.00  0.00    -0.000 C 
BRANCH  26  27
ATOM     27  C   UNL     1     -19.537  -7.321  -4.467  1.00  0.00    -0.000 C 
BRANCH  27  28
ATOM     28  C   UNL     1     -18.582  -8.270  -5.211  1.00  0.00    -0.000 C 
BRANCH  28  29
ATOM     29  C   UNL     1     -18.224  -9.520  -4.397  1.00  0.00    -0.003 C 
ATOM     30  C   UNL     1     -17.754 -10.652  -5.305  1.00  0.00     0.004 C 
ENDBRANCH  28  29
ENDBRANCH  27  28
ENDBRANCH  26  27
ENDBRANCH  25  26
ENDBRANCH  24  25
ENDBRANCH  23  24
ENDBRANCH  22  23
ENDBRANCH  21  22
ENDBRANCH  20  21
ENDBRANCH  19  20
ENDBRANCH  18  19
ENDBRANCH  17  18
ENDBRANCH   1  17
TORSDOF 26
ENDMDL
MODEL 5
REMARK VINA RESULT:    -3.828      3.463      7.769
REMARK INTER + INTRA:         -15.096
REMARK INTER:                 -10.166
REMARK INTRA:                  -4.930
REMARK UNBOUND:                -5.449
REMARK SMILES CCCCCCCCCCCCCCCCCCCCCCCCCCCC(=O)[O-]
REMARK SMILES IDX 15 1 16 2 17 3 18 4 19 5 20 6 21 7 22 8 23 9 24 10 25 11
REMARK SMILES IDX 26 12 27 13 28 14 29 15 30 16 14 17 13 18 12 19 11 20 10 21
REMARK SMILES IDX 9 22 8 23 7 24 6 25 5 26 4 27 3 28 2 29 1 30
REMARK H PARENT
REMARK Flexibility Score: inf
ROOT
ATOM      1  C   UNL     1     -22.488  -7.185  -4.963  1.00  0.00     0.000 C 
ENDROOT
BRANCH   1   2
ATOM      2  C   UNL     1     -22.525  -7.064  -6.499  1.00  0.00     0.000 C 
BRANCH   2   3
ATOM      3  C   UNL     1     -23.185  -8.290  -7.156  1.00  0.00     0.000 C 
BRANCH   3   4
ATOM      4  C   UNL     1     -22.298  -8.914  -8.251  1.00  0.00     0.000 C 
BRANCH   4   5
ATOM      5  C   UNL     1     -21.564 -10.190  -7.792  1.00  0.00     0.000 C 
BRANCH   5   6
ATOM      6  C   UNL     1     -22.319 -10.984  -6.707  1.00  0.00     0.000 C 
BRANCH   6   7
ATOM      7  C   UNL     1     -21.370 -11.596  -5.661  1.00  0.00     0.000 C 
BRANCH   7   8
ATOM      8  C   UNL     1     -20.011 -10.880  -5.615  1.00  0.00     0.000 C 
BRANCH   8   9
ATOM      9  C   UNL     1     -19.813 -10.078  -4.314  1.00  0.00     0.000 C 
BRANCH   9  10
ATOM     10  C   UNL     1     -19.157  -8.703  -4.559  1.00  0.00     0.000 C 
BRANCH  10  11
ATOM     11  C   UNL     1     -19.078  -8.302  -6.045  1.00  0.00     0.000 C 
BRANCH  11  12
ATOM     12  C   UNL     1     -17.652  -8.168  -6.612  1.00  0.00     0.006 C 
BRANCH  12  13
ATOM     13  C   UNL     1     -17.577  -7.516  -8.002  1.00  0.00     0.053 C 
BRANCH  13  14
ATOM     14  C   UNL     1     -18.210  -8.368  -9.062  1.00  0.00     0.041 C 
ATOM     15  O   UNL     1     -17.719  -9.491  -9.350  1.00  0.00    -0.550 OA
ATOM     16  O   UNL     1     -19.332  -7.910  -9.744  1.00  0.00    -0.550 OA
ENDBRANCH  13  14
ENDBRANCH  12  13
ENDBRANCH  11  12
ENDBRANCH  10  11
ENDBRANCH   9  10
ENDBRANCH   8   9
ENDBRANCH   7   8
ENDBRANCH   6   7
ENDBRANCH   5   6
ENDBRANCH   4   5
ENDBRANCH   3   4
ENDBRANCH   2   3
ENDBRANCH   1   2
BRANCH   1  17
ATOM     17  C   UNL     1     -23.225  -8.430  -4.437  1.00  0.00     0.000 C 
BRANCH  17  18
ATOM     18  C   UNL     1     -24.474  -8.055  -3.621  1.00  0.00     0.000 C 
BRANCH  18  19
ATOM     19  C   UNL     1     -25.617  -7.506  -4.494  1.00  0.00     0.000 C 
BRANCH  19  20
ATOM     20  C   UNL     1     -26.395  -6.320  -3.886  1.00  0.00     0.000 C 
BRANCH  20  21
ATOM     21  C   UNL     1     -26.671  -5.152  -4.853  1.00  0.00     0.000 C 
BRANCH  21  22
ATOM     22  C   UNL     1     -25.469  -4.825  -5.754  1.00  0.00    -0.000 C 
BRANCH  22  23
ATOM     23  C   UNL     1     -25.092  -3.333  -5.720  1.00  0.00    -0.000 C 
BRANCH  23  24
ATOM     24  C   UNL     1     -26.292  -2.372  -5.640  1.00  0.00    -0.000 C 
BRANCH  24  25
ATOM     25  C   UNL     1     -26.136  -1.279  -4.559  1.00  0.00    -0.000 C 
BRANCH  25  26
ATOM     26  C   UNL     1     -25.051  -1.637  -3.527  1.00  0.00    -0.000 C 
BRANCH  26  27
ATOM     27  C   UNL     1     -25.628  -2.364  -2.294  1.00  0.00    -0.000 C 
BRANCH  27  28
ATOM     28  C   UNL     1     -24.555  -2.986  -1.384  1.00  0.00    -0.000 C 
BRANCH  28  29
ATOM     29  C   UNL     1     -24.200  -4.427  -1.773  1.00  0.00    -0.003 C 
ATOM     30  C   UNL     1     -22.904  -4.477  -2.577  1.00  0.00     0.004 C 
ENDBRANCH  28  29
ENDBRANCH  27  28
ENDBRANCH  26  27
ENDBRANCH  25  26
ENDBRANCH  24  25
ENDBRANCH  23  24
ENDBRANCH  22  23
ENDBRANCH  21  22
ENDBRANCH  20  21
ENDBRANCH  19  20
ENDBRANCH  18  19
ENDBRANCH  17  18
ENDBRANCH   1  17
TORSDOF 26
ENDMDL
MODEL 6
REMARK VINA RESULT:    -3.812      3.609      7.618
REMARK INTER + INTRA:         -15.055
REMARK INTER:                 -10.210
REMARK INTRA:                  -4.845
REMARK UNBOUND:                -5.449
REMARK SMILES CCCCCCCCCCCCCCCCCCCCCCCCCCCC(=O)[O-]
REMARK SMILES IDX 15 1 16 2 17 3 18 4 19 5 20 6 21 7 22 8 23 9 24 10 25 11
REMARK SMILES IDX 26 12 27 13 28 14 29 15 30 16 14 17 13 18 12 19 11 20 10 21
REMARK SMILES IDX 9 22 8 23 7 24 6 25 5 26 4 27 3 28 2 29 1 30
REMARK H PARENT
REMARK Flexibility Score: inf
ROOT
ATOM      1  C   UNL     1     -19.145  -9.050  -4.429  1.00  0.00     0.000 C 
ENDROOT
BRANCH   1   2
ATOM      2  C   UNL     1     -19.375 -10.519  -4.836  1.00  0.00     0.000 C 
BRANCH   2   3
ATOM      3  C   UNL     1     -20.271 -10.637  -6.082  1.00  0.00     0.000 C 
BRANCH   3   4
ATOM      4  C   UNL     1     -21.549 -11.452  -5.806  1.00  0.00     0.000 C 
BRANCH   4   5
ATOM      5  C   UNL     1     -22.180 -11.155  -4.430  1.00  0.00     0.000 C 
BRANCH   5   6
ATOM      6  C   UNL     1     -23.368 -10.175  -4.491  1.00  0.00     0.000 C 
BRANCH   6   7
ATOM      7  C   UNL     1     -23.815  -9.884  -5.934  1.00  0.00     0.000 C 
BRANCH   7   8
ATOM      8  C   UNL     1     -24.012  -8.382  -6.193  1.00  0.00     0.000 C 
BRANCH   8   9
ATOM      9  C   UNL     1     -22.993  -7.820  -7.203  1.00  0.00     0.000 C 
BRANCH   9  10
ATOM     10  C   UNL     1     -22.569  -8.863  -8.259  1.00  0.00     0.000 C 
BRANCH  10  11
ATOM     11  C   UNL     1     -21.597  -8.319  -9.322  1.00  0.00     0.000 C 
BRANCH  11  12
ATOM     12  C   UNL     1     -20.238  -7.834  -8.781  1.00  0.00     0.006 C 
BRANCH  12  13
ATOM     13  C   UNL     1     -19.130  -7.730  -9.842  1.00  0.00     0.053 C 
BRANCH  13  14
ATOM     14  C   UNL     1     -18.015  -8.701  -9.594  1.00  0.00     0.041 C 
ATOM     15  O   UNL     1     -18.094  -9.530  -8.648  1.00  0.00    -0.550 OA
ATOM     16  O   UNL     1     -16.879  -8.677 -10.396  1.00  0.00    -0.550 OA
ENDBRANCH  13  14
ENDBRANCH  12  13
ENDBRANCH  11  12
ENDBRANCH  10  11
ENDBRANCH   9  10
ENDBRANCH   8   9
ENDBRANCH   7   8
ENDBRANCH   6   7
ENDBRANCH   5   6
ENDBRANCH   4   5
ENDBRANCH   3   4
ENDBRANCH   2   3
ENDBRANCH   1   2
BRANCH   1  17
ATOM     17  C   UNL     1     -19.981  -8.057  -5.256  1.00  0.00     0.000 C 
BRANCH  17  18
ATOM     18  C   UNL     1     -20.571  -6.936  -4.382  1.00  0.00     0.000 C 
BRANCH  18  19
ATOM     19  C   UNL     1     -21.416  -7.472  -3.213  1.00  0.00     0.000 C 
BRANCH  19  20
ATOM     20  C   UNL     1     -22.779  -6.777  -3.017  1.00  0.00     0.000 C 
BRANCH  20  21
ATOM     21  C   UNL     1     -23.832  -7.599  -2.248  1.00  0.00     0.000 C 
BRANCH  21  22
ATOM     22  C   UNL     1     -25.270  -7.311  -2.710  1.00  0.00    -0.000 C 
BRANCH  22  23
ATOM     23  C   UNL     1     -25.372  -6.039  -3.570  1.00  0.00    -0.000 C 
BRANCH  23  24
ATOM     24  C   UNL     1     -26.770  -5.774  -4.156  1.00  0.00    -0.000 C 
BRANCH  24  25
ATOM     25  C   UNL     1     -26.738  -5.108  -5.551  1.00  0.00    -0.000 C 
BRANCH  25  26
ATOM     26  C   UNL     1     -25.618  -4.059  -5.665  1.00  0.00    -0.000 C 
BRANCH  26  27
ATOM     27  C   UNL     1     -26.159  -2.613  -5.627  1.00  0.00    -0.000 C 
BRANCH  27  28
ATOM     28  C   UNL     1     -25.500  -1.735  -4.549  1.00  0.00    -0.000 C 
BRANCH  28  29
ATOM     29  C   UNL     1     -25.657  -2.306  -3.133  1.00  0.00    -0.003 C 
ATOM     30  C   UNL     1     -24.299  -2.617  -2.512  1.00  0.00     0.004 C 
ENDBRANCH  28  29
ENDBRANCH  27  28
ENDBRANCH  26  27
ENDBRANCH  25  26
ENDBRANCH  24  25
ENDBRANCH  23  24
ENDBRANCH  22  23
ENDBRANCH  21  22
ENDBRANCH  20  21
ENDBRANCH  19  20
ENDBRANCH  18  19
ENDBRANCH  17  18
ENDBRANCH   1  17
TORSDOF 26
ENDMDL
MODEL 7
REMARK VINA RESULT:    -3.797      3.040      7.231
REMARK INTER + INTRA:         -15.017
REMARK INTER:                 -10.125
REMARK INTRA:                  -4.893
REMARK UNBOUND:                -5.449
REMARK SMILES CCCCCCCCCCCCCCCCCCCCCCCCCCCC(=O)[O-]
REMARK SMILES IDX 15 1 16 2 17 3 18 4 19 5 20 6 21 7 22 8 23 9 24 10 25 11
REMARK SMILES IDX 26 12 27 13 28 14 29 15 30 16 14 17 13 18 12 19 11 20 10 21
REMARK SMILES IDX 9 22 8 23 7 24 6 25 5 26 4 27 3 28 2 29 1 30
REMARK H PARENT
REMARK Flexibility Score: inf
ROOT
ATOM      1  C   UNL     1     -26.715  -5.574  -4.155  1.00  0.00     0.000 C 
ENDROOT
BRANCH   1   2
ATOM      2  C   UNL     1     -26.805  -5.327  -5.673  1.00  0.00     0.000 C 
BRANCH   2   3
ATOM      3  C   UNL     1     -26.237  -6.507  -6.482  1.00  0.00     0.000 C 
BRANCH   3   4
ATOM      4  C   UNL     1     -24.879  -6.170  -7.130  1.00  0.00     0.000 C 
BRANCH   4   5
ATOM      5  C   UNL     1     -23.886  -7.351  -7.119  1.00  0.00     0.000 C 
BRANCH   5   6
ATOM      6  C   UNL     1     -24.514  -8.686  -6.671  1.00  0.00     0.000 C 
BRANCH   6   7
ATOM      7  C   UNL     1     -23.454  -9.719  -6.248  1.00  0.00     0.000 C 
BRANCH   7   8
ATOM      8  C   UNL     1     -23.389  -9.899  -4.723  1.00  0.00     0.000 C 
BRANCH   8   9
ATOM      9  C   UNL     1     -22.354 -10.959  -4.300  1.00  0.00     0.000 C 
BRANCH   9  10
ATOM     10  C   UNL     1     -21.465 -11.421  -5.474  1.00  0.00     0.000 C 
BRANCH  10  11
ATOM     11  C   UNL     1     -20.009 -10.925  -5.391  1.00  0.00     0.000 C 
BRANCH  11  12
ATOM     12  C   UNL     1     -19.652  -9.777  -6.354  1.00  0.00     0.006 C 
BRANCH  12  13
ATOM     13  C   UNL     1     -20.264  -9.909  -7.758  1.00  0.00     0.053 C 
BRANCH  13  14
ATOM     14  C   UNL     1     -20.326  -8.594  -8.475  1.00  0.00     0.041 C 
ATOM     15  O   UNL     1     -19.472  -7.699  -8.234  1.00  0.00    -0.550 OA
ATOM     16  O   UNL     1     -21.340  -8.350  -9.394  1.00  0.00    -0.550 OA
ENDBRANCH  13  14
ENDBRANCH  12  13
ENDBRANCH  11  12
ENDBRANCH  10  11
ENDBRANCH   9  10
ENDBRANCH   8   9
ENDBRANCH   7   8
ENDBRANCH   6   7
ENDBRANCH   5   6
ENDBRANCH   4   5
ENDBRANCH   3   4
ENDBRANCH   2   3
ENDBRANCH   1   2
BRANCH   1  17
ATOM     17  C   UNL     1     -25.999  -6.889  -3.798  1.00  0.00     0.000 C 
BRANCH  17  18
ATOM     18  C   UNL     1     -24.785  -6.651  -2.884  1.00  0.00     0.000 C 
BRANCH  18  19
ATOM     19  C   UNL     1     -23.503  -6.315  -3.667  1.00  0.00     0.000 C 
BRANCH  19  20
ATOM     20  C   UNL     1     -23.115  -4.821  -3.679  1.00  0.00     0.000 C 
BRANCH  20  21
ATOM     21  C   UNL     1     -22.478  -4.319  -4.990  1.00  0.00     0.000 C 
BRANCH  21  22
ATOM     22  C   UNL     1     -22.886  -2.878  -5.339  1.00  0.00    -0.000 C 
BRANCH  22  23
ATOM     23  C   UNL     1     -24.353  -2.771  -5.790  1.00  0.00    -0.000 C 
BRANCH  23  24
ATOM     24  C   UNL     1     -25.044  -1.448  -5.410  1.00  0.00    -0.000 C 
BRANCH  24  25
ATOM     25  C   UNL     1     -25.930  -1.556  -4.149  1.00  0.00    -0.000 C 
BRANCH  25  26
ATOM     26  C   UNL     1     -25.094  -1.712  -2.866  1.00  0.00    -0.000 C 
BRANCH  26  27
ATOM     27  C   UNL     1     -25.664  -2.788  -1.918  1.00  0.00    -0.000 C 
BRANCH  27  28
ATOM     28  C   UNL     1     -25.247  -2.602  -0.449  1.00  0.00    -0.000 C 
BRANCH  28  29
ATOM     29  C   UNL     1     -23.751  -2.851  -0.214  1.00  0.00    -0.003 C 
ATOM     30  C   UNL     1     -23.452  -4.342  -0.099  1.00  0.00     0.004 C 
ENDBRANCH  28  29
ENDBRANCH  27  28
ENDBRANCH  26  27
ENDBRANCH  25  26
ENDBRANCH  24  25
ENDBRANCH  23  24
ENDBRANCH  22  23
ENDBRANCH  21  22
ENDBRANCH  20  21
ENDBRANCH  19  20
ENDBRANCH  18  19
ENDBRANCH  17  18
ENDBRANCH   1  17
TORSDOF 26
ENDMDL
MODEL 8
REMARK VINA RESULT:    -3.780      3.099      7.408
REMARK INTER + INTRA:         -14.975
REMARK INTER:                  -9.680
REMARK INTRA:                  -5.295
REMARK UNBOUND:                -5.449
REMARK SMILES CCCCCCCCCCCCCCCCCCCCCCCCCCCC(=O)[O-]
REMARK SMILES IDX 15 1 16 2 17 3 18 4 19 5 20 6 21 7 22 8 23 9 24 10 25 11
REMARK SMILES IDX 26 12 27 13 28 14 29 15 30 16 14 17 13 18 12 19 11 20 10 21
REMARK SMILES IDX 9 22 8 23 7 24 6 25 5 26 4 27 3 28 2 29 1 30
REMARK H PARENT
REMARK Flexibility Score: inf
ROOT
ATOM      1  C   UNL     1     -22.064  -5.303  -6.040  1.00  0.00     0.000 C 
ENDROOT
BRANCH   1   2
ATOM      2  C   UNL     1     -23.165  -5.381  -7.115  1.00  0.00     0.000 C 
BRANCH   2   3
ATOM      3  C   UNL     1     -23.358  -6.816  -7.638  1.00  0.00     0.000 C 
BRANCH   3   4
ATOM      4  C   UNL     1     -24.477  -7.565  -6.887  1.00  0.00     0.000 C 
BRANCH   4   5
ATOM      5  C   UNL     1     -24.057  -8.968  -6.404  1.00  0.00     0.000 C 
BRANCH   5   6
ATOM      6  C   UNL     1     -22.660  -9.401  -6.892  1.00  0.00     0.000 C 
BRANCH   6   7
ATOM      7  C   UNL     1     -22.454 -10.924  -6.804  1.00  0.00     0.000 C 
BRANCH   7   8
ATOM      8  C   UNL     1     -21.605 -11.330  -5.589  1.00  0.00     0.000 C 
BRANCH   8   9
ATOM      9  C   UNL     1     -22.310 -11.028  -4.252  1.00  0.00     0.000 C 
BRANCH   9  10
ATOM     10  C   UNL     1     -21.561  -9.970  -3.413  1.00  0.00     0.000 C 
BRANCH  10  11
ATOM     11  C   UNL     1     -20.045  -9.914  -3.683  1.00  0.00     0.000 C 
BRANCH  11  12
ATOM     12  C   UNL     1     -19.497  -8.524  -4.057  1.00  0.00     0.006 C 
BRANCH  12  13
ATOM     13  C   UNL     1     -19.672  -8.147  -5.537  1.00  0.00     0.053 C 
BRANCH  13  14
ATOM     14  C   UNL     1     -18.596  -8.731  -6.402  1.00  0.00     0.041 C 
ATOM     15  O   UNL     1     -18.799  -9.804  -7.031  1.00  0.00    -0.550 OA
ATOM     16  O   UNL     1     -17.360  -8.100  -6.497  1.00  0.00    -0.550 OA
ENDBRANCH  13  14
ENDBRANCH  12  13
ENDBRANCH  11  12
ENDBRANCH  10  11
ENDBRANCH   9  10
ENDBRANCH   8   9
ENDBRANCH   7   8
ENDBRANCH   6   7
ENDBRANCH   5   6
ENDBRANCH   4   5
ENDBRANCH   3   4
ENDBRANCH   2   3
ENDBRANCH   1   2
BRANCH   1  17
ATOM     17  C   UNL     1     -22.622  -5.117  -4.617  1.00  0.00     0.000 C 
BRANCH  17  18
ATOM     18  C   UNL     1     -22.579  -6.425  -3.809  1.00  0.00     0.000 C 
BRANCH  18  19
ATOM     19  C   UNL     1     -23.654  -6.484  -2.709  1.00  0.00     0.000 C 
BRANCH  19  20
ATOM     20  C   UNL     1     -24.661  -7.647  -2.839  1.00  0.00     0.000 C 
BRANCH  20  21
ATOM     21  C   UNL     1     -25.954  -7.313  -3.607  1.00  0.00     0.000 C 
BRANCH  21  22
ATOM     22  C   UNL     1     -26.185  -5.799  -3.759  1.00  0.00    -0.000 C 
BRANCH  22  23
ATOM     23  C   UNL     1     -27.056  -5.453  -4.980  1.00  0.00    -0.000 C 
BRANCH  23  24
ATOM     24  C   UNL     1     -26.364  -4.560  -6.026  1.00  0.00    -0.000 C 
BRANCH  24  25
ATOM     25  C   UNL     1     -26.390  -3.056  -5.667  1.00  0.00    -0.000 C 
BRANCH  25  26
ATOM     26  C   UNL     1     -24.989  -2.423  -5.727  1.00  0.00    -0.000 C 
BRANCH  26  27
ATOM     27  C   UNL     1     -24.789  -1.332  -4.654  1.00  0.00    -0.000 C 
BRANCH  27  28
ATOM     28  C   UNL     1     -25.645  -1.540  -3.394  1.00  0.00    -0.000 C 
BRANCH  28  29
ATOM     29  C   UNL     1     -25.014  -2.521  -2.396  1.00  0.00    -0.003 C 
ATOM     30  C   UNL     1     -25.857  -2.636  -1.129  1.00  0.00     0.004 C 
ENDBRANCH  28  29
ENDBRANCH  27  28
ENDBRANCH  26  27
ENDBRANCH  25  26
ENDBRANCH  24  25
ENDBRANCH  23  24
ENDBRANCH  22  23
ENDBRANCH  21  22
ENDBRANCH  20  21
ENDBRANCH  19  20
ENDBRANCH  18  19
ENDBRANCH  17  18
ENDBRANCH   1  17
TORSDOF 26
ENDMDL
MODEL 9
REMARK VINA RESULT:    -3.763      1.632      3.955
REMARK INTER + INTRA:         -14.931
REMARK INTER:                  -9.310
REMARK INTRA:                  -5.621
REMARK UNBOUND:                -5.449
REMARK SMILES CCCCCCCCCCCCCCCCCCCCCCCCCCCC(=O)[O-]
REMARK SMILES IDX 15 1 16 2 17 3 18 4 19 5 20 6 21 7 22 8 23 9 24 10 25 11
REMARK SMILES IDX 26 12 27 13 28 14 29 15 30 16 14 17 13 18 12 19 11 20 10 21
REMARK SMILES IDX 9 22 8 23 7 24 6 25 5 26 4 27 3 28 2 29 1 30
REMARK H PARENT
REMARK Flexibility Score: inf
ROOT
ATOM      1  C   UNL     1     -22.252  -5.787  -4.690  1.00  0.00     0.000 C 
ENDROOT
BRANCH   1   2
ATOM      2  C   UNL     1     -22.529  -4.836  -3.510  1.00  0.00     0.000 C 
BRANCH   2   3
ATOM      3  C   UNL     1     -23.200  -5.564  -2.331  1.00  0.00     0.000 C 
BRANCH   3   4
ATOM      4  C   UNL     1     -23.727  -6.957  -2.728  1.00  0.00     0.000 C 
BRANCH   4   5
ATOM      5  C   UNL     1     -25.265  -7.028  -2.817  1.00  0.00     0.000 C 
BRANCH   5   6
ATOM      6  C   UNL     1     -25.813  -6.859  -4.248  1.00  0.00     0.000 C 
BRANCH   6   7
ATOM      7  C   UNL     1     -26.940  -5.813  -4.324  1.00  0.00     0.000 C 
BRANCH   7   8
ATOM      8  C   UNL     1     -26.917  -5.025  -5.643  1.00  0.00     0.000 C 
BRANCH   8   9
ATOM      9  C   UNL     1     -25.486  -4.800  -6.169  1.00  0.00     0.000 C 
BRANCH   9  10
ATOM     10  C   UNL     1     -24.949  -3.390  -5.841  1.00  0.00     0.000 C 
BRANCH  10  11
ATOM     11  C   UNL     1     -26.049  -2.358  -5.526  1.00  0.00     0.000 C 
BRANCH  11  12
ATOM     12  C   UNL     1     -25.926  -1.666  -4.156  1.00  0.00     0.006 C 
BRANCH  12  13
ATOM     13  C   UNL     1     -25.518  -2.600  -3.005  1.00  0.00     0.053 C 
BRANCH  13  14
ATOM     14  C   UNL     1     -24.632  -1.917  -2.007  1.00  0.00     0.041 C 
ATOM     15  O   UNL     1     -23.640  -1.243  -2.395  1.00  0.00    -0.550 OA
ATOM     16  O   UNL     1     -24.891  -2.040  -0.646  1.00  0.00    -0.550 OA
ENDBRANCH  13  14
ENDBRANCH  12  13
ENDBRANCH  11  12
ENDBRANCH  10  11
ENDBRANCH   9  10
ENDBRANCH   8   9
ENDBRANCH   7   8
ENDBRANCH   6   7
ENDBRANCH   5   6
ENDBRANCH   4   5
ENDBRANCH   3   4
ENDBRANCH   2   3
ENDBRANCH   1   2
BRANCH   1  17
ATOM     17  C   UNL     1     -21.007  -5.389  -5.506  1.00  0.00     0.000 C 
BRANCH  17  18
ATOM     18  C   UNL     1     -19.784  -6.248  -5.140  1.00  0.00     0.000 C 
BRANCH  18  19
ATOM     19  C   UNL     1     -20.169  -7.622  -4.564  1.00  0.00     0.000 C 
BRANCH  19  20
ATOM     20  C   UNL     1     -19.275  -8.796  -5.017  1.00  0.00     0.000 C 
BRANCH  20  21
ATOM     21  C   UNL     1     -19.677 -10.178  -4.466  1.00  0.00     0.000 C 
BRANCH  21  22
ATOM     22  C   UNL     1     -20.353 -11.068  -5.522  1.00  0.00    -0.000 C 
BRANCH  22  23
ATOM     23  C   UNL     1     -21.826 -11.367  -5.189  1.00  0.00    -0.000 C 
BRANCH  23  24
ATOM     24  C   UNL     1     -22.514 -10.300  -4.319  1.00  0.00    -0.000 C 
BRANCH  24  25
ATOM     25  C   UNL     1     -23.889  -9.851  -4.865  1.00  0.00    -0.000 C 
BRANCH  25  26
ATOM     26  C   UNL     1     -23.862  -9.631  -6.388  1.00  0.00    -0.000 C 
BRANCH  26  27
ATOM     27  C   UNL     1     -23.682  -8.145  -6.765  1.00  0.00    -0.000 C 
BRANCH  27  28
ATOM     28  C   UNL     1     -22.710  -7.918  -7.935  1.00  0.00    -0.000 C 
BRANCH  28  29
ATOM     29  C   UNL     1     -21.886  -9.166  -8.281  1.00  0.00    -0.003 C 
ATOM     30  C   UNL     1     -20.409  -8.821  -8.446  1.00  0.00     0.004 C 
ENDBRANCH  28  29
ENDBRANCH  27  28
ENDBRANCH  26  27
ENDBRANCH  25  26
ENDBRANCH  24  25
ENDBRANCH  23  24
ENDBRANCH  22  23
ENDBRANCH  21  22
ENDBRANCH  20  21
ENDBRANCH  19  20
ENDBRANCH  18  19
ENDBRANCH  17  18
ENDBRANCH   1  17
TORSDOF 26
ENDMDL
