MODEL 1
REMARK VINA RESULT:    -3.435      0.000      0.000
REMARK INTER + INTRA:          -3.874
REMARK INTER:                  -3.837
REMARK INTRA:                  -0.037
REMARK UNBOUND:                -0.037
REMARK SMILES CCCC(=O)[O-]
REMARK SMILES IDX 3 1 4 2 5 3 6 4 2 5 1 6
REMARK H PARENT
REMARK Flexibility Score: inf
ROOT
ATOM      1  C   UNL     1     -28.507 -36.267  39.093  1.00  0.00     0.052 C 
ENDROOT
BRANCH   1   2
ATOM      2  C   UNL     1     -27.342 -35.980  38.198  1.00  0.00     0.041 C 
ATOM      3  O   UNL     1     -27.515 -35.386  37.101  1.00  0.00    -0.550 OA
ATOM      4  O   UNL     1     -26.058 -36.338  38.591  1.00  0.00    -0.550 OA
ENDBRANCH   1   2
BRANCH   1   5
ATOM      5  C   UNL     1     -28.677 -35.187  40.168  1.00  0.00     0.003 C 
ATOM      6  C   UNL     1     -27.958 -35.544  41.469  1.00  0.00     0.004 C 
ENDBRANCH   1   5
TORSDOF 2
ENDMDL
MODEL 2
REMARK VINA RESULT:    -3.221      8.568      8.926
REMARK INTER + INTRA:          -3.634
REMARK INTER:                  -3.621
REMARK INTRA:                  -0.013
REMARK UNBOUND:                -0.037
REMARK SMILES CCCC(=O)[O-]
REMARK SMILES IDX 3 1 4 2 5 3 6 4 2 5 1 6
REMARK H PARENT
REMARK Flexibility Score: inf
ROOT
ATOM      1  C   UNL     1     -22.608 -28.534  39.536  1.00  0.00     0.052 C 
ENDROOT
BRANCH   1   2
ATOM      2  C   UNL     1     -23.966 -29.157  39.649  1.00  0.00     0.041 C 
ATOM      3  O   UNL     1     -24.655 -29.367  38.617  1.00  0.00    -0.550 OA
ATOM      4  O   UNL     1     -24.455 -29.538  40.893  1.00  0.00    -0.550 OA
ENDBRANCH   1   2
BRANCH   1   5
ATOM      5  C   UNL     1     -22.223 -28.275  38.074  1.00  0.00     0.003 C 
ATOM      6  C   UNL     1     -21.152 -27.192  37.939  1.00  0.00     0.004 C 
ENDBRANCH   1   5
TORSDOF 2
ENDMDL
MODEL 3
REMARK VINA RESULT:    -3.033      7.789      8.172
REMARK INTER + INTRA:          -3.425
REMARK INTER:                  -3.356
REMARK INTRA:                  -0.069
REMARK UNBOUND:                -0.037
REMARK SMILES CCCC(=O)[O-]
REMARK SMILES IDX 3 1 4 2 5 3 6 4 2 5 1 6
REMARK H PARENT
REMARK Flexibility Score: inf
ROOT
ATOM      1  C   UNL     1     -23.883 -29.250  40.930  1.00  0.00     0.052 C 
ENDROOT
BRANCH   1   2
ATOM      2  C   UNL     1     -25.127 -29.273  40.096  1.00  0.00     0.041 C 
ATOM      3  O   UNL     1     -25.468 -30.326  39.495  1.00  0.00    -0.550 OA
ATOM      4  O   UNL     1     -25.928 -28.141  40.009  1.00  0.00    -0.550 OA
ENDBRANCH   1   2
BRANCH   1   5
ATOM      5  C   UNL     1     -22.868 -28.227  40.406  1.00  0.00     0.003 C 
ATOM      6  C   UNL     1     -22.502 -28.469  38.942  1.00  0.00     0.004 C 
ENDBRANCH   1   5
TORSDOF 2
ENDMDL
MODEL 4
REMARK VINA RESULT:    -3.033      6.774      7.052
REMARK INTER + INTRA:          -3.425
REMARK INTER:                  -3.385
REMARK INTRA:                  -0.040
REMARK UNBOUND:                -0.037
REMARK SMILES CCCC(=O)[O-]
REMARK SMILES IDX 3 1 4 2 5 3 6 4 2 5 1 6
REMARK H PARENT
REMARK Flexibility Score: inf
ROOT
ATOM      1  C   UNL     1     -25.389 -29.209  40.063  1.00  0.00     0.052 C 
ENDROOT
BRANCH   1   2
ATOM      2  C   UNL     1     -25.279 -30.140  38.895  1.00  0.00     0.041 C 
ATOM      3  O   UNL     1     -25.582 -31.355  39.021  1.00  0.00    -0.550 OA
ATOM      4  O   UNL     1     -24.874 -29.658  37.656  1.00  0.00    -0.550 OA
ENDBRANCH   1   2
BRANCH   1   5
ATOM      5  C   UNL     1     -24.173 -29.317  40.991  1.00  0.00     0.003 C 
ATOM      6  C   UNL     1     -22.907 -28.738  40.360  1.00  0.00     0.004 C 
ENDBRANCH   1   5
TORSDOF 2
ENDMDL
MODEL 5
REMARK VINA RESULT:    -3.025      7.776      8.128
REMARK INTER + INTRA:          -3.415
REMARK INTER:                  -3.343
REMARK INTRA:                  -0.072
REMARK UNBOUND:                -0.037
REMARK SMILES CCCC(=O)[O-]
REMARK SMILES IDX 3 1 4 2 5 3 6 4 2 5 1 6
REMARK H PARENT
REMARK Flexibility Score: inf
ROOT
ATOM      1  C   UNL     1     -23.987 -29.199  40.968  1.00  0.00     0.052 C 
ENDROOT
BRANCH   1   2
ATOM      2  C   UNL     1     -25.235 -29.182  40.141  1.00  0.00     0.041 C 
ATOM      3  O   UNL     1     -25.938 -28.139  40.074  1.00  0.00    -0.550 OA
ATOM      4  O   UNL     1     -25.605 -30.308  39.415  1.00  0.00    -0.550 OA
ENDBRANCH   1   2
BRANCH   1   5
ATOM      5  C   UNL     1     -22.947 -28.200  40.447  1.00  0.00     0.003 C 
ATOM      6  C   UNL     1     -22.539 -28.487  39.002  1.00  0.00     0.004 C 
ENDBRANCH   1   5
TORSDOF 2
ENDMDL
MODEL 6
REMARK VINA RESULT:    -2.970      8.611      8.838
REMARK INTER + INTRA:          -3.354
REMARK INTER:                  -3.300
REMARK INTRA:                  -0.054
REMARK UNBOUND:                -0.037
REMARK SMILES CCCC(=O)[O-]
REMARK SMILES IDX 3 1 4 2 5 3 6 4 2 5 1 6
REMARK H PARENT
REMARK Flexibility Score: inf
ROOT
ATOM      1  C   UNL     1     -22.965 -29.338  40.325  1.00  0.00     0.052 C 
ENDROOT
BRANCH   1   2
ATOM      2  C   UNL     1     -22.395 -28.195  39.543  1.00  0.00     0.041 C 
ATOM      3  O   UNL     1     -22.027 -27.145  40.133  1.00  0.00    -0.550 OA
ATOM      4  O   UNL     1     -22.239 -28.302  38.167  1.00  0.00    -0.550 OA
ENDBRANCH   1   2
BRANCH   1   5
ATOM      5  C   UNL     1     -24.128 -28.891  41.219  1.00  0.00     0.003 C 
ATOM      6  C   UNL     1     -25.438 -28.755  40.444  1.00  0.00     0.004 C 
ENDBRANCH   1   5
TORSDOF 2
ENDMDL
MODEL 7
REMARK VINA RESULT:    -2.859      8.270      8.626
REMARK INTER + INTRA:          -3.230
REMARK INTER:                  -3.220
REMARK INTRA:                  -0.010
REMARK UNBOUND:                -0.037
REMARK SMILES CCCC(=O)[O-]
REMARK SMILES IDX 3 1 4 2 5 3 6 4 2 5 1 6
REMARK H PARENT
REMARK Flexibility Score: inf
ROOT
ATOM      1  C   UNL     1     -24.603 -27.589  41.484  1.00  0.00     0.052 C 
ENDROOT
BRANCH   1   2
ATOM      2  C   UNL     1     -24.119 -28.931  41.026  1.00  0.00     0.041 C 
ATOM      3  O   UNL     1     -24.943 -29.833  40.722  1.00  0.00    -0.550 OA
ATOM      4  O   UNL     1     -22.757 -29.173  40.901  1.00  0.00    -0.550 OA
ENDBRANCH   1   2
BRANCH   1   5
ATOM      5  C   UNL     1     -26.017 -27.290  40.970  1.00  0.00     0.003 C 
ATOM      6  C   UNL     1     -26.555 -25.958  41.491  1.00  0.00     0.004 C 
ENDBRANCH   1   5
TORSDOF 2
ENDMDL
MODEL 8
REMARK VINA RESULT:    -2.844      7.774      8.151
REMARK INTER + INTRA:          -3.214
REMARK INTER:                  -3.157
REMARK INTRA:                  -0.057
REMARK UNBOUND:                -0.037
REMARK SMILES CCCC(=O)[O-]
REMARK SMILES IDX 3 1 4 2 5 3 6 4 2 5 1 6
REMARK H PARENT
REMARK Flexibility Score: inf
ROOT
ATOM      1  C   UNL     1     -25.638 -28.942  40.102  1.00  0.00     0.052 C 
ENDROOT
BRANCH   1   2
ATOM      2  C   UNL     1     -24.504 -28.428  40.934  1.00  0.00     0.041 C 
ATOM      3  O   UNL     1     -24.389 -27.195  41.157  1.00  0.00    -0.550 OA
ATOM      4  O   UNL     1     -23.592 -29.316  41.492  1.00  0.00    -0.550 OA
ENDBRANCH   1   2
BRANCH   1   5
ATOM      5  C   UNL     1     -25.157 -29.934  39.036  1.00  0.00     0.003 C 
ATOM      6  C   UNL     1     -24.541 -29.233  37.826  1.00  0.00     0.004 C 
ENDBRANCH   1   5
TORSDOF 2
ENDMDL
MODEL 9
REMARK VINA RESULT:    -2.810      8.809      9.225
REMARK INTER + INTRA:          -3.176
REMARK INTER:                  -3.137
REMARK INTRA:                  -0.038
REMARK UNBOUND:                -0.037
REMARK SMILES CCCC(=O)[O-]
REMARK SMILES IDX 3 1 4 2 5 3 6 4 2 5 1 6
REMARK H PARENT
REMARK Flexibility Score: inf
ROOT
ATOM      1  C   UNL     1     -25.407 -28.332  40.566  1.00  0.00     0.052 C 
ENDROOT
BRANCH   1   2
ATOM      2  C   UNL     1     -25.698 -27.104  41.371  1.00  0.00     0.041 C 
ATOM      3  O   UNL     1     -24.926 -26.759  42.304  1.00  0.00    -0.550 OA
ATOM      4  O   UNL     1     -26.804 -26.319  41.069  1.00  0.00    -0.550 OA
ENDBRANCH   1   2
BRANCH   1   5
ATOM      5  C   UNL     1     -24.170 -29.074  41.088  1.00  0.00     0.003 C 
ATOM      6  C   UNL     1     -22.967 -28.925  40.157  1.00  0.00     0.004 C 
ENDBRANCH   1   5
TORSDOF 2
ENDMDL
