MODEL 1
REMARK VINA RESULT:    -4.966      0.000      0.000
REMARK INTER + INTRA:          -5.827
REMARK INTER:                  -5.692
REMARK INTRA:                  -0.135
REMARK UNBOUND:                -0.135
REMARK SMILES O=C([O-])C=Cc1ccc(O)cc1
REMARK SMILES IDX 6 1 7 2 12 3 8 4 11 5 9 6 5 7 4 8 2 9 1 10 3 11 10 12
REMARK H PARENT 10 13
REMARK Flexibility Score: inf
ROOT
ATOM      1  C   UNL     1       5.229   7.097   1.050  1.00  0.00    -0.025 A 
ATOM      2  C   UNL     1       6.426   7.542   0.452  1.00  0.00     0.012 A 
ATOM      3  C   UNL     1       4.651   7.875   2.067  1.00  0.00     0.012 A 
ATOM      4  C   UNL     1       7.036   8.725   0.884  1.00  0.00     0.047 A 
ATOM      5  C   UNL     1       5.264   9.055   2.498  1.00  0.00     0.047 A 
ATOM      6  C   UNL     1       6.460   9.482   1.907  1.00  0.00     0.115 A 
ENDROOT
BRANCH   1   7
ATOM      7  C   UNL     1       4.535   5.857   0.621  1.00  0.00     0.010 C 
ATOM      8  C   UNL     1       3.619   5.817  -0.357  1.00  0.00     0.025 C 
BRANCH   8   9
ATOM      9  C   UNL     1       2.959   4.564  -0.763  1.00  0.00     0.064 C 
ATOM     10  O   UNL     1       1.713   4.506  -0.928  1.00  0.00    -0.545 OA
ATOM     11  O   UNL     1       3.728   3.425  -0.968  1.00  0.00    -0.545 OA
ENDBRANCH   8   9
ENDBRANCH   1   7
BRANCH   6  12
ATOM     12  O   UNL     1       7.080  10.656   2.328  1.00  0.00    -0.508 OA
ATOM     13  H   UNL     1       8.032  10.877   2.063  1.00  0.00     0.293 HD
ENDBRANCH   6  12
TORSDOF 3
ENDMDL
MODEL 2
REMARK VINA RESULT:    -4.759      1.958      6.037
REMARK INTER + INTRA:          -5.590
REMARK INTER:                  -5.449
REMARK INTRA:                  -0.140
REMARK UNBOUND:                -0.135
REMARK SMILES O=C([O-])C=Cc1ccc(O)cc1
REMARK SMILES IDX 6 1 7 2 12 3 8 4 11 5 9 6 5 7 4 8 2 9 1 10 3 11 10 12
REMARK H PARENT 10 13
REMARK Flexibility Score: inf
ROOT
ATOM      1  C   UNL     1       4.075   4.664   0.222  1.00  0.00    -0.025 A 
ATOM      2  C   UNL     1       4.710   3.425   0.006  1.00  0.00     0.012 A 
ATOM      3  C   UNL     1       2.984   5.016  -0.591  1.00  0.00     0.012 A 
ATOM      4  C   UNL     1       4.274   2.574  -1.016  1.00  0.00     0.047 A 
ATOM      5  C   UNL     1       2.551   4.165  -1.611  1.00  0.00     0.047 A 
ATOM      6  C   UNL     1       3.197   2.941  -1.827  1.00  0.00     0.115 A 
ENDROOT
BRANCH   1   7
ATOM      7  C   UNL     1       4.490   5.598   1.299  1.00  0.00     0.010 C 
ATOM      8  C   UNL     1       4.857   6.869   1.082  1.00  0.00     0.025 C 
BRANCH   8   9
ATOM      9  C   UNL     1       5.252   7.770   2.179  1.00  0.00     0.064 C 
ATOM     10  O   UNL     1       5.163   9.020   2.061  1.00  0.00    -0.545 OA
ATOM     11  O   UNL     1       5.729   7.229   3.366  1.00  0.00    -0.545 OA
ENDBRANCH   8   9
ENDBRANCH   1   7
BRANCH   6  12
ATOM     12  O   UNL     1       2.776   2.085  -2.841  1.00  0.00    -0.508 OA
ATOM     13  H   UNL     1       3.438   1.570  -3.410  1.00  0.00     0.293 HD
ENDBRANCH   6  12
TORSDOF 3
ENDMDL
MODEL 3
REMARK VINA RESULT:    -4.722      1.960      6.130
REMARK INTER + INTRA:          -5.547
REMARK INTER:                  -5.408
REMARK INTRA:                  -0.140
REMARK UNBOUND:                -0.135
REMARK SMILES O=C([O-])C=Cc1ccc(O)cc1
REMARK SMILES IDX 6 1 7 2 12 3 8 4 11 5 9 6 5 7 4 8 2 9 1 10 3 11 10 12
REMARK H PARENT 10 13
REMARK Flexibility Score: inf
ROOT
ATOM      1  C   UNL     1       4.072   4.656   0.164  1.00  0.00    -0.025 A 
ATOM      2  C   UNL     1       2.968   5.008  -0.639  1.00  0.00     0.012 A 
ATOM      3  C   UNL     1       4.706   3.422  -0.061  1.00  0.00     0.012 A 
ATOM      4  C   UNL     1       2.500   4.131  -1.624  1.00  0.00     0.047 A 
ATOM      5  C   UNL     1       4.236   2.548  -1.045  1.00  0.00     0.047 A 
ATOM      6  C   UNL     1       3.130   2.900  -1.829  1.00  0.00     0.115 A 
ENDROOT
BRANCH   1   7
ATOM      7  C   UNL     1       4.615   5.554   1.213  1.00  0.00     0.010 C 
ATOM      8  C   UNL     1       4.770   6.876   1.056  1.00  0.00     0.025 C 
BRANCH   8   9
ATOM      9  C   UNL     1       5.302   7.738   2.126  1.00  0.00     0.064 C 
ATOM     10  O   UNL     1       5.191   8.990   2.071  1.00  0.00    -0.545 OA
ATOM     11  O   UNL     1       5.937   7.156   3.216  1.00  0.00    -0.545 OA
ENDBRANCH   8   9
ENDBRANCH   1   7
BRANCH   6  12
ATOM     12  O   UNL     1       2.651   2.038  -2.811  1.00  0.00    -0.508 OA
ATOM     13  H   UNL     1       2.778   2.234  -3.797  1.00  0.00     0.293 HD
ENDBRANCH   6  12
TORSDOF 3
ENDMDL
MODEL 4
REMARK VINA RESULT:    -4.687      5.156      7.309
REMARK INTER + INTRA:          -5.508
REMARK INTER:                  -5.367
REMARK INTRA:                  -0.140
REMARK UNBOUND:                -0.135
REMARK SMILES O=C([O-])C=Cc1ccc(O)cc1
REMARK SMILES IDX 6 1 7 2 12 3 8 4 11 5 9 6 5 7 4 8 2 9 1 10 3 11 10 12
REMARK H PARENT 10 13
REMARK Flexibility Score: inf
ROOT
ATOM      1  C   UNL     1       3.893  10.869   4.835  1.00  0.00    -0.025 A 
ATOM      2  C   UNL     1       4.342   9.776   4.067  1.00  0.00     0.012 A 
ATOM      3  C   UNL     1       4.494  12.124   4.643  1.00  0.00     0.012 A 
ATOM      4  C   UNL     1       5.384   9.938   3.148  1.00  0.00     0.047 A 
ATOM      5  C   UNL     1       5.535  12.282   3.724  1.00  0.00     0.047 A 
ATOM      6  C   UNL     1       5.985  11.187   2.975  1.00  0.00     0.115 A 
ENDROOT
BRANCH   1   7
ATOM      7  C   UNL     1       2.783  10.754   5.815  1.00  0.00     0.010 C 
ATOM      8  C   UNL     1       2.910  11.034   7.120  1.00  0.00     0.025 C 
BRANCH   8   9
ATOM      9  C   UNL     1       1.782  10.920   8.060  1.00  0.00     0.064 C 
ATOM     10  O   UNL     1       0.610  11.221   7.713  1.00  0.00    -0.545 OA
ATOM     11  O   UNL     1       2.016  10.471   9.353  1.00  0.00    -0.545 OA
ENDBRANCH   8   9
ENDBRANCH   1   7
BRANCH   6  12
ATOM     12  O   UNL     1       7.022  11.332   2.058  1.00  0.00    -0.508 OA
ATOM     13  H   UNL     1       6.843  11.430   1.065  1.00  0.00     0.293 HD
ENDBRANCH   6  12
TORSDOF 3
ENDMDL
MODEL 5
REMARK VINA RESULT:    -4.545      3.839      5.737
REMARK INTER + INTRA:          -5.345
REMARK INTER:                  -5.194
REMARK INTRA:                  -0.151
REMARK UNBOUND:                -0.135
REMARK SMILES O=C([O-])C=Cc1ccc(O)cc1
REMARK SMILES IDX 6 1 7 2 12 3 8 4 11 5 9 6 5 7 4 8 2 9 1 10 3 11 10 12
REMARK H PARENT 10 13
REMARK Flexibility Score: inf
ROOT
ATOM      1  C   UNL     1       4.148  10.348   4.268  1.00  0.00    -0.025 A 
ATOM      2  C   UNL     1       4.002  11.689   4.674  1.00  0.00     0.012 A 
ATOM      3  C   UNL     1       3.235   9.392   4.745  1.00  0.00     0.012 A 
ATOM      4  C   UNL     1       2.979  12.055   5.556  1.00  0.00     0.047 A 
ATOM      5  C   UNL     1       2.215   9.760   5.627  1.00  0.00     0.047 A 
ATOM      6  C   UNL     1       2.085  11.094   6.036  1.00  0.00     0.115 A 
ENDROOT
BRANCH   1   7
ATOM      7  C   UNL     1       5.208   9.909   3.325  1.00  0.00     0.010 C 
ATOM      8  C   UNL     1       5.094   8.842   2.521  1.00  0.00     0.025 C 
BRANCH   8   9
ATOM      9  C   UNL     1       6.164   8.445   1.589  1.00  0.00     0.064 C 
ATOM     10  O   UNL     1       7.123   9.218   1.329  1.00  0.00    -0.545 OA
ATOM     11  O   UNL     1       6.113   7.194   0.988  1.00  0.00    -0.545 OA
ENDBRANCH   8   9
ENDBRANCH   1   7
BRANCH   6  12
ATOM     12  O   UNL     1       1.074  11.472   6.915  1.00  0.00    -0.508 OA
ATOM     13  H   UNL     1       1.267  11.679   7.888  1.00  0.00     0.293 HD
ENDBRANCH   6  12
TORSDOF 3
ENDMDL
MODEL 6
REMARK VINA RESULT:    -4.425      3.374      5.619
REMARK INTER + INTRA:          -5.207
REMARK INTER:                  -5.055
REMARK INTRA:                  -0.152
REMARK UNBOUND:                -0.135
REMARK SMILES O=C([O-])C=Cc1ccc(O)cc1
REMARK SMILES IDX 6 1 7 2 12 3 8 4 11 5 9 6 5 7 4 8 2 9 1 10 3 11 10 12
REMARK H PARENT 10 13
REMARK Flexibility Score: inf
ROOT
ATOM      1  C   UNL     1       5.018   8.775   2.859  1.00  0.00    -0.025 A 
ATOM      2  C   UNL     1       4.867   7.666   2.002  1.00  0.00     0.012 A 
ATOM      3  C   UNL     1       6.091   9.656   2.643  1.00  0.00     0.012 A 
ATOM      4  C   UNL     1       5.785   7.437   0.972  1.00  0.00     0.047 A 
ATOM      5  C   UNL     1       7.008   9.423   1.614  1.00  0.00     0.047 A 
ATOM      6  C   UNL     1       6.858   8.311   0.776  1.00  0.00     0.115 A 
ENDROOT
BRANCH   1   7
ATOM      7  C   UNL     1       4.065   9.070   3.959  1.00  0.00     0.010 C 
ATOM      8  C   UNL     1       4.031  10.235   4.621  1.00  0.00     0.025 C 
BRANCH   8   9
ATOM      9  C   UNL     1       3.062  10.496   5.700  1.00  0.00     0.064 C 
ATOM     10  O   UNL     1       3.356  11.234   6.676  1.00  0.00    -0.545 OA
ATOM     11  O   UNL     1       1.801   9.917   5.638  1.00  0.00    -0.545 OA
ENDBRANCH   8   9
ENDBRANCH   1   7
BRANCH   6  12
ATOM     12  O   UNL     1       7.765   8.069  -0.252  1.00  0.00    -0.508 OA
ATOM     13  H   UNL     1       8.322   7.223  -0.280  1.00  0.00     0.293 HD
ENDBRANCH   6  12
TORSDOF 3
ENDMDL
MODEL 7
REMARK VINA RESULT:    -4.408      2.597      3.867
REMARK INTER + INTRA:          -5.188
REMARK INTER:                  -5.053
REMARK INTRA:                  -0.135
REMARK UNBOUND:                -0.135
REMARK SMILES O=C([O-])C=Cc1ccc(O)cc1
REMARK SMILES IDX 6 1 7 2 12 3 8 4 11 5 9 6 5 7 4 8 2 9 1 10 3 11 10 12
REMARK H PARENT 10 13
REMARK Flexibility Score: inf
ROOT
ATOM      1  C   UNL     1       4.163   4.135  -0.121  1.00  0.00    -0.025 A 
ATOM      2  C   UNL     1       5.082   4.326   0.930  1.00  0.00     0.012 A 
ATOM      3  C   UNL     1       3.570   5.262  -0.716  1.00  0.00     0.012 A 
ATOM      4  C   UNL     1       5.377   5.615   1.386  1.00  0.00     0.047 A 
ATOM      5  C   UNL     1       3.866   6.548  -0.257  1.00  0.00     0.047 A 
ATOM      6  C   UNL     1       4.771   6.728   0.798  1.00  0.00     0.115 A 
ENDROOT
BRANCH   1   7
ATOM      7  C   UNL     1       3.823   2.790  -0.651  1.00  0.00     0.010 C 
ATOM      8  C   UNL     1       4.426   2.233  -1.711  1.00  0.00     0.025 C 
BRANCH   8   9
ATOM      9  C   UNL     1       4.070   0.890  -2.201  1.00  0.00     0.064 C 
ATOM     10  O   UNL     1       4.915  -0.042  -2.221  1.00  0.00    -0.545 OA
ATOM     11  O   UNL     1       2.777   0.649  -2.648  1.00  0.00    -0.545 OA
ENDBRANCH   8   9
ENDBRANCH   1   7
BRANCH   6  12
ATOM     12  O   UNL     1       5.073   8.005   1.264  1.00  0.00    -0.508 OA
ATOM     13  H   UNL     1       4.346   8.680   1.470  1.00  0.00     0.293 HD
ENDBRANCH   6  12
TORSDOF 3
ENDMDL
MODEL 8
REMARK VINA RESULT:    -4.407      3.063      6.737
REMARK INTER + INTRA:          -5.186
REMARK INTER:                  -5.035
REMARK INTRA:                  -0.150
REMARK UNBOUND:                -0.135
REMARK SMILES O=C([O-])C=Cc1ccc(O)cc1
REMARK SMILES IDX 6 1 7 2 12 3 8 4 11 5 9 6 5 7 4 8 2 9 1 10 3 11 10 12
REMARK H PARENT 10 13
REMARK Flexibility Score: inf
ROOT
ATOM      1  C   UNL     1       4.324   3.141  -0.484  1.00  0.00    -0.025 A 
ATOM      2  C   UNL     1       4.941   1.876  -0.408  1.00  0.00     0.012 A 
ATOM      3  C   UNL     1       3.427   3.395  -1.535  1.00  0.00     0.012 A 
ATOM      4  C   UNL     1       4.681   0.902  -1.379  1.00  0.00     0.047 A 
ATOM      5  C   UNL     1       3.170   2.421  -2.504  1.00  0.00     0.047 A 
ATOM      6  C   UNL     1       3.798   1.171  -2.429  1.00  0.00     0.115 A 
ENDROOT
BRANCH   1   7
ATOM      7  C   UNL     1       4.555   4.205   0.525  1.00  0.00     0.010 C 
ATOM      8  C   UNL     1       4.147   5.473   0.378  1.00  0.00     0.025 C 
BRANCH   8   9
ATOM      9  C   UNL     1       4.385   6.499   1.408  1.00  0.00     0.064 C 
ATOM     10  O   UNL     1       5.206   7.434   1.219  1.00  0.00    -0.545 OA
ATOM     11  O   UNL     1       3.690   6.433   2.609  1.00  0.00    -0.545 OA
ENDBRANCH   8   9
ENDBRANCH   1   7
BRANCH   6  12
ATOM     12  O   UNL     1       3.551   0.192  -3.388  1.00  0.00    -0.508 OA
ATOM     13  H   UNL     1       3.998  -0.716  -3.346  1.00  0.00     0.293 HD
ENDBRANCH   6  12
TORSDOF 3
ENDMDL
MODEL 9
REMARK VINA RESULT:    -4.369      4.282      6.396
REMARK INTER + INTRA:          -5.143
REMARK INTER:                  -4.992
REMARK INTRA:                  -0.151
REMARK UNBOUND:                -0.135
REMARK SMILES O=C([O-])C=Cc1ccc(O)cc1
REMARK SMILES IDX 6 1 7 2 12 3 8 4 11 5 9 6 5 7 4 8 2 9 1 10 3 11 10 12
REMARK H PARENT 10 13
REMARK Flexibility Score: inf
ROOT
ATOM      1  C   UNL     1       4.205   2.065  -1.545  1.00  0.00    -0.025 A 
ATOM      2  C   UNL     1       3.183   2.785  -2.196  1.00  0.00     0.012 A 
ATOM      3  C   UNL     1       4.759   2.590  -0.365  1.00  0.00     0.012 A 
ATOM      4  C   UNL     1       2.748   4.013  -1.685  1.00  0.00     0.047 A 
ATOM      5  C   UNL     1       4.322   3.817   0.141  1.00  0.00     0.047 A 
ATOM      6  C   UNL     1       3.315   4.533  -0.519  1.00  0.00     0.115 A 
ENDROOT
BRANCH   1   7
ATOM      7  C   UNL     1       4.696   0.753  -2.037  1.00  0.00     0.010 C 
ATOM      8  C   UNL     1       5.466  -0.073  -1.315  1.00  0.00     0.025 C 
BRANCH   8   9
ATOM      9  C   UNL     1       5.924  -1.374  -1.834  1.00  0.00     0.064 C 
ATOM     10  O   UNL     1       5.117  -2.192  -2.346  1.00  0.00    -0.545 OA
ATOM     11  O   UNL     1       7.271  -1.702  -1.757  1.00  0.00    -0.545 OA
ENDBRANCH   8   9
ENDBRANCH   1   7
BRANCH   6  12
ATOM     12  O   UNL     1       2.872   5.757  -0.025  1.00  0.00    -0.508 OA
ATOM     13  H   UNL     1       2.710   5.902   0.965  1.00  0.00     0.293 HD
ENDBRANCH   6  12
TORSDOF 3
ENDMDL
