MODEL 1
REMARK VINA RESULT:    -3.896      0.000      0.000
REMARK INTER + INTRA:          -4.902
REMARK INTER:                  -4.807
REMARK INTRA:                  -0.096
REMARK UNBOUND:                -0.096
REMARK SMILES CCCCCC(=O)[O-]
REMARK SMILES IDX 4 1 5 2 6 3 7 4 8 5 3 6 2 7 1 8
REMARK H PARENT
REMARK Flexibility Score: inf
ROOT
ATOM      1  C   UNL     1       3.293 -36.632  17.069  1.00  0.00     0.006 C 
ENDROOT
BRANCH   1   2
ATOM      2  C   UNL     1       2.944 -37.498  18.283  1.00  0.00     0.053 C 
BRANCH   2   3
ATOM      3  C   UNL     1       3.847 -37.178  19.432  1.00  0.00     0.041 C 
ATOM      4  O   UNL     1       3.515 -36.301  20.273  1.00  0.00    -0.550 OA
ATOM      5  O   UNL     1       5.033 -37.881  19.601  1.00  0.00    -0.550 OA
ENDBRANCH   2   3
ENDBRANCH   1   2
BRANCH   1   6
ATOM      6  C   UNL     1       2.183 -36.690  16.014  1.00  0.00     0.000 C 
BRANCH   6   7
ATOM      7  C   UNL     1       2.770 -36.720  14.598  1.00  0.00    -0.003 C 
ATOM      8  C   UNL     1       3.808 -37.829  14.455  1.00  0.00     0.004 C 
ENDBRANCH   6   7
ENDBRANCH   1   6
TORSDOF 4
ENDMDL
MODEL 2
REMARK VINA RESULT:    -3.732      1.262      1.755
REMARK INTER + INTRA:          -4.701
REMARK INTER:                  -4.612
REMARK INTRA:                  -0.089
REMARK UNBOUND:                -0.096
REMARK SMILES CCCCCC(=O)[O-]
REMARK SMILES IDX 4 1 5 2 6 3 7 4 8 5 3 6 2 7 1 8
REMARK H PARENT
REMARK Flexibility Score: inf
ROOT
ATOM      1  C   UNL     1       2.729 -37.457  18.545  1.00  0.00     0.006 C 
ENDROOT
BRANCH   1   2
ATOM      2  C   UNL     1       3.972 -37.438  19.441  1.00  0.00     0.053 C 
BRANCH   2   3
ATOM      3  C   UNL     1       4.279 -36.041  19.879  1.00  0.00     0.041 C 
ATOM      4  O   UNL     1       3.799 -35.594  20.955  1.00  0.00    -0.550 OA
ATOM      5  O   UNL     1       5.135 -35.248  19.125  1.00  0.00    -0.550 OA
ENDBRANCH   2   3
ENDBRANCH   1   2
BRANCH   1   6
ATOM      6  C   UNL     1       3.119 -37.406  17.063  1.00  0.00     0.000 C 
BRANCH   6   7
ATOM      7  C   UNL     1       2.089 -36.612  16.251  1.00  0.00    -0.003 C 
ATOM      8  C   UNL     1       2.464 -36.574  14.772  1.00  0.00     0.004 C 
ENDBRANCH   6   7
ENDBRANCH   1   6
TORSDOF 4
ENDMDL
MODEL 3
REMARK VINA RESULT:    -3.709      1.550      2.216
REMARK INTER + INTRA:          -4.672
REMARK INTER:                  -4.511
REMARK INTRA:                  -0.161
REMARK UNBOUND:                -0.096
REMARK SMILES CCCCCC(=O)[O-]
REMARK SMILES IDX 4 1 5 2 6 3 7 4 8 5 3 6 2 7 1 8
REMARK H PARENT
REMARK Flexibility Score: inf
ROOT
ATOM      1  C   UNL     1       3.115 -37.150  19.453  1.00  0.00     0.006 C 
ENDROOT
BRANCH   1   2
ATOM      2  C   UNL     1       4.610 -37.465  19.550  1.00  0.00     0.053 C 
BRANCH   2   3
ATOM      3  C   UNL     1       5.352 -36.306  20.136  1.00  0.00     0.041 C 
ATOM      4  O   UNL     1       5.624 -35.303  19.424  1.00  0.00    -0.550 OA
ATOM      5  O   UNL     1       5.701 -36.311  21.480  1.00  0.00    -0.550 OA
ENDBRANCH   2   3
ENDBRANCH   1   2
BRANCH   1   6
ATOM      6  C   UNL     1       2.554 -37.561  18.086  1.00  0.00     0.000 C 
BRANCH   6   7
ATOM      7  C   UNL     1       3.201 -36.747  16.959  1.00  0.00    -0.003 C 
ATOM      8  C   UNL     1       3.229 -37.538  15.654  1.00  0.00     0.004 C 
ENDBRANCH   6   7
ENDBRANCH   1   6
TORSDOF 4
ENDMDL
MODEL 4
REMARK VINA RESULT:    -3.707      2.596      4.556
REMARK INTER + INTRA:          -4.670
REMARK INTER:                  -4.562
REMARK INTRA:                  -0.107
REMARK UNBOUND:                -0.096
REMARK SMILES CCCCCC(=O)[O-]
REMARK SMILES IDX 4 1 5 2 6 3 7 4 8 5 3 6 2 7 1 8
REMARK H PARENT
REMARK Flexibility Score: inf
ROOT
ATOM      1  C   UNL     1       2.784 -37.519  18.499  1.00  0.00     0.006 C 
ENDROOT
BRANCH   1   2
ATOM      2  C   UNL     1       3.479 -36.761  17.363  1.00  0.00     0.053 C 
BRANCH   2   3
ATOM      3  C   UNL     1       2.893 -37.147  16.042  1.00  0.00     0.041 C 
ATOM      4  O   UNL     1       3.522 -37.920  15.272  1.00  0.00    -0.550 OA
ATOM      5  O   UNL     1       1.631 -36.692  15.682  1.00  0.00    -0.550 OA
ENDBRANCH   2   3
ENDBRANCH   1   2
BRANCH   1   6
ATOM      6  C   UNL     1       3.364 -37.119  19.862  1.00  0.00     0.000 C 
BRANCH   6   7
ATOM      7  C   UNL     1       4.893 -37.225  19.861  1.00  0.00    -0.003 C 
ATOM      8  C   UNL     1       5.527 -36.064  20.621  1.00  0.00     0.004 C 
ENDBRANCH   6   7
ENDBRANCH   1   6
TORSDOF 4
ENDMDL
MODEL 5
REMARK VINA RESULT:    -3.677      3.039      5.680
REMARK INTER + INTRA:          -4.632
REMARK INTER:                  -4.584
REMARK INTRA:                  -0.048
REMARK UNBOUND:                -0.096
REMARK SMILES CCCCCC(=O)[O-]
REMARK SMILES IDX 4 1 5 2 6 3 7 4 8 5 3 6 2 7 1 8
REMARK H PARENT
REMARK Flexibility Score: inf
ROOT
ATOM      1  C   UNL     1       4.626 -35.972  20.743  1.00  0.00     0.006 C 
ENDROOT
BRANCH   1   2
ATOM      2  C   UNL     1       4.755 -37.178  19.806  1.00  0.00     0.053 C 
BRANCH   2   3
ATOM      3  C   UNL     1       3.463 -37.427  19.094  1.00  0.00     0.041 C 
ATOM      4  O   UNL     1       2.396 -37.564  19.748  1.00  0.00    -0.550 OA
ATOM      5  O   UNL     1       3.430 -37.460  17.706  1.00  0.00    -0.550 OA
ENDBRANCH   2   3
ENDBRANCH   1   2
BRANCH   1   6
ATOM      6  C   UNL     1       5.944 -35.707  21.481  1.00  0.00     0.000 C 
BRANCH   6   7
ATOM      7  C   UNL     1       5.754 -35.809  22.999  1.00  0.00    -0.003 C 
ATOM      8  C   UNL     1       6.093 -34.490  23.688  1.00  0.00     0.004 C 
ENDBRANCH   6   7
ENDBRANCH   1   6
TORSDOF 4
ENDMDL
MODEL 6
REMARK VINA RESULT:    -3.374      3.413      6.196
REMARK INTER + INTRA:          -4.258
REMARK INTER:                  -4.148
REMARK INTRA:                  -0.111
REMARK UNBOUND:                -0.096
REMARK SMILES CCCCCC(=O)[O-]
REMARK SMILES IDX 4 1 5 2 6 3 7 4 8 5 3 6 2 7 1 8
REMARK H PARENT
REMARK Flexibility Score: inf
ROOT
ATOM      1  C   UNL     1       5.794 -35.777  21.235  1.00  0.00     0.006 C 
ENDROOT
BRANCH   1   2
ATOM      2  C   UNL     1       5.231 -37.054  20.605  1.00  0.00     0.053 C 
BRANCH   2   3
ATOM      3  C   UNL     1       4.109 -36.727  19.672  1.00  0.00     0.041 C 
ATOM      4  O   UNL     1       4.306 -35.969  18.685  1.00  0.00    -0.550 OA
ATOM      5  O   UNL     1       2.856 -37.296  19.863  1.00  0.00    -0.550 OA
ENDBRANCH   2   3
ENDBRANCH   1   2
BRANCH   1   6
ATOM      6  C   UNL     1       5.099 -35.468  22.567  1.00  0.00     0.000 C 
BRANCH   6   7
ATOM      7  C   UNL     1       6.125 -35.217  23.678  1.00  0.00    -0.003 C 
ATOM      8  C   UNL     1       5.976 -36.234  24.806  1.00  0.00     0.004 C 
ENDBRANCH   6   7
ENDBRANCH   1   6
TORSDOF 4
ENDMDL
MODEL 7
REMARK VINA RESULT:    -3.325      2.952      5.004
REMARK INTER + INTRA:          -4.198
REMARK INTER:                  -4.147
REMARK INTRA:                  -0.050
REMARK UNBOUND:                -0.096
REMARK SMILES CCCCCC(=O)[O-]
REMARK SMILES IDX 4 1 5 2 6 3 7 4 8 5 3 6 2 7 1 8
REMARK H PARENT
REMARK Flexibility Score: inf
ROOT
ATOM      1  C   UNL     1       3.934 -36.638  19.883  1.00  0.00     0.006 C 
ENDROOT
BRANCH   1   2
ATOM      2  C   UNL     1       3.568 -37.675  18.816  1.00  0.00     0.053 C 
BRANCH   2   3
ATOM      3  C   UNL     1       2.150 -37.496  18.377  1.00  0.00     0.041 C 
ATOM      4  O   UNL     1       1.895 -37.015  17.241  1.00  0.00    -0.550 OA
ATOM      5  O   UNL     1       1.109 -37.905  19.201  1.00  0.00    -0.550 OA
ENDBRANCH   2   3
ENDBRANCH   1   2
BRANCH   1   6
ATOM      6  C   UNL     1       5.379 -36.826  20.360  1.00  0.00     0.000 C 
BRANCH   6   7
ATOM      7  C   UNL     1       5.823 -35.654  21.243  1.00  0.00    -0.003 C 
ATOM      8  C   UNL     1       5.824 -36.044  22.719  1.00  0.00     0.004 C 
ENDBRANCH   6   7
ENDBRANCH   1   6
TORSDOF 4
ENDMDL
MODEL 8
REMARK VINA RESULT:    -2.193      4.630      5.991
REMARK INTER + INTRA:          -2.801
REMARK INTER:                  -2.704
REMARK INTRA:                  -0.097
REMARK UNBOUND:                -0.096
REMARK SMILES CCCCCC(=O)[O-]
REMARK SMILES IDX 4 1 5 2 6 3 7 4 8 5 3 6 2 7 1 8
REMARK H PARENT
REMARK Flexibility Score: inf
ROOT
ATOM      1  C   UNL     1       5.137 -35.997  22.495  1.00  0.00     0.006 C 
ENDROOT
BRANCH   1   2
ATOM      2  C   UNL     1       6.125 -36.427  23.584  1.00  0.00     0.053 C 
BRANCH   2   3
ATOM      3  C   UNL     1       5.618 -36.033  24.935  1.00  0.00     0.041 C 
ATOM      4  O   UNL     1       5.994 -34.954  25.463  1.00  0.00    -0.550 OA
ATOM      5  O   UNL     1       4.692 -36.835  25.591  1.00  0.00    -0.550 OA
ENDBRANCH   2   3
ENDBRANCH   1   2
BRANCH   1   6
ATOM      6  C   UNL     1       5.876 -35.544  21.230  1.00  0.00     0.000 C 
BRANCH   6   7
ATOM      7  C   UNL     1       5.084 -35.909  19.970  1.00  0.00    -0.003 C 
ATOM      8  C   UNL     1       4.822 -37.411  19.898  1.00  0.00     0.004 C 
ENDBRANCH   6   7
ENDBRANCH   1   6
TORSDOF 4
ENDMDL
