MODEL 1
REMARK VINA RESULT:    -2.981      0.000      0.000
REMARK INTER + INTRA:          -3.684
REMARK INTER:                  -3.504
REMARK INTRA:                  -0.180
REMARK UNBOUND:                -0.180
REMARK SMILES O=C([O-])CCC(=O)[O-]
REMARK SMILES IDX 4 1 2 2 1 3 3 4 5 5 6 6 7 7 8 8
REMARK H PARENT
REMARK Flexibility Score: inf
ROOT
ATOM      1  C   UNL     1       2.930 -11.022 -42.582  1.00  0.00     0.059 C 
ENDROOT
BRANCH   1   2
ATOM      2  C   UNL     1       2.490 -11.308 -43.982  1.00  0.00     0.042 C 
ATOM      3  O   UNL     1       2.294 -10.363 -44.791  1.00  0.00    -0.550 OA
ATOM      4  O   UNL     1       2.247 -12.617 -44.381  1.00  0.00    -0.550 OA
ENDBRANCH   1   2
BRANCH   1   5
ATOM      5  C   UNL     1       1.862 -10.218 -41.838  1.00  0.00     0.059 C 
BRANCH   5   6
ATOM      6  C   UNL     1       0.639 -11.051 -41.617  1.00  0.00     0.042 C 
ATOM      7  O   UNL     1       0.677 -12.039 -40.837  1.00  0.00    -0.550 OA
ATOM      8  O   UNL     1      -0.531 -10.764 -42.308  1.00  0.00    -0.550 OA
ENDBRANCH   5   6
ENDBRANCH   1   5
TORSDOF 3
ENDMDL
MODEL 2
REMARK VINA RESULT:    -2.964      1.127      3.567
REMARK INTER + INTRA:          -3.664
REMARK INTER:                  -3.555
REMARK INTRA:                  -0.110
REMARK UNBOUND:                -0.180
REMARK SMILES O=C([O-])CCC(=O)[O-]
REMARK SMILES IDX 4 1 2 2 1 3 3 4 5 5 6 6 7 7 8 8
REMARK H PARENT
REMARK Flexibility Score: inf
ROOT
ATOM      1  C   UNL     1       2.194 -10.226 -41.937  1.00  0.00     0.059 C 
ENDROOT
BRANCH   1   2
ATOM      2  C   UNL     1       0.796  -9.812 -41.603  1.00  0.00     0.042 C 
ATOM      3  O   UNL     1       0.376  -9.895 -40.419  1.00  0.00    -0.550 OA
ATOM      4  O   UNL     1      -0.060  -9.381 -42.609  1.00  0.00    -0.550 OA
ENDBRANCH   1   2
BRANCH   1   5
ATOM      5  C   UNL     1       2.220 -11.670 -42.440  1.00  0.00     0.059 C 
BRANCH   5   6
ATOM      6  C   UNL     1       2.293 -11.703 -43.934  1.00  0.00     0.042 C 
ATOM      7  O   UNL     1       2.395 -10.631 -44.587  1.00  0.00    -0.550 OA
ATOM      8  O   UNL     1       2.201 -12.914 -44.608  1.00  0.00    -0.550 OA
ENDBRANCH   5   6
ENDBRANCH   1   5
TORSDOF 3
ENDMDL
MODEL 3
REMARK VINA RESULT:    -2.884      1.436      2.054
REMARK INTER + INTRA:          -3.570
REMARK INTER:                  -3.400
REMARK INTRA:                  -0.170
REMARK UNBOUND:                -0.180
REMARK SMILES O=C([O-])CCC(=O)[O-]
REMARK SMILES IDX 4 1 2 2 1 3 3 4 5 5 6 6 7 7 8 8
REMARK H PARENT
REMARK Flexibility Score: inf
ROOT
ATOM      1  C   UNL     1       2.409 -10.302 -41.992  1.00  0.00     0.059 C 
ENDROOT
BRANCH   1   2
ATOM      2  C   UNL     1       2.198 -11.748 -42.313  1.00  0.00     0.042 C 
ATOM      3  O   UNL     1       2.287 -12.618 -41.407  1.00  0.00    -0.550 OA
ATOM      4  O   UNL     1       1.953 -12.140 -43.623  1.00  0.00    -0.550 OA
ENDBRANCH   1   2
BRANCH   1   5
ATOM      5  C   UNL     1       1.293  -9.451 -42.599  1.00  0.00     0.059 C 
BRANCH   5   6
ATOM      6  C   UNL     1       0.016  -9.645 -41.844  1.00  0.00     0.042 C 
ATOM      7  O   UNL     1      -0.030  -9.417 -40.607  1.00  0.00    -0.550 OA
ATOM      8  O   UNL     1      -1.112 -10.124 -42.498  1.00  0.00    -0.550 OA
ENDBRANCH   5   6
ENDBRANCH   1   5
TORSDOF 3
ENDMDL
MODEL 4
REMARK VINA RESULT:    -2.872      1.421      3.157
REMARK INTER + INTRA:          -3.555
REMARK INTER:                  -3.385
REMARK INTRA:                  -0.170
REMARK UNBOUND:                -0.180
REMARK SMILES O=C([O-])CCC(=O)[O-]
REMARK SMILES IDX 4 1 2 2 1 3 3 4 5 5 6 6 7 7 8 8
REMARK H PARENT
REMARK Flexibility Score: inf
ROOT
ATOM      1  C   UNL     1       1.238  -9.476 -42.618  1.00  0.00     0.059 C 
ENDROOT
BRANCH   1   2
ATOM      2  C   UNL     1      -0.041  -9.646 -41.862  1.00  0.00     0.042 C 
ATOM      3  O   UNL     1      -0.132  -9.246 -40.671  1.00  0.00    -0.550 OA
ATOM      4  O   UNL     1      -1.118 -10.292 -42.455  1.00  0.00    -0.550 OA
ENDBRANCH   1   2
BRANCH   1   5
ATOM      5  C   UNL     1       2.349 -10.320 -41.989  1.00  0.00     0.059 C 
BRANCH   5   6
ATOM      6  C   UNL     1       2.136 -11.771 -42.285  1.00  0.00     0.042 C 
ATOM      7  O   UNL     1       2.120 -12.612 -41.348  1.00  0.00    -0.550 OA
ATOM      8  O   UNL     1       2.001 -12.200 -43.599  1.00  0.00    -0.550 OA
ENDBRANCH   5   6
ENDBRANCH   1   5
TORSDOF 3
ENDMDL
MODEL 5
REMARK VINA RESULT:    -2.818      1.406      3.370
REMARK INTER + INTRA:          -3.492
REMARK INTER:                  -3.310
REMARK INTRA:                  -0.182
REMARK UNBOUND:                -0.180
REMARK SMILES O=C([O-])CCC(=O)[O-]
REMARK SMILES IDX 4 1 2 2 1 3 3 4 5 5 6 6 7 7 8 8
REMARK H PARENT
REMARK Flexibility Score: inf
ROOT
ATOM      1  C   UNL     1       0.709  -9.945 -41.336  1.00  0.00     0.059 C 
ENDROOT
BRANCH   1   2
ATOM      2  C   UNL     1      -0.018 -11.238 -41.522  1.00  0.00     0.042 C 
ATOM      3  O   UNL     1      -0.797 -11.393 -42.498  1.00  0.00    -0.550 OA
ATOM      4  O   UNL     1       0.126 -12.257 -40.587  1.00  0.00    -0.550 OA
ENDBRANCH   1   2
BRANCH   1   5
ATOM      5  C   UNL     1       1.623  -9.667 -42.530  1.00  0.00     0.059 C 
BRANCH   5   6
ATOM      6  C   UNL     1       2.672 -10.727 -42.646  1.00  0.00     0.042 C 
ATOM      7  O   UNL     1       2.733 -11.448 -43.677  1.00  0.00    -0.550 OA
ATOM      8  O   UNL     1       3.552 -10.952 -41.595  1.00  0.00    -0.550 OA
ENDBRANCH   5   6
ENDBRANCH   1   5
TORSDOF 3
ENDMDL
MODEL 6
REMARK VINA RESULT:    -2.816      1.416      1.729
REMARK INTER + INTRA:          -3.490
REMARK INTER:                  -3.299
REMARK INTRA:                  -0.192
REMARK UNBOUND:                -0.180
REMARK SMILES O=C([O-])CCC(=O)[O-]
REMARK SMILES IDX 4 1 2 2 1 3 3 4 5 5 6 6 7 7 8 8
REMARK H PARENT
REMARK Flexibility Score: inf
ROOT
ATOM      1  C   UNL     1       1.518  -9.598 -42.493  1.00  0.00     0.059 C 
ENDROOT
BRANCH   1   2
ATOM      2  C   UNL     1       2.594 -10.623 -42.661  1.00  0.00     0.042 C 
ATOM      3  O   UNL     1       2.680 -11.282 -43.731  1.00  0.00    -0.550 OA
ATOM      4  O   UNL     1       3.472 -10.887 -41.617  1.00  0.00    -0.550 OA
ENDBRANCH   1   2
BRANCH   1   5
ATOM      5  C   UNL     1       0.662  -9.916 -41.266  1.00  0.00     0.059 C 
BRANCH   5   6
ATOM      6  C   UNL     1      -0.059 -11.214 -41.452  1.00  0.00     0.042 C 
ATOM      7  O   UNL     1       0.088 -12.146 -40.619  1.00  0.00    -0.550 OA
ATOM      8  O   UNL     1      -0.857 -11.411 -42.572  1.00  0.00    -0.550 OA
ENDBRANCH   5   6
ENDBRANCH   1   5
TORSDOF 3
ENDMDL
MODEL 7
REMARK VINA RESULT:    -2.670      2.259      2.920
REMARK INTER + INTRA:          -3.318
REMARK INTER:                  -3.204
REMARK INTRA:                  -0.114
REMARK UNBOUND:                -0.180
REMARK SMILES O=C([O-])CCC(=O)[O-]
REMARK SMILES IDX 4 1 2 2 1 3 3 4 5 5 6 6 7 7 8 8
REMARK H PARENT
REMARK Flexibility Score: inf
ROOT
ATOM      1  C   UNL     1       0.372 -10.039 -41.079  1.00  0.00     0.059 C 
ENDROOT
BRANCH   1   2
ATOM      2  C   UNL     1       1.558  -9.813 -41.962  1.00  0.00     0.042 C 
ATOM      3  O   UNL     1       2.667 -10.339 -41.681  1.00  0.00    -0.550 OA
ATOM      4  O   UNL     1       1.452  -8.980 -43.070  1.00  0.00    -0.550 OA
ENDBRANCH   1   2
BRANCH   1   5
ATOM      5  C   UNL     1      -0.306 -11.366 -41.422  1.00  0.00     0.059 C 
BRANCH   5   6
ATOM      6  C   UNL     1      -1.551 -11.128 -42.217  1.00  0.00     0.042 C 
ATOM      7  O   UNL     1      -2.257 -12.100 -42.595  1.00  0.00    -0.550 OA
ATOM      8  O   UNL     1      -1.906  -9.836 -42.583  1.00  0.00    -0.550 OA
ENDBRANCH   5   6
ENDBRANCH   1   5
TORSDOF 3
ENDMDL
MODEL 8
REMARK VINA RESULT:    -2.661     14.562     15.520
REMARK INTER + INTRA:          -3.308
REMARK INTER:                  -3.197
REMARK INTRA:                  -0.111
REMARK UNBOUND:                -0.180
REMARK SMILES O=C([O-])CCC(=O)[O-]
REMARK SMILES IDX 4 1 2 2 1 3 3 4 5 5 6 6 7 7 8 8
REMARK H PARENT
REMARK Flexibility Score: inf
ROOT
ATOM      1  C   UNL     1      -0.123 -25.291 -46.024  1.00  0.00     0.059 C 
ENDROOT
BRANCH   1   2
ATOM      2  C   UNL     1       1.191 -25.673 -46.627  1.00  0.00     0.042 C 
ATOM      3  O   UNL     1       1.323 -26.780 -47.212  1.00  0.00    -0.550 OA
ATOM      4  O   UNL     1       2.287 -24.827 -46.500  1.00  0.00    -0.550 OA
ENDBRANCH   1   2
BRANCH   1   5
ATOM      5  C   UNL     1      -1.149 -24.996 -47.119  1.00  0.00     0.059 C 
BRANCH   5   6
ATOM      6  C   UNL     1      -2.239 -26.022 -47.106  1.00  0.00     0.042 C 
ATOM      7  O   UNL     1      -3.201 -25.913 -46.301  1.00  0.00    -0.550 OA
ATOM      8  O   UNL     1      -2.167 -27.123 -47.949  1.00  0.00    -0.550 OA
ENDBRANCH   5   6
ENDBRANCH   1   5
TORSDOF 3
ENDMDL
MODEL 9
REMARK VINA RESULT:    -2.634     14.748     15.877
REMARK INTER + INTRA:          -3.276
REMARK INTER:                  -3.190
REMARK INTRA:                  -0.087
REMARK UNBOUND:                -0.180
REMARK SMILES O=C([O-])CCC(=O)[O-]
REMARK SMILES IDX 4 1 2 2 1 3 3 4 5 5 6 6 7 7 8 8
REMARK H PARENT
REMARK Flexibility Score: inf
ROOT
ATOM      1  C   UNL     1      -1.151 -25.347 -47.270  1.00  0.00     0.059 C 
ENDROOT
BRANCH   1   2
ATOM      2  C   UNL     1      -2.079 -26.498 -47.045  1.00  0.00     0.042 C 
ATOM      3  O   UNL     1      -2.731 -26.984 -48.006  1.00  0.00    -0.550 OA
ATOM      4  O   UNL     1      -2.263 -27.002 -45.763  1.00  0.00    -0.550 OA
ENDBRANCH   1   2
BRANCH   1   5
ATOM      5  C   UNL     1      -0.105 -25.276 -46.155  1.00  0.00     0.059 C 
BRANCH   5   6
ATOM      6  C   UNL     1       1.242 -25.669 -46.674  1.00  0.00     0.042 C 
ATOM      7  O   UNL     1       1.416 -26.805 -47.187  1.00  0.00    -0.550 OA
ATOM      8  O   UNL     1       2.316 -24.798 -46.548  1.00  0.00    -0.550 OA
ENDBRANCH   5   6
ENDBRANCH   1   5
TORSDOF 3
ENDMDL
