MODEL 1
REMARK VINA RESULT:    -4.028      0.000      0.000
REMARK INTER + INTRA:          -5.524
REMARK INTER:                  -5.205
REMARK INTRA:                  -0.318
REMARK UNBOUND:                -0.318
REMARK SMILES CCCCCCC(=O)[O-]
REMARK SMILES IDX 5 1 6 2 7 3 8 4 9 5 4 6 3 7 2 8 1 9
REMARK H PARENT
REMARK Flexibility Score: inf
ROOT
ATOM      1  C   UNL     1      48.046  31.541  18.039  1.00  0.00     0.006 C 
ENDROOT
BRANCH   1   2
ATOM      2  C   UNL     1      48.208  30.135  17.446  1.00  0.00     0.053 C 
BRANCH   2   3
ATOM      3  C   UNL     1      47.937  30.120  15.973  1.00  0.00     0.041 C 
ATOM      4  O   UNL     1      46.807  29.775  15.539  1.00  0.00    -0.550 OA
ATOM      5  O   UNL     1      48.925  30.520  15.082  1.00  0.00    -0.550 OA
ENDBRANCH   2   3
ENDBRANCH   1   2
BRANCH   1   6
ATOM      6  C   UNL     1      49.276  32.427  17.775  1.00  0.00     0.000 C 
BRANCH   6   7
ATOM      7  C   UNL     1      48.896  33.857  17.356  1.00  0.00    -0.000 C 
BRANCH   7   8
ATOM      8  C   UNL     1      47.617  33.903  16.507  1.00  0.00    -0.003 C 
ATOM      9  C   UNL     1      47.944  33.826  15.018  1.00  0.00     0.004 C 
ENDBRANCH   7   8
ENDBRANCH   6   7
ENDBRANCH   1   6
TORSDOF 5
ENDMDL
MODEL 2
REMARK VINA RESULT:    -4.027      1.945      3.478
REMARK INTER + INTRA:          -5.522
REMARK INTER:                  -5.106
REMARK INTRA:                  -0.416
REMARK UNBOUND:                -0.318
REMARK SMILES CCCCCCC(=O)[O-]
REMARK SMILES IDX 5 1 6 2 7 3 8 4 9 5 4 6 3 7 2 8 1 9
REMARK H PARENT
REMARK Flexibility Score: inf
ROOT
ATOM      1  C   UNL     1      49.302  32.398  17.592  1.00  0.00     0.006 C 
ENDROOT
BRANCH   1   2
ATOM      2  C   UNL     1      48.876  33.846  17.316  1.00  0.00     0.053 C 
BRANCH   2   3
ATOM      3  C   UNL     1      47.790  33.918  16.287  1.00  0.00     0.041 C 
ATOM      4  O   UNL     1      46.656  34.372  16.591  1.00  0.00    -0.550 OA
ATOM      5  O   UNL     1      48.043  33.515  14.982  1.00  0.00    -0.550 OA
ENDBRANCH   2   3
ENDBRANCH   1   2
BRANCH   1   6
ATOM      6  C   UNL     1      48.166  31.568  18.216  1.00  0.00     0.000 C 
BRANCH   6   7
ATOM      7  C   UNL     1      47.854  30.295  17.412  1.00  0.00    -0.000 C 
BRANCH   7   8
ATOM      8  C   UNL     1      48.632  30.228  16.089  1.00  0.00    -0.003 C 
ATOM      9  C   UNL     1      47.692  29.977  14.913  1.00  0.00     0.004 C 
ENDBRANCH   7   8
ENDBRANCH   6   7
ENDBRANCH   1   6
TORSDOF 5
ENDMDL
MODEL 3
REMARK VINA RESULT:    -4.005      2.299      3.518
REMARK INTER + INTRA:          -5.494
REMARK INTER:                  -5.365
REMARK INTRA:                  -0.129
REMARK UNBOUND:                -0.318
REMARK SMILES CCCCCCC(=O)[O-]
REMARK SMILES IDX 5 1 6 2 7 3 8 4 9 5 4 6 3 7 2 8 1 9
REMARK H PARENT
REMARK Flexibility Score: inf
ROOT
ATOM      1  C   UNL     1      47.641  33.895  16.239  1.00  0.00     0.006 C 
ENDROOT
BRANCH   1   2
ATOM      2  C   UNL     1      48.645  33.862  17.399  1.00  0.00     0.053 C 
BRANCH   2   3
ATOM      3  C   UNL     1      48.931  32.461  17.845  1.00  0.00     0.041 C 
ATOM      4  O   UNL     1      47.991  31.710  18.218  1.00  0.00    -0.550 OA
ATOM      5  O   UNL     1      50.231  31.974  17.816  1.00  0.00    -0.550 OA
ENDBRANCH   2   3
ENDBRANCH   1   2
BRANCH   1   6
ATOM      6  C   UNL     1      48.126  33.080  15.028  1.00  0.00     0.000 C 
BRANCH   6   7
ATOM      7  C   UNL     1      48.193  33.918  13.740  1.00  0.00    -0.000 C 
BRANCH   7   8
ATOM      8  C   UNL     1      48.544  33.074  12.505  1.00  0.00    -0.003 C 
ATOM      9  C   UNL     1      47.980  33.702  11.234  1.00  0.00     0.004 C 
ENDBRANCH   7   8
ENDBRANCH   6   7
ENDBRANCH   1   6
TORSDOF 5
ENDMDL
MODEL 4
REMARK VINA RESULT:    -3.905      1.415      3.248
REMARK INTER + INTRA:          -5.364
REMARK INTER:                  -5.056
REMARK INTRA:                  -0.308
REMARK UNBOUND:                -0.318
REMARK SMILES CCCCCCC(=O)[O-]
REMARK SMILES IDX 5 1 6 2 7 3 8 4 9 5 4 6 3 7 2 8 1 9
REMARK H PARENT
REMARK Flexibility Score: inf
ROOT
ATOM      1  C   UNL     1      47.695  33.620  16.033  1.00  0.00     0.006 C 
ENDROOT
BRANCH   1   2
ATOM      2  C   UNL     1      48.243  33.920  14.632  1.00  0.00     0.053 C 
BRANCH   2   3
ATOM      3  C   UNL     1      48.360  32.677  13.805  1.00  0.00     0.041 C 
ATOM      4  O   UNL     1      48.468  31.552  14.361  1.00  0.00    -0.550 OA
ATOM      5  O   UNL     1      48.316  32.758  12.419  1.00  0.00    -0.550 OA
ENDBRANCH   2   3
ENDBRANCH   1   2
BRANCH   1   6
ATOM      6  C   UNL     1      48.773  33.768  17.121  1.00  0.00     0.000 C 
BRANCH   6   7
ATOM      7  C   UNL     1      49.252  32.413  17.668  1.00  0.00    -0.000 C 
BRANCH   7   8
ATOM      8  C   UNL     1      48.109  31.587  18.277  1.00  0.00    -0.003 C 
ATOM      9  C   UNL     1      47.981  30.233  17.583  1.00  0.00     0.004 C 
ENDBRANCH   7   8
ENDBRANCH   6   7
ENDBRANCH   1   6
TORSDOF 5
ENDMDL
MODEL 5
REMARK VINA RESULT:    -3.902      1.777      2.672
REMARK INTER + INTRA:          -5.361
REMARK INTER:                  -5.170
REMARK INTRA:                  -0.191
REMARK UNBOUND:                -0.318
REMARK SMILES CCCCCCC(=O)[O-]
REMARK SMILES IDX 5 1 6 2 7 3 8 4 9 5 4 6 3 7 2 8 1 9
REMARK H PARENT
REMARK Flexibility Score: inf
ROOT
ATOM      1  C   UNL     1      48.810  33.477  17.301  1.00  0.00     0.006 C 
ENDROOT
BRANCH   1   2
ATOM      2  C   UNL     1      49.208  31.998  17.404  1.00  0.00     0.053 C 
BRANCH   2   3
ATOM      3  C   UNL     1      48.069  31.150  17.881  1.00  0.00     0.041 C 
ATOM      4  O   UNL     1      47.641  31.267  19.059  1.00  0.00    -0.550 OA
ATOM      5  O   UNL     1      47.458  30.255  17.013  1.00  0.00    -0.550 OA
ENDBRANCH   2   3
ENDBRANCH   1   2
BRANCH   1   6
ATOM      6  C   UNL     1      47.725  33.713  16.236  1.00  0.00     0.000 C 
BRANCH   6   7
ATOM      7  C   UNL     1      48.092  33.104  14.873  1.00  0.00    -0.000 C 
BRANCH   7   8
ATOM      8  C   UNL     1      48.181  34.159  13.760  1.00  0.00    -0.003 C 
ATOM      9  C   UNL     1      48.691  33.543  12.460  1.00  0.00     0.004 C 
ENDBRANCH   7   8
ENDBRANCH   6   7
ENDBRANCH   1   6
TORSDOF 5
ENDMDL
MODEL 6
REMARK VINA RESULT:    -3.898      3.000      4.310
REMARK INTER + INTRA:          -5.356
REMARK INTER:                  -5.149
REMARK INTRA:                  -0.207
REMARK UNBOUND:                -0.318
REMARK SMILES CCCCCCC(=O)[O-]
REMARK SMILES IDX 5 1 6 2 7 3 8 4 9 5 4 6 3 7 2 8 1 9
REMARK H PARENT
REMARK Flexibility Score: inf
ROOT
ATOM      1  C   UNL     1      48.437  32.336  13.825  1.00  0.00     0.006 C 
ENDROOT
BRANCH   1   2
ATOM      2  C   UNL     1      48.377  33.736  13.200  1.00  0.00     0.053 C 
BRANCH   2   3
ATOM      3  C   UNL     1      48.720  33.707  11.742  1.00  0.00     0.041 C 
ATOM      4  O   UNL     1      47.816  33.541  10.881  1.00  0.00    -0.550 OA
ATOM      5  O   UNL     1      50.033  33.898  11.333  1.00  0.00    -0.550 OA
ENDBRANCH   2   3
ENDBRANCH   1   2
BRANCH   1   6
ATOM      6  C   UNL     1      48.123  32.360  15.331  1.00  0.00     0.000 C 
BRANCH   6   7
ATOM      7  C   UNL     1      48.061  33.786  15.900  1.00  0.00    -0.000 C 
BRANCH   7   8
ATOM      8  C   UNL     1      48.691  33.891  17.298  1.00  0.00    -0.003 C 
ATOM      9  C   UNL     1      49.386  32.588  17.685  1.00  0.00     0.004 C 
ENDBRANCH   7   8
ENDBRANCH   6   7
ENDBRANCH   1   6
TORSDOF 5
ENDMDL
MODEL 7
REMARK VINA RESULT:    -3.749     12.522     13.254
REMARK INTER + INTRA:          -5.163
REMARK INTER:                  -5.049
REMARK INTRA:                  -0.114
REMARK UNBOUND:                -0.318
REMARK SMILES CCCCCCC(=O)[O-]
REMARK SMILES IDX 5 1 6 2 7 3 8 4 9 5 4 6 3 7 2 8 1 9
REMARK H PARENT
REMARK Flexibility Score: inf
ROOT
ATOM      1  C   UNL     1      44.834  34.863  28.943  1.00  0.00     0.006 C 
ENDROOT
BRANCH   1   2
ATOM      2  C   UNL     1      44.245  33.487  29.276  1.00  0.00     0.053 C 
BRANCH   2   3
ATOM      3  C   UNL     1      44.743  32.429  28.340  1.00  0.00     0.041 C 
ATOM      4  O   UNL     1      45.522  32.731  27.397  1.00  0.00    -0.550 OA
ATOM      5  O   UNL     1      44.375  31.104  28.529  1.00  0.00    -0.550 OA
ENDBRANCH   2   3
ENDBRANCH   1   2
BRANCH   1   6
ATOM      6  C   UNL     1      44.578  35.890  30.060  1.00  0.00     0.000 C 
BRANCH   6   7
ATOM      7  C   UNL     1      43.942  37.188  29.537  1.00  0.00    -0.000 C 
BRANCH   7   8
ATOM      8  C   UNL     1      44.863  37.947  28.570  1.00  0.00    -0.003 C 
ATOM      9  C   UNL     1      44.209  39.240  28.090  1.00  0.00     0.004 C 
ENDBRANCH   7   8
ENDBRANCH   6   7
ENDBRANCH   1   6
TORSDOF 5
ENDMDL
MODEL 8
REMARK VINA RESULT:    -3.718      1.579      2.149
REMARK INTER + INTRA:          -5.123
REMARK INTER:                  -4.803
REMARK INTRA:                  -0.320
REMARK UNBOUND:                -0.318
REMARK SMILES CCCCCCC(=O)[O-]
REMARK SMILES IDX 5 1 6 2 7 3 8 4 9 5 4 6 3 7 2 8 1 9
REMARK H PARENT
REMARK Flexibility Score: inf
ROOT
ATOM      1  C   UNL     1      47.769  30.352  17.148  1.00  0.00     0.006 C 
ENDROOT
BRANCH   1   2
ATOM      2  C   UNL     1      48.824  30.175  16.048  1.00  0.00     0.053 C 
BRANCH   2   3
ATOM      3  C   UNL     1      49.490  28.836  16.130  1.00  0.00     0.041 C 
ATOM      4  O   UNL     1      50.537  28.689  16.815  1.00  0.00    -0.550 OA
ATOM      5  O   UNL     1      48.935  27.743  15.477  1.00  0.00    -0.550 OA
ENDBRANCH   2   3
ENDBRANCH   1   2
BRANCH   1   6
ATOM      6  C   UNL     1      48.134  31.482  18.126  1.00  0.00     0.000 C 
BRANCH   6   7
ATOM      7  C   UNL     1      49.301  32.347  17.621  1.00  0.00    -0.000 C 
BRANCH   7   8
ATOM      8  C   UNL     1      48.883  33.800  17.349  1.00  0.00    -0.003 C 
ATOM      9  C   UNL     1      48.048  33.902  16.076  1.00  0.00     0.004 C 
ENDBRANCH   7   8
ENDBRANCH   6   7
ENDBRANCH   1   6
TORSDOF 5
ENDMDL
MODEL 9
REMARK VINA RESULT:    -3.691     11.498     12.310
REMARK INTER + INTRA:          -5.088
REMARK INTER:                  -4.823
REMARK INTRA:                  -0.266
REMARK UNBOUND:                -0.318
REMARK SMILES CCCCCCC(=O)[O-]
REMARK SMILES IDX 5 1 6 2 7 3 8 4 9 5 4 6 3 7 2 8 1 9
REMARK H PARENT
REMARK Flexibility Score: inf
ROOT
ATOM      1  C   UNL     1      41.133  37.369  24.135  1.00  0.00     0.006 C 
ENDROOT
BRANCH   1   2
ATOM      2  C   UNL     1      39.963  36.376  24.139  1.00  0.00     0.053 C 
BRANCH   2   3
ATOM      3  C   UNL     1      38.641  37.078  24.078  1.00  0.00     0.041 C 
ATOM      4  O   UNL     1      37.624  36.478  23.642  1.00  0.00    -0.550 OA
ATOM      5  O   UNL     1      38.527  38.384  24.536  1.00  0.00    -0.550 OA
ENDBRANCH   2   3
ENDBRANCH   1   2
BRANCH   1   6
ATOM      6  C   UNL     1      42.069  37.157  22.932  1.00  0.00     0.000 C 
BRANCH   6   7
ATOM      7  C   UNL     1      42.185  38.409  22.046  1.00  0.00    -0.000 C 
BRANCH   7   8
ATOM      8  C   UNL     1      41.154  39.487  22.411  1.00  0.00    -0.003 C 
ATOM      9  C   UNL     1      41.783  40.877  22.392  1.00  0.00     0.004 C 
ENDBRANCH   7   8
ENDBRANCH   6   7
ENDBRANCH   1   6
TORSDOF 5
ENDMDL
