MODEL 1
REMARK VINA RESULT:    -1.778      0.000      0.000
REMARK INTER + INTRA:          -1.778
REMARK INTER:                  -1.778
REMARK INTRA:                   0.000
REMARK UNBOUND:                 0.000
REMARK SMILES CC(=O)[O-]
REMARK SMILES IDX 1 1 2 2 3 3 4 4
REMARK H PARENT
REMARK Flexibility Score: inf
ROOT
ATOM      1  C   UNL     1      61.053  30.975  61.592  1.00  0.00     0.063 C 
ATOM      2  C   UNL     1      62.227  30.057  61.554  1.00  0.00     0.038 C 
ATOM      3  O   UNL     1      63.394  30.526  61.502  1.00  0.00    -0.550 OA
ATOM      4  O   UNL     1      62.035  28.682  61.521  1.00  0.00    -0.550 OA
ENDROOT
TORSDOF 0
ENDMDL
MODEL 2
REMARK VINA RESULT:    -1.763     12.500     12.595
REMARK INTER + INTRA:          -1.763
REMARK INTER:                  -1.763
REMARK INTRA:                   0.000
REMARK UNBOUND:                 0.000
REMARK SMILES CC(=O)[O-]
REMARK SMILES IDX 1 1 2 2 3 3 4 4
REMARK H PARENT
REMARK Flexibility Score: inf
ROOT
ATOM      1  C   UNL     1      58.980  29.189  49.287  1.00  0.00     0.063 C 
ATOM      2  C   UNL     1      59.779  27.935  49.390  1.00  0.00     0.038 C 
ATOM      3  O   UNL     1      61.037  27.985  49.384  1.00  0.00    -0.550 OA
ATOM      4  O   UNL     1      59.139  26.704  49.438  1.00  0.00    -0.550 OA
ENDROOT
TORSDOF 0
ENDMDL
MODEL 3
REMARK VINA RESULT:    -1.747     14.327     14.666
REMARK INTER + INTRA:          -1.747
REMARK INTER:                  -1.747
REMARK INTRA:                   0.000
REMARK UNBOUND:                 0.000
REMARK SMILES CC(=O)[O-]
REMARK SMILES IDX 1 1 2 2 3 3 4 4
REMARK H PARENT
REMARK Flexibility Score: inf
ROOT
ATOM      1  C   UNL     1      54.050  27.760  49.908  1.00  0.00     0.063 C 
ATOM      2  C   UNL     1      54.604  26.417  49.573  1.00  0.00     0.038 C 
ATOM      3  O   UNL     1      55.793  26.131  49.875  1.00  0.00    -0.550 OA
ATOM      4  O   UNL     1      53.830  25.498  48.879  1.00  0.00    -0.550 OA
ENDROOT
TORSDOF 0
ENDMDL
MODEL 4
REMARK VINA RESULT:    -1.723      4.874      5.507
REMARK INTER + INTRA:          -1.723
REMARK INTER:                  -1.723
REMARK INTRA:                   0.000
REMARK UNBOUND:                 0.000
REMARK SMILES CC(=O)[O-]
REMARK SMILES IDX 1 1 2 2 3 3 4 4
REMARK H PARENT
REMARK Flexibility Score: inf
ROOT
ATOM      1  C   UNL     1      62.703  35.605  60.888  1.00  0.00     0.063 C 
ATOM      2  C   UNL     1      64.009  34.970  61.225  1.00  0.00     0.038 C 
ATOM      3  O   UNL     1      64.240  33.781  60.882  1.00  0.00    -0.550 OA
ATOM      4  O   UNL     1      64.953  35.670  61.964  1.00  0.00    -0.550 OA
ENDROOT
TORSDOF 0
ENDMDL
MODEL 5
REMARK VINA RESULT:    -1.661     14.285     14.614
REMARK INTER + INTRA:          -1.661
REMARK INTER:                  -1.661
REMARK INTRA:                   0.000
REMARK UNBOUND:                 0.000
REMARK SMILES CC(=O)[O-]
REMARK SMILES IDX 1 1 2 2 3 3 4 4
REMARK H PARENT
REMARK Flexibility Score: inf
ROOT
ATOM      1  C   UNL     1      53.859  25.560  49.128  1.00  0.00     0.063 C 
ATOM      2  C   UNL     1      54.620  26.728  49.656  1.00  0.00     0.038 C 
ATOM      3  O   UNL     1      55.816  26.589  50.024  1.00  0.00    -0.550 OA
ATOM      4  O   UNL     1      53.997  27.961  49.793  1.00  0.00    -0.550 OA
ENDROOT
TORSDOF 0
ENDMDL
MODEL 6
REMARK VINA RESULT:    -1.660     14.405     14.736
REMARK INTER + INTRA:          -1.660
REMARK INTER:                  -1.660
REMARK INTRA:                   0.000
REMARK UNBOUND:                 0.000
REMARK SMILES CC(=O)[O-]
REMARK SMILES IDX 1 1 2 2 3 3 4 4
REMARK H PARENT
REMARK Flexibility Score: inf
ROOT
ATOM      1  C   UNL     1      53.629  25.589  49.090  1.00  0.00     0.063 C 
ATOM      2  C   UNL     1      54.469  26.715  49.589  1.00  0.00     0.038 C 
ATOM      3  O   UNL     1      53.997  27.881  49.640  1.00  0.00    -0.550 OA
ATOM      4  O   UNL     1      55.792  26.491  49.948  1.00  0.00    -0.550 OA
ENDROOT
TORSDOF 0
ENDMDL
MODEL 7
REMARK VINA RESULT:    -1.658      1.370      2.088
REMARK INTER + INTRA:          -1.658
REMARK INTER:                  -1.658
REMARK INTRA:                   0.000
REMARK UNBOUND:                 0.000
REMARK SMILES CC(=O)[O-]
REMARK SMILES IDX 1 1 2 2 3 3 4 4
REMARK H PARENT
REMARK Flexibility Score: inf
ROOT
ATOM      1  C   UNL     1      63.559  30.505  61.278  1.00  0.00     0.063 C 
ATOM      2  C   UNL     1      62.192  29.982  61.564  1.00  0.00     0.038 C 
ATOM      3  O   UNL     1      61.970  28.743  61.531  1.00  0.00    -0.550 OA
ATOM      4  O   UNL     1      61.148  30.863  61.813  1.00  0.00    -0.550 OA
ENDROOT
TORSDOF 0
ENDMDL
MODEL 8
REMARK VINA RESULT:    -1.627     10.478     10.814
REMARK INTER + INTRA:          -1.627
REMARK INTER:                  -1.627
REMARK INTRA:                   0.000
REMARK UNBOUND:                 0.000
REMARK SMILES CC(=O)[O-]
REMARK SMILES IDX 1 1 2 2 3 3 4 4
REMARK H PARENT
REMARK Flexibility Score: inf
ROOT
ATOM      1  C   UNL     1      73.125  30.173  59.729  1.00  0.00     0.063 C 
ATOM      2  C   UNL     1      72.743  31.035  60.884  1.00  0.00     0.038 C 
ATOM      3  O   UNL     1      73.047  30.692  62.056  1.00  0.00    -0.550 OA
ATOM      4  O   UNL     1      72.004  32.192  60.675  1.00  0.00    -0.550 OA
ENDROOT
TORSDOF 0
ENDMDL
MODEL 9
REMARK VINA RESULT:    -1.620      9.353      9.965
REMARK INTER + INTRA:          -1.620
REMARK INTER:                  -1.620
REMARK INTRA:                   0.000
REMARK UNBOUND:                 0.000
REMARK SMILES CC(=O)[O-]
REMARK SMILES IDX 1 1 2 2 3 3 4 4
REMARK H PARENT
REMARK Flexibility Score: inf
ROOT
ATOM      1  C   UNL     1      72.053  31.859  60.393  1.00  0.00     0.063 C 
ATOM      2  C   UNL     1      71.939  30.658  61.269  1.00  0.00     0.038 C 
ATOM      3  O   UNL     1      70.883  29.974  61.269  1.00  0.00    -0.550 OA
ATOM      4  O   UNL     1      72.978  30.321  62.126  1.00  0.00    -0.550 OA
ENDROOT
TORSDOF 0
ENDMDL
