MODEL 1
REMARK VINA RESULT:    -6.110      0.000      0.000
REMARK INTER + INTRA:         -12.098
REMARK INTER:                 -11.111
REMARK INTRA:                  -0.986
REMARK UNBOUND:                -0.986
REMARK SMILES CCCCCCCCCCCCCC[C@@H](C)C(=O)[O-]
REMARK SMILES IDX 9 1 10 2 11 3 12 4 13 5 14 6 15 7 16 8 17 9 18 10 19 11 8 12
REMARK SMILES IDX 7 13 6 14 5 15 4 16 3 17 2 18 1 19
REMARK H PARENT
REMARK Flexibility Score: inf
ROOT
ATOM      1  C   UNL     1      49.619 -46.351 164.688  1.00  0.00     0.000 C 
ENDROOT
BRANCH   1   2
ATOM      2  C   UNL     1      49.193 -47.821 164.813  1.00  0.00     0.000 C 
BRANCH   2   3
ATOM      3  C   UNL     1      47.707 -48.044 164.482  1.00  0.00     0.000 C 
BRANCH   3   4
ATOM      4  C   UNL     1      47.430 -49.098 163.390  1.00  0.00     0.000 C 
BRANCH   4   5
ATOM      5  C   UNL     1      45.961 -49.543 163.260  1.00  0.00     0.001 C 
BRANCH   5   6
ATOM      6  C   UNL     1      45.075 -49.279 164.497  1.00  0.00     0.009 C 
BRANCH   6   7
ATOM      7  C   UNL     1      43.662 -48.747 164.155  1.00  0.00     0.032 C 
ATOM      8  C   UNL     1      42.922 -48.325 165.430  1.00  0.00     0.014 C 
BRANCH   7   9
ATOM      9  C   UNL     1      43.718 -47.577 163.211  1.00  0.00     0.044 C 
ATOM     10  O   UNL     1      42.996 -47.563 162.179  1.00  0.00    -0.550 OA
ATOM     11  O   UNL     1      44.531 -46.486 163.490  1.00  0.00    -0.550 OA
ENDBRANCH   7   9
ENDBRANCH   6   7
ENDBRANCH   5   6
ENDBRANCH   4   5
ENDBRANCH   3   4
ENDBRANCH   2   3
ENDBRANCH   1   2
BRANCH   1  12
ATOM     12  C   UNL     1      51.054 -46.151 165.190  1.00  0.00     0.000 C 
BRANCH  12  13
ATOM     13  C   UNL     1      51.718 -47.497 165.510  1.00  0.00    -0.000 C 
BRANCH  13  14
ATOM     14  C   UNL     1      53.153 -47.294 166.018  1.00  0.00    -0.000 C 
BRANCH  14  15
ATOM     15  C   UNL     1      53.399 -45.875 166.563  1.00  0.00    -0.000 C 
BRANCH  15  16
ATOM     16  C   UNL     1      54.702 -45.210 166.080  1.00  0.00    -0.000 C 
BRANCH  16  17
ATOM     17  C   UNL     1      54.571 -44.362 164.799  1.00  0.00    -0.000 C 
BRANCH  17  18
ATOM     18  C   UNL     1      53.696 -43.106 164.942  1.00  0.00    -0.003 C 
ATOM     19  C   UNL     1      54.125 -41.972 164.012  1.00  0.00     0.004 C 
ENDBRANCH  17  18
ENDBRANCH  16  17
ENDBRANCH  15  16
ENDBRANCH  14  15
ENDBRANCH  13  14
ENDBRANCH  12  13
ENDBRANCH   1  12
TORSDOF 14
ENDMDL
MODEL 2
REMARK VINA RESULT:    -6.061      5.827     12.225
REMARK INTER + INTRA:         -12.008
REMARK INTER:                 -10.764
REMARK INTRA:                  -1.244
REMARK UNBOUND:                -0.986
REMARK SMILES CCCCCCCCCCCCCC[C@@H](C)C(=O)[O-]
REMARK SMILES IDX 9 1 10 2 11 3 12 4 13 5 14 6 15 7 16 8 17 9 18 10 19 11 8 12
REMARK SMILES IDX 7 13 6 14 5 15 4 16 3 17 2 18 1 19
REMARK H PARENT
REMARK Flexibility Score: inf
ROOT
ATOM      1  C   UNL     1      39.517 -49.676 162.941  1.00  0.00     0.000 C 
ENDROOT
BRANCH   1   2
ATOM      2  C   UNL     1      40.875 -49.921 163.615  1.00  0.00     0.000 C 
BRANCH   2   3
ATOM      3  C   UNL     1      41.704 -48.635 163.776  1.00  0.00     0.000 C 
BRANCH   3   4
ATOM      4  C   UNL     1      42.172 -48.333 165.214  1.00  0.00     0.000 C 
BRANCH   4   5
ATOM      5  C   UNL     1      43.693 -48.407 165.443  1.00  0.00     0.001 C 
BRANCH   5   6
ATOM      6  C   UNL     1      44.483 -49.223 164.397  1.00  0.00     0.009 C 
BRANCH   6   7
ATOM      7  C   UNL     1      45.648 -48.442 163.740  1.00  0.00     0.032 C 
ATOM      8  C   UNL     1      46.537 -49.386 162.921  1.00  0.00     0.014 C 
BRANCH   7   9
ATOM      9  C   UNL     1      45.148 -47.340 162.845  1.00  0.00     0.044 C 
ATOM     10  O   UNL     1      45.191 -46.142 163.234  1.00  0.00    -0.550 OA
ATOM     11  O   UNL     1      44.678 -47.627 161.570  1.00  0.00    -0.550 OA
ENDBRANCH   7   9
ENDBRANCH   6   7
ENDBRANCH   5   6
ENDBRANCH   4   5
ENDBRANCH   3   4
ENDBRANCH   2   3
ENDBRANCH   1   2
BRANCH   1  12
ATOM     12  C   UNL     1      39.532 -48.371 162.136  1.00  0.00     0.000 C 
BRANCH  12  13
ATOM     13  C   UNL     1      38.201 -48.160 161.404  1.00  0.00    -0.000 C 
BRANCH  13  14
ATOM     14  C   UNL     1      37.099 -49.050 162.000  1.00  0.00    -0.000 C 
BRANCH  14  15
ATOM     15  C   UNL     1      35.991 -49.389 160.986  1.00  0.00    -0.000 C 
BRANCH  15  16
ATOM     16  C   UNL     1      36.304 -49.000 159.527  1.00  0.00    -0.000 C 
BRANCH  16  17
ATOM     17  C   UNL     1      35.402 -47.900 158.933  1.00  0.00    -0.000 C 
BRANCH  17  18
ATOM     18  C   UNL     1      35.890 -46.462 159.178  1.00  0.00    -0.003 C 
ATOM     19  C   UNL     1      35.191 -45.790 160.359  1.00  0.00     0.004 C 
ENDBRANCH  17  18
ENDBRANCH  16  17
ENDBRANCH  15  16
ENDBRANCH  14  15
ENDBRANCH  13  14
ENDBRANCH  12  13
ENDBRANCH   1  12
TORSDOF 14
ENDMDL
MODEL 3
REMARK VINA RESULT:    -6.050      1.906      3.300
REMARK INTER + INTRA:         -11.988
REMARK INTER:                 -10.813
REMARK INTRA:                  -1.175
REMARK UNBOUND:                -0.986
REMARK SMILES CCCCCCCCCCCCCC[C@@H](C)C(=O)[O-]
REMARK SMILES IDX 9 1 10 2 11 3 12 4 13 5 14 6 15 7 16 8 17 9 18 10 19 11 8 12
REMARK SMILES IDX 7 13 6 14 5 15 4 16 3 17 2 18 1 19
REMARK H PARENT
REMARK Flexibility Score: inf
ROOT
ATOM      1  C   UNL     1      49.514 -47.046 164.652  1.00  0.00     0.000 C 
ENDROOT
BRANCH   1   2
ATOM      2  C   UNL     1      47.994 -47.122 164.858  1.00  0.00     0.000 C 
BRANCH   2   3
ATOM      3  C   UNL     1      47.414 -45.850 165.501  1.00  0.00     0.000 C 
BRANCH   3   4
ATOM      4  C   UNL     1      45.873 -45.770 165.519  1.00  0.00     0.000 C 
BRANCH   4   5
ATOM      5  C   UNL     1      45.146 -46.865 164.714  1.00  0.00     0.001 C 
BRANCH   5   6
ATOM      6  C   UNL     1      44.820 -46.506 163.249  1.00  0.00     0.009 C 
BRANCH   6   7
ATOM      7  C   UNL     1      45.036 -47.672 162.253  1.00  0.00     0.032 C 
ATOM      8  C   UNL     1      45.426 -48.954 162.999  1.00  0.00     0.014 C 
BRANCH   7   9
ATOM      9  C   UNL     1      43.805 -47.940 161.430  1.00  0.00     0.044 C 
ATOM     10  O   UNL     1      42.676 -48.004 161.984  1.00  0.00    -0.550 OA
ATOM     11  O   UNL     1      43.897 -48.074 160.050  1.00  0.00    -0.550 OA
ENDBRANCH   7   9
ENDBRANCH   6   7
ENDBRANCH   5   6
ENDBRANCH   4   5
ENDBRANCH   3   4
ENDBRANCH   2   3
ENDBRANCH   1   2
BRANCH   1  12
ATOM     12  C   UNL     1      50.234 -48.114 165.484  1.00  0.00     0.000 C 
BRANCH  12  13
ATOM     13  C   UNL     1      51.660 -47.670 165.835  1.00  0.00    -0.000 C 
BRANCH  13  14
ATOM     14  C   UNL     1      51.865 -46.180 165.519  1.00  0.00    -0.000 C 
BRANCH  14  15
ATOM     15  C   UNL     1      53.263 -45.673 165.917  1.00  0.00    -0.000 C 
BRANCH  15  16
ATOM     16  C   UNL     1      53.598 -45.797 167.416  1.00  0.00    -0.000 C 
BRANCH  16  17
ATOM     17  C   UNL     1      54.923 -46.518 167.736  1.00  0.00    -0.000 C 
BRANCH  17  18
ATOM     18  C   UNL     1      54.766 -47.867 168.458  1.00  0.00    -0.003 C 
ATOM     19  C   UNL     1      54.585 -49.040 167.495  1.00  0.00     0.004 C 
ENDBRANCH  17  18
ENDBRANCH  16  17
ENDBRANCH  15  16
ENDBRANCH  14  15
ENDBRANCH  13  14
ENDBRANCH  12  13
ENDBRANCH   1  12
TORSDOF 14
ENDMDL
MODEL 4
REMARK VINA RESULT:    -6.029      5.765     12.107
REMARK INTER + INTRA:         -11.949
REMARK INTER:                 -10.891
REMARK INTRA:                  -1.059
REMARK UNBOUND:                -0.986
REMARK SMILES CCCCCCCCCCCCCC[C@@H](C)C(=O)[O-]
REMARK SMILES IDX 9 1 10 2 11 3 12 4 13 5 14 6 15 7 16 8 17 9 18 10 19 11 8 12
REMARK SMILES IDX 7 13 6 14 5 15 4 16 3 17 2 18 1 19
REMARK H PARENT
REMARK Flexibility Score: inf
ROOT
ATOM      1  C   UNL     1      41.400 -47.921 162.503  1.00  0.00     0.000 C 
ENDROOT
BRANCH   1   2
ATOM      2  C   UNL     1      41.060 -49.164 163.338  1.00  0.00     0.000 C 
BRANCH   2   3
ATOM      3  C   UNL     1      41.361 -48.979 164.835  1.00  0.00     0.000 C 
BRANCH   3   4
ATOM      4  C   UNL     1      42.512 -48.003 165.156  1.00  0.00     0.000 C 
BRANCH   4   5
ATOM      5  C   UNL     1      43.875 -48.661 165.445  1.00  0.00     0.001 C 
BRANCH   5   6
ATOM      6  C   UNL     1      44.572 -49.306 164.228  1.00  0.00     0.009 C 
BRANCH   6   7
ATOM      7  C   UNL     1      45.763 -48.484 163.677  1.00  0.00     0.032 C 
ATOM      8  C   UNL     1      46.678 -49.367 162.820  1.00  0.00     0.014 C 
BRANCH   7   9
ATOM      9  C   UNL     1      45.300 -47.313 162.853  1.00  0.00     0.044 C 
ATOM     10  O   UNL     1      45.351 -46.147 163.328  1.00  0.00    -0.550 OA
ATOM     11  O   UNL     1      44.856 -47.500 161.550  1.00  0.00    -0.550 OA
ENDBRANCH   7   9
ENDBRANCH   6   7
ENDBRANCH   5   6
ENDBRANCH   4   5
ENDBRANCH   3   4
ENDBRANCH   2   3
ENDBRANCH   1   2
BRANCH   1  12
ATOM     12  C   UNL     1      40.162 -47.402 161.763  1.00  0.00     0.000 C 
BRANCH  12  13
ATOM     13  C   UNL     1      38.987 -48.378 161.903  1.00  0.00    -0.000 C 
BRANCH  13  14
ATOM     14  C   UNL     1      37.830 -47.981 160.974  1.00  0.00    -0.000 C 
BRANCH  14  15
ATOM     15  C   UNL     1      36.519 -48.718 161.306  1.00  0.00    -0.000 C 
BRANCH  15  16
ATOM     16  C   UNL     1      36.643 -49.815 162.382  1.00  0.00    -0.000 C 
BRANCH  16  17
ATOM     17  C   UNL     1      35.474 -50.818 162.435  1.00  0.00    -0.000 C 
BRANCH  17  18
ATOM     18  C   UNL     1      35.895 -52.293 162.557  1.00  0.00    -0.003 C 
ATOM     19  C   UNL     1      35.939 -52.782 164.004  1.00  0.00     0.004 C 
ENDBRANCH  17  18
ENDBRANCH  16  17
ENDBRANCH  15  16
ENDBRANCH  14  15
ENDBRANCH  13  14
ENDBRANCH  12  13
ENDBRANCH   1  12
TORSDOF 14
ENDMDL
MODEL 5
REMARK VINA RESULT:    -6.017      1.746      2.382
REMARK INTER + INTRA:         -11.928
REMARK INTER:                 -10.737
REMARK INTRA:                  -1.191
REMARK UNBOUND:                -0.986
REMARK SMILES CCCCCCCCCCCCCC[C@@H](C)C(=O)[O-]
REMARK SMILES IDX 9 1 10 2 11 3 12 4 13 5 14 6 15 7 16 8 17 9 18 10 19 11 8 12
REMARK SMILES IDX 7 13 6 14 5 15 4 16 3 17 2 18 1 19
REMARK H PARENT
REMARK Flexibility Score: inf
ROOT
ATOM      1  C   UNL     1      50.375 -45.798 164.681  1.00  0.00     0.000 C 
ENDROOT
BRANCH   1   2
ATOM      2  C   UNL     1      48.917 -45.458 164.342  1.00  0.00     0.000 C 
BRANCH   2   3
ATOM      3  C   UNL     1      47.939 -46.588 164.709  1.00  0.00     0.000 C 
BRANCH   3   4
ATOM      4  C   UNL     1      46.685 -46.140 165.489  1.00  0.00     0.000 C 
BRANCH   4   5
ATOM      5  C   UNL     1      45.426 -45.904 164.634  1.00  0.00     0.001 C 
BRANCH   5   6
ATOM      6  C   UNL     1      45.477 -46.481 163.203  1.00  0.00     0.009 C 
BRANCH   6   7
ATOM      7  C   UNL     1      44.581 -47.726 162.994  1.00  0.00     0.032 C 
ATOM      8  C   UNL     1      44.185 -47.866 161.520  1.00  0.00     0.014 C 
BRANCH   7   9
ATOM      9  C   UNL     1      45.267 -48.989 163.439  1.00  0.00     0.044 C 
ATOM     10  O   UNL     1      44.734 -49.723 164.314  1.00  0.00    -0.550 OA
ATOM     11  O   UNL     1      46.468 -49.379 162.861  1.00  0.00    -0.550 OA
ENDBRANCH   7   9
ENDBRANCH   6   7
ENDBRANCH   5   6
ENDBRANCH   4   5
ENDBRANCH   3   4
ENDBRANCH   2   3
ENDBRANCH   1   2
BRANCH   1  12
ATOM     12  C   UNL     1      50.500 -47.243 165.179  1.00  0.00     0.000 C 
BRANCH  12  13
ATOM     13  C   UNL     1      51.905 -47.515 165.732  1.00  0.00    -0.000 C 
BRANCH  13  14
ATOM     14  C   UNL     1      52.584 -46.210 166.173  1.00  0.00    -0.000 C 
BRANCH  14  15
ATOM     15  C   UNL     1      54.111 -46.233 165.971  1.00  0.00    -0.000 C 
BRANCH  15  16
ATOM     16  C   UNL     1      54.773 -44.846 165.862  1.00  0.00    -0.000 C 
BRANCH  16  17
ATOM     17  C   UNL     1      54.303 -43.985 164.673  1.00  0.00    -0.000 C 
BRANCH  17  18
ATOM     18  C   UNL     1      53.486 -42.740 165.060  1.00  0.00    -0.003 C 
ATOM     19  C   UNL     1      53.901 -42.151 166.408  1.00  0.00     0.004 C 
ENDBRANCH  17  18
ENDBRANCH  16  17
ENDBRANCH  15  16
ENDBRANCH  14  15
ENDBRANCH  13  14
ENDBRANCH  12  13
ENDBRANCH   1  12
TORSDOF 14
ENDMDL
MODEL 6
REMARK VINA RESULT:    -6.002      2.340      3.710
REMARK INTER + INTRA:         -11.900
REMARK INTER:                 -10.712
REMARK INTRA:                  -1.188
REMARK UNBOUND:                -0.986
REMARK SMILES CCCCCCCCCCCCCC[C@@H](C)C(=O)[O-]
REMARK SMILES IDX 9 1 10 2 11 3 12 4 13 5 14 6 15 7 16 8 17 9 18 10 19 11 8 12
REMARK SMILES IDX 7 13 6 14 5 15 4 16 3 17 2 18 1 19
REMARK H PARENT
REMARK Flexibility Score: inf
ROOT
ATOM      1  C   UNL     1      50.064 -46.029 164.749  1.00  0.00     0.000 C 
ENDROOT
BRANCH   1   2
ATOM      2  C   UNL     1      48.617 -45.727 164.334  1.00  0.00     0.000 C 
BRANCH   2   3
ATOM      3  C   UNL     1      47.585 -46.555 165.119  1.00  0.00     0.000 C 
BRANCH   3   4
ATOM      4  C   UNL     1      46.331 -45.780 165.571  1.00  0.00     0.000 C 
BRANCH   4   5
ATOM      5  C   UNL     1      45.014 -46.202 164.893  1.00  0.00     0.001 C 
BRANCH   5   6
ATOM      6  C   UNL     1      45.102 -46.465 163.375  1.00  0.00     0.009 C 
BRANCH   6   7
ATOM      7  C   UNL     1      44.528 -47.835 162.939  1.00  0.00     0.032 C 
ATOM      8  C   UNL     1      44.455 -47.928 161.410  1.00  0.00     0.014 C 
BRANCH   7   9
ATOM      9  C   UNL     1      45.355 -48.979 163.461  1.00  0.00     0.044 C 
ATOM     10  O   UNL     1      46.372 -49.365 162.826  1.00  0.00    -0.550 OA
ATOM     11  O   UNL     1      45.030 -49.590 164.666  1.00  0.00    -0.550 OA
ENDBRANCH   7   9
ENDBRANCH   6   7
ENDBRANCH   5   6
ENDBRANCH   4   5
ENDBRANCH   3   4
ENDBRANCH   2   3
ENDBRANCH   1   2
BRANCH   1  12
ATOM     12  C   UNL     1      50.231 -47.507 165.121  1.00  0.00     0.000 C 
BRANCH  12  13
ATOM     13  C   UNL     1      51.574 -47.750 165.823  1.00  0.00    -0.000 C 
BRANCH  13  14
ATOM     14  C   UNL     1      52.412 -46.464 165.866  1.00  0.00    -0.000 C 
BRANCH  14  15
ATOM     15  C   UNL     1      53.864 -46.712 166.314  1.00  0.00    -0.000 C 
BRANCH  15  16
ATOM     16  C   UNL     1      54.702 -47.576 165.351  1.00  0.00    -0.000 C 
BRANCH  16  17
ATOM     17  C   UNL     1      55.123 -48.954 165.902  1.00  0.00    -0.000 C 
BRANCH  17  18
ATOM     18  C   UNL     1      54.631 -49.256 167.329  1.00  0.00    -0.003 C 
ATOM     19  C   UNL     1      53.569 -50.353 167.372  1.00  0.00     0.004 C 
ENDBRANCH  17  18
ENDBRANCH  16  17
ENDBRANCH  15  16
ENDBRANCH  14  15
ENDBRANCH  13  14
ENDBRANCH  12  13
ENDBRANCH   1  12
TORSDOF 14
ENDMDL
MODEL 7
REMARK VINA RESULT:    -5.998      6.918      9.634
REMARK INTER + INTRA:         -11.893
REMARK INTER:                 -10.358
REMARK INTRA:                  -1.535
REMARK UNBOUND:                -0.986
REMARK SMILES CCCCCCCCCCCCCC[C@@H](C)C(=O)[O-]
REMARK SMILES IDX 9 1 10 2 11 3 12 4 13 5 14 6 15 7 16 8 17 9 18 10 19 11 8 12
REMARK SMILES IDX 7 13 6 14 5 15 4 16 3 17 2 18 1 19
REMARK H PARENT
REMARK Flexibility Score: inf
ROOT
ATOM      1  C   UNL     1      41.298 -48.914 163.091  1.00  0.00     0.000 C 
ENDROOT
BRANCH   1   2
ATOM      2  C   UNL     1      40.897 -47.602 162.404  1.00  0.00     0.000 C 
BRANCH   2   3
ATOM      3  C   UNL     1      39.511 -47.674 161.741  1.00  0.00     0.000 C 
BRANCH   3   4
ATOM      4  C   UNL     1      38.659 -48.898 162.136  1.00  0.00     0.000 C 
BRANCH   4   5
ATOM      5  C   UNL     1      37.247 -48.945 161.522  1.00  0.00     0.001 C 
BRANCH   5   6
ATOM      6  C   UNL     1      36.125 -49.420 162.471  1.00  0.00     0.009 C 
BRANCH   6   7
ATOM      7  C   UNL     1      35.274 -50.583 161.905  1.00  0.00     0.032 C 
ATOM      8  C   UNL     1      35.272 -50.555 160.373  1.00  0.00     0.014 C 
BRANCH   7   9
ATOM      9  C   UNL     1      35.780 -51.923 162.370  1.00  0.00     0.044 C 
ATOM     10  O   UNL     1      36.039 -52.112 163.588  1.00  0.00    -0.550 OA
ATOM     11  O   UNL     1      35.922 -52.972 161.471  1.00  0.00    -0.550 OA
ENDBRANCH   7   9
ENDBRANCH   6   7
ENDBRANCH   5   6
ENDBRANCH   4   5
ENDBRANCH   3   4
ENDBRANCH   2   3
ENDBRANCH   1   2
BRANCH   1  12
ATOM     12  C   UNL     1      41.211 -48.784 164.617  1.00  0.00     0.000 C 
BRANCH  12  13
ATOM     13  C   UNL     1      42.420 -48.022 165.174  1.00  0.00    -0.000 C 
BRANCH  13  14
ATOM     14  C   UNL     1      43.673 -48.910 165.181  1.00  0.00    -0.000 C 
BRANCH  14  15
ATOM     15  C   UNL     1      44.905 -48.208 164.579  1.00  0.00    -0.000 C 
BRANCH  15  16
ATOM     16  C   UNL     1      44.643 -46.792 164.030  1.00  0.00    -0.000 C 
BRANCH  16  17
ATOM     17  C   UNL     1      44.620 -46.679 162.492  1.00  0.00    -0.000 C 
BRANCH  17  18
ATOM     18  C   UNL     1      44.717 -48.019 161.744  1.00  0.00    -0.003 C 
ATOM     19  C   UNL     1      43.927 -48.029 160.436  1.00  0.00     0.004 C 
ENDBRANCH  17  18
ENDBRANCH  16  17
ENDBRANCH  15  16
ENDBRANCH  14  15
ENDBRANCH  13  14
ENDBRANCH  12  13
ENDBRANCH   1  12
TORSDOF 14
ENDMDL
MODEL 8
REMARK VINA RESULT:    -5.988      1.799      2.662
REMARK INTER + INTRA:         -11.875
REMARK INTER:                 -10.576
REMARK INTRA:                  -1.299
REMARK UNBOUND:                -0.986
REMARK SMILES CCCCCCCCCCCCCC[C@@H](C)C(=O)[O-]
REMARK SMILES IDX 9 1 10 2 11 3 12 4 13 5 14 6 15 7 16 8 17 9 18 10 19 11 8 12
REMARK SMILES IDX 7 13 6 14 5 15 4 16 3 17 2 18 1 19
REMARK H PARENT
REMARK Flexibility Score: inf
ROOT
ATOM      1  C   UNL     1      51.278 -46.548 165.864  1.00  0.00     0.000 C 
ENDROOT
BRANCH   1   2
ATOM      2  C   UNL     1      50.334 -46.103 164.738  1.00  0.00     0.000 C 
BRANCH   2   3
ATOM      3  C   UNL     1      48.970 -46.814 164.785  1.00  0.00     0.000 C 
BRANCH   3   4
ATOM      4  C   UNL     1      47.771 -45.908 165.134  1.00  0.00     0.000 C 
BRANCH   4   5
ATOM      5  C   UNL     1      46.384 -46.550 164.949  1.00  0.00     0.001 C 
BRANCH   5   6
ATOM      6  C   UNL     1      45.785 -46.440 163.530  1.00  0.00     0.009 C 
BRANCH   6   7
ATOM      7  C   UNL     1      44.897 -47.643 163.127  1.00  0.00     0.032 C 
ATOM      8  C   UNL     1      44.556 -47.586 161.633  1.00  0.00     0.014 C 
BRANCH   7   9
ATOM      9  C   UNL     1      45.566 -48.957 163.427  1.00  0.00     0.044 C 
ATOM     10  O   UNL     1      44.986 -49.811 164.149  1.00  0.00    -0.550 OA
ATOM     11  O   UNL     1      46.806 -49.258 162.878  1.00  0.00    -0.550 OA
ENDBRANCH   7   9
ENDBRANCH   6   7
ENDBRANCH   5   6
ENDBRANCH   4   5
ENDBRANCH   3   4
ENDBRANCH   2   3
ENDBRANCH   1   2
BRANCH   1  12
ATOM     12  C   UNL     1      51.913 -47.907 165.542  1.00  0.00     0.000 C 
BRANCH  12  13
ATOM     13  C   UNL     1      53.442 -47.836 165.634  1.00  0.00    -0.000 C 
BRANCH  13  14
ATOM     14  C   UNL     1      53.923 -48.169 167.055  1.00  0.00    -0.000 C 
BRANCH  14  15
ATOM     15  C   UNL     1      54.789 -47.054 167.669  1.00  0.00    -0.000 C 
BRANCH  15  16
ATOM     16  C   UNL     1      54.013 -45.796 168.108  1.00  0.00    -0.000 C 
BRANCH  16  17
ATOM     17  C   UNL     1      54.503 -44.473 167.486  1.00  0.00    -0.000 C 
BRANCH  17  18
ATOM     18  C   UNL     1      54.714 -44.515 165.962  1.00  0.00    -0.003 C 
ATOM     19  C   UNL     1      53.603 -43.808 165.188  1.00  0.00     0.004 C 
ENDBRANCH  17  18
ENDBRANCH  16  17
ENDBRANCH  15  16
ENDBRANCH  14  15
ENDBRANCH  13  14
ENDBRANCH  12  13
ENDBRANCH   1  12
TORSDOF 14
ENDMDL
MODEL 9
REMARK VINA RESULT:    -5.953      5.749     12.696
REMARK INTER + INTRA:         -11.812
REMARK INTER:                 -10.380
REMARK INTRA:                  -1.432
REMARK UNBOUND:                -0.986
REMARK SMILES CCCCCCCCCCCCCC[C@@H](C)C(=O)[O-]
REMARK SMILES IDX 9 1 10 2 11 3 12 4 13 5 14 6 15 7 16 8 17 9 18 10 19 11 8 12
REMARK SMILES IDX 7 13 6 14 5 15 4 16 3 17 2 18 1 19
REMARK H PARENT
REMARK Flexibility Score: inf
ROOT
ATOM      1  C   UNL     1      38.685 -48.026 161.407  1.00  0.00     0.000 C 
ENDROOT
BRANCH   1   2
ATOM      2  C   UNL     1      40.116 -47.585 161.748  1.00  0.00     0.000 C 
BRANCH   2   3
ATOM      3  C   UNL     1      40.729 -48.388 162.909  1.00  0.00     0.000 C 
BRANCH   3   4
ATOM      4  C   UNL     1      42.269 -48.359 162.983  1.00  0.00     0.000 C 
BRANCH   4   5
ATOM      5  C   UNL     1      42.975 -47.695 161.785  1.00  0.00     0.001 C 
BRANCH   5   6
ATOM      6  C   UNL     1      44.517 -47.770 161.798  1.00  0.00     0.009 C 
BRANCH   6   7
ATOM      7  C   UNL     1      45.111 -48.290 163.131  1.00  0.00     0.032 C 
ATOM      8  C   UNL     1      46.177 -49.359 162.866  1.00  0.00     0.014 C 
BRANCH   7   9
ATOM      9  C   UNL     1      45.721 -47.179 163.942  1.00  0.00     0.044 C 
ATOM     10  O   UNL     1      46.877 -47.310 164.424  1.00  0.00    -0.550 OA
ATOM     11  O   UNL     1      45.035 -45.985 164.130  1.00  0.00    -0.550 OA
ENDBRANCH   7   9
ENDBRANCH   6   7
ENDBRANCH   5   6
ENDBRANCH   4   5
ENDBRANCH   3   4
ENDBRANCH   2   3
ENDBRANCH   1   2
BRANCH   1  12
ATOM     12  C   UNL     1      38.199 -49.109 162.378  1.00  0.00     0.000 C 
BRANCH  12  13
ATOM     13  C   UNL     1      36.669 -49.104 162.487  1.00  0.00    -0.000 C 
BRANCH  13  14
ATOM     14  C   UNL     1      36.065 -50.331 161.788  1.00  0.00    -0.000 C 
BRANCH  14  15
ATOM     15  C   UNL     1      35.190 -49.958 160.577  1.00  0.00    -0.000 C 
BRANCH  15  16
ATOM     16  C   UNL     1      35.968 -49.476 159.337  1.00  0.00    -0.000 C 
BRANCH  16  17
ATOM     17  C   UNL     1      35.521 -48.113 158.770  1.00  0.00    -0.000 C 
BRANCH  17  18
ATOM     18  C   UNL     1      35.255 -47.029 159.829  1.00  0.00    -0.003 C 
ATOM     19  C   UNL     1      36.206 -45.839 159.716  1.00  0.00     0.004 C 
ENDBRANCH  17  18
ENDBRANCH  16  17
ENDBRANCH  15  16
ENDBRANCH  14  15
ENDBRANCH  13  14
ENDBRANCH  12  13
ENDBRANCH   1  12
TORSDOF 14
ENDMDL
