MODEL 1
REMARK VINA RESULT:     1.322      0.000      0.000
REMARK INTER + INTRA:           2.382
REMARK INTER:                   3.485
REMARK INTRA:                  -1.104
REMARK UNBOUND:                -1.104
REMARK SMILES CCCCCCCCCCCCCCCCCCCCCCCCCCCCCC(=O)[O-]
REMARK SMILES IDX 16 1 17 2 18 3 19 4 20 5 21 6 22 7 23 8 24 9 25 10 26 11
REMARK SMILES IDX 27 12 28 13 29 14 30 15 31 16 32 17 15 18 14 19 13 20 12 21
REMARK SMILES IDX 11 22 10 23 9 24 8 25 7 26 6 27 5 28 4 29 3 30 2 31 1 32
REMARK H PARENT
REMARK Flexibility Score: inf
ROOT
ATOM      1  C   UNL     1       3.982  20.119  16.242  1.00  0.00     0.000 C 
ENDROOT
BRANCH   1   2
ATOM      2  C   UNL     1       5.135  20.815  15.499  1.00  0.00     0.000 C 
BRANCH   2   3
ATOM      3  C   UNL     1       6.079  21.567  16.453  1.00  0.00     0.000 C 
BRANCH   3   4
ATOM      4  C   UNL     1       7.447  20.877  16.581  1.00  0.00     0.000 C 
BRANCH   4   5
ATOM      5  C   UNL     1       7.732  19.924  15.404  1.00  0.00     0.000 C 
BRANCH   5   6
ATOM      6  C   UNL     1       7.609  20.621  14.033  1.00  0.00     0.000 C 
BRANCH   6   7
ATOM      7  C   UNL     1       8.309  19.875  12.881  1.00  0.00     0.000 C 
BRANCH   7   8
ATOM      8  C   UNL     1       8.439  20.665  11.565  1.00  0.00     0.000 C 
BRANCH   8   9
ATOM      9  C   UNL     1       9.599  20.224  10.652  1.00  0.00     0.000 C 
BRANCH   9  10
ATOM     10  C   UNL     1      10.802  21.182  10.700  1.00  0.00     0.000 C 
BRANCH  10  11
ATOM     11  C   UNL     1      10.971  21.828  12.093  1.00  0.00     0.000 C 
BRANCH  11  12
ATOM     12  C   UNL     1      10.734  23.349  12.105  1.00  0.00     0.000 C 
BRANCH  12  13
ATOM     13  C   UNL     1      11.112  24.027  10.781  1.00  0.00     0.006 C 
BRANCH  13  14
ATOM     14  C   UNL     1      10.052  25.051  10.364  1.00  0.00     0.053 C 
BRANCH  14  15
ATOM     15  C   UNL     1       9.495  24.711   9.018  1.00  0.00     0.041 C 
ATOM     16  O   UNL     1       9.552  23.529   8.589  1.00  0.00    -0.550 OA
ATOM     17  O   UNL     1       8.930  25.705   8.225  1.00  0.00    -0.550 OA
ENDBRANCH  14  15
ENDBRANCH  13  14
ENDBRANCH  12  13
ENDBRANCH  11  12
ENDBRANCH  10  11
ENDBRANCH   9  10
ENDBRANCH   8   9
ENDBRANCH   7   8
ENDBRANCH   6   7
ENDBRANCH   5   6
ENDBRANCH   4   5
ENDBRANCH   3   4
ENDBRANCH   2   3
ENDBRANCH   1   2
BRANCH   1  18
ATOM     18  C   UNL     1       2.716  19.996  15.377  1.00  0.00     0.000 C 
BRANCH  18  19
ATOM     19  C   UNL     1       1.530  20.790  15.966  1.00  0.00     0.000 C 
BRANCH  19  20
ATOM     20  C   UNL     1       0.187  20.044  15.885  1.00  0.00     0.000 C 
BRANCH  20  21
ATOM     21  C   UNL     1      -0.557  20.013  17.229  1.00  0.00     0.000 C 
BRANCH  21  22
ATOM     22  C   UNL     1      -1.663  21.080  17.334  1.00  0.00     0.000 C 
BRANCH  22  23
ATOM     23  C   UNL     1      -2.453  21.352  16.041  1.00  0.00     0.000 C 
BRANCH  23  24
ATOM     24  C   UNL     1      -3.422  20.216  15.672  1.00  0.00    -0.000 C 
BRANCH  24  25
ATOM     25  C   UNL     1      -4.898  20.628  15.814  1.00  0.00    -0.000 C 
BRANCH  25  26
ATOM     26  C   UNL     1      -5.736  20.521  14.524  1.00  0.00    -0.000 C 
BRANCH  26  27
ATOM     27  C   UNL     1      -7.259  20.470  14.736  1.00  0.00    -0.000 C 
BRANCH  27  28
ATOM     28  C   UNL     1      -7.731  21.369  15.889  1.00  0.00    -0.000 C 
BRANCH  28  29
ATOM     29  C   UNL     1      -9.007  20.812  16.537  1.00  0.00    -0.000 C 
BRANCH  29  30
ATOM     30  C   UNL     1      -8.712  19.995  17.807  1.00  0.00    -0.000 C 
BRANCH  30  31
ATOM     31  C   UNL     1      -7.484  20.513  18.569  1.00  0.00    -0.003 C 
ATOM     32  C   UNL     1      -7.786  20.666  20.058  1.00  0.00     0.004 C 
ENDBRANCH  30  31
ENDBRANCH  29  30
ENDBRANCH  28  29
ENDBRANCH  27  28
ENDBRANCH  26  27
ENDBRANCH  25  26
ENDBRANCH  24  25
ENDBRANCH  23  24
ENDBRANCH  22  23
ENDBRANCH  21  22
ENDBRANCH  20  21
ENDBRANCH  19  20
ENDBRANCH  18  19
ENDBRANCH   1  18
TORSDOF 28
ENDMDL
MODEL 2
REMARK VINA RESULT:     1.945      1.719      3.384
REMARK INTER + INTRA:           4.025
REMARK INTER:                   3.139
REMARK INTRA:                   0.886
REMARK UNBOUND:                -1.104
REMARK SMILES CCCCCCCCCCCCCCCCCCCCCCCCCCCCCC(=O)[O-]
REMARK SMILES IDX 16 1 17 2 18 3 19 4 20 5 21 6 22 7 23 8 24 9 25 10 26 11
REMARK SMILES IDX 27 12 28 13 29 14 30 15 31 16 32 17 15 18 14 19 13 20 12 21
REMARK SMILES IDX 11 22 10 23 9 24 8 25 7 26 6 27 5 28 4 29 3 30 2 31 1 32
REMARK H PARENT
REMARK Flexibility Score: inf
ROOT
ATOM      1  C   UNL     1      -0.383  20.029  16.757  1.00  0.00     0.000 C 
ENDROOT
BRANCH   1   2
ATOM      2  C   UNL     1       0.682  19.989  15.649  1.00  0.00     0.000 C 
BRANCH   2   3
ATOM      3  C   UNL     1       2.112  20.093  16.205  1.00  0.00     0.000 C 
BRANCH   3   4
ATOM      4  C   UNL     1       3.077  20.756  15.209  1.00  0.00     0.000 C 
BRANCH   4   5
ATOM      5  C   UNL     1       4.534  20.298  15.416  1.00  0.00     0.000 C 
BRANCH   5   6
ATOM      6  C   UNL     1       5.516  21.481  15.536  1.00  0.00     0.000 C 
BRANCH   6   7
ATOM      7  C   UNL     1       6.560  21.325  16.659  1.00  0.00     0.000 C 
BRANCH   7   8
ATOM      8  C   UNL     1       8.012  21.123  16.189  1.00  0.00     0.000 C 
BRANCH   8   9
ATOM      9  C   UNL     1       8.235  19.909  15.265  1.00  0.00     0.000 C 
BRANCH   9  10
ATOM     10  C   UNL     1       8.934  20.276  13.945  1.00  0.00     0.000 C 
BRANCH  10  11
ATOM     11  C   UNL     1      10.425  19.876  13.950  1.00  0.00     0.000 C 
BRANCH  11  12
ATOM     12  C   UNL     1      11.124  20.063  12.591  1.00  0.00     0.000 C 
BRANCH  12  13
ATOM     13  C   UNL     1      10.149  20.403  11.456  1.00  0.00     0.006 C 
BRANCH  13  14
ATOM     14  C   UNL     1      10.769  21.406  10.478  1.00  0.00     0.053 C 
BRANCH  14  15
ATOM     15  C   UNL     1      10.268  21.163   9.089  1.00  0.00     0.041 C 
ATOM     16  O   UNL     1      10.972  21.488   8.096  1.00  0.00    -0.550 OA
ATOM     17  O   UNL     1       9.014  20.597   8.889  1.00  0.00    -0.550 OA
ENDBRANCH  14  15
ENDBRANCH  13  14
ENDBRANCH  12  13
ENDBRANCH  11  12
ENDBRANCH  10  11
ENDBRANCH   9  10
ENDBRANCH   8   9
ENDBRANCH   7   8
ENDBRANCH   6   7
ENDBRANCH   5   6
ENDBRANCH   4   5
ENDBRANCH   3   4
ENDBRANCH   2   3
ENDBRANCH   1   2
BRANCH   1  18
ATOM     18  C   UNL     1      -0.110  21.132  17.795  1.00  0.00     0.000 C 
BRANCH  18  19
ATOM     19  C   UNL     1      -1.376  21.500  18.598  1.00  0.00     0.000 C 
BRANCH  19  20
ATOM     20  C   UNL     1      -2.666  20.882  18.033  1.00  0.00     0.000 C 
BRANCH  20  21
ATOM     21  C   UNL     1      -2.403  19.927  16.859  1.00  0.00     0.000 C 
BRANCH  21  22
ATOM     22  C   UNL     1      -3.548  19.902  15.828  1.00  0.00     0.000 C 
BRANCH  22  23
ATOM     23  C   UNL     1      -3.729  21.187  15.001  1.00  0.00     0.000 C 
BRANCH  23  24
ATOM     24  C   UNL     1      -5.203  21.523  14.717  1.00  0.00    -0.000 C 
BRANCH  24  25
ATOM     25  C   UNL     1      -6.071  20.266  14.536  1.00  0.00    -0.000 C 
BRANCH  25  26
ATOM     26  C   UNL     1      -7.589  20.488  14.701  1.00  0.00    -0.000 C 
BRANCH  26  27
ATOM     27  C   UNL     1      -8.014  21.138  16.030  1.00  0.00    -0.000 C 
BRANCH  27  28
ATOM     28  C   UNL     1      -8.350  20.106  17.118  1.00  0.00    -0.000 C 
BRANCH  28  29
ATOM     29  C   UNL     1      -7.236  20.033  18.172  1.00  0.00    -0.000 C 
BRANCH  29  30
ATOM     30  C   UNL     1      -7.374  21.122  19.249  1.00  0.00    -0.000 C 
BRANCH  30  31
ATOM     31  C   UNL     1      -8.827  21.319  19.705  1.00  0.00    -0.003 C 
ATOM     32  C   UNL     1      -8.994  22.640  20.451  1.00  0.00     0.004 C 
ENDBRANCH  30  31
ENDBRANCH  29  30
ENDBRANCH  28  29
ENDBRANCH  27  28
ENDBRANCH  26  27
ENDBRANCH  25  26
ENDBRANCH  24  25
ENDBRANCH  23  24
ENDBRANCH  22  23
ENDBRANCH  21  22
ENDBRANCH  20  21
ENDBRANCH  19  20
ENDBRANCH  18  19
ENDBRANCH   1  18
TORSDOF 28
ENDMDL
MODEL 3
REMARK VINA RESULT:     2.981      1.834      3.864
REMARK INTER + INTRA:           6.757
REMARK INTER:                   8.306
REMARK INTRA:                  -1.550
REMARK UNBOUND:                -1.104
REMARK SMILES CCCCCCCCCCCCCCCCCCCCCCCCCCCCCC(=O)[O-]
REMARK SMILES IDX 16 1 17 2 18 3 19 4 20 5 21 6 22 7 23 8 24 9 25 10 26 11
REMARK SMILES IDX 27 12 28 13 29 14 30 15 31 16 32 17 15 18 14 19 13 20 12 21
REMARK SMILES IDX 11 22 10 23 9 24 8 25 7 26 6 27 5 28 4 29 3 30 2 31 1 32
REMARK H PARENT
REMARK Flexibility Score: inf
ROOT
ATOM      1  C   UNL     1       0.546  22.336  15.162  1.00  0.00     0.000 C 
ENDROOT
BRANCH   1   2
ATOM      2  C   UNL     1       1.214  20.990  14.838  1.00  0.00     0.000 C 
BRANCH   2   3
ATOM      3  C   UNL     1       1.859  20.341  16.074  1.00  0.00     0.000 C 
BRANCH   3   4
ATOM      4  C   UNL     1       3.377  20.161  15.912  1.00  0.00     0.000 C 
BRANCH   4   5
ATOM      5  C   UNL     1       4.122  21.508  15.856  1.00  0.00     0.000 C 
BRANCH   5   6
ATOM      6  C   UNL     1       5.622  21.371  16.191  1.00  0.00     0.000 C 
BRANCH   6   7
ATOM      7  C   UNL     1       6.421  20.528  15.178  1.00  0.00     0.000 C 
BRANCH   7   8
ATOM      8  C   UNL     1       7.727  19.914  15.714  1.00  0.00     0.000 C 
BRANCH   8   9
ATOM      9  C   UNL     1       8.998  20.743  15.441  1.00  0.00     0.000 C 
BRANCH   9  10
ATOM     10  C   UNL     1      10.219  19.876  15.089  1.00  0.00     0.000 C 
BRANCH  10  11
ATOM     11  C   UNL     1      10.929  20.369  13.809  1.00  0.00     0.000 C 
BRANCH  11  12
ATOM     12  C   UNL     1      10.438  21.742  13.316  1.00  0.00     0.000 C 
BRANCH  12  13
ATOM     13  C   UNL     1      10.423  21.861  11.786  1.00  0.00     0.006 C 
BRANCH  13  14
ATOM     14  C   UNL     1      10.492  20.481  11.125  1.00  0.00     0.053 C 
BRANCH  14  15
ATOM     15  C   UNL     1      10.102  20.569   9.683  1.00  0.00     0.041 C 
ATOM     16  O   UNL     1       9.047  20.012   9.278  1.00  0.00    -0.550 OA
ATOM     17  O   UNL     1      10.913  21.248   8.781  1.00  0.00    -0.550 OA
ENDBRANCH  14  15
ENDBRANCH  13  14
ENDBRANCH  12  13
ENDBRANCH  11  12
ENDBRANCH  10  11
ENDBRANCH   9  10
ENDBRANCH   8   9
ENDBRANCH   7   8
ENDBRANCH   6   7
ENDBRANCH   5   6
ENDBRANCH   4   5
ENDBRANCH   3   4
ENDBRANCH   2   3
ENDBRANCH   1   2
BRANCH   1  18
ATOM     18  C   UNL     1      -0.983  22.289  14.991  1.00  0.00     0.000 C 
BRANCH  18  19
ATOM     19  C   UNL     1      -1.663  21.427  16.076  1.00  0.00     0.000 C 
BRANCH  19  20
ATOM     20  C   UNL     1      -2.759  20.496  15.528  1.00  0.00     0.000 C 
BRANCH  20  21
ATOM     21  C   UNL     1      -4.172  20.931  15.947  1.00  0.00     0.000 C 
BRANCH  21  22
ATOM     22  C   UNL     1      -5.285  20.233  15.142  1.00  0.00     0.000 C 
BRANCH  22  23
ATOM     23  C   UNL     1      -6.193  21.162  14.315  1.00  0.00     0.000 C 
BRANCH  23  24
ATOM     24  C   UNL     1      -7.677  21.069  14.712  1.00  0.00    -0.000 C 
BRANCH  24  25
ATOM     25  C   UNL     1      -7.963  19.891  15.658  1.00  0.00    -0.000 C 
BRANCH  25  26
ATOM     26  C   UNL     1      -8.819  20.234  16.895  1.00  0.00    -0.000 C 
BRANCH  26  27
ATOM     27  C   UNL     1      -8.153  19.946  18.252  1.00  0.00    -0.000 C 
BRANCH  27  28
ATOM     28  C   UNL     1      -8.861  20.645  19.423  1.00  0.00    -0.000 C 
BRANCH  28  29
ATOM     29  C   UNL     1      -8.027  21.821  19.950  1.00  0.00    -0.000 C 
BRANCH  29  30
ATOM     30  C   UNL     1      -8.517  22.323  21.318  1.00  0.00    -0.000 C 
BRANCH  30  31
ATOM     31  C   UNL     1      -8.886  21.176  22.270  1.00  0.00    -0.003 C 
ATOM     32  C   UNL     1      -7.636  20.476  22.797  1.00  0.00     0.004 C 
ENDBRANCH  30  31
ENDBRANCH  29  30
ENDBRANCH  28  29
ENDBRANCH  27  28
ENDBRANCH  26  27
ENDBRANCH  25  26
ENDBRANCH  24  25
ENDBRANCH  23  24
ENDBRANCH  22  23
ENDBRANCH  21  22
ENDBRANCH  20  21
ENDBRANCH  19  20
ENDBRANCH  18  19
ENDBRANCH   1  18
TORSDOF 28
ENDMDL
MODEL 4
REMARK VINA RESULT:     3.701      1.387      2.154
REMARK INTER + INTRA:           8.656
REMARK INTER:                  10.241
REMARK INTRA:                  -1.585
REMARK UNBOUND:                -1.104
REMARK SMILES CCCCCCCCCCCCCCCCCCCCCCCCCCCCCC(=O)[O-]
REMARK SMILES IDX 16 1 17 2 18 3 19 4 20 5 21 6 22 7 23 8 24 9 25 10 26 11
REMARK SMILES IDX 27 12 28 13 29 14 30 15 31 16 32 17 15 18 14 19 13 20 12 21
REMARK SMILES IDX 11 22 10 23 9 24 8 25 7 26 6 27 5 28 4 29 3 30 2 31 1 32
REMARK H PARENT
REMARK Flexibility Score: inf
ROOT
ATOM      1  C   UNL     1       2.399  21.865  15.578  1.00  0.00     0.000 C 
ENDROOT
BRANCH   1   2
ATOM      2  C   UNL     1       3.920  22.084  15.644  1.00  0.00     0.000 C 
BRANCH   2   3
ATOM      3  C   UNL     1       4.695  21.092  14.760  1.00  0.00     0.000 C 
BRANCH   3   4
ATOM      4  C   UNL     1       5.319  19.950  15.577  1.00  0.00     0.000 C 
BRANCH   4   5
ATOM      5  C   UNL     1       6.848  19.877  15.405  1.00  0.00     0.000 C 
BRANCH   5   6
ATOM      6  C   UNL     1       7.452  21.202  14.896  1.00  0.00     0.000 C 
BRANCH   6   7
ATOM      7  C   UNL     1       8.633  21.723  15.738  1.00  0.00     0.000 C 
BRANCH   7   8
ATOM      8  C   UNL     1      10.033  21.400  15.183  1.00  0.00     0.000 C 
BRANCH   8   9
ATOM      9  C   UNL     1      10.156  20.034  14.480  1.00  0.00     0.000 C 
BRANCH   9  10
ATOM     10  C   UNL     1      11.090  20.067  13.258  1.00  0.00     0.000 C 
BRANCH  10  11
ATOM     11  C   UNL     1      10.834  21.302  12.367  1.00  0.00     0.000 C 
BRANCH  11  12
ATOM     12  C   UNL     1      10.565  20.959  10.891  1.00  0.00     0.000 C 
BRANCH  12  13
ATOM     13  C   UNL     1      10.728  22.164   9.955  1.00  0.00     0.006 C 
BRANCH  13  14
ATOM     14  C   UNL     1      10.772  23.475  10.746  1.00  0.00     0.053 C 
BRANCH  14  15
ATOM     15  C   UNL     1      10.375  24.626   9.876  1.00  0.00     0.041 C 
ATOM     16  O   UNL     1       9.538  25.472  10.288  1.00  0.00    -0.550 OA
ATOM     17  O   UNL     1      10.913  24.754   8.600  1.00  0.00    -0.550 OA
ENDBRANCH  14  15
ENDBRANCH  13  14
ENDBRANCH  12  13
ENDBRANCH  11  12
ENDBRANCH  10  11
ENDBRANCH   9  10
ENDBRANCH   8   9
ENDBRANCH   7   8
ENDBRANCH   6   7
ENDBRANCH   5   6
ENDBRANCH   4   5
ENDBRANCH   3   4
ENDBRANCH   2   3
ENDBRANCH   1   2
BRANCH   1  18
ATOM     18  C   UNL     1       1.859  21.128  16.817  1.00  0.00     0.000 C 
BRANCH  18  19
ATOM     19  C   UNL     1       0.904  19.976  16.436  1.00  0.00     0.000 C 
BRANCH  19  20
ATOM     20  C   UNL     1      -0.385  20.447  15.740  1.00  0.00     0.000 C 
BRANCH  20  21
ATOM     21  C   UNL     1      -1.558  20.622  16.718  1.00  0.00     0.000 C 
BRANCH  21  22
ATOM     22  C   UNL     1      -2.874  20.010  16.201  1.00  0.00     0.000 C 
BRANCH  22  23
ATOM     23  C   UNL     1      -3.394  20.575  14.866  1.00  0.00     0.000 C 
BRANCH  23  24
ATOM     24  C   UNL     1      -4.639  21.465  15.029  1.00  0.00    -0.000 C 
BRANCH  24  25
ATOM     25  C   UNL     1      -5.813  20.722  15.688  1.00  0.00    -0.000 C 
BRANCH  25  26
ATOM     26  C   UNL     1      -7.207  21.062  15.120  1.00  0.00    -0.000 C 
BRANCH  26  27
ATOM     27  C   UNL     1      -8.388  20.377  15.830  1.00  0.00    -0.000 C 
BRANCH  27  28
ATOM     28  C   UNL     1      -9.124  21.313  16.801  1.00  0.00    -0.000 C 
BRANCH  28  29
ATOM     29  C   UNL     1      -8.481  21.279  18.195  1.00  0.00    -0.000 C 
BRANCH  29  30
ATOM     30  C   UNL     1      -8.541  22.643  18.902  1.00  0.00    -0.000 C 
BRANCH  30  31
ATOM     31  C   UNL     1      -7.951  22.598  20.320  1.00  0.00    -0.003 C 
ATOM     32  C   UNL     1      -7.010  21.408  20.486  1.00  0.00     0.004 C 
ENDBRANCH  30  31
ENDBRANCH  29  30
ENDBRANCH  28  29
ENDBRANCH  27  28
ENDBRANCH  26  27
ENDBRANCH  25  26
ENDBRANCH  24  25
ENDBRANCH  23  24
ENDBRANCH  22  23
ENDBRANCH  21  22
ENDBRANCH  20  21
ENDBRANCH  19  20
ENDBRANCH  18  19
ENDBRANCH   1  18
TORSDOF 28
ENDMDL
