MODEL 1
REMARK VINA RESULT:    -3.106      0.000      0.000
REMARK INTER + INTRA:          -3.508
REMARK INTER:                  -3.469
REMARK INTRA:                  -0.039
REMARK UNBOUND:                -0.039
REMARK SMILES CCCC(=O)[O-]
REMARK SMILES IDX 3 1 4 2 5 3 6 4 2 5 1 6
REMARK H PARENT
REMARK Flexibility Score: inf
ROOT
ATOM      1  C   UNL     1     -11.401  -5.073 -15.240  1.00  0.00     0.052 C 
ENDROOT
BRANCH   1   2
ATOM      2  C   UNL     1     -10.334  -4.031 -15.377  1.00  0.00     0.041 C 
ATOM      3  O   UNL     1      -9.608  -3.732 -14.394  1.00  0.00    -0.550 OA
ATOM      4  O   UNL     1     -10.163  -3.366 -16.586  1.00  0.00    -0.550 OA
ENDBRANCH   1   2
BRANCH   1   5
ATOM      5  C   UNL     1     -12.515  -4.622 -14.286  1.00  0.00     0.003 C 
ATOM      6  C   UNL     1     -13.676  -3.955 -15.022  1.00  0.00     0.004 C 
ENDBRANCH   1   5
TORSDOF 2
ENDMDL
MODEL 2
REMARK VINA RESULT:    -3.104      0.312      1.358
REMARK INTER + INTRA:          -3.506
REMARK INTER:                  -3.480
REMARK INTRA:                  -0.026
REMARK UNBOUND:                -0.039
REMARK SMILES CCCC(=O)[O-]
REMARK SMILES IDX 3 1 4 2 5 3 6 4 2 5 1 6
REMARK H PARENT
REMARK Flexibility Score: inf
ROOT
ATOM      1  C   UNL     1     -11.544  -4.877 -15.710  1.00  0.00     0.052 C 
ENDROOT
BRANCH   1   2
ATOM      2  C   UNL     1     -10.411  -3.896 -15.703  1.00  0.00     0.041 C 
ATOM      3  O   UNL     1     -10.101  -3.276 -16.753  1.00  0.00    -0.550 OA
ATOM      4  O   UNL     1      -9.677  -3.692 -14.541  1.00  0.00    -0.550 OA
ENDBRANCH   1   2
BRANCH   1   5
ATOM      5  C   UNL     1     -12.540  -4.602 -14.576  1.00  0.00     0.003 C 
ATOM      6  C   UNL     1     -13.789  -3.871 -15.064  1.00  0.00     0.004 C 
ENDBRANCH   1   5
TORSDOF 2
ENDMDL
MODEL 3
REMARK VINA RESULT:    -3.066      9.081      9.978
REMARK INTER + INTRA:          -3.464
REMARK INTER:                  -3.431
REMARK INTRA:                  -0.033
REMARK UNBOUND:                -0.039
REMARK SMILES CCCC(=O)[O-]
REMARK SMILES IDX 3 1 4 2 5 3 6 4 2 5 1 6
REMARK H PARENT
REMARK Flexibility Score: inf
ROOT
ATOM      1  C   UNL     1      -2.953  -1.966 -18.829  1.00  0.00     0.052 C 
ENDROOT
BRANCH   1   2
ATOM      2  C   UNL     1      -1.508  -1.686 -19.101  1.00  0.00     0.041 C 
ATOM      3  O   UNL     1      -0.863  -0.899 -18.360  1.00  0.00    -0.550 OA
ATOM      4  O   UNL     1      -0.880  -2.271 -20.194  1.00  0.00    -0.550 OA
ENDBRANCH   1   2
BRANCH   1   5
ATOM      5  C   UNL     1      -3.432  -1.282 -17.542  1.00  0.00     0.003 C 
ATOM      6  C   UNL     1      -3.858  -2.287 -16.473  1.00  0.00     0.004 C 
ENDBRANCH   1   5
TORSDOF 2
ENDMDL
MODEL 4
REMARK VINA RESULT:    -3.002      2.076      3.313
REMARK INTER + INTRA:          -3.393
REMARK INTER:                  -3.347
REMARK INTRA:                  -0.046
REMARK UNBOUND:                -0.039
REMARK SMILES CCCC(=O)[O-]
REMARK SMILES IDX 3 1 4 2 5 3 6 4 2 5 1 6
REMARK H PARENT
REMARK Flexibility Score: inf
ROOT
ATOM      1  C   UNL     1     -11.454  -4.816 -16.111  1.00  0.00     0.052 C 
ENDROOT
BRANCH   1   2
ATOM      2  C   UNL     1     -12.577  -4.308 -15.260  1.00  0.00     0.041 C 
ATOM      3  O   UNL     1     -13.467  -3.570 -15.758  1.00  0.00    -0.550 OA
ATOM      4  O   UNL     1     -12.622  -4.623 -13.908  1.00  0.00    -0.550 OA
ENDBRANCH   1   2
BRANCH   1   5
ATOM      5  C   UNL     1     -10.336  -3.776 -16.256  1.00  0.00     0.003 C 
ATOM      6  C   UNL     1      -9.322  -3.848 -15.115  1.00  0.00     0.004 C 
ENDBRANCH   1   5
TORSDOF 2
ENDMDL
MODEL 5
REMARK VINA RESULT:    -2.827      8.226      9.151
REMARK INTER + INTRA:          -3.196
REMARK INTER:                  -3.152
REMARK INTRA:                  -0.044
REMARK UNBOUND:                -0.039
REMARK SMILES CCCC(=O)[O-]
REMARK SMILES IDX 3 1 4 2 5 3 6 4 2 5 1 6
REMARK H PARENT
REMARK Flexibility Score: inf
ROOT
ATOM      1  C   UNL     1      -6.071   2.035 -10.343  1.00  0.00     0.052 C 
ENDROOT
BRANCH   1   2
ATOM      2  C   UNL     1      -6.842   0.792 -10.021  1.00  0.00     0.041 C 
ATOM      3  O   UNL     1      -6.990  -0.107 -10.890  1.00  0.00    -0.550 OA
ATOM      4  O   UNL     1      -7.426   0.640  -8.769  1.00  0.00    -0.550 OA
ENDBRANCH   1   2
BRANCH   1   5
ATOM      5  C   UNL     1      -6.874   2.985 -11.239  1.00  0.00     0.003 C 
ATOM      6  C   UNL     1      -7.713   3.975 -10.433  1.00  0.00     0.004 C 
ENDBRANCH   1   5
TORSDOF 2
ENDMDL
MODEL 6
REMARK VINA RESULT:    -2.778      8.598      9.388
REMARK INTER + INTRA:          -3.142
REMARK INTER:                  -3.097
REMARK INTRA:                  -0.045
REMARK UNBOUND:                -0.039
REMARK SMILES CCCC(=O)[O-]
REMARK SMILES IDX 3 1 4 2 5 3 6 4 2 5 1 6
REMARK H PARENT
REMARK Flexibility Score: inf
ROOT
ATOM      1  C   UNL     1      -7.313   0.624  -8.650  1.00  0.00     0.052 C 
ENDROOT
BRANCH   1   2
ATOM      2  C   UNL     1      -6.564   1.920  -8.713  1.00  0.00     0.041 C 
ATOM      3  O   UNL     1      -5.640   2.159  -7.893  1.00  0.00    -0.550 OA
ATOM      4  O   UNL     1      -6.910   2.878  -9.658  1.00  0.00    -0.550 OA
ENDBRANCH   1   2
BRANCH   1   5
ATOM      5  C   UNL     1      -6.556  -0.504  -9.363  1.00  0.00     0.003 C 
ATOM      6  C   UNL     1      -6.871  -0.562 -10.857  1.00  0.00     0.004 C 
ENDBRANCH   1   5
TORSDOF 2
ENDMDL
MODEL 7
REMARK VINA RESULT:    -2.770      2.158      3.193
REMARK INTER + INTRA:          -3.133
REMARK INTER:                  -3.086
REMARK INTRA:                  -0.047
REMARK UNBOUND:                -0.039
REMARK SMILES CCCC(=O)[O-]
REMARK SMILES IDX 3 1 4 2 5 3 6 4 2 5 1 6
REMARK H PARENT
REMARK Flexibility Score: inf
ROOT
ATOM      1  C   UNL     1     -10.376  -3.882 -16.443  1.00  0.00     0.052 C 
ENDROOT
BRANCH   1   2
ATOM      2  C   UNL     1     -11.492  -4.677 -15.839  1.00  0.00     0.041 C 
ATOM      3  O   UNL     1     -11.313  -5.881 -15.519  1.00  0.00    -0.550 OA
ATOM      4  O   UNL     1     -12.741  -4.096 -15.659  1.00  0.00    -0.550 OA
ENDBRANCH   1   2
BRANCH   1   5
ATOM      5  C   UNL     1      -9.024  -4.222 -15.801  1.00  0.00     0.003 C 
ATOM      6  C   UNL     1      -8.846  -3.559 -14.436  1.00  0.00     0.004 C 
ENDBRANCH   1   5
TORSDOF 2
ENDMDL
MODEL 8
REMARK VINA RESULT:    -2.754      1.638      2.288
REMARK INTER + INTRA:          -3.115
REMARK INTER:                  -3.076
REMARK INTRA:                  -0.039
REMARK UNBOUND:                -0.039
REMARK SMILES CCCC(=O)[O-]
REMARK SMILES IDX 3 1 4 2 5 3 6 4 2 5 1 6
REMARK H PARENT
REMARK Flexibility Score: inf
ROOT
ATOM      1  C   UNL     1     -10.333  -4.243 -14.671  1.00  0.00     0.052 C 
ENDROOT
BRANCH   1   2
ATOM      2  C   UNL     1      -9.680  -4.129 -16.014  1.00  0.00     0.041 C 
ATOM      3  O   UNL     1     -10.038  -3.232 -16.821  1.00  0.00    -0.550 OA
ATOM      4  O   UNL     1      -8.696  -5.037 -16.387  1.00  0.00    -0.550 OA
ENDBRANCH   1   2
BRANCH   1   5
ATOM      5  C   UNL     1     -11.437  -5.308 -14.665  1.00  0.00     0.003 C 
ATOM      6  C   UNL     1     -10.983  -6.612 -14.011  1.00  0.00     0.004 C 
ENDBRANCH   1   5
TORSDOF 2
ENDMDL
MODEL 9
REMARK VINA RESULT:    -2.753      2.103      2.989
REMARK INTER + INTRA:          -3.114
REMARK INTER:                  -3.079
REMARK INTRA:                  -0.035
REMARK UNBOUND:                -0.039
REMARK SMILES CCCC(=O)[O-]
REMARK SMILES IDX 3 1 4 2 5 3 6 4 2 5 1 6
REMARK H PARENT
REMARK Flexibility Score: inf
ROOT
ATOM      1  C   UNL     1     -11.827  -5.145 -14.119  1.00  0.00     0.052 C 
ENDROOT
BRANCH   1   2
ATOM      2  C   UNL     1     -12.246  -4.617 -15.456  1.00  0.00     0.041 C 
ATOM      3  O   UNL     1     -13.243  -3.855 -15.555  1.00  0.00    -0.550 OA
ATOM      4  O   UNL     1     -11.553  -4.994 -16.600  1.00  0.00    -0.550 OA
ENDBRANCH   1   2
BRANCH   1   5
ATOM      5  C   UNL     1     -11.010  -6.437 -14.249  1.00  0.00     0.003 C 
ATOM      6  C   UNL     1      -9.524  -6.215 -13.972  1.00  0.00     0.004 C 
ENDBRANCH   1   5
TORSDOF 2
ENDMDL
