MODEL 1
REMARK VINA RESULT:    -6.359      0.000      0.000
REMARK INTER + INTRA:          -6.484
REMARK INTER:                  -6.917
REMARK INTRA:                   0.433
REMARK UNBOUND:                 0.433
REMARK SMILES CC1(C)CC[C@]2(C(=O)[O-])CC[C@]3(C)C(=CC[C@H]4[C@@]5(C)CC[C@H](O)C(C)(C)[C@H]5CC[C@]43C)[C@H]2C1
REMARK SMILES IDX 6 1 5 2 10 3 32 4 4 5 11 6 14 7 33 8 2 9 12 10 15 11 1 12
REMARK SMILES IDX 3 13 13 14 30 15 16 16 17 17 29 18 31 19 18 20 28 21 27 22
REMARK SMILES IDX 20 23 19 24 24 25 21 26 22 27 25 28 26 29 7 30 8 31 9 32
REMARK SMILES IDX 23 33
REMARK H PARENT 23 34
REMARK Flexibility Score: inf
ROOT
ATOM      1  C   UNL     1       1.775 -59.191 -22.309  1.00  0.00     0.017 C 
ATOM      2  C   UNL     1       1.368 -58.768 -20.869  1.00  0.00     0.014 C 
ATOM      3  C   UNL     1       1.145 -58.242 -23.387  1.00  0.00     0.014 C 
ATOM      4  C   UNL     1       1.234 -60.648 -22.487  1.00  0.00     0.028 C 
ATOM      5  C   UNL     1       1.975 -59.710 -19.800  1.00  0.00     0.007 C 
ATOM      6  C   UNL     1      -0.119 -58.822 -24.044  1.00  0.00     0.013 C 
ATOM      7  C   UNL     1       1.163 -60.995 -23.969  1.00  0.00    -0.064 C 
ATOM      8  C   UNL     1       1.913 -61.637 -21.515  1.00  0.00     0.015 C 
ATOM      9  C   UNL     1       1.674 -61.226 -20.026  1.00  0.00    -0.035 C 
ATOM     10  C   UNL     1       0.109 -60.218 -24.799  1.00  0.00    -0.006 C 
ATOM     11  C   UNL     1       2.160 -61.697 -24.530  1.00  0.00    -0.027 C 
ATOM     12  C   UNL     1       0.223 -61.546 -19.589  1.00  0.00     0.011 C 
ATOM     13  C   UNL     1       2.621 -62.058 -19.135  1.00  0.00     0.011 C 
ATOM     14  C   UNL     1      -1.235 -60.991 -24.631  1.00  0.00     0.017 C 
ATOM     15  C   UNL     1       0.509 -60.090 -26.390  1.00  0.00    -0.020 C 
ATOM     16  C   UNL     1       2.499 -61.598 -25.974  1.00  0.00     0.032 C 
ATOM     17  C   UNL     1       2.072 -60.223 -26.584  1.00  0.00     0.006 C 
ATOM     18  C   UNL     1      -0.138 -61.209 -27.283  1.00  0.00     0.008 C 
ATOM     19  C   UNL     1      -0.056 -58.744 -26.931  1.00  0.00     0.012 C 
ATOM     20  C   UNL     1       2.606 -59.978 -28.087  1.00  0.00    -0.025 C 
ATOM     21  C   UNL     1       0.573 -61.546 -28.622  1.00  0.00     0.005 C 
ATOM     22  C   UNL     1       1.583 -60.505 -29.192  1.00  0.00     0.003 C 
ATOM     23  C   UNL     1       4.035 -60.600 -28.306  1.00  0.00     0.010 C 
ATOM     24  C   UNL     1       2.826 -58.437 -28.268  1.00  0.00     0.012 C 
ATOM     25  C   UNL     1       2.267 -61.018 -30.537  1.00  0.00    -0.006 C 
ATOM     26  C   UNL     1       4.014 -62.025 -28.863  1.00  0.00     0.033 C 
ATOM     27  C   UNL     1       3.351 -62.124 -30.251  1.00  0.00     0.120 C 
ATOM     28  C   UNL     1       2.884 -59.819 -31.322  1.00  0.00     0.014 C 
ATOM     29  C   UNL     1       1.203 -61.620 -31.502  1.00  0.00     0.014 C 
ENDROOT
BRANCH   1  30
ATOM     30  C   UNL     1       3.294 -59.076 -22.457  1.00  0.00     0.048 C 
ATOM     31  O   UNL     1       3.832 -57.948 -22.616  1.00  0.00    -0.550 OA
ATOM     32  O   UNL     1       4.097 -60.205 -22.553  1.00  0.00    -0.550 OA
ENDBRANCH   1  30
BRANCH  27  33
ATOM     33  O   UNL     1       4.353 -62.125 -31.239  1.00  0.00    -0.393 OA
ATOM     34  H   UNL     1       4.637 -63.067 -31.366  1.00  0.00     0.210 HD
ENDBRANCH  27  33
TORSDOF 2
ENDMDL
MODEL 2
REMARK VINA RESULT:    -5.437      2.225      7.926
REMARK INTER + INTRA:          -5.481
REMARK INTER:                  -6.014
REMARK INTRA:                   0.533
REMARK UNBOUND:                 0.433
REMARK SMILES CC1(C)CC[C@]2(C(=O)[O-])CC[C@]3(C)C(=CC[C@H]4[C@@]5(C)CC[C@H](O)C(C)(C)[C@H]5CC[C@]43C)[C@H]2C1
REMARK SMILES IDX 6 1 5 2 10 3 32 4 4 5 11 6 14 7 33 8 2 9 12 10 15 11 1 12
REMARK SMILES IDX 3 13 13 14 30 15 16 16 17 17 29 18 31 19 18 20 28 21 27 22
REMARK SMILES IDX 20 23 19 24 24 25 21 26 22 27 25 28 26 29 7 30 8 31 9 32
REMARK SMILES IDX 23 33
REMARK H PARENT 23 34
REMARK Flexibility Score: inf
ROOT
ATOM      1  C   UNL     1       2.681 -58.771 -29.339  1.00  0.00     0.017 C 
ATOM      2  C   UNL     1       3.183 -58.469 -30.780  1.00  0.00     0.014 C 
ATOM      3  C   UNL     1       3.768 -58.416 -28.265  1.00  0.00     0.014 C 
ATOM      4  C   UNL     1       2.374 -60.304 -29.313  1.00  0.00     0.028 C 
ATOM      5  C   UNL     1       2.119 -58.831 -31.846  1.00  0.00     0.007 C 
ATOM      6  C   UNL     1       4.561 -59.639 -27.775  1.00  0.00     0.013 C 
ATOM      7  C   UNL     1       2.319 -60.796 -27.873  1.00  0.00    -0.064 C 
ATOM      8  C   UNL     1       1.229 -60.679 -30.279  1.00  0.00     0.015 C 
ATOM      9  C   UNL     1       1.580 -60.295 -31.753  1.00  0.00    -0.035 C 
ATOM     10  C   UNL     1       3.662 -60.782 -27.098  1.00  0.00    -0.006 C 
ATOM     11  C   UNL     1       1.129 -60.929 -27.266  1.00  0.00    -0.027 C 
ATOM     12  C   UNL     1       2.618 -61.277 -32.350  1.00  0.00     0.011 C 
ATOM     13  C   UNL     1       0.296 -60.404 -32.602  1.00  0.00     0.011 C 
ATOM     14  C   UNL     1       4.382 -62.120 -27.447  1.00  0.00     0.017 C 
ATOM     15  C   UNL     1       3.466 -60.637 -25.470  1.00  0.00    -0.020 C 
ATOM     16  C   UNL     1       0.962 -60.825 -25.792  1.00  0.00     0.032 C 
ATOM     17  C   UNL     1       2.082 -59.953 -25.135  1.00  0.00     0.006 C 
ATOM     18  C   UNL     1       3.462 -62.020 -24.722  1.00  0.00     0.008 C 
ATOM     19  C   UNL     1       4.683 -59.855 -24.897  1.00  0.00     0.012 C 
ATOM     20  C   UNL     1       1.829 -59.630 -23.574  1.00  0.00    -0.025 C 
ATOM     21  C   UNL     1       2.743 -62.078 -23.347  1.00  0.00     0.005 C 
ATOM     22  C   UNL     1       2.467 -60.732 -22.612  1.00  0.00     0.003 C 
ATOM     23  C   UNL     1       0.300 -59.431 -23.260  1.00  0.00     0.010 C 
ATOM     24  C   UNL     1       2.469 -58.233 -23.268  1.00  0.00     0.012 C 
ATOM     25  C   UNL     1       1.679 -60.953 -21.244  1.00  0.00    -0.006 C 
ATOM     26  C   UNL     1      -0.412 -60.707 -22.806  1.00  0.00     0.033 C 
ATOM     27  C   UNL     1       0.162 -61.289 -21.498  1.00  0.00     0.120 C 
ATOM     28  C   UNL     1       1.829 -59.702 -20.324  1.00  0.00     0.014 C 
ATOM     29  C   UNL     1       2.305 -62.124 -20.431  1.00  0.00     0.014 C 
ENDROOT
BRANCH   1  30
ATOM     30  C   UNL     1       1.463 -57.894 -29.037  1.00  0.00     0.048 C 
ATOM     31  O   UNL     1       1.216 -56.885 -29.749  1.00  0.00    -0.550 OA
ATOM     32  O   UNL     1       0.685 -58.106 -27.906  1.00  0.00    -0.550 OA
ENDBRANCH   1  30
BRANCH  27  33
ATOM     33  O   UNL     1      -0.641 -60.873 -20.420  1.00  0.00    -0.393 OA
ATOM     34  H   UNL     1      -0.109 -60.221 -19.894  1.00  0.00     0.210 HD
ENDBRANCH  27  33
TORSDOF 2
ENDMDL
MODEL 3
REMARK VINA RESULT:    -5.217      2.218      4.103
REMARK INTER + INTRA:          -5.241
REMARK INTER:                  -5.647
REMARK INTRA:                   0.406
REMARK UNBOUND:                 0.433
REMARK SMILES CC1(C)CC[C@]2(C(=O)[O-])CC[C@]3(C)C(=CC[C@H]4[C@@]5(C)CC[C@H](O)C(C)(C)[C@H]5CC[C@]43C)[C@H]2C1
REMARK SMILES IDX 6 1 5 2 10 3 32 4 4 5 11 6 14 7 33 8 2 9 12 10 15 11 1 12
REMARK SMILES IDX 3 13 13 14 30 15 16 16 17 17 29 18 31 19 18 20 28 21 27 22
REMARK SMILES IDX 20 23 19 24 24 25 21 26 22 27 25 28 26 29 7 30 8 31 9 32
REMARK SMILES IDX 23 33
REMARK H PARENT 23 34
REMARK Flexibility Score: inf
ROOT
ATOM      1  C   UNL     1       0.608 -61.078 -20.730  1.00  0.00     0.017 C 
ATOM      2  C   UNL     1       0.440 -61.438 -19.227  1.00  0.00     0.014 C 
ATOM      3  C   UNL     1       1.510 -62.124 -21.475  1.00  0.00     0.014 C 
ATOM      4  C   UNL     1       1.282 -59.668 -20.753  1.00  0.00     0.028 C 
ATOM      5  C   UNL     1      -0.439 -60.401 -18.483  1.00  0.00     0.007 C 
ATOM      6  C   UNL     1       2.965 -61.657 -21.650  1.00  0.00     0.013 C 
ATOM      7  C   UNL     1       1.905 -59.414 -22.120  1.00  0.00    -0.064 C 
ATOM      8  C   UNL     1       0.376 -58.586 -20.127  1.00  0.00     0.015 C 
ATOM      9  C   UNL     1       0.035 -58.921 -18.639  1.00  0.00    -0.035 C 
ATOM     10  C   UNL     1       3.126 -60.297 -22.485  1.00  0.00    -0.006 C 
ATOM     11  C   UNL     1       1.230 -58.692 -23.027  1.00  0.00    -0.027 C 
ATOM     12  C   UNL     1       1.252 -58.657 -17.718  1.00  0.00     0.011 C 
ATOM     13  C   UNL     1      -1.104 -57.986 -18.180  1.00  0.00     0.011 C 
ATOM     14  C   UNL     1       4.374 -59.593 -21.871  1.00  0.00     0.017 C 
ATOM     15  C   UNL     1       3.314 -60.497 -24.108  1.00  0.00    -0.020 C 
ATOM     16  C   UNL     1       1.424 -58.857 -24.492  1.00  0.00     0.032 C 
ATOM     17  C   UNL     1       1.939 -60.288 -24.858  1.00  0.00     0.006 C 
ATOM     18  C   UNL     1       4.319 -59.470 -24.746  1.00  0.00     0.008 C 
ATOM     19  C   UNL     1       3.934 -61.902 -24.360  1.00  0.00     0.012 C 
ATOM     20  C   UNL     1       1.962 -60.591 -26.442  1.00  0.00    -0.025 C 
ATOM     21  C   UNL     1       4.162 -59.174 -26.262  1.00  0.00     0.005 C 
ATOM     22  C   UNL     1       3.349 -60.189 -27.121  1.00  0.00     0.003 C 
ATOM     23  C   UNL     1       0.756 -59.904 -27.185  1.00  0.00     0.010 C 
ATOM     24  C   UNL     1       1.708 -62.125 -26.637  1.00  0.00     0.012 C 
ATOM     25  C   UNL     1       3.232 -59.719 -28.640  1.00  0.00    -0.006 C 
ATOM     26  C   UNL     1       1.081 -58.518 -27.746  1.00  0.00     0.033 C 
ATOM     27  C   UNL     1       2.203 -58.539 -28.803  1.00  0.00     0.120 C 
ATOM     28  C   UNL     1       2.850 -60.926 -29.552  1.00  0.00     0.014 C 
ATOM     29  C   UNL     1       4.612 -59.237 -29.175  1.00  0.00     0.014 C 
ENDROOT
BRANCH   1  30
ATOM     30  C   UNL     1      -0.762 -61.117 -21.413  1.00  0.00     0.048 C 
ATOM     31  O   UNL     1      -1.799 -61.356 -20.740  1.00  0.00    -0.550 OA
ATOM     32  O   UNL     1      -0.882 -61.023 -22.793  1.00  0.00    -0.550 OA
ENDBRANCH   1  30
BRANCH  27  33
ATOM     33  O   UNL     1       1.623 -58.540 -30.086  1.00  0.00    -0.393 OA
ATOM     34  H   UNL     1       1.564 -57.595 -30.381  1.00  0.00     0.210 HD
ENDBRANCH  27  33
TORSDOF 2
ENDMDL
MODEL 4
REMARK VINA RESULT:    -5.057      3.290      5.809
REMARK INTER + INTRA:          -5.067
REMARK INTER:                  -5.436
REMARK INTRA:                   0.369
REMARK UNBOUND:                 0.433
REMARK SMILES CC1(C)CC[C@]2(C(=O)[O-])CC[C@]3(C)C(=CC[C@H]4[C@@]5(C)CC[C@H](O)C(C)(C)[C@H]5CC[C@]43C)[C@H]2C1
REMARK SMILES IDX 6 1 5 2 10 3 32 4 4 5 11 6 14 7 33 8 2 9 12 10 15 11 1 12
REMARK SMILES IDX 3 13 13 14 30 15 16 16 17 17 29 18 31 19 18 20 28 21 27 22
REMARK SMILES IDX 20 23 19 24 24 25 21 26 22 27 25 28 26 29 7 30 8 31 9 32
REMARK SMILES IDX 23 33
REMARK H PARENT 23 34
REMARK Flexibility Score: inf
ROOT
ATOM      1  C   UNL     1       5.027 -58.708 -18.662  1.00  0.00     0.017 C 
ATOM      2  C   UNL     1       5.801 -58.214 -17.407  1.00  0.00     0.014 C 
ATOM      3  C   UNL     1       3.645 -57.980 -18.810  1.00  0.00     0.014 C 
ATOM      4  C   UNL     1       4.811 -60.241 -18.447  1.00  0.00     0.028 C 
ATOM      5  C   UNL     1       7.160 -58.939 -17.248  1.00  0.00     0.007 C 
ATOM      6  C   UNL     1       2.460 -58.813 -18.291  1.00  0.00     0.013 C 
ATOM      7  C   UNL     1       3.696 -60.740 -19.356  1.00  0.00    -0.064 C 
ATOM      8  C   UNL     1       6.149 -61.012 -18.406  1.00  0.00     0.015 C 
ATOM      9  C   UNL     1       7.066 -60.499 -17.250  1.00  0.00    -0.035 C 
ATOM     10  C   UNL     1       2.271 -60.223 -19.030  1.00  0.00    -0.006 C 
ATOM     11  C   UNL     1       4.008 -61.329 -20.521  1.00  0.00    -0.027 C 
ATOM     12  C   UNL     1       6.556 -60.998 -15.875  1.00  0.00     0.011 C 
ATOM     13  C   UNL     1       8.481 -61.079 -17.459  1.00  0.00     0.011 C 
ATOM     14  C   UNL     1       1.700 -61.177 -17.936  1.00  0.00     0.017 C 
ATOM     15  C   UNL     1       1.280 -60.191 -20.343  1.00  0.00    -0.020 C 
ATOM     16  C   UNL     1       3.098 -61.321 -21.696  1.00  0.00     0.032 C 
ATOM     17  C   UNL     1       2.124 -60.096 -21.676  1.00  0.00     0.006 C 
ATOM     18  C   UNL     1       0.392 -61.481 -20.481  1.00  0.00     0.008 C 
ATOM     19  C   UNL     1       0.280 -59.011 -20.175  1.00  0.00     0.012 C 
ATOM     20  C   UNL     1       1.264 -59.919 -23.029  1.00  0.00    -0.025 C 
ATOM     21  C   UNL     1      -0.131 -61.833 -21.900  1.00  0.00     0.005 C 
ATOM     22  C   UNL     1      -0.123 -60.707 -22.979  1.00  0.00     0.003 C 
ATOM     23  C   UNL     1       2.093 -60.328 -24.304  1.00  0.00     0.010 C 
ATOM     24  C   UNL     1       0.992 -58.389 -23.223  1.00  0.00     0.012 C 
ATOM     25  C   UNL     1      -0.636 -61.236 -24.392  1.00  0.00    -0.006 C 
ATOM     26  C   UNL     1       1.904 -61.787 -24.726  1.00  0.00     0.033 C 
ATOM     27  C   UNL     1       0.449 -62.125 -25.107  1.00  0.00     0.120 C 
ATOM     28  C   UNL     1      -1.064 -60.038 -25.295  1.00  0.00     0.014 C 
ATOM     29  C   UNL     1      -1.928 -62.089 -24.224  1.00  0.00     0.014 C 
ENDROOT
BRANCH   1  30
ATOM     30  C   UNL     1       5.836 -58.371 -19.917  1.00  0.00     0.048 C 
ATOM     31  O   UNL     1       7.048 -58.040 -19.820  1.00  0.00    -0.550 OA
ATOM     32  O   UNL     1       5.232 -58.291 -21.165  1.00  0.00    -0.550 OA
ENDBRANCH   1  30
BRANCH  27  33
ATOM     33  O   UNL     1       0.316 -62.066 -26.507  1.00  0.00    -0.393 OA
ATOM     34  H   UNL     1       0.942 -61.368 -26.830  1.00  0.00     0.210 HD
ENDBRANCH  27  33
TORSDOF 2
ENDMDL
MODEL 5
REMARK VINA RESULT:    -5.035      3.089      8.683
REMARK INTER + INTRA:          -5.044
REMARK INTER:                  -5.418
REMARK INTRA:                   0.374
REMARK UNBOUND:                 0.433
REMARK SMILES CC1(C)CC[C@]2(C(=O)[O-])CC[C@]3(C)C(=CC[C@H]4[C@@]5(C)CC[C@H](O)C(C)(C)[C@H]5CC[C@]43C)[C@H]2C1
REMARK SMILES IDX 6 1 5 2 10 3 32 4 4 5 11 6 14 7 33 8 2 9 12 10 15 11 1 12
REMARK SMILES IDX 3 13 13 14 30 15 16 16 17 17 29 18 31 19 18 20 28 21 27 22
REMARK SMILES IDX 20 23 19 24 24 25 21 26 22 27 25 28 26 29 7 30 8 31 9 32
REMARK SMILES IDX 23 33
REMARK H PARENT 23 34
REMARK Flexibility Score: inf
ROOT
ATOM      1  C   UNL     1       1.726 -61.398 -23.335  1.00  0.00     0.017 C 
ATOM      2  C   UNL     1       0.680 -62.124 -24.229  1.00  0.00     0.014 C 
ATOM      3  C   UNL     1       1.879 -62.102 -21.941  1.00  0.00     0.014 C 
ATOM      4  C   UNL     1       1.183 -59.943 -23.151  1.00  0.00     0.028 C 
ATOM      5  C   UNL     1       0.514 -61.426 -25.601  1.00  0.00     0.007 C 
ATOM      6  C   UNL     1       1.087 -61.409 -20.820  1.00  0.00     0.013 C 
ATOM      7  C   UNL     1       1.857 -59.288 -21.953  1.00  0.00    -0.064 C 
ATOM      8  C   UNL     1       1.122 -59.177 -24.490  1.00  0.00     0.015 C 
ATOM      9  C   UNL     1       0.191 -59.900 -25.517  1.00  0.00    -0.035 C 
ATOM     10  C   UNL     1       1.502 -59.881 -20.565  1.00  0.00    -0.006 C 
ATOM     11  C   UNL     1       2.904 -58.471 -22.150  1.00  0.00    -0.027 C 
ATOM     12  C   UNL     1      -1.301 -59.697 -25.151  1.00  0.00     0.011 C 
ATOM     13  C   UNL     1       0.418 -59.268 -26.907  1.00  0.00     0.011 C 
ATOM     14  C   UNL     1       0.185 -59.176 -20.113  1.00  0.00     0.017 C 
ATOM     15  C   UNL     1       2.689 -59.661 -19.446  1.00  0.00    -0.020 C 
ATOM     16  C   UNL     1       3.959 -58.255 -21.125  1.00  0.00     0.032 C 
ATOM     17  C   UNL     1       4.090 -59.473 -20.152  1.00  0.00     0.006 C 
ATOM     18  C   UNL     1       2.473 -58.383 -18.557  1.00  0.00     0.008 C 
ATOM     19  C   UNL     1       2.664 -60.866 -18.461  1.00  0.00     0.012 C 
ATOM     20  C   UNL     1       5.359 -59.385 -19.159  1.00  0.00    -0.025 C 
ATOM     21  C   UNL     1       3.732 -57.760 -17.896  1.00  0.00     0.005 C 
ATOM     22  C   UNL     1       5.011 -58.644 -17.788  1.00  0.00     0.003 C 
ATOM     23  C   UNL     1       6.600 -58.714 -19.857  1.00  0.00     0.010 C 
ATOM     24  C   UNL     1       5.830 -60.848 -18.859  1.00  0.00     0.012 C 
ATOM     25  C   UNL     1       6.230 -57.848 -17.138  1.00  0.00    -0.006 C 
ATOM     26  C   UNL     1       6.697 -57.204 -19.635  1.00  0.00     0.033 C 
ATOM     27  C   UNL     1       6.854 -56.817 -18.151  1.00  0.00     0.120 C 
ATOM     28  C   UNL     1       7.310 -58.845 -16.615  1.00  0.00     0.014 C 
ATOM     29  C   UNL     1       5.764 -57.065 -15.875  1.00  0.00     0.014 C 
ENDROOT
BRANCH   1  30
ATOM     30  C   UNL     1       3.098 -61.463 -24.012  1.00  0.00     0.048 C 
ATOM     31  O   UNL     1       3.190 -61.776 -25.229  1.00  0.00    -0.550 OA
ATOM     32  O   UNL     1       4.269 -61.311 -23.282  1.00  0.00    -0.550 OA
ENDBRANCH   1  30
BRANCH  27  33
ATOM     33  O   UNL     1       8.217 -56.594 -17.877  1.00  0.00    -0.393 OA
ATOM     34  H   UNL     1       8.728 -56.900 -18.670  1.00  0.00     0.210 HD
ENDBRANCH  27  33
TORSDOF 2
ENDMDL
MODEL 6
REMARK VINA RESULT:    -4.963      5.783      9.326
REMARK INTER + INTRA:          -4.965
REMARK INTER:                  -5.341
REMARK INTRA:                   0.376
REMARK UNBOUND:                 0.433
REMARK SMILES CC1(C)CC[C@]2(C(=O)[O-])CC[C@]3(C)C(=CC[C@H]4[C@@]5(C)CC[C@H](O)C(C)(C)[C@H]5CC[C@]43C)[C@H]2C1
REMARK SMILES IDX 6 1 5 2 10 3 32 4 4 5 11 6 14 7 33 8 2 9 12 10 15 11 1 12
REMARK SMILES IDX 3 13 13 14 30 15 16 16 17 17 29 18 31 19 18 20 28 21 27 22
REMARK SMILES IDX 20 23 19 24 24 25 21 26 22 27 25 28 26 29 7 30 8 31 9 32
REMARK SMILES IDX 23 33
REMARK H PARENT 23 34
REMARK Flexibility Score: inf
ROOT
ATOM      1  C   UNL     1       5.254 -58.756 -19.599  1.00  0.00     0.017 C 
ATOM      2  C   UNL     1       6.726 -58.756 -20.102  1.00  0.00     0.014 C 
ATOM      3  C   UNL     1       4.890 -60.105 -18.886  1.00  0.00     0.014 C 
ATOM      4  C   UNL     1       4.373 -58.563 -20.876  1.00  0.00     0.028 C 
ATOM      5  C   UNL     1       7.087 -57.431 -20.819  1.00  0.00     0.007 C 
ATOM      6  C   UNL     1       4.120 -61.083 -19.791  1.00  0.00     0.013 C 
ATOM      7  C   UNL     1       2.942 -58.997 -20.587  1.00  0.00    -0.064 C 
ATOM      8  C   UNL     1       4.622 -57.194 -21.547  1.00  0.00     0.015 C 
ATOM      9  C   UNL     1       6.116 -57.036 -21.978  1.00  0.00    -0.035 C 
ATOM     10  C   UNL     1       2.727 -60.513 -20.344  1.00  0.00    -0.006 C 
ATOM     11  C   UNL     1       2.023 -58.071 -20.270  1.00  0.00    -0.027 C 
ATOM     12  C   UNL     1       6.423 -57.886 -23.236  1.00  0.00     0.011 C 
ATOM     13  C   UNL     1       6.361 -55.557 -22.346  1.00  0.00     0.011 C 
ATOM     14  C   UNL     1       2.559 -61.162 -21.753  1.00  0.00     0.017 C 
ATOM     15  C   UNL     1       1.420 -60.836 -19.398  1.00  0.00    -0.020 C 
ATOM     16  C   UNL     1       0.829 -58.375 -19.438  1.00  0.00     0.032 C 
ATOM     17  C   UNL     1       1.072 -59.593 -18.487  1.00  0.00     0.006 C 
ATOM     18  C   UNL     1       0.120 -61.150 -20.224  1.00  0.00     0.008 C 
ATOM     19  C   UNL     1       1.715 -62.125 -18.577  1.00  0.00     0.012 C 
ATOM     20  C   UNL     1      -0.109 -59.831 -17.413  1.00  0.00    -0.025 C 
ATOM     21  C   UNL     1      -1.242 -60.911 -19.518  1.00  0.00     0.005 C 
ATOM     22  C   UNL     1      -1.248 -60.805 -17.963  1.00  0.00     0.003 C 
ATOM     23  C   UNL     1      -0.728 -58.472 -16.916  1.00  0.00     0.010 C 
ATOM     24  C   UNL     1       0.536 -60.452 -16.128  1.00  0.00     0.012 C 
ATOM     25  C   UNL     1      -2.707 -60.506 -17.395  1.00  0.00    -0.006 C 
ATOM     26  C   UNL     1      -1.951 -58.017 -17.715  1.00  0.00     0.033 C 
ATOM     27  C   UNL     1      -3.128 -59.009 -17.640  1.00  0.00     0.120 C 
ATOM     28  C   UNL     1      -2.781 -60.868 -15.879  1.00  0.00     0.014 C 
ATOM     29  C   UNL     1      -3.763 -61.425 -18.076  1.00  0.00     0.014 C 
ENDROOT
BRANCH   1  30
ATOM     30  C   UNL     1       5.079 -57.648 -18.556  1.00  0.00     0.048 C 
ATOM     31  O   UNL     1       5.960 -56.758 -18.423  1.00  0.00    -0.550 OA
ATOM     32  O   UNL     1       4.025 -57.669 -17.653  1.00  0.00    -0.550 OA
ENDBRANCH   1  30
BRANCH  27  33
ATOM     33  O   UNL     1      -4.038 -58.567 -16.661  1.00  0.00    -0.393 OA
ATOM     34  H   UNL     1      -3.971 -57.578 -16.625  1.00  0.00     0.210 HD
ENDBRANCH  27  33
TORSDOF 2
ENDMDL
MODEL 7
REMARK VINA RESULT:    -4.813      4.220      9.211
REMARK INTER + INTRA:          -4.802
REMARK INTER:                  -5.236
REMARK INTRA:                   0.434
REMARK UNBOUND:                 0.433
REMARK SMILES CC1(C)CC[C@]2(C(=O)[O-])CC[C@]3(C)C(=CC[C@H]4[C@@]5(C)CC[C@H](O)C(C)(C)[C@H]5CC[C@]43C)[C@H]2C1
REMARK SMILES IDX 6 1 5 2 10 3 32 4 4 5 11 6 14 7 33 8 2 9 12 10 15 11 1 12
REMARK SMILES IDX 3 13 13 14 30 15 16 16 17 17 29 18 31 19 18 20 28 21 27 22
REMARK SMILES IDX 20 23 19 24 24 25 21 26 22 27 25 28 26 29 7 30 8 31 9 32
REMARK SMILES IDX 23 33
REMARK H PARENT 23 34
REMARK Flexibility Score: inf
ROOT
ATOM      1  C   UNL     1       3.474 -61.044 -22.710  1.00  0.00     0.017 C 
ATOM      2  C   UNL     1       2.559 -62.096 -23.399  1.00  0.00     0.014 C 
ATOM      3  C   UNL     1       4.378 -61.700 -21.608  1.00  0.00     0.014 C 
ATOM      4  C   UNL     1       2.503 -60.002 -22.064  1.00  0.00     0.028 C 
ATOM      5  C   UNL     1       1.654 -61.452 -24.478  1.00  0.00     0.007 C 
ATOM      6  C   UNL     1       3.830 -61.514 -20.182  1.00  0.00     0.013 C 
ATOM      7  C   UNL     1       3.239 -59.199 -20.999  1.00  0.00    -0.064 C 
ATOM      8  C   UNL     1       1.671 -59.253 -23.128  1.00  0.00     0.015 C 
ATOM      9  C   UNL     1       0.805 -60.242 -23.973  1.00  0.00    -0.035 C 
ATOM     10  C   UNL     1       3.666 -59.984 -19.732  1.00  0.00    -0.006 C 
ATOM     11  C   UNL     1       3.731 -57.990 -21.307  1.00  0.00    -0.027 C 
ATOM     12  C   UNL     1      -0.408 -60.753 -23.157  1.00  0.00     0.011 C 
ATOM     13  C   UNL     1       0.253 -59.480 -25.197  1.00  0.00     0.011 C 
ATOM     14  C   UNL     1       2.433 -59.976 -18.777  1.00  0.00     0.017 C 
ATOM     15  C   UNL     1       4.981 -59.335 -18.985  1.00  0.00    -0.020 C 
ATOM     16  C   UNL     1       4.902 -57.396 -20.610  1.00  0.00     0.032 C 
ATOM     17  C   UNL     1       5.842 -58.492 -20.006  1.00  0.00     0.006 C 
ATOM     18  C   UNL     1       4.607 -58.354 -17.815  1.00  0.00     0.008 C 
ATOM     19  C   UNL     1       5.787 -60.489 -18.322  1.00  0.00     0.012 C 
ATOM     20  C   UNL     1       7.233 -57.915 -19.428  1.00  0.00    -0.025 C 
ATOM     21  C   UNL     1       5.661 -57.282 -17.426  1.00  0.00     0.005 C 
ATOM     22  C   UNL     1       7.132 -57.505 -17.889  1.00  0.00     0.003 C 
ATOM     23  C   UNL     1       7.770 -56.713 -20.292  1.00  0.00     0.010 C 
ATOM     24  C   UNL     1       8.320 -59.030 -19.604  1.00  0.00     0.012 C 
ATOM     25  C   UNL     1       8.079 -56.296 -17.461  1.00  0.00    -0.006 C 
ATOM     26  C   UNL     1       7.332 -55.338 -19.784  1.00  0.00     0.033 C 
ATOM     27  C   UNL     1       7.839 -55.027 -18.361  1.00  0.00     0.120 C 
ATOM     28  C   UNL     1       9.574 -56.738 -17.503  1.00  0.00     0.014 C 
ATOM     29  C   UNL     1       7.823 -55.894 -15.979  1.00  0.00     0.014 C 
ENDROOT
BRANCH   1  30
ATOM     30  C   UNL     1       4.420 -60.440 -23.751  1.00  0.00     0.048 C 
ATOM     31  O   UNL     1       4.388 -60.842 -24.945  1.00  0.00    -0.550 OA
ATOM     32  O   UNL     1       5.415 -59.544 -23.387  1.00  0.00    -0.550 OA
ENDBRANCH   1  30
BRANCH  27  33
ATOM     33  O   UNL     1       9.001 -54.238 -18.451  1.00  0.00    -0.393 OA
ATOM     34  H   UNL     1       8.869 -53.454 -17.857  1.00  0.00     0.210 HD
ENDBRANCH  27  33
TORSDOF 2
ENDMDL
MODEL 8
REMARK VINA RESULT:    -4.811      6.442      9.731
REMARK INTER + INTRA:          -4.799
REMARK INTER:                  -5.217
REMARK INTRA:                   0.418
REMARK UNBOUND:                 0.433
REMARK SMILES CC1(C)CC[C@]2(C(=O)[O-])CC[C@]3(C)C(=CC[C@H]4[C@@]5(C)CC[C@H](O)C(C)(C)[C@H]5CC[C@]43C)[C@H]2C1
REMARK SMILES IDX 6 1 5 2 10 3 32 4 4 5 11 6 14 7 33 8 2 9 12 10 15 11 1 12
REMARK SMILES IDX 3 13 13 14 30 15 16 16 17 17 29 18 31 19 18 20 28 21 27 22
REMARK SMILES IDX 20 23 19 24 24 25 21 26 22 27 25 28 26 29 7 30 8 31 9 32
REMARK SMILES IDX 23 33
REMARK H PARENT 23 34
REMARK Flexibility Score: inf
ROOT
ATOM      1  C   UNL     1       6.095 -59.638 -18.145  1.00  0.00     0.017 C 
ATOM      2  C   UNL     1       7.605 -59.628 -18.514  1.00  0.00     0.014 C 
ATOM      3  C   UNL     1       5.425 -61.013 -18.498  1.00  0.00     0.014 C 
ATOM      4  C   UNL     1       5.449 -58.489 -18.987  1.00  0.00     0.028 C 
ATOM      5  C   UNL     1       8.269 -58.269 -18.180  1.00  0.00     0.007 C 
ATOM      6  C   UNL     1       4.653 -60.989 -19.828  1.00  0.00     0.013 C 
ATOM      7  C   UNL     1       3.941 -58.690 -19.065  1.00  0.00    -0.064 C 
ATOM      8  C   UNL     1       6.003 -57.104 -18.590  1.00  0.00     0.015 C 
ATOM      9  C   UNL     1       7.550 -57.028 -18.800  1.00  0.00    -0.035 C 
ATOM     10  C   UNL     1       3.461 -59.918 -19.881  1.00  0.00    -0.006 C 
ATOM     11  C   UNL     1       3.141 -58.016 -18.225  1.00  0.00    -0.027 C 
ATOM     12  C   UNL     1       7.900 -56.913 -20.304  1.00  0.00     0.011 C 
ATOM     13  C   UNL     1       8.072 -55.754 -18.103  1.00  0.00     0.011 C 
ATOM     14  C   UNL     1       3.400 -59.457 -21.370  1.00  0.00     0.017 C 
ATOM     15  C   UNL     1       1.996 -60.485 -19.390  1.00  0.00    -0.020 C 
ATOM     16  C   UNL     1       1.807 -58.519 -17.806  1.00  0.00     0.032 C 
ATOM     17  C   UNL     1       1.716 -60.079 -17.889  1.00  0.00     0.006 C 
ATOM     18  C   UNL     1       0.797 -59.910 -20.228  1.00  0.00     0.008 C 
ATOM     19  C   UNL     1       1.964 -62.024 -19.617  1.00  0.00     0.012 C 
ATOM     20  C   UNL     1       0.370 -60.692 -17.245  1.00  0.00    -0.025 C 
ATOM     21  C   UNL     1      -0.600 -59.897 -19.549  1.00  0.00     0.005 C 
ATOM     22  C   UNL     1      -0.815 -60.815 -18.308  1.00  0.00     0.003 C 
ATOM     23  C   UNL     1      -0.096 -59.878 -15.981  1.00  0.00     0.010 C 
ATOM     24  C   UNL     1       0.716 -62.112 -16.681  1.00  0.00     0.012 C 
ATOM     25  C   UNL     1      -2.276 -60.649 -17.694  1.00  0.00    -0.006 C 
ATOM     26  C   UNL     1      -1.104 -58.770 -16.293  1.00  0.00     0.033 C 
ATOM     27  C   UNL     1      -2.420 -59.298 -16.897  1.00  0.00     0.120 C 
ATOM     28  C   UNL     1      -2.626 -61.872 -16.791  1.00  0.00     0.014 C 
ATOM     29  C   UNL     1      -3.352 -60.665 -18.819  1.00  0.00     0.014 C 
ENDROOT
BRANCH   1  30
ATOM     30  C   UNL     1       5.944 -59.453 -16.633  1.00  0.00     0.048 C 
ATOM     31  O   UNL     1       5.857 -60.457 -15.877  1.00  0.00    -0.550 OA
ATOM     32  O   UNL     1       5.766 -58.194 -16.075  1.00  0.00    -0.550 OA
ENDBRANCH   1  30
BRANCH  27  33
ATOM     33  O   UNL     1      -3.382 -59.408 -15.876  1.00  0.00    -0.393 OA
ATOM     34  H   UNL     1      -4.192 -59.812 -16.280  1.00  0.00     0.210 HD
ENDBRANCH  27  33
TORSDOF 2
ENDMDL
MODEL 9
REMARK VINA RESULT:    -4.490      6.775     10.149
REMARK INTER + INTRA:          -4.450
REMARK INTER:                  -4.822
REMARK INTRA:                   0.372
REMARK UNBOUND:                 0.433
REMARK SMILES CC1(C)CC[C@]2(C(=O)[O-])CC[C@]3(C)C(=CC[C@H]4[C@@]5(C)CC[C@H](O)C(C)(C)[C@H]5CC[C@]43C)[C@H]2C1
REMARK SMILES IDX 6 1 5 2 10 3 32 4 4 5 11 6 14 7 33 8 2 9 12 10 15 11 1 12
REMARK SMILES IDX 3 13 13 14 30 15 16 16 17 17 29 18 31 19 18 20 28 21 27 22
REMARK SMILES IDX 20 23 19 24 24 25 21 26 22 27 25 28 26 29 7 30 8 31 9 32
REMARK SMILES IDX 23 33
REMARK H PARENT 23 34
REMARK Flexibility Score: inf
ROOT
ATOM      1  C   UNL     1       1.576 -60.004 -19.239  1.00  0.00     0.017 C 
ATOM      2  C   UNL     1       0.261 -60.779 -19.538  1.00  0.00     0.014 C 
ATOM      3  C   UNL     1       2.842 -60.864 -19.585  1.00  0.00     0.014 C 
ATOM      4  C   UNL     1       1.539 -59.687 -17.708  1.00  0.00     0.028 C 
ATOM      5  C   UNL     1      -0.992 -59.940 -19.186  1.00  0.00     0.007 C 
ATOM      6  C   UNL     1       3.474 -61.538 -18.355  1.00  0.00     0.013 C 
ATOM      7  C   UNL     1       2.940 -59.350 -17.215  1.00  0.00    -0.064 C 
ATOM      8  C   UNL     1       0.367 -58.750 -17.343  1.00  0.00     0.015 C 
ATOM      9  C   UNL     1      -1.009 -59.383 -17.726  1.00  0.00    -0.035 C 
ATOM     10  C   UNL     1       3.961 -60.516 -17.219  1.00  0.00    -0.006 C 
ATOM     11  C   UNL     1       3.303 -58.064 -17.091  1.00  0.00    -0.027 C 
ATOM     12  C   UNL     1      -1.395 -60.511 -16.736  1.00  0.00     0.011 C 
ATOM     13  C   UNL     1      -2.092 -58.288 -17.627  1.00  0.00     0.011 C 
ATOM     14  C   UNL     1       3.755 -61.281 -15.875  1.00  0.00     0.017 C 
ATOM     15  C   UNL     1       5.519 -60.009 -17.363  1.00  0.00    -0.020 C 
ATOM     16  C   UNL     1       4.716 -57.614 -17.195  1.00  0.00     0.032 C 
ATOM     17  C   UNL     1       5.581 -58.591 -18.058  1.00  0.00     0.006 C 
ATOM     18  C   UNL     1       6.249 -59.849 -15.980  1.00  0.00     0.008 C 
ATOM     19  C   UNL     1       6.320 -61.097 -18.135  1.00  0.00     0.012 C 
ATOM     20  C   UNL     1       7.064 -58.042 -18.381  1.00  0.00    -0.025 C 
ATOM     21  C   UNL     1       7.459 -58.877 -15.925  1.00  0.00     0.005 C 
ATOM     22  C   UNL     1       8.129 -58.473 -17.273  1.00  0.00     0.003 C 
ATOM     23  C   UNL     1       7.075 -56.482 -18.591  1.00  0.00     0.010 C 
ATOM     24  C   UNL     1       7.491 -58.620 -19.773  1.00  0.00     0.012 C 
ATOM     25  C   UNL     1       9.317 -57.432 -17.056  1.00  0.00    -0.006 C 
ATOM     26  C   UNL     1       7.379 -55.686 -17.320  1.00  0.00     0.033 C 
ATOM     27  C   UNL     1       8.772 -55.991 -16.732  1.00  0.00     0.120 C 
ATOM     28  C   UNL     1      10.252 -57.409 -18.305  1.00  0.00     0.014 C 
ATOM     29  C   UNL     1      10.233 -57.879 -15.880  1.00  0.00     0.014 C 
ENDROOT
BRANCH   1  30
ATOM     30  C   UNL     1       1.638 -58.757 -20.125  1.00  0.00     0.048 C 
ATOM     31  O   UNL     1       0.623 -58.389 -20.773  1.00  0.00    -0.550 OA
ATOM     32  O   UNL     1       2.834 -58.085 -20.340  1.00  0.00    -0.550 OA
ENDBRANCH   1  30
BRANCH  27  33
ATOM     33  O   UNL     1       9.674 -54.997 -17.154  1.00  0.00    -0.393 OA
ATOM     34  H   UNL     1       9.980 -54.516 -16.341  1.00  0.00     0.210 HD
ENDBRANCH  27  33
TORSDOF 2
ENDMDL
