MODEL 1
REMARK VINA RESULT:    -4.169      0.000      0.000
REMARK INTER + INTRA:          -6.283
REMARK INTER:                  -5.874
REMARK INTRA:                  -0.409
REMARK UNBOUND:                -0.409
REMARK SMILES CCCCCCCCC(=O)[O-]
REMARK SMILES IDX 6 1 7 2 8 3 9 4 10 5 11 6 5 7 4 8 3 9 2 10 1 11
REMARK H PARENT
REMARK Flexibility Score: inf
ROOT
ATOM      1  C   UNL     1     190.847   3.421  97.497  1.00  0.00     0.000 C 
ENDROOT
BRANCH   1   2
ATOM      2  C   UNL     1     190.857   4.008  96.075  1.00  0.00     0.006 C 
BRANCH   2   3
ATOM      3  C   UNL     1     192.079   3.596  95.237  1.00  0.00     0.053 C 
BRANCH   3   4
ATOM      4  C   UNL     1     192.040   2.153  94.833  1.00  0.00     0.041 C 
ATOM      5  O   UNL     1     191.471   1.812  93.763  1.00  0.00    -0.550 OA
ATOM      6  O   UNL     1     192.598   1.181  95.653  1.00  0.00    -0.550 OA
ENDBRANCH   3   4
ENDBRANCH   2   3
ENDBRANCH   1   2
BRANCH   1   7
ATOM      7  C   UNL     1     191.603   4.290  98.514  1.00  0.00     0.000 C 
BRANCH   7   8
ATOM      8  C   UNL     1     192.662   3.467  99.264  1.00  0.00    -0.000 C 
BRANCH   8   9
ATOM      9  C   UNL     1     192.268   1.979  99.382  1.00  0.00    -0.000 C 
BRANCH   9  10
ATOM     10  C   UNL     1     192.553   1.374 100.766  1.00  0.00    -0.003 C 
ATOM     11  C   UNL     1     193.387   2.289 101.660  1.00  0.00     0.004 C 
ENDBRANCH   9  10
ENDBRANCH   8   9
ENDBRANCH   7   8
ENDBRANCH   1   7
TORSDOF 7
ENDMDL
MODEL 2
REMARK VINA RESULT:    -4.081      1.114      1.824
REMARK INTER + INTRA:          -6.160
REMARK INTER:                  -5.681
REMARK INTRA:                  -0.479
REMARK UNBOUND:                -0.409
REMARK SMILES CCCCCCCCC(=O)[O-]
REMARK SMILES IDX 6 1 7 2 8 3 9 4 10 5 11 6 5 7 4 8 3 9 2 10 1 11
REMARK H PARENT
REMARK Flexibility Score: inf
ROOT
ATOM      1  C   UNL     1     191.928   4.300  98.542  1.00  0.00     0.000 C 
ENDROOT
BRANCH   1   2
ATOM      2  C   UNL     1     190.695   3.530  98.039  1.00  0.00     0.006 C 
BRANCH   2   3
ATOM      3  C   UNL     1     190.457   3.651  96.524  1.00  0.00     0.053 C 
BRANCH   3   4
ATOM      4  C   UNL     1     191.683   3.332  95.722  1.00  0.00     0.041 C 
ATOM      5  O   UNL     1     192.253   4.234  95.054  1.00  0.00    -0.550 OA
ATOM      6  O   UNL     1     192.175   2.033  95.682  1.00  0.00    -0.550 OA
ENDBRANCH   3   4
ENDBRANCH   2   3
ENDBRANCH   1   2
BRANCH   1   7
ATOM      7  C   UNL     1     192.810   3.475  99.491  1.00  0.00     0.000 C 
BRANCH   7   8
ATOM      8  C   UNL     1     192.330   2.017  99.563  1.00  0.00    -0.000 C 
BRANCH   8   9
ATOM      9  C   UNL     1     192.410   1.446 100.995  1.00  0.00    -0.000 C 
BRANCH   9  10
ATOM     10  C   UNL     1     193.527   2.071 101.846  1.00  0.00    -0.003 C 
ATOM     11  C   UNL     1     193.227   2.043 103.343  1.00  0.00     0.004 C 
ENDBRANCH   9  10
ENDBRANCH   8   9
ENDBRANCH   7   8
ENDBRANCH   1   7
TORSDOF 7
ENDMDL
MODEL 3
REMARK VINA RESULT:    -4.056      0.718      1.318
REMARK INTER + INTRA:          -6.125
REMARK INTER:                  -5.610
REMARK INTRA:                  -0.515
REMARK UNBOUND:                -0.409
REMARK SMILES CCCCCCCCC(=O)[O-]
REMARK SMILES IDX 6 1 7 2 8 3 9 4 10 5 11 6 5 7 4 8 3 9 2 10 1 11
REMARK H PARENT
REMARK Flexibility Score: inf
ROOT
ATOM      1  C   UNL     1     190.179   3.577  97.764  1.00  0.00     0.000 C 
ENDROOT
BRANCH   1   2
ATOM      2  C   UNL     1     189.985   3.543  96.238  1.00  0.00     0.006 C 
BRANCH   2   3
ATOM      3  C   UNL     1     191.295   3.650  95.439  1.00  0.00     0.053 C 
BRANCH   3   4
ATOM      4  C   UNL     1     191.757   2.325  94.911  1.00  0.00     0.041 C 
ATOM      5  O   UNL     1     192.418   1.547  95.647  1.00  0.00    -0.550 OA
ATOM      6  O   UNL     1     191.489   1.965  93.596  1.00  0.00    -0.550 OA
ENDBRANCH   3   4
ENDBRANCH   2   3
ENDBRANCH   1   2
BRANCH   1   7
ATOM      7  C   UNL     1     191.237   4.594  98.216  1.00  0.00     0.000 C 
BRANCH   7   8
ATOM      8  C   UNL     1     192.379   3.902  98.975  1.00  0.00    -0.000 C 
BRANCH   8   9
ATOM      9  C   UNL     1     192.136   2.386  99.139  1.00  0.00    -0.000 C 
BRANCH   9  10
ATOM     10  C   UNL     1     192.730   1.803 100.432  1.00  0.00    -0.003 C 
ATOM     11  C   UNL     1     191.793   0.823 101.133  1.00  0.00     0.004 C 
ENDBRANCH   9  10
ENDBRANCH   8   9
ENDBRANCH   7   8
ENDBRANCH   1   7
TORSDOF 7
ENDMDL
MODEL 4
REMARK VINA RESULT:    -3.946      3.220      5.503
REMARK INTER + INTRA:          -5.970
REMARK INTER:                  -5.409
REMARK INTRA:                  -0.561
REMARK UNBOUND:                -0.409
REMARK SMILES CCCCCCCCC(=O)[O-]
REMARK SMILES IDX 6 1 7 2 8 3 9 4 10 5 11 6 5 7 4 8 3 9 2 10 1 11
REMARK H PARENT
REMARK Flexibility Score: inf
ROOT
ATOM      1  C   UNL     1     192.748   3.345  99.592  1.00  0.00     0.000 C 
ENDROOT
BRANCH   1   2
ATOM      2  C   UNL     1     192.369   1.858  99.475  1.00  0.00     0.006 C 
BRANCH   2   3
ATOM      3  C   UNL     1     191.768   1.264 100.761  1.00  0.00     0.053 C 
BRANCH   3   4
ATOM      4  C   UNL     1     192.747   1.240 101.896  1.00  0.00     0.041 C 
ATOM      5  O   UNL     1     193.883   0.720 101.740  1.00  0.00    -0.550 OA
ATOM      6  O   UNL     1     192.393   1.757 103.136  1.00  0.00    -0.550 OA
ENDBRANCH   3   4
ENDBRANCH   2   3
ENDBRANCH   1   2
BRANCH   1   7
ATOM      7  C   UNL     1     192.042   4.230  98.554  1.00  0.00     0.000 C 
BRANCH   7   8
ATOM      8  C   UNL     1     190.660   3.665  98.194  1.00  0.00    -0.000 C 
BRANCH   8   9
ATOM      9  C   UNL     1     190.406   3.669  96.671  1.00  0.00    -0.000 C 
BRANCH   9  10
ATOM     10  C   UNL     1     191.694   3.685  95.832  1.00  0.00    -0.003 C 
ATOM     11  C   UNL     1     192.049   2.317  95.254  1.00  0.00     0.004 C 
ENDBRANCH   9  10
ENDBRANCH   8   9
ENDBRANCH   7   8
ENDBRANCH   1   7
TORSDOF 7
ENDMDL
MODEL 5
REMARK VINA RESULT:    -3.935      2.752      4.917
REMARK INTER + INTRA:          -5.954
REMARK INTER:                  -5.299
REMARK INTRA:                  -0.654
REMARK UNBOUND:                -0.409
REMARK SMILES CCCCCCCCC(=O)[O-]
REMARK SMILES IDX 6 1 7 2 8 3 9 4 10 5 11 6 5 7 4 8 3 9 2 10 1 11
REMARK H PARENT
REMARK Flexibility Score: inf
ROOT
ATOM      1  C   UNL     1     189.956   3.870  98.245  1.00  0.00     0.000 C 
ENDROOT
BRANCH   1   2
ATOM      2  C   UNL     1     191.472   3.804  98.497  1.00  0.00     0.006 C 
BRANCH   2   3
ATOM      3  C   UNL     1     192.028   2.373  98.594  1.00  0.00     0.053 C 
BRANCH   3   4
ATOM      4  C   UNL     1     192.490   2.028  99.977  1.00  0.00     0.041 C 
ATOM      5  O   UNL     1     193.295   2.783 100.582  1.00  0.00    -0.550 OA
ATOM      6  O   UNL     1     192.061   0.854 100.586  1.00  0.00    -0.550 OA
ENDBRANCH   3   4
ENDBRANCH   2   3
ENDBRANCH   1   2
BRANCH   1   7
ATOM      7  C   UNL     1     189.589   4.632  96.963  1.00  0.00     0.000 C 
BRANCH   7   8
ATOM      8  C   UNL     1     189.650   3.709  95.736  1.00  0.00    -0.000 C 
BRANCH   8   9
ATOM      9  C   UNL     1     190.719   4.161  94.719  1.00  0.00    -0.000 C 
BRANCH   9  10
ATOM     10  C   UNL     1     192.096   3.515  94.944  1.00  0.00    -0.003 C 
ATOM     11  C   UNL     1     192.053   1.988  94.915  1.00  0.00     0.004 C 
ENDBRANCH   9  10
ENDBRANCH   8   9
ENDBRANCH   7   8
ENDBRANCH   1   7
TORSDOF 7
ENDMDL
MODEL 6
REMARK VINA RESULT:    -3.849      2.053      2.836
REMARK INTER + INTRA:          -5.833
REMARK INTER:                  -5.518
REMARK INTRA:                  -0.315
REMARK UNBOUND:                -0.409
REMARK SMILES CCCCCCCCC(=O)[O-]
REMARK SMILES IDX 6 1 7 2 8 3 9 4 10 5 11 6 5 7 4 8 3 9 2 10 1 11
REMARK H PARENT
REMARK Flexibility Score: inf
ROOT
ATOM      1  C   UNL     1     192.323   4.463  98.992  1.00  0.00     0.000 C 
ENDROOT
BRANCH   1   2
ATOM      2  C   UNL     1     191.503   3.919  97.809  1.00  0.00     0.006 C 
BRANCH   2   3
ATOM      3  C   UNL     1     189.999   4.232  97.896  1.00  0.00     0.053 C 
BRANCH   3   4
ATOM      4  C   UNL     1     189.209   3.563  96.812  1.00  0.00     0.041 C 
ATOM      5  O   UNL     1     188.040   3.153  97.042  1.00  0.00    -0.550 OA
ATOM      6  O   UNL     1     189.773   3.358  95.558  1.00  0.00    -0.550 OA
ENDBRANCH   3   4
ENDBRANCH   2   3
ENDBRANCH   1   2
BRANCH   1   7
ATOM      7  C   UNL     1     193.079   3.366  99.757  1.00  0.00     0.000 C 
BRANCH   7   8
ATOM      8  C   UNL     1     192.318   2.033  99.706  1.00  0.00    -0.000 C 
BRANCH   8   9
ATOM      9  C   UNL     1     192.472   1.223 101.012  1.00  0.00    -0.000 C 
BRANCH   9  10
ATOM     10  C   UNL     1     193.493   1.823 101.992  1.00  0.00    -0.003 C 
ATOM     11  C   UNL     1     193.264   1.388 103.438  1.00  0.00     0.004 C 
ENDBRANCH   9  10
ENDBRANCH   8   9
ENDBRANCH   7   8
ENDBRANCH   1   7
TORSDOF 7
ENDMDL
MODEL 7
REMARK VINA RESULT:    -3.826      3.701      5.842
REMARK INTER + INTRA:          -5.800
REMARK INTER:                  -5.340
REMARK INTRA:                  -0.460
REMARK UNBOUND:                -0.409
REMARK SMILES CCCCCCCCC(=O)[O-]
REMARK SMILES IDX 6 1 7 2 8 3 9 4 10 5 11 6 5 7 4 8 3 9 2 10 1 11
REMARK H PARENT
REMARK Flexibility Score: inf
ROOT
ATOM      1  C   UNL     1     192.281   1.981  99.319  1.00  0.00     0.000 C 
ENDROOT
BRANCH   1   2
ATOM      2  C   UNL     1     191.916   1.387 100.691  1.00  0.00     0.006 C 
BRANCH   2   3
ATOM      3  C   UNL     1     193.109   0.776 101.445  1.00  0.00     0.053 C 
BRANCH   3   4
ATOM      4  C   UNL     1     193.519   1.593 102.633  1.00  0.00     0.041 C 
ATOM      5  O   UNL     1     193.806   2.811 102.494  1.00  0.00    -0.550 OA
ATOM      6  O   UNL     1     193.620   1.004 103.887  1.00  0.00    -0.550 OA
ENDBRANCH   3   4
ENDBRANCH   2   3
ENDBRANCH   1   2
BRANCH   1   7
ATOM      7  C   UNL     1     192.567   3.489  99.371  1.00  0.00     0.000 C 
BRANCH   7   8
ATOM      8  C   UNL     1     191.755   4.241  98.305  1.00  0.00    -0.000 C 
BRANCH   8   9
ATOM      9  C   UNL     1     191.146   3.287  97.255  1.00  0.00    -0.000 C 
BRANCH   9  10
ATOM     10  C   UNL     1     189.688   3.617  96.896  1.00  0.00    -0.003 C 
ATOM     11  C   UNL     1     188.802   3.829  98.121  1.00  0.00     0.004 C 
ENDBRANCH   9  10
ENDBRANCH   8   9
ENDBRANCH   7   8
ENDBRANCH   1   7
TORSDOF 7
ENDMDL
MODEL 8
REMARK VINA RESULT:    -3.763      2.407      4.355
REMARK INTER + INTRA:          -5.711
REMARK INTER:                  -5.045
REMARK INTRA:                  -0.667
REMARK UNBOUND:                -0.409
REMARK SMILES CCCCCCCCC(=O)[O-]
REMARK SMILES IDX 6 1 7 2 8 3 9 4 10 5 11 6 5 7 4 8 3 9 2 10 1 11
REMARK H PARENT
REMARK Flexibility Score: inf
ROOT
ATOM      1  C   UNL     1     191.180   4.030  97.861  1.00  0.00     0.000 C 
ENDROOT
BRANCH   1   2
ATOM      2  C   UNL     1     191.502   3.122  96.661  1.00  0.00     0.006 C 
BRANCH   2   3
ATOM      3  C   UNL     1     191.907   3.888  95.389  1.00  0.00     0.053 C 
BRANCH   3   4
ATOM      4  C   UNL     1     191.189   3.397  94.168  1.00  0.00     0.041 C 
ATOM      5  O   UNL     1     190.390   4.154  93.557  1.00  0.00    -0.550 OA
ATOM      6  O   UNL     1     191.373   2.093  93.726  1.00  0.00    -0.550 OA
ENDBRANCH   3   4
ENDBRANCH   2   3
ENDBRANCH   1   2
BRANCH   1   7
ATOM      7  C   UNL     1     189.673   4.160  98.131  1.00  0.00     0.000 C 
BRANCH   7   8
ATOM      8  C   UNL     1     189.139   5.513  97.635  1.00  0.00    -0.000 C 
BRANCH   8   9
ATOM      9  C   UNL     1     188.231   5.363  96.395  1.00  0.00    -0.000 C 
BRANCH   9  10
ATOM     10  C   UNL     1     187.886   3.903  96.057  1.00  0.00    -0.003 C 
ATOM     11  C   UNL     1     186.394   3.598  96.172  1.00  0.00     0.004 C 
ENDBRANCH   9  10
ENDBRANCH   8   9
ENDBRANCH   7   8
ENDBRANCH   1   7
TORSDOF 7
ENDMDL
MODEL 9
REMARK VINA RESULT:    -3.730      4.666      7.033
REMARK INTER + INTRA:          -5.665
REMARK INTER:                  -5.373
REMARK INTRA:                  -0.292
REMARK UNBOUND:                -0.409
REMARK SMILES CCCCCCCCC(=O)[O-]
REMARK SMILES IDX 6 1 7 2 8 3 9 4 10 5 11 6 5 7 4 8 3 9 2 10 1 11
REMARK H PARENT
REMARK Flexibility Score: inf
ROOT
ATOM      1  C   UNL     1     193.490   1.127 101.799  1.00  0.00     0.000 C 
ENDROOT
BRANCH   1   2
ATOM      2  C   UNL     1     193.590   2.491 102.503  1.00  0.00     0.006 C 
BRANCH   2   3
ATOM      3  C   UNL     1     193.865   2.396 104.014  1.00  0.00     0.053 C 
BRANCH   3   4
ATOM      4  C   UNL     1     192.795   1.645 104.748  1.00  0.00     0.041 C 
ATOM      5  O   UNL     1     191.604   2.051 104.718  1.00  0.00    -0.550 OA
ATOM      6  O   UNL     1     193.118   0.518 105.494  1.00  0.00    -0.550 OA
ENDBRANCH   3   4
ENDBRANCH   2   3
ENDBRANCH   1   2
BRANCH   1   7
ATOM      7  C   UNL     1     192.596   1.156 100.551  1.00  0.00     0.000 C 
BRANCH   7   8
ATOM      8  C   UNL     1     192.753   2.481  99.790  1.00  0.00    -0.000 C 
BRANCH   8   9
ATOM      9  C   UNL     1     191.522   2.802  98.915  1.00  0.00    -0.000 C 
BRANCH   9  10
ATOM     10  C   UNL     1     191.532   4.225  98.334  1.00  0.00    -0.003 C 
ATOM     11  C   UNL     1     190.179   4.653  97.771  1.00  0.00     0.004 C 
ENDBRANCH   9  10
ENDBRANCH   8   9
ENDBRANCH   7   8
ENDBRANCH   1   7
TORSDOF 7
ENDMDL
