MODEL 1
REMARK VINA RESULT:    -3.304      0.000      0.000
REMARK INTER + INTRA:          -3.982
REMARK INTER:                  -3.980
REMARK INTRA:                  -0.002
REMARK UNBOUND:                -0.002
REMARK SMILES OCC(O)CO
REMARK SMILES IDX 3 1 5 2 6 3 2 5 1 6 4 8
REMARK H PARENT 6 4 1 7 4 9
REMARK Flexibility Score: inf
ROOT
ATOM      1  C   UNL     1     -36.289  -1.480 -12.310  1.00  0.00     0.165 C 
ENDROOT
BRANCH   1   2
ATOM      2  C   UNL     1     -36.374  -2.904 -11.745  1.00  0.00     0.190 C 
BRANCH   2   3
ATOM      3  O   UNL     1     -36.766  -2.872 -10.400  1.00  0.00    -0.394 OA
ATOM      4  H   UNL     1     -36.787  -1.914 -10.142  1.00  0.00     0.210 HD
ENDBRANCH   2   3
ENDBRANCH   1   2
BRANCH   1   5
ATOM      5  C   UNL     1     -37.196  -1.297 -13.537  1.00  0.00     0.190 C 
BRANCH   5   6
ATOM      6  O   UNL     1     -37.368   0.066 -13.819  1.00  0.00    -0.394 OA
ATOM      7  H   UNL     1     -37.335   0.148 -14.807  1.00  0.00     0.210 HD
ENDBRANCH   5   6
ENDBRANCH   1   5
BRANCH   1   8
ATOM      8  O   UNL     1     -36.675  -0.577 -11.306  1.00  0.00    -0.388 OA
ATOM      9  H   UNL     1     -37.664  -0.495 -11.356  1.00  0.00     0.211 HD
ENDBRANCH   1   8
TORSDOF 5
ENDMDL
MODEL 2
REMARK VINA RESULT:    -3.249      2.203      2.844
REMARK INTER + INTRA:          -3.916
REMARK INTER:                  -3.913
REMARK INTRA:                  -0.003
REMARK UNBOUND:                -0.002
REMARK SMILES OCC(O)CO
REMARK SMILES IDX 3 1 5 2 6 3 2 5 1 6 4 8
REMARK H PARENT 6 4 1 7 4 9
REMARK Flexibility Score: inf
ROOT
ATOM      1  C   UNL     1     -35.340  -0.252 -13.075  1.00  0.00     0.165 C 
ENDROOT
BRANCH   1   2
ATOM      2  C   UNL     1     -36.388  -1.099 -12.340  1.00  0.00     0.190 C 
BRANCH   2   3
ATOM      3  O   UNL     1     -36.691  -0.528 -11.097  1.00  0.00    -0.394 OA
ATOM      4  H   UNL     1     -37.652  -0.715 -10.937  1.00  0.00     0.210 HD
ENDBRANCH   2   3
ENDBRANCH   1   2
BRANCH   1   5
ATOM      5  C   UNL     1     -34.204  -1.117 -13.647  1.00  0.00     0.190 C 
BRANCH   5   6
ATOM      6  O   UNL     1     -33.225  -0.307 -14.238  1.00  0.00    -0.394 OA
ATOM      7  H   UNL     1     -32.708   0.089 -13.490  1.00  0.00     0.210 HD
ENDBRANCH   5   6
ENDBRANCH   1   5
BRANCH   1   8
ATOM      8  O   UNL     1     -35.975   0.434 -14.123  1.00  0.00    -0.388 OA
ATOM      9  H   UNL     1     -35.454   1.265 -14.281  1.00  0.00     0.211 HD
ENDBRANCH   1   8
TORSDOF 5
ENDMDL
MODEL 3
REMARK VINA RESULT:    -3.203      1.455      2.361
REMARK INTER + INTRA:          -3.861
REMARK INTER:                  -3.638
REMARK INTRA:                  -0.223
REMARK UNBOUND:                -0.002
REMARK SMILES OCC(O)CO
REMARK SMILES IDX 3 1 5 2 6 3 2 5 1 6 4 8
REMARK H PARENT 6 4 1 7 4 9
REMARK Flexibility Score: inf
ROOT
ATOM      1  C   UNL     1     -36.276  -0.552 -13.510  1.00  0.00     0.165 C 
ENDROOT
BRANCH   1   2
ATOM      2  C   UNL     1     -35.843   0.047 -12.166  1.00  0.00     0.190 C 
BRANCH   2   3
ATOM      3  O   UNL     1     -36.659  -0.431 -11.132  1.00  0.00    -0.394 OA
ATOM      4  H   UNL     1     -36.132  -0.330 -10.297  1.00  0.00     0.210 HD
ENDBRANCH   2   3
ENDBRANCH   1   2
BRANCH   1   5
ATOM      5  C   UNL     1     -36.544  -2.062 -13.404  1.00  0.00     0.190 C 
BRANCH   5   6
ATOM      6  O   UNL     1     -37.865  -2.296 -12.999  1.00  0.00    -0.394 OA
ATOM      7  H   UNL     1     -38.126  -3.164 -13.404  1.00  0.00     0.210 HD
ENDBRANCH   5   6
ENDBRANCH   1   5
BRANCH   1   8
ATOM      8  O   UNL     1     -37.446   0.100 -13.933  1.00  0.00    -0.388 OA
ATOM      9  H   UNL     1     -38.143  -0.085 -13.249  1.00  0.00     0.211 HD
ENDBRANCH   1   8
TORSDOF 5
ENDMDL
MODEL 4
REMARK VINA RESULT:    -3.177      2.359      3.500
REMARK INTER + INTRA:          -3.829
REMARK INTER:                  -3.827
REMARK INTRA:                  -0.003
REMARK UNBOUND:                -0.002
REMARK SMILES OCC(O)CO
REMARK SMILES IDX 3 1 5 2 6 3 2 5 1 6 4 8
REMARK H PARENT 6 4 1 7 4 9
REMARK Flexibility Score: inf
ROOT
ATOM      1  C   UNL     1     -35.591  -0.505 -13.614  1.00  0.00     0.165 C 
ENDROOT
BRANCH   1   2
ATOM      2  C   UNL     1     -34.220  -1.186 -13.708  1.00  0.00     0.190 C 
BRANCH   2   3
ATOM      3  O   UNL     1     -33.267  -0.297 -14.222  1.00  0.00    -0.394 OA
ATOM      4  H   UNL     1     -32.400  -0.778 -14.195  1.00  0.00     0.210 HD
ENDBRANCH   2   3
ENDBRANCH   1   2
BRANCH   1   5
ATOM      5  C   UNL     1     -35.775   0.228 -12.275  1.00  0.00     0.190 C 
BRANCH   5   6
ATOM      6  O   UNL     1     -36.692  -0.458 -11.466  1.00  0.00    -0.394 OA
ATOM      7  H   UNL     1     -36.442  -0.247 -10.529  1.00  0.00     0.210 HD
ENDBRANCH   5   6
ENDBRANCH   1   5
BRANCH   1   8
ATOM      8  O   UNL     1     -35.707   0.415 -14.669  1.00  0.00    -0.388 OA
ATOM      9  H   UNL     1     -35.118   1.184 -14.447  1.00  0.00     0.211 HD
ENDBRANCH   1   8
TORSDOF 5
ENDMDL
MODEL 5
REMARK VINA RESULT:    -3.135      1.858      2.439
REMARK INTER + INTRA:          -3.779
REMARK INTER:                  -3.555
REMARK INTRA:                  -0.224
REMARK UNBOUND:                -0.002
REMARK SMILES OCC(O)CO
REMARK SMILES IDX 3 1 5 2 6 3 2 5 1 6 4 8
REMARK H PARENT 6 4 1 7 4 9
REMARK Flexibility Score: inf
ROOT
ATOM      1  C   UNL     1     -35.282  -0.676 -13.354  1.00  0.00     0.165 C 
ENDROOT
BRANCH   1   2
ATOM      2  C   UNL     1     -35.680   0.212 -12.168  1.00  0.00     0.190 C 
BRANCH   2   3
ATOM      3  O   UNL     1     -36.585  -0.461 -11.337  1.00  0.00    -0.394 OA
ATOM      4  H   UNL     1     -37.485  -0.114 -11.573  1.00  0.00     0.210 HD
ENDBRANCH   2   3
ENDBRANCH   1   2
BRANCH   1   5
ATOM      5  C   UNL     1     -36.272  -0.547 -14.523  1.00  0.00     0.190 C 
BRANCH   5   6
ATOM      6  O   UNL     1     -37.461   0.057 -14.091  1.00  0.00    -0.394 OA
ATOM      7  H   UNL     1     -38.189  -0.360 -14.620  1.00  0.00     0.210 HD
ENDBRANCH   5   6
ENDBRANCH   1   5
BRANCH   1   8
ATOM      8  O   UNL     1     -34.000  -0.298 -13.785  1.00  0.00    -0.388 OA
ATOM      9  H   UNL     1     -34.122   0.265 -14.595  1.00  0.00     0.211 HD
ENDBRANCH   1   8
TORSDOF 5
ENDMDL
MODEL 6
REMARK VINA RESULT:    -3.054      0.953      3.085
REMARK INTER + INTRA:          -3.681
REMARK INTER:                  -3.678
REMARK INTRA:                  -0.003
REMARK UNBOUND:                -0.002
REMARK SMILES OCC(O)CO
REMARK SMILES IDX 3 1 5 2 6 3 2 5 1 6 4 8
REMARK H PARENT 6 4 1 7 4 9
REMARK Flexibility Score: inf
ROOT
ATOM      1  C   UNL     1     -36.493  -1.285 -12.335  1.00  0.00     0.165 C 
ENDROOT
BRANCH   1   2
ATOM      2  C   UNL     1     -35.288  -0.781 -13.140  1.00  0.00     0.190 C 
BRANCH   2   3
ATOM      3  O   UNL     1     -35.636   0.357 -13.879  1.00  0.00    -0.394 OA
ATOM      4  H   UNL     1     -35.180   1.120 -13.438  1.00  0.00     0.210 HD
ENDBRANCH   2   3
ENDBRANCH   1   2
BRANCH   1   5
ATOM      5  C   UNL     1     -36.313  -2.745 -11.889  1.00  0.00     0.190 C 
BRANCH   5   6
ATOM      6  O   UNL     1     -36.672  -2.892 -10.542  1.00  0.00    -0.394 OA
ATOM      7  H   UNL     1     -36.659  -3.867 -10.359  1.00  0.00     0.210 HD
ENDBRANCH   5   6
ENDBRANCH   1   5
BRANCH   1   8
ATOM      8  O   UNL     1     -36.648  -0.468 -11.203  1.00  0.00    -0.388 OA
ATOM      9  H   UNL     1     -37.120  -1.011 -10.518  1.00  0.00     0.211 HD
ENDBRANCH   1   8
TORSDOF 5
ENDMDL
MODEL 7
REMARK VINA RESULT:    -2.998      1.897      3.150
REMARK INTER + INTRA:          -3.614
REMARK INTER:                  -3.390
REMARK INTRA:                  -0.223
REMARK UNBOUND:                -0.002
REMARK SMILES OCC(O)CO
REMARK SMILES IDX 3 1 5 2 6 3 2 5 1 6 4 8
REMARK H PARENT 6 4 1 7 4 9
REMARK Flexibility Score: inf
ROOT
ATOM      1  C   UNL     1     -35.382  -0.540 -13.546  1.00  0.00     0.165 C 
ENDROOT
BRANCH   1   2
ATOM      2  C   UNL     1     -36.647  -0.864 -14.352  1.00  0.00     0.190 C 
BRANCH   2   3
ATOM      3  O   UNL     1     -37.599   0.152 -14.196  1.00  0.00    -0.394 OA
ATOM      4  H   UNL     1     -37.136   1.000 -14.420  1.00  0.00     0.210 HD
ENDBRANCH   2   3
ENDBRANCH   1   2
BRANCH   1   5
ATOM      5  C   UNL     1     -35.707   0.243 -12.263  1.00  0.00     0.190 C 
BRANCH   5   6
ATOM      6  O   UNL     1     -36.666  -0.442 -11.504  1.00  0.00    -0.394 OA
ATOM      7  H   UNL     1     -36.756   0.065 -10.655  1.00  0.00     0.210 HD
ENDBRANCH   5   6
ENDBRANCH   1   5
BRANCH   1   8
ATOM      8  O   UNL     1     -34.747  -1.746 -13.208  1.00  0.00    -0.388 OA
ATOM      9  H   UNL     1     -35.316  -2.480 -13.560  1.00  0.00     0.211 HD
ENDBRANCH   1   8
TORSDOF 5
ENDMDL
MODEL 8
REMARK VINA RESULT:    -2.995      2.516      2.716
REMARK INTER + INTRA:          -3.610
REMARK INTER:                  -3.390
REMARK INTRA:                  -0.220
REMARK UNBOUND:                -0.002
REMARK SMILES OCC(O)CO
REMARK SMILES IDX 3 1 5 2 6 3 2 5 1 6 4 8
REMARK H PARENT 6 4 1 7 4 9
REMARK Flexibility Score: inf
ROOT
ATOM      1  C   UNL     1     -34.617  -0.791 -13.897  1.00  0.00     0.165 C 
ENDROOT
BRANCH   1   2
ATOM      2  C   UNL     1     -34.445  -2.235 -13.407  1.00  0.00     0.190 C 
BRANCH   2   3
ATOM      3  O   UNL     1     -35.535  -2.615 -12.614  1.00  0.00    -0.394 OA
ATOM      4  H   UNL     1     -35.155  -2.911 -11.747  1.00  0.00     0.210 HD
ENDBRANCH   2   3
ENDBRANCH   1   2
BRANCH   1   5
ATOM      5  C   UNL     1     -35.414   0.061 -12.896  1.00  0.00     0.190 C 
BRANCH   5   6
ATOM      6  O   UNL     1     -36.777   0.050 -13.223  1.00  0.00    -0.394 OA
ATOM      7  H   UNL     1     -37.063  -0.899 -13.175  1.00  0.00     0.210 HD
ENDBRANCH   5   6
ENDBRANCH   1   5
BRANCH   1   8
ATOM      8  O   UNL     1     -33.344  -0.227 -14.080  1.00  0.00    -0.388 OA
ATOM      9  H   UNL     1     -33.127  -0.310 -15.046  1.00  0.00     0.211 HD
ENDBRANCH   1   8
TORSDOF 5
ENDMDL
MODEL 9
REMARK VINA RESULT:    -2.911      2.488      3.565
REMARK INTER + INTRA:          -3.509
REMARK INTER:                  -3.293
REMARK INTRA:                  -0.217
REMARK UNBOUND:                -0.002
REMARK SMILES OCC(O)CO
REMARK SMILES IDX 3 1 5 2 6 3 2 5 1 6 4 8
REMARK H PARENT 6 4 1 7 4 9
REMARK Flexibility Score: inf
ROOT
ATOM      1  C   UNL     1     -34.484  -0.698 -13.486  1.00  0.00     0.165 C 
ENDROOT
BRANCH   1   2
ATOM      2  C   UNL     1     -35.723  -0.219 -14.252  1.00  0.00     0.190 C 
BRANCH   2   3
ATOM      3  O   UNL     1     -36.769   0.060 -13.362  1.00  0.00    -0.394 OA
ATOM      4  H   UNL     1     -37.175   0.910 -13.673  1.00  0.00     0.210 HD
ENDBRANCH   2   3
ENDBRANCH   1   2
BRANCH   1   5
ATOM      5  C   UNL     1     -34.482  -2.224 -13.299  1.00  0.00     0.190 C 
BRANCH   5   6
ATOM      6  O   UNL     1     -35.619  -2.630 -12.586  1.00  0.00    -0.394 OA
ATOM      7  H   UNL     1     -35.295  -3.248 -11.881  1.00  0.00     0.210 HD
ENDBRANCH   5   6
ENDBRANCH   1   5
BRANCH   1   8
ATOM      8  O   UNL     1     -33.339  -0.315 -14.203  1.00  0.00    -0.388 OA
ATOM      9  H   UNL     1     -32.737  -1.105 -14.228  1.00  0.00     0.211 HD
ENDBRANCH   1   8
TORSDOF 5
ENDMDL
