MODEL 1
REMARK VINA RESULT:    22.925      0.000      0.000
REMARK INTER + INTRA:          51.149
REMARK INTER:                  52.409
REMARK INTRA:                  -1.261
REMARK UNBOUND:                -1.261
REMARK SMILES CCCCCCCCCCCCCCCCCCCCCCCC(=O)[O-]
REMARK SMILES IDX 13 1 14 2 15 3 16 4 17 5 18 6 19 7 20 8 21 9 22 10 23 11
REMARK SMILES IDX 24 12 25 13 26 14 12 15 11 16 10 17 9 18 8 19 7 20 6 21 5 22
REMARK SMILES IDX 4 23 3 24 2 25 1 26
REMARK H PARENT
REMARK Flexibility Score: inf
ROOT
ATOM      1  C   UNL     1      -8.383 -12.594  21.686  1.00  0.00     0.000 C 
ENDROOT
BRANCH   1   2
ATOM      2  C   UNL     1      -8.144 -13.896  20.898  1.00  0.00     0.000 C 
BRANCH   2   3
ATOM      3  C   UNL     1      -9.184 -14.124  19.787  1.00  0.00     0.000 C 
BRANCH   3   4
ATOM      4  C   UNL     1      -8.614 -13.843  18.387  1.00  0.00     0.000 C 
BRANCH   4   5
ATOM      5  C   UNL     1      -9.107 -14.853  17.338  1.00  0.00     0.000 C 
BRANCH   5   6
ATOM      6  C   UNL     1      -9.998 -15.954  17.941  1.00  0.00     0.000 C 
BRANCH   6   7
ATOM      7  C   UNL     1      -9.247 -17.273  18.226  1.00  0.00     0.000 C 
BRANCH   7   8
ATOM      8  C   UNL     1      -9.997 -18.499  17.673  1.00  0.00     0.000 C 
BRANCH   8   9
ATOM      9  C   UNL     1      -9.143 -19.306  16.672  1.00  0.00     0.000 C 
BRANCH   9  10
ATOM     10  C   UNL     1      -7.810 -18.626  16.309  1.00  0.00     0.006 C 
BRANCH  10  11
ATOM     11  C   UNL     1      -6.594 -19.563  16.363  1.00  0.00     0.053 C 
BRANCH  11  12
ATOM     12  C   UNL     1      -6.195 -20.045  15.001  1.00  0.00     0.041 C 
ATOM     13  O   UNL     1      -5.921 -19.218  14.091  1.00  0.00    -0.550 OA
ATOM     14  O   UNL     1      -6.112 -21.407  14.741  1.00  0.00    -0.550 OA
ENDBRANCH  11  12
ENDBRANCH  10  11
ENDBRANCH   9  10
ENDBRANCH   8   9
ENDBRANCH   7   8
ENDBRANCH   6   7
ENDBRANCH   5   6
ENDBRANCH   4   5
ENDBRANCH   3   4
ENDBRANCH   2   3
ENDBRANCH   1   2
BRANCH   1  15
ATOM     15  C   UNL     1      -7.129 -11.976  22.333  1.00  0.00     0.000 C 
BRANCH  15  16
ATOM     16  C   UNL     1      -6.764 -12.628  23.677  1.00  0.00     0.000 C 
BRANCH  16  17
ATOM     17  C   UNL     1      -6.557 -11.596  24.798  1.00  0.00     0.000 C 
BRANCH  17  18
ATOM     18  C   UNL     1      -6.137 -10.217  24.269  1.00  0.00    -0.000 C 
BRANCH  18  19
ATOM     19  C   UNL     1      -5.388  -9.423  25.347  1.00  0.00    -0.000 C 
BRANCH  19  20
ATOM     20  C   UNL     1      -4.324  -8.512  24.723  1.00  0.00    -0.000 C 
BRANCH  20  21
ATOM     21  C   UNL     1      -2.964  -9.217  24.660  1.00  0.00    -0.000 C 
BRANCH  21  22
ATOM     22  C   UNL     1      -1.929  -8.353  23.927  1.00  0.00    -0.000 C 
BRANCH  22  23
ATOM     23  C   UNL     1      -2.612  -7.254  23.105  1.00  0.00    -0.000 C 
BRANCH  23  24
ATOM     24  C   UNL     1      -2.352  -7.446  21.607  1.00  0.00    -0.000 C 
BRANCH  24  25
ATOM     25  C   UNL     1      -3.560  -6.999  20.775  1.00  0.00    -0.003 C 
ATOM     26  C   UNL     1      -3.314  -7.214  19.285  1.00  0.00     0.004 C 
ENDBRANCH  24  25
ENDBRANCH  23  24
ENDBRANCH  22  23
ENDBRANCH  21  22
ENDBRANCH  20  21
ENDBRANCH  19  20
ENDBRANCH  18  19
ENDBRANCH  17  18
ENDBRANCH  16  17
ENDBRANCH  15  16
ENDBRANCH   1  15
TORSDOF 22
ENDMDL
MODEL 2
REMARK VINA RESULT:    23.261      4.129     10.293
REMARK INTER + INTRA:          51.917
REMARK INTER:                  53.235
REMARK INTRA:                  -1.318
REMARK UNBOUND:                -1.261
REMARK SMILES CCCCCCCCCCCCCCCCCCCCCCCC(=O)[O-]
REMARK SMILES IDX 13 1 14 2 15 3 16 4 17 5 18 6 19 7 20 8 21 9 22 10 23 11
REMARK SMILES IDX 24 12 25 13 26 14 12 15 11 16 10 17 9 18 8 19 7 20 6 21 5 22
REMARK SMILES IDX 4 23 3 24 2 25 1 26
REMARK H PARENT
REMARK Flexibility Score: inf
ROOT
ATOM      1  C   UNL     1      -8.494 -13.970  20.458  1.00  0.00     0.000 C 
ENDROOT
BRANCH   1   2
ATOM      2  C   UNL     1      -8.637 -12.569  21.085  1.00  0.00     0.000 C 
BRANCH   2   3
ATOM      3  C   UNL     1      -8.341 -12.553  22.594  1.00  0.00     0.000 C 
BRANCH   3   4
ATOM      4  C   UNL     1      -6.834 -12.501  22.893  1.00  0.00     0.000 C 
BRANCH   4   5
ATOM      5  C   UNL     1      -6.526 -11.839  24.247  1.00  0.00     0.000 C 
BRANCH   5   6
ATOM      6  C   UNL     1      -6.420 -12.855  25.398  1.00  0.00     0.000 C 
BRANCH   6   7
ATOM      7  C   UNL     1      -5.522 -14.070  25.074  1.00  0.00     0.000 C 
BRANCH   7   8
ATOM      8  C   UNL     1      -4.724 -14.546  26.301  1.00  0.00     0.000 C 
BRANCH   8   9
ATOM      9  C   UNL     1      -5.269 -15.871  26.876  1.00  0.00     0.000 C 
BRANCH   9  10
ATOM     10  C   UNL     1      -4.611 -17.124  26.268  1.00  0.00     0.006 C 
BRANCH  10  11
ATOM     11  C   UNL     1      -5.610 -18.139  25.694  1.00  0.00     0.053 C 
BRANCH  11  12
ATOM     12  C   UNL     1      -5.509 -18.245  24.202  1.00  0.00     0.041 C 
ATOM     13  O   UNL     1      -6.351 -18.924  23.556  1.00  0.00    -0.550 OA
ATOM     14  O   UNL     1      -4.495 -17.580  23.523  1.00  0.00    -0.550 OA
ENDBRANCH  11  12
ENDBRANCH  10  11
ENDBRANCH   9  10
ENDBRANCH   8   9
ENDBRANCH   7   8
ENDBRANCH   6   7
ENDBRANCH   5   6
ENDBRANCH   4   5
ENDBRANCH   3   4
ENDBRANCH   2   3
ENDBRANCH   1   2
BRANCH   1  15
ATOM     15  C   UNL     1      -8.207 -13.988  18.946  1.00  0.00     0.000 C 
BRANCH  15  16
ATOM     16  C   UNL     1      -9.367 -13.424  18.107  1.00  0.00     0.000 C 
BRANCH  16  17
ATOM     17  C   UNL     1     -10.100 -14.512  17.304  1.00  0.00     0.000 C 
BRANCH  17  18
ATOM     18  C   UNL     1      -9.348 -15.851  17.291  1.00  0.00    -0.000 C 
BRANCH  18  19
ATOM     19  C   UNL     1      -9.928 -16.813  18.335  1.00  0.00    -0.000 C 
BRANCH  19  20
ATOM     20  C   UNL     1      -9.878 -18.263  17.839  1.00  0.00    -0.000 C 
BRANCH  20  21
ATOM     21  C   UNL     1      -8.865 -18.420  16.698  1.00  0.00    -0.000 C 
BRANCH  21  22
ATOM     22  C   UNL     1      -8.083 -19.733  16.833  1.00  0.00    -0.000 C 
BRANCH  22  23
ATOM     23  C   UNL     1      -6.650 -19.577  16.310  1.00  0.00    -0.000 C 
BRANCH  23  24
ATOM     24  C   UNL     1      -6.640 -18.948  14.912  1.00  0.00    -0.000 C 
BRANCH  24  25
ATOM     25  C   UNL     1      -5.939 -19.863  13.901  1.00  0.00    -0.003 C 
ATOM     26  C   UNL     1      -5.786 -21.278  14.452  1.00  0.00     0.004 C 
ENDBRANCH  24  25
ENDBRANCH  23  24
ENDBRANCH  22  23
ENDBRANCH  21  22
ENDBRANCH  20  21
ENDBRANCH  19  20
ENDBRANCH  18  19
ENDBRANCH  17  18
ENDBRANCH  16  17
ENDBRANCH  15  16
ENDBRANCH   1  15
TORSDOF 22
ENDMDL
MODEL 3
REMARK VINA RESULT:    23.315      3.983     10.142
REMARK INTER + INTRA:          52.041
REMARK INTER:                  52.656
REMARK INTRA:                  -0.615
REMARK UNBOUND:                -1.261
REMARK SMILES CCCCCCCCCCCCCCCCCCCCCCCC(=O)[O-]
REMARK SMILES IDX 13 1 14 2 15 3 16 4 17 5 18 6 19 7 20 8 21 9 22 10 23 11
REMARK SMILES IDX 24 12 25 13 26 14 12 15 11 16 10 17 9 18 8 19 7 20 6 21 5 22
REMARK SMILES IDX 4 23 3 24 2 25 1 26
REMARK H PARENT
REMARK Flexibility Score: inf
ROOT
ATOM      1  C   UNL     1      -8.038 -12.659  20.946  1.00  0.00     0.000 C 
ENDROOT
BRANCH   1   2
ATOM      2  C   UNL     1      -7.960 -12.800  22.478  1.00  0.00     0.000 C 
BRANCH   2   3
ATOM      3  C   UNL     1      -6.654 -12.237  23.067  1.00  0.00     0.000 C 
BRANCH   3   4
ATOM      4  C   UNL     1      -6.861 -11.614  24.457  1.00  0.00     0.000 C 
BRANCH   4   5
ATOM      5  C   UNL     1      -6.723 -12.645  25.590  1.00  0.00     0.000 C 
BRANCH   5   6
ATOM      6  C   UNL     1      -5.779 -13.806  25.228  1.00  0.00     0.000 C 
BRANCH   6   7
ATOM      7  C   UNL     1      -5.004 -14.376  26.437  1.00  0.00     0.000 C 
BRANCH   7   8
ATOM      8  C   UNL     1      -4.483 -15.800  26.174  1.00  0.00     0.000 C 
BRANCH   8   9
ATOM      9  C   UNL     1      -5.565 -16.875  26.411  1.00  0.00     0.000 C 
BRANCH   9  10
ATOM     10  C   UNL     1      -5.123 -18.294  26.011  1.00  0.00     0.006 C 
BRANCH  10  11
ATOM     11  C   UNL     1      -5.810 -18.831  24.747  1.00  0.00     0.053 C 
BRANCH  11  12
ATOM     12  C   UNL     1      -5.410 -18.067  23.522  1.00  0.00     0.041 C 
ATOM     13  O   UNL     1      -4.223 -17.667  23.383  1.00  0.00    -0.550 OA
ATOM     14  O   UNL     1      -6.343 -17.809  22.525  1.00  0.00    -0.550 OA
ENDBRANCH  11  12
ENDBRANCH  10  11
ENDBRANCH   9  10
ENDBRANCH   8   9
ENDBRANCH   7   8
ENDBRANCH   6   7
ENDBRANCH   5   6
ENDBRANCH   4   5
ENDBRANCH   3   4
ENDBRANCH   2   3
ENDBRANCH   1   2
BRANCH   1  15
ATOM     15  C   UNL     1      -8.997 -13.637  20.243  1.00  0.00     0.000 C 
BRANCH  15  16
ATOM     16  C   UNL     1      -8.533 -14.021  18.827  1.00  0.00     0.000 C 
BRANCH  16  17
ATOM     17  C   UNL     1      -9.691 -14.491  17.932  1.00  0.00     0.000 C 
BRANCH  17  18
ATOM     18  C   UNL     1      -9.445 -15.878  17.319  1.00  0.00    -0.000 C 
BRANCH  18  19
ATOM     19  C   UNL     1      -9.626 -16.980  18.371  1.00  0.00    -0.000 C 
BRANCH  19  20
ATOM     20  C   UNL     1     -10.270 -18.229  17.757  1.00  0.00    -0.000 C 
BRANCH  20  21
ATOM     21  C   UNL     1      -9.222 -19.100  17.055  1.00  0.00    -0.000 C 
BRANCH  21  22
ATOM     22  C   UNL     1      -7.871 -18.377  16.973  1.00  0.00    -0.000 C 
BRANCH  22  23
ATOM     23  C   UNL     1      -6.769 -19.323  16.480  1.00  0.00    -0.000 C 
BRANCH  23  24
ATOM     24  C   UNL     1      -7.126 -19.917  15.112  1.00  0.00    -0.000 C 
BRANCH  24  25
ATOM     25  C   UNL     1      -5.863 -20.304  14.333  1.00  0.00    -0.003 C 
ATOM     26  C   UNL     1      -5.615 -19.345  13.173  1.00  0.00     0.004 C 
ENDBRANCH  24  25
ENDBRANCH  23  24
ENDBRANCH  22  23
ENDBRANCH  21  22
ENDBRANCH  20  21
ENDBRANCH  19  20
ENDBRANCH  18  19
ENDBRANCH  17  18
ENDBRANCH  16  17
ENDBRANCH  15  16
ENDBRANCH   1  15
TORSDOF 22
ENDMDL
MODEL 4
REMARK VINA RESULT:    23.710      1.574      2.527
REMARK INTER + INTRA:          52.943
REMARK INTER:                  54.047
REMARK INTRA:                  -1.104
REMARK UNBOUND:                -1.261
REMARK SMILES CCCCCCCCCCCCCCCCCCCCCCCC(=O)[O-]
REMARK SMILES IDX 13 1 14 2 15 3 16 4 17 5 18 6 19 7 20 8 21 9 22 10 23 11
REMARK SMILES IDX 24 12 25 13 26 14 12 15 11 16 10 17 9 18 8 19 7 20 6 21 5 22
REMARK SMILES IDX 4 23 3 24 2 25 1 26
REMARK H PARENT
REMARK Flexibility Score: inf
ROOT
ATOM      1  C   UNL     1      -7.539 -13.234  22.271  1.00  0.00     0.000 C 
ENDROOT
BRANCH   1   2
ATOM      2  C   UNL     1      -8.503 -12.808  21.147  1.00  0.00     0.000 C 
BRANCH   2   3
ATOM      3  C   UNL     1      -9.149 -14.003  20.425  1.00  0.00     0.000 C 
BRANCH   3   4
ATOM      4  C   UNL     1      -8.403 -14.379  19.134  1.00  0.00     0.000 C 
BRANCH   4   5
ATOM      5  C   UNL     1      -9.280 -14.216  17.881  1.00  0.00     0.000 C 
BRANCH   5   6
ATOM      6  C   UNL     1      -9.900 -15.543  17.409  1.00  0.00     0.000 C 
BRANCH   6   7
ATOM      7  C   UNL     1      -9.263 -16.792  18.057  1.00  0.00     0.000 C 
BRANCH   7   8
ATOM      8  C   UNL     1      -9.990 -18.088  17.660  1.00  0.00     0.000 C 
BRANCH   8   9
ATOM      9  C   UNL     1      -9.015 -19.182  17.171  1.00  0.00     0.000 C 
BRANCH   9  10
ATOM     10  C   UNL     1      -7.777 -18.624  16.445  1.00  0.00     0.006 C 
BRANCH  10  11
ATOM     11  C   UNL     1      -6.633 -19.637  16.289  1.00  0.00     0.053 C 
BRANCH  11  12
ATOM     12  C   UNL     1      -6.311 -19.902  14.850  1.00  0.00     0.041 C 
ATOM     13  O   UNL     1      -6.628 -19.065  13.964  1.00  0.00    -0.550 OA
ATOM     14  O   UNL     1      -5.646 -21.068  14.488  1.00  0.00    -0.550 OA
ENDBRANCH  11  12
ENDBRANCH  10  11
ENDBRANCH   9  10
ENDBRANCH   8   9
ENDBRANCH   7   8
ENDBRANCH   6   7
ENDBRANCH   5   6
ENDBRANCH   4   5
ENDBRANCH   3   4
ENDBRANCH   2   3
ENDBRANCH   1   2
BRANCH   1  15
ATOM     15  C   UNL     1      -6.833 -12.080  23.006  1.00  0.00     0.000 C 
BRANCH  15  16
ATOM     16  C   UNL     1      -6.821 -12.259  24.534  1.00  0.00     0.000 C 
BRANCH  16  17
ATOM     17  C   UNL     1      -6.175 -11.070  25.264  1.00  0.00     0.000 C 
BRANCH  17  18
ATOM     18  C   UNL     1      -5.835  -9.905  24.321  1.00  0.00    -0.000 C 
BRANCH  18  19
ATOM     19  C   UNL     1      -5.188  -8.748  25.094  1.00  0.00    -0.000 C 
BRANCH  19  20
ATOM     20  C   UNL     1      -4.169  -8.003  24.223  1.00  0.00    -0.000 C 
BRANCH  20  21
ATOM     21  C   UNL     1      -2.764  -8.084  24.831  1.00  0.00    -0.000 C 
BRANCH  21  22
ATOM     22  C   UNL     1      -2.102  -9.431  24.510  1.00  0.00    -0.000 C 
BRANCH  22  23
ATOM     23  C   UNL     1      -0.587  -9.370  24.741  1.00  0.00    -0.000 C 
BRANCH  23  24
ATOM     24  C   UNL     1      -0.113  -7.920  24.897  1.00  0.00    -0.000 C 
BRANCH  24  25
ATOM     25  C   UNL     1       0.242  -7.610  26.356  1.00  0.00    -0.003 C 
ATOM     26  C   UNL     1       0.576  -8.885  27.125  1.00  0.00     0.004 C 
ENDBRANCH  24  25
ENDBRANCH  23  24
ENDBRANCH  22  23
ENDBRANCH  21  22
ENDBRANCH  20  21
ENDBRANCH  19  20
ENDBRANCH  18  19
ENDBRANCH  17  18
ENDBRANCH  16  17
ENDBRANCH  15  16
ENDBRANCH   1  15
TORSDOF 22
ENDMDL
MODEL 5
REMARK VINA RESULT:    23.895      5.013     12.269
REMARK INTER + INTRA:          53.366
REMARK INTER:                  54.344
REMARK INTRA:                  -0.978
REMARK UNBOUND:                -1.261
REMARK SMILES CCCCCCCCCCCCCCCCCCCCCCCC(=O)[O-]
REMARK SMILES IDX 13 1 14 2 15 3 16 4 17 5 18 6 19 7 20 8 21 9 22 10 23 11
REMARK SMILES IDX 24 12 25 13 26 14 12 15 11 16 10 17 9 18 8 19 7 20 6 21 5 22
REMARK SMILES IDX 4 23 3 24 2 25 1 26
REMARK H PARENT
REMARK Flexibility Score: inf
ROOT
ATOM      1  C   UNL     1      -8.449 -12.798  21.613  1.00  0.00     0.000 C 
ENDROOT
BRANCH   1   2
ATOM      2  C   UNL     1      -7.049 -12.823  22.256  1.00  0.00     0.000 C 
BRANCH   2   3
ATOM      3  C   UNL     1      -7.053 -12.350  23.720  1.00  0.00     0.000 C 
BRANCH   3   4
ATOM      4  C   UNL     1      -5.814 -11.508  24.066  1.00  0.00     0.000 C 
BRANCH   4   5
ATOM      5  C   UNL     1      -6.099  -9.997  24.019  1.00  0.00     0.000 C 
BRANCH   5   6
ATOM      6  C   UNL     1      -5.509  -9.240  25.222  1.00  0.00     0.000 C 
BRANCH   6   7
ATOM      7  C   UNL     1      -4.041  -8.802  25.020  1.00  0.00     0.000 C 
BRANCH   7   8
ATOM      8  C   UNL     1      -3.859  -7.948  23.753  1.00  0.00     0.000 C 
BRANCH   8   9
ATOM      9  C   UNL     1      -2.371  -7.740  23.394  1.00  0.00     0.000 C 
BRANCH   9  10
ATOM     10  C   UNL     1      -1.406  -8.562  24.269  1.00  0.00     0.006 C 
BRANCH  10  11
ATOM     11  C   UNL     1      -0.459  -7.710  25.126  1.00  0.00     0.053 C 
BRANCH  11  12
ATOM     12  C   UNL     1       0.103  -8.482  26.281  1.00  0.00     0.041 C 
ATOM     13  O   UNL     1      -0.259  -9.672  26.483  1.00  0.00    -0.550 OA
ATOM     14  O   UNL     1       1.037  -7.894  27.125  1.00  0.00    -0.550 OA
ENDBRANCH  11  12
ENDBRANCH  10  11
ENDBRANCH   9  10
ENDBRANCH   8   9
ENDBRANCH   7   8
ENDBRANCH   6   7
ENDBRANCH   5   6
ENDBRANCH   4   5
ENDBRANCH   3   4
ENDBRANCH   2   3
ENDBRANCH   1   2
BRANCH   1  15
ATOM     15  C   UNL     1      -8.789 -14.013  20.730  1.00  0.00     0.000 C 
BRANCH  15  16
ATOM     16  C   UNL     1      -8.200 -13.910  19.312  1.00  0.00     0.000 C 
BRANCH  16  17
ATOM     17  C   UNL     1      -9.284 -13.808  18.227  1.00  0.00     0.000 C 
BRANCH  17  18
ATOM     18  C   UNL     1      -9.497 -15.129  17.472  1.00  0.00    -0.000 C 
BRANCH  18  19
ATOM     19  C   UNL     1      -9.214 -16.331  18.383  1.00  0.00    -0.000 C 
BRANCH  19  20
ATOM     20  C   UNL     1     -10.080 -17.534  17.994  1.00  0.00    -0.000 C 
BRANCH  20  21
ATOM     21  C   UNL     1      -9.321 -18.480  17.056  1.00  0.00    -0.000 C 
BRANCH  21  22
ATOM     22  C   UNL     1      -7.810 -18.221  17.118  1.00  0.00    -0.000 C 
BRANCH  22  23
ATOM     23  C   UNL     1      -7.042 -19.234  16.262  1.00  0.00    -0.000 C 
BRANCH  23  24
ATOM     24  C   UNL     1      -7.931 -19.798  15.148  1.00  0.00    -0.000 C 
BRANCH  24  25
ATOM     25  C   UNL     1      -7.087 -20.296  13.968  1.00  0.00    -0.003 C 
ATOM     26  C   UNL     1      -5.644 -19.812  14.079  1.00  0.00     0.004 C 
ENDBRANCH  24  25
ENDBRANCH  23  24
ENDBRANCH  22  23
ENDBRANCH  21  22
ENDBRANCH  20  21
ENDBRANCH  19  20
ENDBRANCH  18  19
ENDBRANCH  17  18
ENDBRANCH  16  17
ENDBRANCH  15  16
ENDBRANCH   1  15
TORSDOF 22
ENDMDL
MODEL 6
REMARK VINA RESULT:    24.022      3.393      5.271
REMARK INTER + INTRA:          53.656
REMARK INTER:                  54.347
REMARK INTRA:                  -0.691
REMARK UNBOUND:                -1.261
REMARK SMILES CCCCCCCCCCCCCCCCCCCCCCCC(=O)[O-]
REMARK SMILES IDX 13 1 14 2 15 3 16 4 17 5 18 6 19 7 20 8 21 9 22 10 23 11
REMARK SMILES IDX 24 12 25 13 26 14 12 15 11 16 10 17 9 18 8 19 7 20 6 21 5 22
REMARK SMILES IDX 4 23 3 24 2 25 1 26
REMARK H PARENT
REMARK Flexibility Score: inf
ROOT
ATOM      1  C   UNL     1      -8.681 -14.201  20.080  1.00  0.00     0.000 C 
ENDROOT
BRANCH   1   2
ATOM      2  C   UNL     1      -8.226 -13.727  18.686  1.00  0.00     0.000 C 
BRANCH   2   3
ATOM      3  C   UNL     1      -9.402 -13.427  17.741  1.00  0.00     0.000 C 
BRANCH   3   4
ATOM      4  C   UNL     1     -10.227 -14.683  17.415  1.00  0.00     0.000 C 
BRANCH   4   5
ATOM      5  C   UNL     1      -9.369 -15.960  17.396  1.00  0.00     0.000 C 
BRANCH   5   6
ATOM      6  C   UNL     1      -9.930 -17.070  18.302  1.00  0.00     0.000 C 
BRANCH   6   7
ATOM      7  C   UNL     1     -10.301 -18.363  17.543  1.00  0.00     0.000 C 
BRANCH   7   8
ATOM      8  C   UNL     1      -9.103 -19.320  17.405  1.00  0.00     0.000 C 
BRANCH   8   9
ATOM      9  C   UNL     1      -7.889 -18.647  16.729  1.00  0.00     0.000 C 
BRANCH   9  10
ATOM     10  C   UNL     1      -7.072 -19.601  15.838  1.00  0.00     0.006 C 
BRANCH  10  11
ATOM     11  C   UNL     1      -7.133 -19.266  14.341  1.00  0.00     0.053 C 
BRANCH  11  12
ATOM     12  C   UNL     1      -5.855 -19.608  13.636  1.00  0.00     0.041 C 
ATOM     13  O   UNL     1      -5.405 -18.849  12.737  1.00  0.00    -0.550 OA
ATOM     14  O   UNL     1      -5.153 -20.755  13.983  1.00  0.00    -0.550 OA
ENDBRANCH  11  12
ENDBRANCH  10  11
ENDBRANCH   9  10
ENDBRANCH   8   9
ENDBRANCH   7   8
ENDBRANCH   6   7
ENDBRANCH   5   6
ENDBRANCH   4   5
ENDBRANCH   3   4
ENDBRANCH   2   3
ENDBRANCH   1   2
BRANCH   1  15
ATOM     15  C   UNL     1      -8.709 -13.113  21.169  1.00  0.00     0.000 C 
BRANCH  15  16
ATOM     16  C   UNL     1      -7.346 -12.914  21.854  1.00  0.00     0.000 C 
BRANCH  16  17
ATOM     17  C   UNL     1      -7.456 -12.135  23.175  1.00  0.00     0.000 C 
BRANCH  17  18
ATOM     18  C   UNL     1      -6.312 -12.450  24.150  1.00  0.00    -0.000 C 
BRANCH  18  19
ATOM     19  C   UNL     1      -6.789 -12.343  25.605  1.00  0.00    -0.000 C 
BRANCH  19  20
ATOM     20  C   UNL     1      -6.289 -13.528  26.439  1.00  0.00    -0.000 C 
BRANCH  20  21
ATOM     21  C   UNL     1      -5.120 -14.236  25.744  1.00  0.00    -0.000 C 
BRANCH  21  22
ATOM     22  C   UNL     1      -4.829 -15.592  26.400  1.00  0.00    -0.000 C 
BRANCH  22  23
ATOM     23  C   UNL     1      -4.527 -16.661  25.343  1.00  0.00    -0.000 C 
BRANCH  23  24
ATOM     24  C   UNL     1      -5.183 -17.997  25.711  1.00  0.00    -0.000 C 
BRANCH  24  25
ATOM     25  C   UNL     1      -5.692 -18.724  24.460  1.00  0.00    -0.003 C 
ATOM     26  C   UNL     1      -5.334 -17.955  23.192  1.00  0.00     0.004 C 
ENDBRANCH  24  25
ENDBRANCH  23  24
ENDBRANCH  22  23
ENDBRANCH  21  22
ENDBRANCH  20  21
ENDBRANCH  19  20
ENDBRANCH  18  19
ENDBRANCH  17  18
ENDBRANCH  16  17
ENDBRANCH  15  16
ENDBRANCH   1  15
TORSDOF 22
ENDMDL
MODEL 7
REMARK VINA RESULT:    24.782      5.440     12.376
REMARK INTER + INTRA:          55.395
REMARK INTER:                  55.894
REMARK INTRA:                  -0.499
REMARK UNBOUND:                -1.261
REMARK SMILES CCCCCCCCCCCCCCCCCCCCCCCC(=O)[O-]
REMARK SMILES IDX 13 1 14 2 15 3 16 4 17 5 18 6 19 7 20 8 21 9 22 10 23 11
REMARK SMILES IDX 24 12 25 13 26 14 12 15 11 16 10 17 9 18 8 19 7 20 6 21 5 22
REMARK SMILES IDX 4 23 3 24 2 25 1 26
REMARK H PARENT
REMARK Flexibility Score: inf
ROOT
ATOM      1  C   UNL     1      -6.979 -12.569  22.665  1.00  0.00     0.000 C 
ENDROOT
BRANCH   1   2
ATOM      2  C   UNL     1      -6.727 -12.091  24.108  1.00  0.00     0.000 C 
BRANCH   2   3
ATOM      3  C   UNL     1      -5.777 -10.884  24.184  1.00  0.00     0.000 C 
BRANCH   3   4
ATOM      4  C   UNL     1      -5.983 -10.057  25.463  1.00  0.00     0.000 C 
BRANCH   4   5
ATOM      5  C   UNL     1      -5.460  -8.617  25.323  1.00  0.00     0.000 C 
BRANCH   5   6
ATOM      6  C   UNL     1      -3.936  -8.553  25.123  1.00  0.00     0.000 C 
BRANCH   6   7
ATOM      7  C   UNL     1      -3.506  -7.732  23.887  1.00  0.00     0.000 C 
BRANCH   7   8
ATOM      8  C   UNL     1      -2.208  -8.267  23.257  1.00  0.00     0.000 C 
BRANCH   8   9
ATOM      9  C   UNL     1      -1.016  -8.219  24.237  1.00  0.00     0.000 C 
BRANCH   9  10
ATOM     10  C   UNL     1      -0.951  -9.429  25.187  1.00  0.00     0.006 C 
BRANCH  10  11
ATOM     11  C   UNL     1      -0.027  -9.227  26.397  1.00  0.00     0.053 C 
BRANCH  11  12
ATOM     12  C   UNL     1       0.513  -7.831  26.464  1.00  0.00     0.041 C 
ATOM     13  O   UNL     1      -0.223  -6.884  26.850  1.00  0.00    -0.550 OA
ATOM     14  O   UNL     1       1.834  -7.576  26.116  1.00  0.00    -0.550 OA
ENDBRANCH  11  12
ENDBRANCH  10  11
ENDBRANCH   9  10
ENDBRANCH   8   9
ENDBRANCH   7   8
ENDBRANCH   6   7
ENDBRANCH   5   6
ENDBRANCH   4   5
ENDBRANCH   3   4
ENDBRANCH   2   3
ENDBRANCH   1   2
BRANCH   1  15
ATOM     15  C   UNL     1      -8.302 -12.094  22.036  1.00  0.00     0.000 C 
BRANCH  15  16
ATOM     16  C   UNL     1      -9.054 -13.216  21.299  1.00  0.00     0.000 C 
BRANCH  16  17
ATOM     17  C   UNL     1      -8.365 -13.628  19.988  1.00  0.00     0.000 C 
BRANCH  17  18
ATOM     18  C   UNL     1      -9.267 -14.482  19.084  1.00  0.00    -0.000 C 
BRANCH  18  19
ATOM     19  C   UNL     1      -8.659 -14.620  17.681  1.00  0.00    -0.000 C 
BRANCH  19  20
ATOM     20  C   UNL     1      -9.120 -15.917  17.005  1.00  0.00    -0.000 C 
BRANCH  20  21
ATOM     21  C   UNL     1      -9.969 -16.764  17.961  1.00  0.00    -0.000 C 
BRANCH  21  22
ATOM     22  C   UNL     1      -9.489 -18.221  17.979  1.00  0.00    -0.000 C 
BRANCH  22  23
ATOM     23  C   UNL     1      -9.124 -18.698  16.568  1.00  0.00    -0.000 C 
BRANCH  23  24
ATOM     24  C   UNL     1      -7.655 -19.133  16.498  1.00  0.00    -0.000 C 
BRANCH  24  25
ATOM     25  C   UNL     1      -7.159 -19.167  15.048  1.00  0.00    -0.003 C 
ATOM     26  C   UNL     1      -6.251 -20.368  14.803  1.00  0.00     0.004 C 
ENDBRANCH  24  25
ENDBRANCH  23  24
ENDBRANCH  22  23
ENDBRANCH  21  22
ENDBRANCH  20  21
ENDBRANCH  19  20
ENDBRANCH  18  19
ENDBRANCH  17  18
ENDBRANCH  16  17
ENDBRANCH  15  16
ENDBRANCH   1  15
TORSDOF 22
ENDMDL
MODEL 8
REMARK VINA RESULT:    25.222      4.633      9.850
REMARK INTER + INTRA:          56.401
REMARK INTER:                  57.748
REMARK INTRA:                  -1.348
REMARK UNBOUND:                -1.261
REMARK SMILES CCCCCCCCCCCCCCCCCCCCCCCC(=O)[O-]
REMARK SMILES IDX 13 1 14 2 15 3 16 4 17 5 18 6 19 7 20 8 21 9 22 10 23 11
REMARK SMILES IDX 24 12 25 13 26 14 12 15 11 16 10 17 9 18 8 19 7 20 6 21 5 22
REMARK SMILES IDX 4 23 3 24 2 25 1 26
REMARK H PARENT
REMARK Flexibility Score: inf
ROOT
ATOM      1  C   UNL     1      -7.990 -13.798  21.341  1.00  0.00     0.000 C 
ENDROOT
BRANCH   1   2
ATOM      2  C   UNL     1      -7.822 -12.496  22.148  1.00  0.00     0.000 C 
BRANCH   2   3
ATOM      3  C   UNL     1      -6.560 -12.494  23.028  1.00  0.00     0.000 C 
BRANCH   3   4
ATOM      4  C   UNL     1      -6.751 -11.687  24.323  1.00  0.00     0.000 C 
BRANCH   4   5
ATOM      5  C   UNL     1      -6.765 -12.579  25.575  1.00  0.00     0.000 C 
BRANCH   5   6
ATOM      6  C   UNL     1      -5.960 -13.878  25.392  1.00  0.00     0.000 C 
BRANCH   6   7
ATOM      7  C   UNL     1      -4.797 -14.034  26.397  1.00  0.00     0.000 C 
BRANCH   7   8
ATOM      8  C   UNL     1      -4.325 -15.494  26.517  1.00  0.00     0.000 C 
BRANCH   8   9
ATOM      9  C   UNL     1      -5.480 -16.502  26.329  1.00  0.00     0.000 C 
BRANCH   9  10
ATOM     10  C   UNL     1      -5.004 -17.942  26.063  1.00  0.00     0.006 C 
BRANCH  10  11
ATOM     11  C   UNL     1      -5.701 -18.622  24.876  1.00  0.00     0.053 C 
BRANCH  11  12
ATOM     12  C   UNL     1      -5.301 -18.014  23.566  1.00  0.00     0.041 C 
ATOM     13  O   UNL     1      -4.110 -17.651  23.372  1.00  0.00    -0.550 OA
ATOM     14  O   UNL     1      -6.240 -17.862  22.553  1.00  0.00    -0.550 OA
ENDBRANCH  11  12
ENDBRANCH  10  11
ENDBRANCH   9  10
ENDBRANCH   8   9
ENDBRANCH   7   8
ENDBRANCH   6   7
ENDBRANCH   5   6
ENDBRANCH   4   5
ENDBRANCH   3   4
ENDBRANCH   2   3
ENDBRANCH   1   2
BRANCH   1  15
ATOM     15  C   UNL     1      -9.074 -13.758  20.248  1.00  0.00     0.000 C 
BRANCH  15  16
ATOM     16  C   UNL     1      -8.492 -13.764  18.824  1.00  0.00     0.000 C 
BRANCH  16  17
ATOM     17  C   UNL     1      -8.961 -14.973  17.997  1.00  0.00     0.000 C 
BRANCH  17  18
ATOM     18  C   UNL     1     -10.115 -14.631  17.044  1.00  0.00    -0.000 C 
BRANCH  18  19
ATOM     19  C   UNL     1      -9.931 -13.232  16.442  1.00  0.00    -0.000 C 
BRANCH  19  20
ATOM     20  C   UNL     1     -10.274 -13.223  14.948  1.00  0.00    -0.000 C 
BRANCH  20  21
ATOM     21  C   UNL     1      -9.806 -11.923  14.283  1.00  0.00    -0.000 C 
BRANCH  21  22
ATOM     22  C   UNL     1      -8.757 -12.205  13.200  1.00  0.00    -0.000 C 
BRANCH  22  23
ATOM     23  C   UNL     1      -9.016 -13.555  12.521  1.00  0.00    -0.000 C 
BRANCH  23  24
ATOM     24  C   UNL     1      -9.858 -13.380  11.252  1.00  0.00    -0.000 C 
BRANCH  24  25
ATOM     25  C   UNL     1     -11.356 -13.440  11.571  1.00  0.00    -0.003 C 
ATOM     26  C   UNL     1     -12.103 -12.269  10.939  1.00  0.00     0.004 C 
ENDBRANCH  24  25
ENDBRANCH  23  24
ENDBRANCH  22  23
ENDBRANCH  21  22
ENDBRANCH  20  21
ENDBRANCH  19  20
ENDBRANCH  18  19
ENDBRANCH  17  18
ENDBRANCH  16  17
ENDBRANCH  15  16
ENDBRANCH   1  15
TORSDOF 22
ENDMDL
