MODEL 1
REMARK VINA RESULT:    -4.905      0.000      0.000
REMARK INTER + INTRA:          -4.905
REMARK INTER:                  -4.905
REMARK INTRA:                   0.000
REMARK UNBOUND:                 0.000
REMARK SMILES CC1=CC(=O)[C@H]2C[C@@H]1C2(C)C
REMARK SMILES IDX 1 1 2 2 3 3 4 4 5 5 6 6 7 7 8 8 9 9 10 10 11 11
REMARK H PARENT
REMARK Flexibility Score: inf
ROOT
ATOM      1  C   UNL     1     -24.874  11.092 -27.954  1.00  0.00     0.040 C 
ATOM      2  C   UNL     1     -25.675  11.658 -29.083  1.00  0.00    -0.066 C 
ATOM      3  C   UNL     1     -25.397  12.885 -29.605  1.00  0.00     0.047 C 
ATOM      4  C   UNL     1     -26.292  13.352 -30.713  1.00  0.00     0.159 C 
ATOM      5  O   UNL     1     -26.162  14.483 -31.250  1.00  0.00    -0.295 OA
ATOM      6  C   UNL     1     -27.373  12.361 -31.143  1.00  0.00     0.067 C 
ATOM      7  C   UNL     1     -26.629  11.012 -31.249  1.00  0.00     0.021 C 
ATOM      8  C   UNL     1     -26.842  10.875 -29.725  1.00  0.00     0.022 C 
ATOM      9  C   UNL     1     -28.076  11.811 -29.870  1.00  0.00    -0.019 C 
ATOM     10  C   UNL     1     -28.388  12.801 -28.712  1.00  0.00     0.012 C 
ATOM     11  C   UNL     1     -29.372  11.030 -30.203  1.00  0.00     0.012 C 
ENDROOT
TORSDOF 0
ENDMDL
MODEL 2
REMARK VINA RESULT:    -4.787     10.778     12.197
REMARK INTER + INTRA:          -4.787
REMARK INTER:                  -4.787
REMARK INTRA:                   0.000
REMARK UNBOUND:                 0.000
REMARK SMILES CC1=CC(=O)[C@H]2C[C@@H]1C2(C)C
REMARK SMILES IDX 1 1 2 2 3 3 4 4 5 5 6 6 7 7 8 8 9 9 10 10 11 11
REMARK H PARENT
REMARK Flexibility Score: inf
ROOT
ATOM      1  C   UNL     1     -12.181  14.645 -30.259  1.00  0.00     0.040 C 
ATOM      2  C   UNL     1     -13.453  14.089 -30.814  1.00  0.00    -0.066 C 
ATOM      3  C   UNL     1     -13.796  14.271 -32.119  1.00  0.00     0.047 C 
ATOM      4  C   UNL     1     -15.111  13.692 -32.546  1.00  0.00     0.159 C 
ATOM      5  O   UNL     1     -15.557  13.828 -33.715  1.00  0.00    -0.295 OA
ATOM      6  C   UNL     1     -15.872  12.927 -31.463  1.00  0.00     0.067 C 
ATOM      7  C   UNL     1     -14.796  12.037 -30.803  1.00  0.00     0.021 C 
ATOM      8  C   UNL     1     -14.429  13.267 -29.944  1.00  0.00     0.022 C 
ATOM      9  C   UNL     1     -15.880  13.784 -30.165  1.00  0.00    -0.019 C 
ATOM     10  C   UNL     1     -16.103  15.318 -30.293  1.00  0.00     0.012 C 
ATOM     11  C   UNL     1     -16.868  13.237 -29.104  1.00  0.00     0.012 C 
ENDROOT
TORSDOF 0
ENDMDL
MODEL 3
REMARK VINA RESULT:    -4.700     10.921     12.621
REMARK INTER + INTRA:          -4.700
REMARK INTER:                  -4.700
REMARK INTRA:                   0.000
REMARK UNBOUND:                 0.000
REMARK SMILES CC1=CC(=O)[C@H]2C[C@@H]1C2(C)C
REMARK SMILES IDX 1 1 2 2 3 3 4 4 5 5 6 6 7 7 8 8 9 9 10 10 11 11
REMARK H PARENT
REMARK Flexibility Score: inf
ROOT
ATOM      1  C   UNL     1     -17.187  13.889 -29.396  1.00  0.00     0.040 C 
ATOM      2  C   UNL     1     -16.159  14.101 -30.461  1.00  0.00    -0.066 C 
ATOM      3  C   UNL     1     -16.390  13.732 -31.752  1.00  0.00     0.047 C 
ATOM      4  C   UNL     1     -15.270  13.968 -32.719  1.00  0.00     0.159 C 
ATOM      5  O   UNL     1     -15.347  13.634 -33.930  1.00  0.00    -0.295 OA
ATOM      6  C   UNL     1     -14.030  14.641 -32.133  1.00  0.00     0.067 C 
ATOM      7  C   UNL     1     -14.594  15.801 -31.284  1.00  0.00     0.021 C 
ATOM      8  C   UNL     1     -14.797  14.763 -30.158  1.00  0.00     0.022 C 
ATOM      9  C   UNL     1     -13.658  13.923 -30.805  1.00  0.00    -0.019 C 
ATOM     10  C   UNL     1     -13.764  12.372 -30.748  1.00  0.00     0.012 C 
ATOM     11  C   UNL     1     -12.257  14.332 -30.284  1.00  0.00     0.012 C 
ENDROOT
TORSDOF 0
ENDMDL
MODEL 4
REMARK VINA RESULT:    -4.672      1.661      2.872
REMARK INTER + INTRA:          -4.672
REMARK INTER:                  -4.672
REMARK INTRA:                   0.000
REMARK UNBOUND:                 0.000
REMARK SMILES CC1=CC(=O)[C@H]2C[C@@H]1C2(C)C
REMARK SMILES IDX 1 1 2 2 3 3 4 4 5 5 6 6 7 7 8 8 9 9 10 10 11 11
REMARK H PARENT
REMARK Flexibility Score: inf
ROOT
ATOM      1  C   UNL     1     -26.253  15.333 -30.143  1.00  0.00     0.040 C 
ATOM      2  C   UNL     1     -26.302  13.869 -29.846  1.00  0.00    -0.066 C 
ATOM      3  C   UNL     1     -25.163  13.131 -29.726  1.00  0.00     0.047 C 
ATOM      4  C   UNL     1     -25.346  11.668 -29.458  1.00  0.00     0.159 C 
ATOM      5  O   UNL     1     -24.373  10.875 -29.366  1.00  0.00    -0.295 OA
ATOM      6  C   UNL     1     -26.796  11.207 -29.306  1.00  0.00     0.067 C 
ATOM      7  C   UNL     1     -27.433  12.263 -28.377  1.00  0.00     0.021 C 
ATOM      8  C   UNL     1     -27.640  13.124 -29.642  1.00  0.00     0.022 C 
ATOM      9  C   UNL     1     -27.631  11.808 -30.471  1.00  0.00    -0.019 C 
ATOM     10  C   UNL     1     -27.002  11.838 -31.893  1.00  0.00     0.012 C 
ATOM     11  C   UNL     1     -29.040  11.170 -30.578  1.00  0.00     0.012 C 
ENDROOT
TORSDOF 0
ENDMDL
MODEL 5
REMARK VINA RESULT:    -4.666      1.175      2.712
REMARK INTER + INTRA:          -4.666
REMARK INTER:                  -4.666
REMARK INTRA:                   0.000
REMARK UNBOUND:                 0.000
REMARK SMILES CC1=CC(=O)[C@H]2C[C@@H]1C2(C)C
REMARK SMILES IDX 1 1 2 2 3 3 4 4 5 5 6 6 7 7 8 8 9 9 10 10 11 11
REMARK H PARENT
REMARK Flexibility Score: inf
ROOT
ATOM      1  C   UNL     1     -27.039  10.875 -32.449  1.00  0.00     0.040 C 
ATOM      2  C   UNL     1     -27.136  11.761 -31.248  1.00  0.00    -0.066 C 
ATOM      3  C   UNL     1     -26.632  13.026 -31.259  1.00  0.00     0.047 C 
ATOM      4  C   UNL     1     -26.764  13.803 -29.983  1.00  0.00     0.159 C 
ATOM      5  O   UNL     1     -26.304  14.967 -29.855  1.00  0.00    -0.295 OA
ATOM      6  C   UNL     1     -27.494  13.082 -28.851  1.00  0.00     0.067 C 
ATOM      7  C   UNL     1     -28.738  12.470 -29.532  1.00  0.00     0.021 C 
ATOM      8  C   UNL     1     -27.825  11.295 -29.947  1.00  0.00     0.022 C 
ATOM      9  C   UNL     1     -26.920  11.642 -28.729  1.00  0.00    -0.019 C 
ATOM     10  C   UNL     1     -25.385  11.444 -28.874  1.00  0.00     0.012 C 
ATOM     11  C   UNL     1     -27.382  10.930 -27.432  1.00  0.00     0.012 C 
ENDROOT
TORSDOF 0
ENDMDL
MODEL 6
REMARK VINA RESULT:    -4.562     12.429     13.837
REMARK INTER + INTRA:          -4.562
REMARK INTER:                  -4.562
REMARK INTRA:                   0.000
REMARK UNBOUND:                 0.000
REMARK SMILES CC1=CC(=O)[C@H]2C[C@@H]1C2(C)C
REMARK SMILES IDX 1 1 2 2 3 3 4 4 5 5 6 6 7 7 8 8 9 9 10 10 11 11
REMARK H PARENT
REMARK Flexibility Score: inf
ROOT
ATOM      1  C   UNL     1     -12.211  14.443 -28.006  1.00  0.00     0.040 C 
ATOM      2  C   UNL     1     -12.575  14.341 -29.453  1.00  0.00    -0.066 C 
ATOM      3  C   UNL     1     -11.675  14.636 -30.432  1.00  0.00     0.047 C 
ATOM      4  C   UNL     1     -12.170  14.525 -31.842  1.00  0.00     0.159 C 
ATOM      5  O   UNL     1     -11.447  14.809 -32.832  1.00  0.00    -0.295 OA
ATOM      6  C   UNL     1     -13.614  14.046 -31.993  1.00  0.00     0.067 C 
ATOM      7  C   UNL     1     -13.717  12.846 -31.027  1.00  0.00     0.021 C 
ATOM      8  C   UNL     1     -13.976  13.880 -29.909  1.00  0.00     0.022 C 
ATOM      9  C   UNL     1     -14.508  14.848 -31.006  1.00  0.00    -0.019 C 
ATOM     10  C   UNL     1     -14.240  16.370 -30.836  1.00  0.00     0.012 C 
ATOM     11  C   UNL     1     -16.019  14.649 -31.284  1.00  0.00     0.012 C 
ENDROOT
TORSDOF 0
ENDMDL
MODEL 7
REMARK VINA RESULT:    -4.496     10.779     12.298
REMARK INTER + INTRA:          -4.496
REMARK INTER:                  -4.496
REMARK INTRA:                   0.000
REMARK UNBOUND:                 0.000
REMARK SMILES CC1=CC(=O)[C@H]2C[C@@H]1C2(C)C
REMARK SMILES IDX 1 1 2 2 3 3 4 4 5 5 6 6 7 7 8 8 9 9 10 10 11 11
REMARK H PARENT
REMARK Flexibility Score: inf
ROOT
ATOM      1  C   UNL     1     -14.260  16.819 -30.780  1.00  0.00     0.040 C 
ATOM      2  C   UNL     1     -14.463  15.339 -30.714  1.00  0.00    -0.066 C 
ATOM      3  C   UNL     1     -13.445  14.471 -30.971  1.00  0.00     0.047 C 
ATOM      4  C   UNL     1     -13.784  13.013 -30.903  1.00  0.00     0.159 C 
ATOM      5  O   UNL     1     -12.940  12.115 -31.158  1.00  0.00    -0.295 OA
ATOM      6  C   UNL     1     -15.224  12.693 -30.503  1.00  0.00     0.067 C 
ATOM      7  C   UNL     1     -15.497  13.622 -29.300  1.00  0.00     0.021 C 
ATOM      8  C   UNL     1     -15.826  14.721 -30.334  1.00  0.00     0.022 C 
ATOM      9  C   UNL     1     -16.180  13.588 -31.341  1.00  0.00    -0.019 C 
ATOM     10  C   UNL     1     -15.855  13.813 -32.845  1.00  0.00     0.012 C 
ATOM     11  C   UNL     1     -17.660  13.140 -31.227  1.00  0.00     0.012 C 
ENDROOT
TORSDOF 0
ENDMDL
MODEL 8
REMARK VINA RESULT:    -4.365     13.234     14.665
REMARK INTER + INTRA:          -4.365
REMARK INTER:                  -4.365
REMARK INTRA:                   0.000
REMARK UNBOUND:                 0.000
REMARK SMILES CC1=CC(=O)[C@H]2C[C@@H]1C2(C)C
REMARK SMILES IDX 1 1 2 2 3 3 4 4 5 5 6 6 7 7 8 8 9 9 10 10 11 11
REMARK H PARENT
REMARK Flexibility Score: inf
ROOT
ATOM      1  C   UNL     1     -14.399  16.417 -30.640  1.00  0.00     0.040 C 
ATOM      2  C   UNL     1     -13.380  15.352 -30.887  1.00  0.00    -0.066 C 
ATOM      3  C   UNL     1     -13.005  15.008 -32.151  1.00  0.00     0.047 C 
ATOM      4  C   UNL     1     -11.997  13.904 -32.267  1.00  0.00     0.159 C 
ATOM      5  O   UNL     1     -11.601  13.471 -33.380  1.00  0.00    -0.295 OA
ATOM      6  C   UNL     1     -11.487  13.342 -30.941  1.00  0.00     0.067 C 
ATOM      7  C   UNL     1     -11.187  14.595 -30.089  1.00  0.00     0.021 C 
ATOM      8  C   UNL     1     -12.689  14.602 -29.727  1.00  0.00     0.022 C 
ATOM      9  C   UNL     1     -12.707  13.073 -30.015  1.00  0.00    -0.019 C 
ATOM     10  C   UNL     1     -13.990  12.458 -30.643  1.00  0.00     0.012 C 
ATOM     11  C   UNL     1     -12.328  12.234 -28.768  1.00  0.00     0.012 C 
ENDROOT
TORSDOF 0
ENDMDL
MODEL 9
REMARK VINA RESULT:    -4.313      1.616      2.670
REMARK INTER + INTRA:          -4.313
REMARK INTER:                  -4.313
REMARK INTRA:                   0.000
REMARK UNBOUND:                 0.000
REMARK SMILES CC1=CC(=O)[C@H]2C[C@@H]1C2(C)C
REMARK SMILES IDX 1 1 2 2 3 3 4 4 5 5 6 6 7 7 8 8 9 9 10 10 11 11
REMARK H PARENT
REMARK Flexibility Score: inf
ROOT
ATOM      1  C   UNL     1     -26.084  15.088 -30.125  1.00  0.00     0.040 C 
ATOM      2  C   UNL     1     -26.291  13.610 -30.220  1.00  0.00    -0.066 C 
ATOM      3  C   UNL     1     -26.628  13.016 -31.399  1.00  0.00     0.047 C 
ATOM      4  C   UNL     1     -26.839  11.532 -31.357  1.00  0.00     0.159 C 
ATOM      5  O   UNL     1     -27.191  10.875 -32.370  1.00  0.00    -0.295 OA
ATOM      6  C   UNL     1     -26.598  10.876 -29.998  1.00  0.00     0.067 C 
ATOM      7  C   UNL     1     -25.271  11.496 -29.507  1.00  0.00     0.021 C 
ATOM      8  C   UNL     1     -26.117  12.684 -28.997  1.00  0.00     0.022 C 
ATOM      9  C   UNL     1     -27.328  11.710 -28.908  1.00  0.00    -0.019 C 
ATOM     10  C   UNL     1     -28.744  12.267 -29.228  1.00  0.00     0.012 C 
ATOM     11  C   UNL     1     -27.392  10.974 -27.545  1.00  0.00     0.012 C 
ENDROOT
TORSDOF 0
ENDMDL
