MODEL 1
REMARK VINA RESULT:    -6.541      0.000      0.000
REMARK INTER + INTRA:         -22.593
REMARK INTER:                 -17.248
REMARK INTRA:                  -5.344
REMARK UNBOUND:                -5.344
REMARK SMILES CCCCCCCCCCCCCCCCCCCCCCCCCCCCCC(=O)[O-]
REMARK SMILES IDX 16 1 17 2 18 3 19 4 20 5 21 6 22 7 23 8 24 9 25 10 26 11
REMARK SMILES IDX 27 12 28 13 29 14 30 15 31 16 32 17 15 18 14 19 13 20 12 21
REMARK SMILES IDX 11 22 10 23 9 24 8 25 7 26 6 27 5 28 4 29 3 30 2 31 1 32
REMARK H PARENT
REMARK Flexibility Score: inf
ROOT
ATOM      1  C   UNL     1      12.761  -4.586  10.634  1.00  0.00     0.000 C 
ENDROOT
BRANCH   1   2
ATOM      2  C   UNL     1      13.020  -5.795   9.718  1.00  0.00     0.000 C 
BRANCH   2   3
ATOM      3  C   UNL     1      14.448  -5.810   9.141  1.00  0.00     0.000 C 
BRANCH   3   4
ATOM      4  C   UNL     1      15.474  -5.016   9.970  1.00  0.00     0.000 C 
BRANCH   4   5
ATOM      5  C   UNL     1      16.551  -5.917  10.602  1.00  0.00     0.000 C 
BRANCH   5   6
ATOM      6  C   UNL     1      17.160  -5.308  11.883  1.00  0.00     0.000 C 
BRANCH   6   7
ATOM      7  C   UNL     1      18.622  -5.717  12.145  1.00  0.00     0.000 C 
BRANCH   7   8
ATOM      8  C   UNL     1      19.554  -4.575  12.579  1.00  0.00     0.000 C 
BRANCH   8   9
ATOM      9  C   UNL     1      18.981  -3.737  13.733  1.00  0.00     0.000 C 
BRANCH   9  10
ATOM     10  C   UNL     1      18.616  -2.324  13.257  1.00  0.00     0.000 C 
BRANCH  10  11
ATOM     11  C   UNL     1      17.202  -1.894  13.684  1.00  0.00     0.000 C 
BRANCH  11  12
ATOM     12  C   UNL     1      16.679  -0.607  13.016  1.00  0.00     0.000 C 
BRANCH  12  13
ATOM     13  C   UNL     1      15.338  -0.758  12.277  1.00  0.00     0.006 C 
BRANCH  13  14
ATOM     14  C   UNL     1      14.471  -1.894  12.838  1.00  0.00     0.053 C 
BRANCH  14  15
ATOM     15  C   UNL     1      13.023  -1.517  12.817  1.00  0.00     0.041 C 
ATOM     16  O   UNL     1      12.351  -1.521  13.882  1.00  0.00    -0.550 OA
ATOM     17  O   UNL     1      12.413  -1.165  11.619  1.00  0.00    -0.550 OA
ENDBRANCH  14  15
ENDBRANCH  13  14
ENDBRANCH  12  13
ENDBRANCH  11  12
ENDBRANCH  10  11
ENDBRANCH   9  10
ENDBRANCH   8   9
ENDBRANCH   7   8
ENDBRANCH   6   7
ENDBRANCH   5   6
ENDBRANCH   4   5
ENDBRANCH   3   4
ENDBRANCH   2   3
ENDBRANCH   1   2
BRANCH   1  18
ATOM     18  C   UNL     1      12.394  -4.996  12.069  1.00  0.00     0.000 C 
BRANCH  18  19
ATOM     19  C   UNL     1      13.621  -5.399  12.900  1.00  0.00     0.000 C 
BRANCH  19  20
ATOM     20  C   UNL     1      13.635  -6.912  13.167  1.00  0.00     0.000 C 
BRANCH  20  21
ATOM     21  C   UNL     1      15.031  -7.439  13.533  1.00  0.00     0.000 C 
BRANCH  21  22
ATOM     22  C   UNL     1      15.081  -8.075  14.933  1.00  0.00     0.000 C 
BRANCH  22  23
ATOM     23  C   UNL     1      15.081  -7.017  16.054  1.00  0.00     0.000 C 
BRANCH  23  24
ATOM     24  C   UNL     1      16.298  -6.073  16.020  1.00  0.00    -0.000 C 
BRANCH  24  25
ATOM     25  C   UNL     1      15.958  -4.616  15.634  1.00  0.00    -0.000 C 
BRANCH  25  26
ATOM     26  C   UNL     1      14.651  -4.079  16.252  1.00  0.00    -0.000 C 
BRANCH  26  27
ATOM     27  C   UNL     1      14.831  -3.006  17.347  1.00  0.00    -0.000 C 
BRANCH  27  28
ATOM     28  C   UNL     1      16.236  -2.372  17.382  1.00  0.00    -0.000 C 
BRANCH  28  29
ATOM     29  C   UNL     1      16.999  -2.734  18.667  1.00  0.00    -0.000 C 
BRANCH  29  30
ATOM     30  C   UNL     1      18.367  -3.374  18.381  1.00  0.00    -0.000 C 
BRANCH  30  31
ATOM     31  C   UNL     1      18.902  -3.010  16.989  1.00  0.00    -0.003 C 
ATOM     32  C   UNL     1      20.385  -2.655  17.048  1.00  0.00     0.004 C 
ENDBRANCH  30  31
ENDBRANCH  29  30
ENDBRANCH  28  29
ENDBRANCH  27  28
ENDBRANCH  26  27
ENDBRANCH  25  26
ENDBRANCH  24  25
ENDBRANCH  23  24
ENDBRANCH  22  23
ENDBRANCH  21  22
ENDBRANCH  20  21
ENDBRANCH  19  20
ENDBRANCH  18  19
ENDBRANCH   1  18
TORSDOF 28
ENDMDL
MODEL 2
REMARK VINA RESULT:    -6.337      2.001      6.505
REMARK INTER + INTRA:         -22.055
REMARK INTER:                 -15.801
REMARK INTRA:                  -6.254
REMARK UNBOUND:                -5.344
REMARK SMILES CCCCCCCCCCCCCCCCCCCCCCCCCCCCCC(=O)[O-]
REMARK SMILES IDX 16 1 17 2 18 3 19 4 20 5 21 6 22 7 23 8 24 9 25 10 26 11
REMARK SMILES IDX 27 12 28 13 29 14 30 15 31 16 32 17 15 18 14 19 13 20 12 21
REMARK SMILES IDX 11 22 10 23 9 24 8 25 7 26 6 27 5 28 4 29 3 30 2 31 1 32
REMARK H PARENT
REMARK Flexibility Score: inf
ROOT
ATOM      1  C   UNL     1      19.003  -2.998  16.904  1.00  0.00     0.000 C 
ENDROOT
BRANCH   1   2
ATOM      2  C   UNL     1      18.190  -3.629  18.048  1.00  0.00     0.000 C 
BRANCH   2   3
ATOM      3  C   UNL     1      17.040  -2.725  18.531  1.00  0.00     0.000 C 
BRANCH   3   4
ATOM      4  C   UNL     1      16.068  -2.289  17.419  1.00  0.00     0.000 C 
BRANCH   4   5
ATOM      5  C   UNL     1      15.063  -3.392  17.044  1.00  0.00     0.000 C 
BRANCH   5   6
ATOM      6  C   UNL     1      14.211  -3.027  15.810  1.00  0.00     0.000 C 
BRANCH   6   7
ATOM      7  C   UNL     1      12.801  -3.647  15.807  1.00  0.00     0.000 C 
BRANCH   7   8
ATOM      8  C   UNL     1      11.901  -3.225  14.635  1.00  0.00     0.000 C 
BRANCH   8   9
ATOM      9  C   UNL     1      12.245  -1.831  14.086  1.00  0.00     0.000 C 
BRANCH   9  10
ATOM     10  C   UNL     1      12.151  -1.805  12.554  1.00  0.00     0.000 C 
BRANCH  10  11
ATOM     11  C   UNL     1      13.425  -1.259  11.885  1.00  0.00     0.000 C 
BRANCH  11  12
ATOM     12  C   UNL     1      14.745  -1.874  12.390  1.00  0.00     0.000 C 
BRANCH  12  13
ATOM     13  C   UNL     1      15.895  -0.871  12.586  1.00  0.00     0.006 C 
BRANCH  13  14
ATOM     14  C   UNL     1      16.859  -1.279  13.709  1.00  0.00     0.053 C 
BRANCH  14  15
ATOM     15  C   UNL     1      18.274  -0.964  13.337  1.00  0.00     0.041 C 
ATOM     16  O   UNL     1      19.075  -1.892  13.047  1.00  0.00    -0.550 OA
ATOM     17  O   UNL     1      18.710   0.355  13.313  1.00  0.00    -0.550 OA
ENDBRANCH  14  15
ENDBRANCH  13  14
ENDBRANCH  12  13
ENDBRANCH  11  12
ENDBRANCH  10  11
ENDBRANCH   9  10
ENDBRANCH   8   9
ENDBRANCH   7   8
ENDBRANCH   6   7
ENDBRANCH   5   6
ENDBRANCH   4   5
ENDBRANCH   3   4
ENDBRANCH   2   3
ENDBRANCH   1   2
BRANCH   1  18
ATOM     18  C   UNL     1      19.236  -3.968  15.735  1.00  0.00     0.000 C 
BRANCH  18  19
ATOM     19  C   UNL     1      18.186  -5.088  15.680  1.00  0.00     0.000 C 
BRANCH  19  20
ATOM     20  C   UNL     1      17.165  -4.833  14.561  1.00  0.00     0.000 C 
BRANCH  20  21
ATOM     21  C   UNL     1      17.777  -4.957  13.157  1.00  0.00     0.000 C 
BRANCH  21  22
ATOM     22  C   UNL     1      16.755  -4.702  12.035  1.00  0.00     0.000 C 
BRANCH  22  23
ATOM     23  C   UNL     1      16.699  -5.866  11.024  1.00  0.00     0.000 C 
BRANCH  23  24
ATOM     24  C   UNL     1      15.916  -5.537   9.739  1.00  0.00    -0.000 C 
BRANCH  24  25
ATOM     25  C   UNL     1      14.411  -5.880   9.809  1.00  0.00    -0.000 C 
BRANCH  25  26
ATOM     26  C   UNL     1      13.539  -4.796  10.476  1.00  0.00    -0.000 C 
BRANCH  26  27
ATOM     27  C   UNL     1      12.925  -5.187  11.837  1.00  0.00    -0.000 C 
BRANCH  27  28
ATOM     28  C   UNL     1      13.329  -6.591  12.329  1.00  0.00    -0.000 C 
BRANCH  28  29
ATOM     29  C   UNL     1      14.114  -6.535  13.651  1.00  0.00    -0.000 C 
BRANCH  29  30
ATOM     30  C   UNL     1      15.114  -7.692  13.794  1.00  0.00    -0.000 C 
BRANCH  30  31
ATOM     31  C   UNL     1      15.532  -7.924  15.254  1.00  0.00    -0.003 C 
ATOM     32  C   UNL     1      14.681  -7.091  16.207  1.00  0.00     0.004 C 
ENDBRANCH  30  31
ENDBRANCH  29  30
ENDBRANCH  28  29
ENDBRANCH  27  28
ENDBRANCH  26  27
ENDBRANCH  25  26
ENDBRANCH  24  25
ENDBRANCH  23  24
ENDBRANCH  22  23
ENDBRANCH  21  22
ENDBRANCH  20  21
ENDBRANCH  19  20
ENDBRANCH  18  19
ENDBRANCH   1  18
TORSDOF 28
ENDMDL
MODEL 3
REMARK VINA RESULT:    -6.207      1.188      4.496
REMARK INTER + INTRA:         -21.712
REMARK INTER:                 -16.607
REMARK INTRA:                  -5.104
REMARK UNBOUND:                -5.344
REMARK SMILES CCCCCCCCCCCCCCCCCCCCCCCCCCCCCC(=O)[O-]
REMARK SMILES IDX 16 1 17 2 18 3 19 4 20 5 21 6 22 7 23 8 24 9 25 10 26 11
REMARK SMILES IDX 27 12 28 13 29 14 30 15 31 16 32 17 15 18 14 19 13 20 12 21
REMARK SMILES IDX 11 22 10 23 9 24 8 25 7 26 6 27 5 28 4 29 3 30 2 31 1 32
REMARK H PARENT
REMARK Flexibility Score: inf
ROOT
ATOM      1  C   UNL     1      14.616  -6.864  13.283  1.00  0.00     0.000 C 
ENDROOT
BRANCH   1   2
ATOM      2  C   UNL     1      15.170  -5.525  12.764  1.00  0.00     0.000 C 
BRANCH   2   3
ATOM      3  C   UNL     1      16.574  -5.660  12.145  1.00  0.00     0.000 C 
BRANCH   3   4
ATOM      4  C   UNL     1      16.575  -5.897  10.624  1.00  0.00     0.000 C 
BRANCH   4   5
ATOM      5  C   UNL     1      15.504  -5.067   9.893  1.00  0.00     0.000 C 
BRANCH   5   6
ATOM      6  C   UNL     1      14.480  -5.944   9.142  1.00  0.00     0.000 C 
BRANCH   6   7
ATOM      7  C   UNL     1      13.009  -5.606   9.452  1.00  0.00     0.000 C 
BRANCH   7   8
ATOM      8  C   UNL     1      12.797  -4.478  10.473  1.00  0.00     0.000 C 
BRANCH   8   9
ATOM      9  C   UNL     1      11.404  -3.835  10.377  1.00  0.00     0.000 C 
BRANCH   9  10
ATOM     10  C   UNL     1      10.715  -3.809  11.748  1.00  0.00     0.000 C 
BRANCH  10  11
ATOM     11  C   UNL     1      11.641  -4.257  12.893  1.00  0.00     0.000 C 
BRANCH  11  12
ATOM     12  C   UNL     1      11.652  -3.333  14.127  1.00  0.00     0.000 C 
BRANCH  12  13
ATOM     13  C   UNL     1      12.372  -1.989  13.924  1.00  0.00     0.006 C 
BRANCH  13  14
ATOM     14  C   UNL     1      13.756  -2.143  13.278  1.00  0.00     0.053 C 
BRANCH  14  15
ATOM     15  C   UNL     1      13.983  -1.084  12.246  1.00  0.00     0.041 C 
ATOM     16  O   UNL     1      15.124  -0.568  12.107  1.00  0.00    -0.550 OA
ATOM     17  O   UNL     1      12.933  -0.662  11.440  1.00  0.00    -0.550 OA
ENDBRANCH  14  15
ENDBRANCH  13  14
ENDBRANCH  12  13
ENDBRANCH  11  12
ENDBRANCH  10  11
ENDBRANCH   9  10
ENDBRANCH   8   9
ENDBRANCH   7   8
ENDBRANCH   6   7
ENDBRANCH   5   6
ENDBRANCH   4   5
ENDBRANCH   3   4
ENDBRANCH   2   3
ENDBRANCH   1   2
BRANCH   1  18
ATOM     18  C   UNL     1      15.471  -7.461  14.412  1.00  0.00     0.000 C 
BRANCH  18  19
ATOM     19  C   UNL     1      14.892  -7.174  15.805  1.00  0.00     0.000 C 
BRANCH  19  20
ATOM     20  C   UNL     1      15.162  -5.721  16.225  1.00  0.00     0.000 C 
BRANCH  20  21
ATOM     21  C   UNL     1      13.905  -4.839  16.157  1.00  0.00     0.000 C 
BRANCH  21  22
ATOM     22  C   UNL     1      14.063  -3.515  16.927  1.00  0.00     0.000 C 
BRANCH  22  23
ATOM     23  C   UNL     1      15.480  -2.924  16.786  1.00  0.00     0.000 C 
BRANCH  23  24
ATOM     24  C   UNL     1      15.970  -2.175  18.039  1.00  0.00    -0.000 C 
BRANCH  24  25
ATOM     25  C   UNL     1      17.128  -2.876  18.784  1.00  0.00    -0.000 C 
BRANCH  25  26
ATOM     26  C   UNL     1      18.045  -3.728  17.882  1.00  0.00    -0.000 C 
BRANCH  26  27
ATOM     27  C   UNL     1      19.300  -3.006  17.345  1.00  0.00    -0.000 C 
BRANCH  27  28
ATOM     28  C   UNL     1      19.572  -3.249  15.847  1.00  0.00    -0.000 C 
BRANCH  28  29
ATOM     29  C   UNL     1      18.381  -3.924  15.147  1.00  0.00    -0.000 C 
BRANCH  29  30
ATOM     30  C   UNL     1      17.737  -3.027  14.079  1.00  0.00    -0.000 C 
BRANCH  30  31
ATOM     31  C   UNL     1      18.765  -2.483  13.077  1.00  0.00    -0.003 C 
ATOM     32  C   UNL     1      19.565  -3.616  12.442  1.00  0.00     0.004 C 
ENDBRANCH  30  31
ENDBRANCH  29  30
ENDBRANCH  28  29
ENDBRANCH  27  28
ENDBRANCH  26  27
ENDBRANCH  25  26
ENDBRANCH  24  25
ENDBRANCH  23  24
ENDBRANCH  22  23
ENDBRANCH  21  22
ENDBRANCH  20  21
ENDBRANCH  19  20
ENDBRANCH  18  19
ENDBRANCH   1  18
TORSDOF 28
ENDMDL
MODEL 4
REMARK VINA RESULT:    -6.200      1.990      5.491
REMARK INTER + INTRA:         -21.692
REMARK INTER:                 -16.221
REMARK INTRA:                  -5.471
REMARK UNBOUND:                -5.344
REMARK SMILES CCCCCCCCCCCCCCCCCCCCCCCCCCCCCC(=O)[O-]
REMARK SMILES IDX 16 1 17 2 18 3 19 4 20 5 21 6 22 7 23 8 24 9 25 10 26 11
REMARK SMILES IDX 27 12 28 13 29 14 30 15 31 16 32 17 15 18 14 19 13 20 12 21
REMARK SMILES IDX 11 22 10 23 9 24 8 25 7 26 6 27 5 28 4 29 3 30 2 31 1 32
REMARK H PARENT
REMARK Flexibility Score: inf
ROOT
ATOM      1  C   UNL     1      17.183  -6.010  11.604  1.00  0.00     0.000 C 
ENDROOT
BRANCH   1   2
ATOM      2  C   UNL     1      17.621  -5.482  12.981  1.00  0.00     0.000 C 
BRANCH   2   3
ATOM      3  C   UNL     1      18.829  -4.530  12.899  1.00  0.00     0.000 C 
BRANCH   3   4
ATOM      4  C   UNL     1      19.714  -4.521  14.159  1.00  0.00     0.000 C 
BRANCH   4   5
ATOM      5  C   UNL     1      18.915  -4.230  15.443  1.00  0.00     0.000 C 
BRANCH   5   6
ATOM      6  C   UNL     1      19.490  -3.046  16.247  1.00  0.00     0.000 C 
BRANCH   6   7
ATOM      7  C   UNL     1      19.055  -3.013  17.725  1.00  0.00     0.000 C 
BRANCH   7   8
ATOM      8  C   UNL     1      17.703  -3.681  18.025  1.00  0.00     0.000 C 
BRANCH   8   9
ATOM      9  C   UNL     1      16.534  -2.684  18.051  1.00  0.00     0.000 C 
BRANCH   9  10
ATOM     10  C   UNL     1      15.728  -2.748  16.746  1.00  0.00     0.000 C 
BRANCH  10  11
ATOM     11  C   UNL     1      14.314  -3.324  16.942  1.00  0.00     0.000 C 
BRANCH  11  12
ATOM     12  C   UNL     1      14.075  -4.706  16.301  1.00  0.00     0.000 C 
BRANCH  12  13
ATOM     13  C   UNL     1      15.330  -5.373  15.712  1.00  0.00     0.006 C 
BRANCH  13  14
ATOM     14  C   UNL     1      15.240  -6.906  15.694  1.00  0.00     0.053 C 
BRANCH  14  15
ATOM     15  C   UNL     1      14.901  -7.402  14.324  1.00  0.00     0.041 C 
ATOM     16  O   UNL     1      13.948  -6.888  13.680  1.00  0.00    -0.550 OA
ATOM     17  O   UNL     1      15.636  -8.437  13.757  1.00  0.00    -0.550 OA
ENDBRANCH  14  15
ENDBRANCH  13  14
ENDBRANCH  12  13
ENDBRANCH  11  12
ENDBRANCH  10  11
ENDBRANCH   9  10
ENDBRANCH   8   9
ENDBRANCH   7   8
ENDBRANCH   6   7
ENDBRANCH   5   6
ENDBRANCH   4   5
ENDBRANCH   3   4
ENDBRANCH   2   3
ENDBRANCH   1   2
BRANCH   1  18
ATOM     18  C   UNL     1      15.837  -5.428  11.145  1.00  0.00     0.000 C 
BRANCH  18  19
ATOM     19  C   UNL     1      15.589  -5.627   9.642  1.00  0.00     0.000 C 
BRANCH  19  20
ATOM     20  C   UNL     1      14.086  -5.688   9.334  1.00  0.00     0.000 C 
BRANCH  20  21
ATOM     21  C   UNL     1      13.215  -5.320  10.546  1.00  0.00     0.000 C 
BRANCH  21  22
ATOM     22  C   UNL     1      12.167  -4.241  10.222  1.00  0.00     0.000 C 
BRANCH  22  23
ATOM     23  C   UNL     1      11.260  -3.929  11.430  1.00  0.00     0.000 C 
BRANCH  23  24
ATOM     24  C   UNL     1      11.815  -4.435  12.774  1.00  0.00    -0.000 C 
BRANCH  24  25
ATOM     25  C   UNL     1      11.472  -3.533  13.981  1.00  0.00    -0.000 C 
BRANCH  25  26
ATOM     26  C   UNL     1      12.273  -2.217  14.043  1.00  0.00    -0.000 C 
BRANCH  26  27
ATOM     27  C   UNL     1      13.676  -2.266  13.400  1.00  0.00    -0.000 C 
BRANCH  27  28
ATOM     28  C   UNL     1      13.897  -1.216  12.292  1.00  0.00    -0.000 C 
BRANCH  28  29
ATOM     29  C   UNL     1      15.390  -0.924  12.065  1.00  0.00    -0.000 C 
BRANCH  29  30
ATOM     30  C   UNL     1      16.304  -1.955  12.745  1.00  0.00    -0.000 C 
BRANCH  30  31
ATOM     31  C   UNL     1      17.158  -1.332  13.860  1.00  0.00    -0.003 C 
ATOM     32  C   UNL     1      18.468  -0.782  13.303  1.00  0.00     0.004 C 
ENDBRANCH  30  31
ENDBRANCH  29  30
ENDBRANCH  28  29
ENDBRANCH  27  28
ENDBRANCH  26  27
ENDBRANCH  25  26
ENDBRANCH  24  25
ENDBRANCH  23  24
ENDBRANCH  22  23
ENDBRANCH  21  22
ENDBRANCH  20  21
ENDBRANCH  19  20
ENDBRANCH  18  19
ENDBRANCH   1  18
TORSDOF 28
ENDMDL
MODEL 5
REMARK VINA RESULT:    -6.170      2.010      5.187
REMARK INTER + INTRA:         -21.614
REMARK INTER:                 -16.259
REMARK INTRA:                  -5.355
REMARK UNBOUND:                -5.344
REMARK SMILES CCCCCCCCCCCCCCCCCCCCCCCCCCCCCC(=O)[O-]
REMARK SMILES IDX 16 1 17 2 18 3 19 4 20 5 21 6 22 7 23 8 24 9 25 10 26 11
REMARK SMILES IDX 27 12 28 13 29 14 30 15 31 16 32 17 15 18 14 19 13 20 12 21
REMARK SMILES IDX 11 22 10 23 9 24 8 25 7 26 6 27 5 28 4 29 3 30 2 31 1 32
REMARK H PARENT
REMARK Flexibility Score: inf
ROOT
ATOM      1  C   UNL     1      14.602  -7.087  15.171  1.00  0.00     0.000 C 
ENDROOT
BRANCH   1   2
ATOM      2  C   UNL     1      14.054  -7.144  13.734  1.00  0.00     0.000 C 
BRANCH   2   3
ATOM      3  C   UNL     1      13.914  -5.750  13.094  1.00  0.00     0.000 C 
BRANCH   3   4
ATOM      4  C   UNL     1      12.646  -5.571  12.238  1.00  0.00     0.000 C 
BRANCH   4   5
ATOM      5  C   UNL     1      12.911  -4.781  10.944  1.00  0.00     0.000 C 
BRANCH   5   6
ATOM      6  C   UNL     1      13.091  -5.697   9.714  1.00  0.00     0.000 C 
BRANCH   6   7
ATOM      7  C   UNL     1      14.512  -5.688   9.119  1.00  0.00     0.000 C 
BRANCH   7   8
ATOM      8  C   UNL     1      15.578  -4.993   9.981  1.00  0.00     0.000 C 
BRANCH   8   9
ATOM      9  C   UNL     1      16.640  -5.964  10.521  1.00  0.00     0.000 C 
BRANCH   9  10
ATOM     10  C   UNL     1      17.126  -5.530  11.911  1.00  0.00     0.000 C 
BRANCH  10  11
ATOM     11  C   UNL     1      18.635  -5.750  12.114  1.00  0.00     0.000 C 
BRANCH  11  12
ATOM     12  C   UNL     1      19.313  -4.772  13.095  1.00  0.00     0.000 C 
BRANCH  12  13
ATOM     13  C   UNL     1      19.445  -3.328  12.584  1.00  0.00     0.006 C 
BRANCH  13  14
ATOM     14  C   UNL     1      18.327  -2.408  13.097  1.00  0.00     0.053 C 
BRANCH  14  15
ATOM     15  C   UNL     1      18.884  -1.094  13.547  1.00  0.00     0.041 C 
ATOM     16  O   UNL     1      18.299  -0.020  13.246  1.00  0.00    -0.550 OA
ATOM     17  O   UNL     1      20.054  -1.055  14.297  1.00  0.00    -0.550 OA
ENDBRANCH  14  15
ENDBRANCH  13  14
ENDBRANCH  12  13
ENDBRANCH  11  12
ENDBRANCH  10  11
ENDBRANCH   9  10
ENDBRANCH   8   9
ENDBRANCH   7   8
ENDBRANCH   6   7
ENDBRANCH   5   6
ENDBRANCH   4   5
ENDBRANCH   3   4
ENDBRANCH   2   3
ENDBRANCH   1   2
BRANCH   1  18
ATOM     18  C   UNL     1      16.117  -6.830  15.218  1.00  0.00     0.000 C 
BRANCH  18  19
ATOM     19  C   UNL     1      16.456  -5.350  15.452  1.00  0.00     0.000 C 
BRANCH  19  20
ATOM     20  C   UNL     1      17.623  -5.202  16.441  1.00  0.00     0.000 C 
BRANCH  20  21
ATOM     21  C   UNL     1      18.194  -3.776  16.478  1.00  0.00     0.000 C 
BRANCH  21  22
ATOM     22  C   UNL     1      18.285  -3.206  17.905  1.00  0.00     0.000 C 
BRANCH  22  23
ATOM     23  C   UNL     1      16.894  -2.972  18.529  1.00  0.00     0.000 C 
BRANCH  23  24
ATOM     24  C   UNL     1      15.893  -2.288  17.580  1.00  0.00    -0.000 C 
BRANCH  24  25
ATOM     25  C   UNL     1      14.570  -3.064  17.390  1.00  0.00    -0.000 C 
BRANCH  25  26
ATOM     26  C   UNL     1      13.995  -3.005  15.960  1.00  0.00    -0.000 C 
BRANCH  26  27
ATOM     27  C   UNL     1      12.691  -3.801  15.738  1.00  0.00    -0.000 C 
BRANCH  27  28
ATOM     28  C   UNL     1      11.692  -3.117  14.784  1.00  0.00    -0.000 C 
BRANCH  28  29
ATOM     29  C   UNL     1      12.227  -1.776  14.253  1.00  0.00    -0.000 C 
BRANCH  29  30
ATOM     30  C   UNL     1      12.588  -1.833  12.761  1.00  0.00    -0.000 C 
BRANCH  30  31
ATOM     31  C   UNL     1      13.973  -1.234  12.473  1.00  0.00    -0.003 C 
ATOM     32  C   UNL     1      15.052  -2.313  12.498  1.00  0.00     0.004 C 
ENDBRANCH  30  31
ENDBRANCH  29  30
ENDBRANCH  28  29
ENDBRANCH  27  28
ENDBRANCH  26  27
ENDBRANCH  25  26
ENDBRANCH  24  25
ENDBRANCH  23  24
ENDBRANCH  22  23
ENDBRANCH  21  22
ENDBRANCH  20  21
ENDBRANCH  19  20
ENDBRANCH  18  19
ENDBRANCH   1  18
TORSDOF 28
ENDMDL
MODEL 6
REMARK VINA RESULT:    -6.110      1.485      6.112
REMARK INTER + INTRA:         -21.456
REMARK INTER:                 -15.974
REMARK INTRA:                  -5.482
REMARK UNBOUND:                -5.344
REMARK SMILES CCCCCCCCCCCCCCCCCCCCCCCCCCCCCC(=O)[O-]
REMARK SMILES IDX 16 1 17 2 18 3 19 4 20 5 21 6 22 7 23 8 24 9 25 10 26 11
REMARK SMILES IDX 27 12 28 13 29 14 30 15 31 16 32 17 15 18 14 19 13 20 12 21
REMARK SMILES IDX 11 22 10 23 9 24 8 25 7 26 6 27 5 28 4 29 3 30 2 31 1 32
REMARK H PARENT
REMARK Flexibility Score: inf
ROOT
ATOM      1  C   UNL     1      16.244  -2.707  17.846  1.00  0.00     0.000 C 
ENDROOT
BRANCH   1   2
ATOM      2  C   UNL     1      14.944  -3.008  17.078  1.00  0.00     0.000 C 
BRANCH   2   3
ATOM      3  C   UNL     1      15.153  -4.001  15.919  1.00  0.00     0.000 C 
BRANCH   3   4
ATOM      4  C   UNL     1      14.246  -5.244  15.980  1.00  0.00     0.000 C 
BRANCH   4   5
ATOM      5  C   UNL     1      15.045  -6.556  16.088  1.00  0.00     0.000 C 
BRANCH   5   6
ATOM      6  C   UNL     1      15.261  -7.236  14.719  1.00  0.00     0.000 C 
BRANCH   6   7
ATOM      7  C   UNL     1      14.310  -6.743  13.611  1.00  0.00     0.000 C 
BRANCH   7   8
ATOM      8  C   UNL     1      14.924  -5.743  12.618  1.00  0.00     0.000 C 
BRANCH   8   9
ATOM      9  C   UNL     1      16.196  -6.275  11.939  1.00  0.00     0.000 C 
BRANCH   9  10
ATOM     10  C   UNL     1      16.405  -5.615  10.569  1.00  0.00     0.000 C 
BRANCH  10  11
ATOM     11  C   UNL     1      15.106  -5.039   9.977  1.00  0.00     0.000 C 
BRANCH  11  12
ATOM     12  C   UNL     1      14.361  -5.973   9.002  1.00  0.00     0.000 C 
BRANCH  12  13
ATOM     13  C   UNL     1      12.829  -5.834   9.013  1.00  0.00     0.006 C 
BRANCH  13  14
ATOM     14  C   UNL     1      12.323  -4.878  10.103  1.00  0.00     0.053 C 
BRANCH  14  15
ATOM     15  C   UNL     1      11.104  -4.143   9.641  1.00  0.00     0.041 C 
ATOM     16  O   UNL     1      10.872  -2.976  10.056  1.00  0.00    -0.550 OA
ATOM     17  O   UNL     1      10.222  -4.747   8.754  1.00  0.00    -0.550 OA
ENDBRANCH  14  15
ENDBRANCH  13  14
ENDBRANCH  12  13
ENDBRANCH  11  12
ENDBRANCH  10  11
ENDBRANCH   9  10
ENDBRANCH   8   9
ENDBRANCH   7   8
ENDBRANCH   6   7
ENDBRANCH   5   6
ENDBRANCH   4   5
ENDBRANCH   3   4
ENDBRANCH   2   3
ENDBRANCH   1   2
BRANCH   1  18
ATOM     18  C   UNL     1      17.382  -3.675  17.487  1.00  0.00     0.000 C 
BRANCH  18  19
ATOM     19  C   UNL     1      18.584  -2.962  16.849  1.00  0.00     0.000 C 
BRANCH  19  20
ATOM     20  C   UNL     1      19.424  -3.938  16.012  1.00  0.00     0.000 C 
BRANCH  20  21
ATOM     21  C   UNL     1      18.564  -4.926  15.208  1.00  0.00     0.000 C 
BRANCH  21  22
ATOM     22  C   UNL     1      18.444  -4.542  13.723  1.00  0.00     0.000 C 
BRANCH  22  23
ATOM     23  C   UNL     1      19.373  -3.369  13.347  1.00  0.00     0.000 C 
BRANCH  23  24
ATOM     24  C   UNL     1      18.626  -2.061  13.027  1.00  0.00    -0.000 C 
BRANCH  24  25
ATOM     25  C   UNL     1      17.099  -2.132  13.254  1.00  0.00    -0.000 C 
BRANCH  25  26
ATOM     26  C   UNL     1      16.360  -0.795  13.045  1.00  0.00    -0.000 C 
BRANCH  26  27
ATOM     27  C   UNL     1      15.093  -0.870  12.165  1.00  0.00    -0.000 C 
BRANCH  27  28
ATOM     28  C   UNL     1      14.382  -2.238  12.204  1.00  0.00    -0.000 C 
BRANCH  28  29
ATOM     29  C   UNL     1      12.873  -2.095  12.462  1.00  0.00    -0.000 C 
BRANCH  29  30
ATOM     30  C   UNL     1      12.548  -1.837  13.942  1.00  0.00    -0.000 C 
BRANCH  30  31
ATOM     31  C   UNL     1      11.704  -2.962  14.559  1.00  0.00    -0.003 C 
ATOM     32  C   UNL     1      11.301  -3.987  13.503  1.00  0.00     0.004 C 
ENDBRANCH  30  31
ENDBRANCH  29  30
ENDBRANCH  28  29
ENDBRANCH  27  28
ENDBRANCH  26  27
ENDBRANCH  25  26
ENDBRANCH  24  25
ENDBRANCH  23  24
ENDBRANCH  22  23
ENDBRANCH  21  22
ENDBRANCH  20  21
ENDBRANCH  19  20
ENDBRANCH  18  19
ENDBRANCH   1  18
TORSDOF 28
ENDMDL
MODEL 7
REMARK VINA RESULT:    -6.067      2.575      6.751
REMARK INTER + INTRA:         -21.343
REMARK INTER:                 -16.375
REMARK INTRA:                  -4.968
REMARK UNBOUND:                -5.344
REMARK SMILES CCCCCCCCCCCCCCCCCCCCCCCCCCCCCC(=O)[O-]
REMARK SMILES IDX 16 1 17 2 18 3 19 4 20 5 21 6 22 7 23 8 24 9 25 10 26 11
REMARK SMILES IDX 27 12 28 13 29 14 30 15 31 16 32 17 15 18 14 19 13 20 12 21
REMARK SMILES IDX 11 22 10 23 9 24 8 25 7 26 6 27 5 28 4 29 3 30 2 31 1 32
REMARK H PARENT
REMARK Flexibility Score: inf
ROOT
ATOM      1  C   UNL     1      18.667  -4.870  12.129  1.00  0.00     0.000 C 
ENDROOT
BRANCH   1   2
ATOM      2  C   UNL     1      17.632  -6.000  11.990  1.00  0.00     0.000 C 
BRANCH   2   3
ATOM      3  C   UNL     1      16.787  -6.195  13.263  1.00  0.00     0.000 C 
BRANCH   3   4
ATOM      4  C   UNL     1      15.891  -7.447  13.242  1.00  0.00     0.000 C 
BRANCH   4   5
ATOM      5  C   UNL     1      15.301  -7.777  14.625  1.00  0.00     0.000 C 
BRANCH   5   6
ATOM      6  C   UNL     1      15.629  -6.703  15.684  1.00  0.00     0.000 C 
BRANCH   6   7
ATOM      7  C   UNL     1      14.479  -5.716  15.962  1.00  0.00     0.000 C 
BRANCH   7   8
ATOM      8  C   UNL     1      14.861  -4.229  15.891  1.00  0.00     0.000 C 
BRANCH   8   9
ATOM      9  C   UNL     1      14.243  -3.395  17.025  1.00  0.00     0.000 C 
BRANCH   9  10
ATOM     10  C   UNL     1      15.318  -2.579  17.756  1.00  0.00     0.000 C 
BRANCH  10  11
ATOM     11  C   UNL     1      16.725  -3.191  17.628  1.00  0.00     0.000 C 
BRANCH  11  12
ATOM     12  C   UNL     1      17.641  -2.986  18.851  1.00  0.00     0.000 C 
BRANCH  12  13
ATOM     13  C   UNL     1      19.147  -2.956  18.536  1.00  0.00     0.006 C 
BRANCH  13  14
ATOM     14  C   UNL     1      19.448  -3.130  17.041  1.00  0.00     0.053 C 
BRANCH  14  15
ATOM     15  C   UNL     1      20.799  -2.582  16.704  1.00  0.00     0.041 C 
ATOM     16  O   UNL     1      20.904  -1.482  16.098  1.00  0.00    -0.550 OA
ATOM     17  O   UNL     1      21.944  -3.286  17.055  1.00  0.00    -0.550 OA
ENDBRANCH  14  15
ENDBRANCH  13  14
ENDBRANCH  12  13
ENDBRANCH  11  12
ENDBRANCH  10  11
ENDBRANCH   9  10
ENDBRANCH   8   9
ENDBRANCH   7   8
ENDBRANCH   6   7
ENDBRANCH   5   6
ENDBRANCH   4   5
ENDBRANCH   3   4
ENDBRANCH   2   3
ENDBRANCH   1   2
BRANCH   1  18
ATOM     18  C   UNL     1      18.700  -4.267  13.542  1.00  0.00     0.000 C 
BRANCH  18  19
ATOM     19  C   UNL     1      18.579  -2.736  13.533  1.00  0.00     0.000 C 
BRANCH  19  20
ATOM     20  C   UNL     1      17.212  -2.287  14.072  1.00  0.00     0.000 C 
BRANCH  20  21
ATOM     21  C   UNL     1      16.480  -1.333  13.115  1.00  0.00     0.000 C 
BRANCH  21  22
ATOM     22  C   UNL     1      15.264  -1.986  12.435  1.00  0.00     0.000 C 
BRANCH  22  23
ATOM     23  C   UNL     1      14.146  -0.967  12.137  1.00  0.00     0.000 C 
BRANCH  23  24
ATOM     24  C   UNL     1      12.770  -1.367  12.702  1.00  0.00    -0.000 C 
BRANCH  24  25
ATOM     25  C   UNL     1      12.839  -2.254  13.965  1.00  0.00    -0.000 C 
BRANCH  25  26
ATOM     26  C   UNL     1      11.667  -3.246  14.113  1.00  0.00    -0.000 C 
BRANCH  26  27
ATOM     27  C   UNL     1      11.556  -4.309  12.999  1.00  0.00    -0.000 C 
BRANCH  27  28
ATOM     28  C   UNL     1      12.885  -5.022  12.676  1.00  0.00    -0.000 C 
BRANCH  28  29
ATOM     29  C   UNL     1      13.342  -4.761  11.231  1.00  0.00    -0.000 C 
BRANCH  29  30
ATOM     30  C   UNL     1      13.310  -6.028  10.363  1.00  0.00    -0.000 C 
BRANCH  30  31
ATOM     31  C   UNL     1      14.183  -5.897   9.106  1.00  0.00    -0.003 C 
ATOM     32  C   UNL     1      15.534  -5.272   9.440  1.00  0.00     0.004 C 
ENDBRANCH  30  31
ENDBRANCH  29  30
ENDBRANCH  28  29
ENDBRANCH  27  28
ENDBRANCH  26  27
ENDBRANCH  25  26
ENDBRANCH  24  25
ENDBRANCH  23  24
ENDBRANCH  22  23
ENDBRANCH  21  22
ENDBRANCH  20  21
ENDBRANCH  19  20
ENDBRANCH  18  19
ENDBRANCH   1  18
TORSDOF 28
ENDMDL
MODEL 8
REMARK VINA RESULT:    -6.066      1.310      5.031
REMARK INTER + INTRA:         -21.340
REMARK INTER:                 -16.039
REMARK INTRA:                  -5.301
REMARK UNBOUND:                -5.344
REMARK SMILES CCCCCCCCCCCCCCCCCCCCCCCCCCCCCC(=O)[O-]
REMARK SMILES IDX 16 1 17 2 18 3 19 4 20 5 21 6 22 7 23 8 24 9 25 10 26 11
REMARK SMILES IDX 27 12 28 13 29 14 30 15 31 16 32 17 15 18 14 19 13 20 12 21
REMARK SMILES IDX 11 22 10 23 9 24 8 25 7 26 6 27 5 28 4 29 3 30 2 31 1 32
REMARK H PARENT
REMARK Flexibility Score: inf
ROOT
ATOM      1  C   UNL     1      13.244  -3.459  16.339  1.00  0.00     0.000 C 
ENDROOT
BRANCH   1   2
ATOM      2  C   UNL     1      14.752  -3.543  16.634  1.00  0.00     0.000 C 
BRANCH   2   3
ATOM      3  C   UNL     1      15.499  -4.474  15.661  1.00  0.00     0.000 C 
BRANCH   3   4
ATOM      4  C   UNL     1      15.923  -5.822  16.275  1.00  0.00     0.000 C 
BRANCH   4   5
ATOM      5  C   UNL     1      14.924  -6.952  15.970  1.00  0.00     0.000 C 
BRANCH   5   6
ATOM      6  C   UNL     1      15.486  -7.993  14.979  1.00  0.00     0.000 C 
BRANCH   6   7
ATOM      7  C   UNL     1      15.226  -7.662  13.497  1.00  0.00     0.000 C 
BRANCH   7   8
ATOM      8  C   UNL     1      16.221  -6.679  12.860  1.00  0.00     0.000 C 
BRANCH   8   9
ATOM      9  C   UNL     1      15.538  -5.614  11.988  1.00  0.00     0.000 C 
BRANCH   9  10
ATOM     10  C   UNL     1      16.234  -5.491  10.626  1.00  0.00     0.000 C 
BRANCH  10  11
ATOM     11  C   UNL     1      15.243  -5.356   9.455  1.00  0.00     0.000 C 
BRANCH  11  12
ATOM     12  C   UNL     1      13.904  -6.097   9.643  1.00  0.00     0.000 C 
BRANCH  12  13
ATOM     13  C   UNL     1      12.650  -5.222   9.476  1.00  0.00     0.006 C 
BRANCH  13  14
ATOM     14  C   UNL     1      12.315  -4.410  10.735  1.00  0.00     0.053 C 
BRANCH  14  15
ATOM     15  C   UNL     1      11.192  -3.458  10.471  1.00  0.00     0.041 C 
ATOM     16  O   UNL     1      11.419  -2.224  10.362  1.00  0.00    -0.550 OA
ATOM     17  O   UNL     1       9.891  -3.933  10.348  1.00  0.00    -0.550 OA
ENDBRANCH  14  15
ENDBRANCH  13  14
ENDBRANCH  12  13
ENDBRANCH  11  12
ENDBRANCH  10  11
ENDBRANCH   9  10
ENDBRANCH   8   9
ENDBRANCH   7   8
ENDBRANCH   6   7
ENDBRANCH   5   6
ENDBRANCH   4   5
ENDBRANCH   3   4
ENDBRANCH   2   3
ENDBRANCH   1   2
BRANCH   1  18
ATOM     18  C   UNL     1      12.879  -4.011  14.952  1.00  0.00     0.000 C 
BRANCH  18  19
ATOM     19  C   UNL     1      12.004  -3.042  14.144  1.00  0.00     0.000 C 
BRANCH  19  20
ATOM     20  C   UNL     1      12.836  -1.873  13.595  1.00  0.00     0.000 C 
BRANCH  20  21
ATOM     21  C   UNL     1      14.195  -2.321  13.036  1.00  0.00     0.000 C 
BRANCH  21  22
ATOM     22  C   UNL     1      14.815  -1.291  12.075  1.00  0.00     0.000 C 
BRANCH  22  23
ATOM     23  C   UNL     1      16.202  -0.812  12.550  1.00  0.00     0.000 C 
BRANCH  23  24
ATOM     24  C   UNL     1      16.804  -1.668  13.679  1.00  0.00    -0.000 C 
BRANCH  24  25
ATOM     25  C   UNL     1      18.253  -2.136  13.415  1.00  0.00    -0.000 C 
BRANCH  25  26
ATOM     26  C   UNL     1      18.376  -3.601  12.950  1.00  0.00    -0.000 C 
BRANCH  26  27
ATOM     27  C   UNL     1      19.432  -4.445  13.697  1.00  0.00    -0.000 C 
BRANCH  27  28
ATOM     28  C   UNL     1      19.292  -4.412  15.232  1.00  0.00    -0.000 C 
BRANCH  28  29
ATOM     29  C   UNL     1      20.168  -3.319  15.867  1.00  0.00    -0.000 C 
BRANCH  29  30
ATOM     30  C   UNL     1      19.687  -2.916  17.270  1.00  0.00    -0.000 C 
BRANCH  30  31
ATOM     31  C   UNL     1      18.164  -3.046  17.424  1.00  0.00    -0.003 C 
ATOM     32  C   UNL     1      17.766  -3.109  18.895  1.00  0.00     0.004 C 
ENDBRANCH  30  31
ENDBRANCH  29  30
ENDBRANCH  28  29
ENDBRANCH  27  28
ENDBRANCH  26  27
ENDBRANCH  25  26
ENDBRANCH  24  25
ENDBRANCH  23  24
ENDBRANCH  22  23
ENDBRANCH  21  22
ENDBRANCH  20  21
ENDBRANCH  19  20
ENDBRANCH  18  19
ENDBRANCH   1  18
TORSDOF 28
ENDMDL
MODEL 9
REMARK VINA RESULT:    -5.982      1.200      5.491
REMARK INTER + INTRA:         -21.119
REMARK INTER:                 -16.232
REMARK INTRA:                  -4.887
REMARK UNBOUND:                -5.344
REMARK SMILES CCCCCCCCCCCCCCCCCCCCCCCCCCCCCC(=O)[O-]
REMARK SMILES IDX 16 1 17 2 18 3 19 4 20 5 21 6 22 7 23 8 24 9 25 10 26 11
REMARK SMILES IDX 27 12 28 13 29 14 30 15 31 16 32 17 15 18 14 19 13 20 12 21
REMARK SMILES IDX 11 22 10 23 9 24 8 25 7 26 6 27 5 28 4 29 3 30 2 31 1 32
REMARK H PARENT
REMARK Flexibility Score: inf
ROOT
ATOM      1  C   UNL     1      14.423  -3.991  16.634  1.00  0.00     0.000 C 
ENDROOT
BRANCH   1   2
ATOM      2  C   UNL     1      15.353  -2.766  16.665  1.00  0.00     0.000 C 
BRANCH   2   3
ATOM      3  C   UNL     1      16.117  -2.631  17.995  1.00  0.00     0.000 C 
BRANCH   3   4
ATOM      4  C   UNL     1      17.474  -3.359  18.023  1.00  0.00     0.000 C 
BRANCH   4   5
ATOM      5  C   UNL     1      18.278  -3.162  16.725  1.00  0.00     0.000 C 
BRANCH   5   6
ATOM      6  C   UNL     1      18.440  -4.469  15.921  1.00  0.00     0.000 C 
BRANCH   6   7
ATOM      7  C   UNL     1      19.672  -4.494  14.995  1.00  0.00     0.000 C 
BRANCH   7   8
ATOM      8  C   UNL     1      19.370  -4.744  13.509  1.00  0.00     0.000 C 
BRANCH   8   9
ATOM      9  C   UNL     1      18.525  -3.628  12.873  1.00  0.00     0.000 C 
BRANCH   9  10
ATOM     10  C   UNL     1      19.072  -2.244  13.247  1.00  0.00     0.000 C 
BRANCH  10  11
ATOM     11  C   UNL     1      17.963  -1.198  13.460  1.00  0.00     0.000 C 
BRANCH  11  12
ATOM     12  C   UNL     1      16.524  -1.731  13.308  1.00  0.00     0.000 C 
BRANCH  12  13
ATOM     13  C   UNL     1      15.701  -1.067  12.190  1.00  0.00     0.006 C 
BRANCH  13  14
ATOM     14  C   UNL     1      14.187  -1.234  12.382  1.00  0.00     0.053 C 
BRANCH  14  15
ATOM     15  C   UNL     1      13.431  -0.354  11.437  1.00  0.00     0.041 C 
ATOM     16  O   UNL     1      13.948   0.714  11.014  1.00  0.00    -0.550 OA
ATOM     17  O   UNL     1      12.152  -0.711  11.026  1.00  0.00    -0.550 OA
ENDBRANCH  14  15
ENDBRANCH  13  14
ENDBRANCH  12  13
ENDBRANCH  11  12
ENDBRANCH  10  11
ENDBRANCH   9  10
ENDBRANCH   8   9
ENDBRANCH   7   8
ENDBRANCH   6   7
ENDBRANCH   5   6
ENDBRANCH   4   5
ENDBRANCH   3   4
ENDBRANCH   2   3
ENDBRANCH   1   2
BRANCH   1  18
ATOM     18  C   UNL     1      14.872  -5.052  15.618  1.00  0.00     0.000 C 
BRANCH  18  19
ATOM     19  C   UNL     1      15.072  -6.434  16.257  1.00  0.00     0.000 C 
BRANCH  19  20
ATOM     20  C   UNL     1      15.086  -7.539  15.189  1.00  0.00     0.000 C 
BRANCH  20  21
ATOM     21  C   UNL     1      14.707  -7.022  13.793  1.00  0.00     0.000 C 
BRANCH  21  22
ATOM     22  C   UNL     1      15.928  -6.837  12.874  1.00  0.00     0.000 C 
BRANCH  22  23
ATOM     23  C   UNL     1      15.866  -5.515  12.082  1.00  0.00     0.000 C 
BRANCH  23  24
ATOM     24  C   UNL     1      16.325  -5.643  10.618  1.00  0.00    -0.000 C 
BRANCH  24  25
ATOM     25  C   UNL     1      15.257  -5.230   9.581  1.00  0.00    -0.000 C 
BRANCH  25  26
ATOM     26  C   UNL     1      13.958  -6.061   9.636  1.00  0.00    -0.000 C 
BRANCH  26  27
ATOM     27  C   UNL     1      12.650  -5.241   9.663  1.00  0.00    -0.000 C 
BRANCH  27  28
ATOM     28  C   UNL     1      12.614  -4.151  10.752  1.00  0.00    -0.000 C 
BRANCH  28  29
ATOM     29  C   UNL     1      12.404  -4.745  12.155  1.00  0.00    -0.000 C 
BRANCH  29  30
ATOM     30  C   UNL     1      11.219  -4.107  12.897  1.00  0.00    -0.000 C 
BRANCH  30  31
ATOM     31  C   UNL     1      11.575  -3.718  14.339  1.00  0.00    -0.003 C 
ATOM     32  C   UNL     1      12.003  -2.256  14.423  1.00  0.00     0.004 C 
ENDBRANCH  30  31
ENDBRANCH  29  30
ENDBRANCH  28  29
ENDBRANCH  27  28
ENDBRANCH  26  27
ENDBRANCH  25  26
ENDBRANCH  24  25
ENDBRANCH  23  24
ENDBRANCH  22  23
ENDBRANCH  21  22
ENDBRANCH  20  21
ENDBRANCH  19  20
ENDBRANCH  18  19
ENDBRANCH   1  18
TORSDOF 28
ENDMDL
