MODEL 1
REMARK VINA RESULT:    -5.065      0.000      0.000
REMARK INTER + INTRA:          -5.457
REMARK INTER:                  -5.361
REMARK INTRA:                  -0.096
REMARK UNBOUND:                -0.096
REMARK SMILES C=C(C)[C@@H]1CC=C(C)C(=O)C1
REMARK SMILES IDX 8 1 7 2 6 3 5 4 4 5 11 6 9 7 10 8 2 9 1 10 3 11
REMARK H PARENT
REMARK Flexibility Score: inf
ROOT
ATOM      1  C   UNL     1       4.406  -3.734  25.103  1.00  0.00     0.048 C 
ATOM      2  C   UNL     1       5.095  -3.548  26.426  1.00  0.00    -0.012 C 
ATOM      3  C   UNL     1       4.596  -4.132  27.529  1.00  0.00    -0.019 C 
ATOM      4  C   UNL     1       5.255  -3.994  28.875  1.00  0.00     0.036 C 
ATOM      5  C   UNL     1       5.941  -2.621  29.018  1.00  0.00     0.025 C 
ATOM      6  C   UNL     1       6.928  -2.394  27.858  1.00  0.00     0.089 C 
ATOM      7  C   UNL     1       6.250  -2.621  26.535  1.00  0.00     0.158 C 
ATOM      8  O   UNL     1       6.699  -2.044  25.508  1.00  0.00    -0.295 OA
ENDROOT
BRANCH   5   9
ATOM      9  C   UNL     1       6.621  -2.471  30.372  1.00  0.00    -0.077 C 
ATOM     10  C   UNL     1       6.850  -3.534  31.163  1.00  0.00     0.008 C 
ATOM     11  C   UNL     1       7.054  -1.110  30.854  1.00  0.00     0.039 C 
ENDBRANCH   5   9
TORSDOF 1
ENDMDL
MODEL 2
REMARK VINA RESULT:    -4.810      8.014      8.830
REMARK INTER + INTRA:          -5.186
REMARK INTER:                  -5.095
REMARK INTRA:                  -0.091
REMARK UNBOUND:                -0.096
REMARK SMILES C=C(C)[C@@H]1CC=C(C)C(=O)C1
REMARK SMILES IDX 8 1 7 2 6 3 5 4 4 5 11 6 9 7 10 8 2 9 1 10 3 11
REMARK H PARENT
REMARK Flexibility Score: inf
ROOT
ATOM      1  C   UNL     1       5.018   3.074  26.480  1.00  0.00     0.048 C 
ATOM      2  C   UNL     1       4.153   3.785  27.484  1.00  0.00    -0.012 C 
ATOM      3  C   UNL     1       3.141   3.129  28.079  1.00  0.00    -0.019 C 
ATOM      4  C   UNL     1       2.256   3.787  29.104  1.00  0.00     0.036 C 
ATOM      5  C   UNL     1       2.083   5.289  28.806  1.00  0.00     0.025 C 
ATOM      6  C   UNL     1       3.458   5.974  28.696  1.00  0.00     0.089 C 
ATOM      7  C   UNL     1       4.339   5.238  27.724  1.00  0.00     0.158 C 
ATOM      8  O   UNL     1       5.265   5.864  27.140  1.00  0.00    -0.295 OA
ENDROOT
BRANCH   5   9
ATOM      9  C   UNL     1       1.197   5.969  29.840  1.00  0.00    -0.077 C 
ATOM     10  C   UNL     1       0.349   6.955  29.496  1.00  0.00     0.008 C 
ATOM     11  C   UNL     1       1.259   5.546  31.285  1.00  0.00     0.039 C 
ENDBRANCH   5   9
TORSDOF 1
ENDMDL
MODEL 3
REMARK VINA RESULT:    -4.768      8.969     10.358
REMARK INTER + INTRA:          -5.142
REMARK INTER:                  -5.049
REMARK INTRA:                  -0.093
REMARK UNBOUND:                -0.096
REMARK SMILES C=C(C)[C@@H]1CC=C(C)C(=O)C1
REMARK SMILES IDX 8 1 7 2 6 3 5 4 4 5 11 6 9 7 10 8 2 9 1 10 3 11
REMARK H PARENT
REMARK Flexibility Score: inf
ROOT
ATOM      1  C   UNL     1       0.395   7.124  32.733  1.00  0.00     0.048 C 
ATOM      2  C   UNL     1       0.959   6.302  31.607  1.00  0.00    -0.012 C 
ATOM      3  C   UNL     1       1.701   5.214  31.878  1.00  0.00    -0.019 C 
ATOM      4  C   UNL     1       2.273   4.346  30.790  1.00  0.00     0.036 C 
ATOM      5  C   UNL     1       2.621   5.179  29.540  1.00  0.00     0.025 C 
ATOM      6  C   UNL     1       1.388   5.972  29.067  1.00  0.00     0.089 C 
ATOM      7  C   UNL     1       0.799   6.761  30.204  1.00  0.00     0.158 C 
ATOM      8  O   UNL     1       0.133   7.801  29.949  1.00  0.00    -0.295 OA
ENDROOT
BRANCH   5   9
ATOM      9  C   UNL     1       3.192   4.312  28.427  1.00  0.00    -0.077 C 
ATOM     10  C   UNL     1       2.610   3.152  28.074  1.00  0.00     0.008 C 
ATOM     11  C   UNL     1       4.437   4.744  27.695  1.00  0.00     0.039 C 
ENDBRANCH   5   9
TORSDOF 1
ENDMDL
MODEL 4
REMARK VINA RESULT:    -4.733      9.390     10.533
REMARK INTER + INTRA:          -5.105
REMARK INTER:                  -5.008
REMARK INTRA:                  -0.097
REMARK UNBOUND:                -0.096
REMARK SMILES C=C(C)[C@@H]1CC=C(C)C(=O)C1
REMARK SMILES IDX 8 1 7 2 6 3 5 4 4 5 11 6 9 7 10 8 2 9 1 10 3 11
REMARK H PARENT
REMARK Flexibility Score: inf
ROOT
ATOM      1  C   UNL     1       2.924   3.598  28.403  1.00  0.00     0.048 C 
ATOM      2  C   UNL     1       2.195   4.562  29.297  1.00  0.00    -0.012 C 
ATOM      3  C   UNL     1       1.689   5.698  28.785  1.00  0.00    -0.019 C 
ATOM      4  C   UNL     1       0.934   6.689  29.630  1.00  0.00     0.036 C 
ATOM      5  C   UNL     1       1.473   6.711  31.074  1.00  0.00     0.025 C 
ATOM      6  C   UNL     1       1.448   5.293  31.674  1.00  0.00     0.089 C 
ATOM      7  C   UNL     1       2.141   4.320  30.761  1.00  0.00     0.158 C 
ATOM      8  O   UNL     1       2.646   3.272  31.248  1.00  0.00    -0.295 OA
ENDROOT
BRANCH   5   9
ATOM      9  C   UNL     1       0.712   7.702  31.943  1.00  0.00    -0.077 C 
ATOM     10  C   UNL     1       0.398   7.417  33.220  1.00  0.00     0.008 C 
ATOM     11  C   UNL     1       0.292   9.035  31.380  1.00  0.00     0.039 C 
ENDBRANCH   5   9
TORSDOF 1
ENDMDL
MODEL 5
REMARK VINA RESULT:    -4.732      1.574      2.402
REMARK INTER + INTRA:          -5.104
REMARK INTER:                  -5.011
REMARK INTRA:                  -0.094
REMARK UNBOUND:                -0.096
REMARK SMILES C=C(C)[C@@H]1CC=C(C)C(=O)C1
REMARK SMILES IDX 8 1 7 2 6 3 5 4 4 5 11 6 9 7 10 8 2 9 1 10 3 11
REMARK H PARENT
REMARK Flexibility Score: inf
ROOT
ATOM      1  C   UNL     1       6.165  -2.936  25.456  1.00  0.00     0.048 C 
ATOM      2  C   UNL     1       5.988  -2.862  26.947  1.00  0.00    -0.012 C 
ATOM      3  C   UNL     1       6.823  -2.108  27.683  1.00  0.00    -0.019 C 
ATOM      4  C   UNL     1       6.680  -1.983  29.177  1.00  0.00     0.036 C 
ATOM      5  C   UNL     1       6.131  -3.285  29.792  1.00  0.00     0.025 C 
ATOM      6  C   UNL     1       4.808  -3.682  29.110  1.00  0.00     0.089 C 
ATOM      7  C   UNL     1       4.974  -3.715  27.615  1.00  0.00     0.158 C 
ATOM      8  O   UNL     1       4.212  -4.450  26.930  1.00  0.00    -0.295 OA
ENDROOT
BRANCH   5   9
ATOM      9  C   UNL     1       5.972  -3.171  31.302  1.00  0.00    -0.077 C 
ATOM     10  C   UNL     1       6.984  -2.749  32.082  1.00  0.00     0.008 C 
ATOM     11  C   UNL     1       4.664  -3.534  31.954  1.00  0.00     0.039 C 
ENDBRANCH   5   9
TORSDOF 1
ENDMDL
MODEL 6
REMARK VINA RESULT:    -4.569      7.696      8.942
REMARK INTER + INTRA:          -4.932
REMARK INTER:                  -4.837
REMARK INTRA:                  -0.095
REMARK UNBOUND:                -0.096
REMARK SMILES C=C(C)[C@@H]1CC=C(C)C(=O)C1
REMARK SMILES IDX 8 1 7 2 6 3 5 4 4 5 11 6 9 7 10 8 2 9 1 10 3 11
REMARK H PARENT
REMARK Flexibility Score: inf
ROOT
ATOM      1  C   UNL     1       5.501   2.509  28.796  1.00  0.00     0.048 C 
ATOM      2  C   UNL     1       4.276   3.281  29.203  1.00  0.00    -0.012 C 
ATOM      3  C   UNL     1       3.499   3.848  28.264  1.00  0.00    -0.019 C 
ATOM      4  C   UNL     1       2.252   4.616  28.614  1.00  0.00     0.036 C 
ATOM      5  C   UNL     1       2.405   5.331  29.971  1.00  0.00     0.025 C 
ATOM      6  C   UNL     1       2.797   4.322  31.067  1.00  0.00     0.089 C 
ATOM      7  C   UNL     1       3.996   3.520  30.642  1.00  0.00     0.158 C 
ATOM      8  O   UNL     1       4.744   3.019  31.525  1.00  0.00    -0.295 OA
ENDROOT
BRANCH   5   9
ATOM      9  C   UNL     1       1.148   6.104  30.344  1.00  0.00    -0.077 C 
ATOM     10  C   UNL     1       0.391   6.703  29.407  1.00  0.00     0.008 C 
ATOM     11  C   UNL     1       0.727   6.215  31.786  1.00  0.00     0.039 C 
ENDBRANCH   5   9
TORSDOF 1
ENDMDL
MODEL 7
REMARK VINA RESULT:    -4.527     15.831     17.481
REMARK INTER + INTRA:          -4.887
REMARK INTER:                  -4.794
REMARK INTRA:                  -0.093
REMARK UNBOUND:                -0.096
REMARK SMILES C=C(C)[C@@H]1CC=C(C)C(=O)C1
REMARK SMILES IDX 8 1 7 2 6 3 5 4 4 5 11 6 9 7 10 8 2 9 1 10 3 11
REMARK H PARENT
REMARK Flexibility Score: inf
ROOT
ATOM      1  C   UNL     1      -8.961  -6.501  16.259  1.00  0.00     0.048 C 
ATOM      2  C   UNL     1      -9.079  -6.092  17.701  1.00  0.00    -0.012 C 
ATOM      3  C   UNL     1     -10.257  -5.652  18.178  1.00  0.00    -0.019 C 
ATOM      4  C   UNL     1     -10.435  -5.248  19.617  1.00  0.00     0.036 C 
ATOM      5  C   UNL     1      -9.139  -4.640  20.188  1.00  0.00     0.025 C 
ATOM      6  C   UNL     1      -7.962  -5.616  19.997  1.00  0.00     0.089 C 
ATOM      7  C   UNL     1      -7.870  -6.058  18.562  1.00  0.00     0.158 C 
ATOM      8  O   UNL     1      -6.757  -6.437  18.107  1.00  0.00    -0.295 OA
ENDROOT
BRANCH   5   9
ATOM      9  C   UNL     1      -9.301  -4.235  21.646  1.00  0.00    -0.077 C 
ATOM     10  C   UNL     1      -8.480  -3.337  22.219  1.00  0.00     0.008 C 
ATOM     11  C   UNL     1     -10.398  -4.843  22.482  1.00  0.00     0.039 C 
ENDBRANCH   5   9
TORSDOF 1
ENDMDL
MODEL 8
REMARK VINA RESULT:    -4.403      9.422     10.767
REMARK INTER + INTRA:          -4.757
REMARK INTER:                  -4.666
REMARK INTRA:                  -0.090
REMARK UNBOUND:                -0.096
REMARK SMILES C=C(C)[C@@H]1CC=C(C)C(=O)C1
REMARK SMILES IDX 8 1 7 2 6 3 5 4 4 5 11 6 9 7 10 8 2 9 1 10 3 11
REMARK H PARENT
REMARK Flexibility Score: inf
ROOT
ATOM      1  C   UNL     1       0.084   8.920  30.767  1.00  0.00     0.048 C 
ATOM      2  C   UNL     1       0.928   7.709  30.483  1.00  0.00    -0.012 C 
ATOM      3  C   UNL     1       1.499   7.559  29.275  1.00  0.00    -0.019 C 
ATOM      4  C   UNL     1       2.368   6.376  28.943  1.00  0.00     0.036 C 
ATOM      5  C   UNL     1       1.900   5.114  29.695  1.00  0.00     0.025 C 
ATOM      6  C   UNL     1       1.839   5.388  31.210  1.00  0.00     0.089 C 
ATOM      7  C   UNL     1       1.029   6.624  31.491  1.00  0.00     0.158 C 
ATOM      8  O   UNL     1       0.465   6.746  32.613  1.00  0.00    -0.295 OA
ENDROOT
BRANCH   5   9
ATOM      9  C   UNL     1       2.776   3.911  29.376  1.00  0.00    -0.077 C 
ATOM     10  C   UNL     1       2.665   3.255  28.207  1.00  0.00     0.008 C 
ATOM     11  C   UNL     1       3.793   3.429  30.378  1.00  0.00     0.039 C 
ENDBRANCH   5   9
TORSDOF 1
ENDMDL
MODEL 9
REMARK VINA RESULT:    -4.376      7.355      8.786
REMARK INTER + INTRA:          -4.728
REMARK INTER:                  -4.631
REMARK INTRA:                  -0.097
REMARK UNBOUND:                -0.096
REMARK SMILES C=C(C)[C@@H]1CC=C(C)C(=O)C1
REMARK SMILES IDX 8 1 7 2 6 3 5 4 4 5 11 6 9 7 10 8 2 9 1 10 3 11
REMARK H PARENT
REMARK Flexibility Score: inf
ROOT
ATOM      1  C   UNL     1       1.122   6.021  31.844  1.00  0.00     0.048 C 
ATOM      2  C   UNL     1       1.912   5.150  30.908  1.00  0.00    -0.012 C 
ATOM      3  C   UNL     1       2.808   4.277  31.402  1.00  0.00    -0.019 C 
ATOM      4  C   UNL     1       3.612   3.368  30.511  1.00  0.00     0.036 C 
ATOM      5  C   UNL     1       3.912   4.041  29.157  1.00  0.00     0.025 C 
ATOM      6  C   UNL     1       2.604   4.504  28.490  1.00  0.00     0.089 C 
ATOM      7  C   UNL     1       1.792   5.341  29.441  1.00  0.00     0.158 C 
ATOM      8  O   UNL     1       0.979   6.184  28.975  1.00  0.00    -0.295 OA
ENDROOT
BRANCH   5   9
ATOM      9  C   UNL     1       4.717   3.129  28.242  1.00  0.00    -0.077 C 
ATOM     10  C   UNL     1       4.479   3.078  26.919  1.00  0.00     0.008 C 
ATOM     11  C   UNL     1       5.807   2.258  28.811  1.00  0.00     0.039 C 
ENDBRANCH   5   9
TORSDOF 1
ENDMDL
