MODEL 1
REMARK VINA RESULT:    -3.421      0.000      0.000
REMARK INTER + INTRA:          -3.756
REMARK INTER:                  -3.721
REMARK INTRA:                  -0.035
REMARK UNBOUND:                -0.035
REMARK SMILES COc1ccccc1O
REMARK SMILES IDX 3 1 4 2 5 3 6 4 7 5 8 6 2 7 1 8 9 9
REMARK H PARENT 9 10
REMARK Flexibility Score: inf
ROOT
ATOM      1  C   UNL     1     -19.329 -29.980 -19.661  1.00  0.00     0.160 A 
ATOM      2  C   UNL     1     -19.782 -30.839 -20.683  1.00  0.00     0.050 A 
ATOM      3  C   UNL     1     -20.902 -31.651 -20.477  1.00  0.00     0.004 A 
ATOM      4  C   UNL     1     -21.579 -31.614 -19.257  1.00  0.00     0.004 A 
ATOM      5  C   UNL     1     -21.138 -30.766 -18.239  1.00  0.00     0.050 A 
ATOM      6  C   UNL     1     -20.015 -29.949 -18.437  1.00  0.00     0.157 A 
ENDROOT
BRANCH   1   7
ATOM      7  O   UNL     1     -18.210 -29.149 -19.824  1.00  0.00    -0.493 OA
ATOM      8  C   UNL     1     -16.866 -29.550 -19.578  1.00  0.00     0.278 C 
ENDBRANCH   1   7
BRANCH   6   9
ATOM      9  O   UNL     1     -19.575 -29.102 -17.422  1.00  0.00    -0.504 OA
ATOM     10  H   UNL     1     -18.686 -29.248 -16.958  1.00  0.00     0.293 HD
ENDBRANCH   6   9
TORSDOF 2
ENDMDL
MODEL 2
REMARK VINA RESULT:    -3.362      1.297      3.114
REMARK INTER + INTRA:          -3.692
REMARK INTER:                  -3.646
REMARK INTRA:                  -0.046
REMARK UNBOUND:                -0.035
REMARK SMILES COc1ccccc1O
REMARK SMILES IDX 3 1 4 2 5 3 6 4 7 5 8 6 2 7 1 8 9 9
REMARK H PARENT 9 10
REMARK Flexibility Score: inf
ROOT
ATOM      1  C   UNL     1     -20.133 -30.345 -19.463  1.00  0.00     0.160 A 
ATOM      2  C   UNL     1     -19.791 -30.820 -20.745  1.00  0.00     0.050 A 
ATOM      3  C   UNL     1     -18.520 -30.573 -21.273  1.00  0.00     0.004 A 
ATOM      4  C   UNL     1     -17.582 -29.853 -20.531  1.00  0.00     0.004 A 
ATOM      5  C   UNL     1     -17.911 -29.378 -19.260  1.00  0.00     0.050 A 
ATOM      6  C   UNL     1     -19.184 -29.621 -18.723  1.00  0.00     0.157 A 
ENDROOT
BRANCH   1   7
ATOM      7  O   UNL     1     -21.397 -30.570 -18.894  1.00  0.00    -0.493 OA
ATOM      8  C   UNL     1     -21.794 -31.786 -18.270  1.00  0.00     0.278 C 
ENDBRANCH   1   7
BRANCH   6   9
ATOM      9  O   UNL     1     -19.514 -29.149 -17.454  1.00  0.00    -0.504 OA
ATOM     10  H   UNL     1     -20.478 -28.996 -17.180  1.00  0.00     0.293 HD
ENDBRANCH   6   9
TORSDOF 2
ENDMDL
MODEL 3
REMARK VINA RESULT:    -3.362     16.481     17.520
REMARK INTER + INTRA:          -3.692
REMARK INTER:                  -3.646
REMARK INTRA:                  -0.045
REMARK UNBOUND:                -0.035
REMARK SMILES COc1ccccc1O
REMARK SMILES IDX 3 1 4 2 5 3 6 4 7 5 8 6 2 7 1 8 9 9
REMARK H PARENT 9 10
REMARK Flexibility Score: inf
ROOT
ATOM      1  C   UNL     1      -6.133 -40.436 -13.214  1.00  0.00     0.160 A 
ATOM      2  C   UNL     1      -6.851 -41.634 -13.409  1.00  0.00     0.050 A 
ATOM      3  C   UNL     1      -8.226 -41.680 -13.157  1.00  0.00     0.004 A 
ATOM      4  C   UNL     1      -8.895 -40.539 -12.712  1.00  0.00     0.004 A 
ATOM      5  C   UNL     1      -8.192 -39.348 -12.516  1.00  0.00     0.050 A 
ATOM      6  C   UNL     1      -6.813 -39.293 -12.766  1.00  0.00     0.157 A 
ENDROOT
BRANCH   1   7
ATOM      7  O   UNL     1      -4.753 -40.345 -13.454  1.00  0.00    -0.493 OA
ATOM      8  C   UNL     1      -4.156 -40.373 -14.746  1.00  0.00     0.278 C 
ENDBRANCH   1   7
BRANCH   6   9
ATOM      9  O   UNL     1      -6.110 -38.105 -12.572  1.00  0.00    -0.504 OA
ATOM     10  H   UNL     1      -6.339 -37.472 -11.815  1.00  0.00     0.293 HD
ENDBRANCH   6   9
TORSDOF 2
ENDMDL
MODEL 4
REMARK VINA RESULT:    -3.347     17.275     18.243
REMARK INTER + INTRA:          -3.675
REMARK INTER:                  -3.630
REMARK INTRA:                  -0.045
REMARK UNBOUND:                -0.035
REMARK SMILES COc1ccccc1O
REMARK SMILES IDX 3 1 4 2 5 3 6 4 7 5 8 6 2 7 1 8 9 9
REMARK H PARENT 9 10
REMARK Flexibility Score: inf
ROOT
ATOM      1  C   UNL     1      -3.717 -38.686 -19.787  1.00  0.00     0.160 A 
ATOM      2  C   UNL     1      -2.973 -37.745 -19.046  1.00  0.00     0.050 A 
ATOM      3  C   UNL     1      -2.833 -36.434 -19.510  1.00  0.00     0.004 A 
ATOM      4  C   UNL     1      -3.430 -36.048 -20.711  1.00  0.00     0.004 A 
ATOM      5  C   UNL     1      -4.169 -36.973 -21.453  1.00  0.00     0.050 A 
ATOM      6  C   UNL     1      -4.314 -38.291 -20.995  1.00  0.00     0.157 A 
ENDROOT
BRANCH   1   7
ATOM      7  O   UNL     1      -3.883 -40.012 -19.359  1.00  0.00    -0.493 OA
ATOM      8  C   UNL     1      -2.920 -41.045 -19.543  1.00  0.00     0.278 C 
ENDBRANCH   1   7
BRANCH   6   9
ATOM      9  O   UNL     1      -5.052 -39.214 -21.733  1.00  0.00    -0.504 OA
ATOM     10  H   UNL     1      -5.762 -38.919 -22.393  1.00  0.00     0.293 HD
ENDBRANCH   6   9
TORSDOF 2
ENDMDL
MODEL 5
REMARK VINA RESULT:    -3.335     16.198     17.033
REMARK INTER + INTRA:          -3.662
REMARK INTER:                  -3.617
REMARK INTRA:                  -0.045
REMARK UNBOUND:                -0.035
REMARK SMILES COc1ccccc1O
REMARK SMILES IDX 3 1 4 2 5 3 6 4 7 5 8 6 2 7 1 8 9 9
REMARK H PARENT 9 10
REMARK Flexibility Score: inf
ROOT
ATOM      1  C   UNL     1      -7.438 -40.700 -12.588  1.00  0.00     0.160 A 
ATOM      2  C   UNL     1      -7.725 -42.032 -12.953  1.00  0.00     0.050 A 
ATOM      3  C   UNL     1      -9.028 -42.401 -13.302  1.00  0.00     0.004 A 
ATOM      4  C   UNL     1     -10.051 -41.452 -13.292  1.00  0.00     0.004 A 
ATOM      5  C   UNL     1      -9.776 -40.131 -12.933  1.00  0.00     0.050 A 
ATOM      6  C   UNL     1      -8.473 -39.752 -12.580  1.00  0.00     0.157 A 
ENDROOT
BRANCH   1   7
ATOM      7  O   UNL     1      -6.145 -40.286 -12.230  1.00  0.00    -0.493 OA
ATOM      8  C   UNL     1      -5.565 -40.477 -10.944  1.00  0.00     0.278 C 
ENDBRANCH   1   7
BRANCH   6   9
ATOM      9  O   UNL     1      -8.197 -38.434 -12.223  1.00  0.00    -0.504 OA
ATOM     10  H   UNL     1      -7.748 -37.793 -12.867  1.00  0.00     0.293 HD
ENDBRANCH   6   9
TORSDOF 2
ENDMDL
MODEL 6
REMARK VINA RESULT:    -3.307     16.874     18.045
REMARK INTER + INTRA:          -3.632
REMARK INTER:                  -3.592
REMARK INTRA:                  -0.040
REMARK UNBOUND:                -0.035
REMARK SMILES COc1ccccc1O
REMARK SMILES IDX 3 1 4 2 5 3 6 4 7 5 8 6 2 7 1 8 9 9
REMARK H PARENT 9 10
REMARK Flexibility Score: inf
ROOT
ATOM      1  C   UNL     1      -5.935 -39.049 -12.905  1.00  0.00     0.160 A 
ATOM      2  C   UNL     1      -7.284 -39.457 -12.863  1.00  0.00     0.050 A 
ATOM      3  C   UNL     1      -7.726 -40.327 -11.862  1.00  0.00     0.004 A 
ATOM      4  C   UNL     1      -6.834 -40.797 -10.897  1.00  0.00     0.004 A 
ATOM      5  C   UNL     1      -5.496 -40.398 -10.930  1.00  0.00     0.050 A 
ATOM      6  C   UNL     1      -5.043 -39.526 -11.931  1.00  0.00     0.157 A 
ENDROOT
BRANCH   1   7
ATOM      7  O   UNL     1      -5.448 -38.178 -13.891  1.00  0.00    -0.493 OA
ATOM      8  C   UNL     1      -5.509 -38.430 -15.291  1.00  0.00     0.278 C 
ENDBRANCH   1   7
BRANCH   6   9
ATOM      9  O   UNL     1      -3.709 -39.127 -11.965  1.00  0.00    -0.504 OA
ATOM     10  H   UNL     1      -3.448 -38.148 -11.933  1.00  0.00     0.293 HD
ENDBRANCH   6   9
TORSDOF 2
ENDMDL
MODEL 7
REMARK VINA RESULT:    -3.197      1.651      2.971
REMARK INTER + INTRA:          -3.512
REMARK INTER:                  -3.474
REMARK INTRA:                  -0.038
REMARK UNBOUND:                -0.035
REMARK SMILES COc1ccccc1O
REMARK SMILES IDX 3 1 4 2 5 3 6 4 7 5 8 6 2 7 1 8 9 9
REMARK H PARENT 9 10
REMARK Flexibility Score: inf
ROOT
ATOM      1  C   UNL     1     -18.942 -30.531 -20.840  1.00  0.00     0.160 A 
ATOM      2  C   UNL     1     -19.950 -30.542 -19.854  1.00  0.00     0.050 A 
ATOM      3  C   UNL     1     -21.087 -31.339 -20.016  1.00  0.00     0.004 A 
ATOM      4  C   UNL     1     -21.230 -32.130 -21.157  1.00  0.00     0.004 A 
ATOM      5  C   UNL     1     -20.238 -32.126 -22.140  1.00  0.00     0.050 A 
ATOM      6  C   UNL     1     -19.094 -31.329 -21.985  1.00  0.00     0.157 A 
ENDROOT
BRANCH   1   7
ATOM      7  O   UNL     1     -17.785 -29.746 -20.719  1.00  0.00    -0.493 OA
ATOM      8  C   UNL     1     -16.900 -29.783 -19.604  1.00  0.00     0.278 C 
ENDBRANCH   1   7
BRANCH   6   9
ATOM      9  O   UNL     1     -18.102 -31.324 -22.964  1.00  0.00    -0.504 OA
ATOM     10  H   UNL     1     -18.154 -31.932 -23.773  1.00  0.00     0.293 HD
ENDBRANCH   6   9
TORSDOF 2
ENDMDL
MODEL 8
REMARK VINA RESULT:    -3.189     16.296     17.579
REMARK INTER + INTRA:          -3.504
REMARK INTER:                  -3.458
REMARK INTRA:                  -0.046
REMARK UNBOUND:                -0.035
REMARK SMILES COc1ccccc1O
REMARK SMILES IDX 3 1 4 2 5 3 6 4 7 5 8 6 2 7 1 8 9 9
REMARK H PARENT 9 10
REMARK Flexibility Score: inf
ROOT
ATOM      1  C   UNL     1      -7.516 -40.739 -12.801  1.00  0.00     0.160 A 
ATOM      2  C   UNL     1      -6.611 -41.674 -13.344  1.00  0.00     0.050 A 
ATOM      3  C   UNL     1      -5.354 -41.258 -13.796  1.00  0.00     0.004 A 
ATOM      4  C   UNL     1      -4.989 -39.914 -13.711  1.00  0.00     0.004 A 
ATOM      5  C   UNL     1      -5.879 -38.981 -13.175  1.00  0.00     0.050 A 
ATOM      6  C   UNL     1      -7.141 -39.389 -12.720  1.00  0.00     0.157 A 
ENDROOT
BRANCH   1   7
ATOM      7  O   UNL     1      -8.787 -41.112 -12.336  1.00  0.00    -0.493 OA
ATOM      8  C   UNL     1      -9.891 -41.428 -13.176  1.00  0.00     0.278 C 
ENDBRANCH   1   7
BRANCH   6   9
ATOM      9  O   UNL     1      -8.029 -38.459 -12.184  1.00  0.00    -0.504 OA
ATOM     10  H   UNL     1      -8.295 -37.624 -12.694  1.00  0.00     0.293 HD
ENDBRANCH   6   9
TORSDOF 2
ENDMDL
MODEL 9
REMARK VINA RESULT:    -3.183     16.436     17.783
REMARK INTER + INTRA:          -3.497
REMARK INTER:                  -3.470
REMARK INTRA:                  -0.027
REMARK UNBOUND:                -0.035
REMARK SMILES COc1ccccc1O
REMARK SMILES IDX 3 1 4 2 5 3 6 4 7 5 8 6 2 7 1 8 9 9
REMARK H PARENT 9 10
REMARK Flexibility Score: inf
ROOT
ATOM      1  C   UNL     1      -5.140 -38.476 -14.805  1.00  0.00     0.160 A 
ATOM      2  C   UNL     1      -3.935 -38.823 -14.160  1.00  0.00     0.050 A 
ATOM      3  C   UNL     1      -2.768 -38.094 -14.407  1.00  0.00     0.004 A 
ATOM      4  C   UNL     1      -2.789 -37.016 -15.294  1.00  0.00     0.004 A 
ATOM      5  C   UNL     1      -3.978 -36.665 -15.938  1.00  0.00     0.050 A 
ATOM      6  C   UNL     1      -5.153 -37.391 -15.696  1.00  0.00     0.157 A 
ENDROOT
BRANCH   1   7
ATOM      7  O   UNL     1      -6.334 -39.180 -14.588  1.00  0.00    -0.493 OA
ATOM      8  C   UNL     1      -6.420 -40.436 -13.922  1.00  0.00     0.278 C 
ENDBRANCH   1   7
BRANCH   6   9
ATOM      9  O   UNL     1      -6.340 -37.041 -16.337  1.00  0.00    -0.504 OA
ATOM     10  H   UNL     1      -6.338 -36.539 -17.218  1.00  0.00     0.293 HD
ENDBRANCH   6   9
TORSDOF 2
ENDMDL
