MODEL 1
REMARK VINA RESULT:    -4.732      0.000      0.000
REMARK INTER + INTRA:          -8.783
REMARK INTER:                  -6.946
REMARK INTRA:                  -1.837
REMARK UNBOUND:                -1.837
REMARK SMILES O=c1c(O[C@H]2O[C@@H](CO)[C@@H](O)[C@H](O)[C@H]2O)c(-c2ccc(O)c(O)c2)oc2cc(O)cc(O)c12
REMARK SMILES IDX 4 1 3 2 16 3 25 4 2 5 26 6 1 7 33 8 27 9 31 10 28 11 30 12
REMARK SMILES IDX 17 13 18 14 19 15 20 16 24 17 22 18 21 19 23 21 32 23 29 25
REMARK SMILES IDX 5 27 14 28 6 29 12 30 7 31 10 32 15 33 13 35 8 37 9 38 11 40
REMARK H PARENT 21 20 23 22 32 24 29 26 15 34 13 36 9 39 11 41
REMARK Flexibility Score: inf
ROOT
ATOM      1  O   UNL     1      18.339   0.022  12.201  1.00  0.00    -0.454 OA
ENDROOT
BRANCH   1   2
ATOM      2  C   UNL     1      17.953   1.339  12.503  1.00  0.00     0.214 A 
ATOM      3  C   UNL     1      18.583   2.055  13.539  1.00  0.00     0.180 A 
ATOM      4  O   UNL     1      18.181   3.287  13.829  1.00  0.00    -0.452 OA
ATOM      5  C   UNL     1      16.901   1.952  11.809  1.00  0.00     0.239 A 
ATOM      6  C   UNL     1      17.203   3.910  13.186  1.00  0.00     0.146 A 
ATOM      7  O   UNL     1      16.370   1.334  10.855  1.00  0.00    -0.285 OA
ATOM      8  C   UNL     1      16.485   3.259  12.155  1.00  0.00     0.111 A 
ATOM      9  C   UNL     1      16.915   5.232  13.533  1.00  0.00     0.094 A 
ATOM     10  C   UNL     1      15.433   3.978  11.503  1.00  0.00     0.134 A 
ATOM     11  C   UNL     1      15.927   5.943  12.857  1.00  0.00     0.123 A 
ATOM     12  C   UNL     1      15.190   5.314  11.847  1.00  0.00     0.093 A 
BRANCH   3  13
ATOM     13  C   UNL     1      19.686   1.491  14.348  1.00  0.00     0.025 A 
ATOM     14  C   UNL     1      21.010   1.697  13.934  1.00  0.00     0.016 A 
ATOM     15  C   UNL     1      22.074   1.169  14.671  1.00  0.00     0.051 A 
ATOM     16  C   UNL     1      21.832   0.397  15.811  1.00  0.00     0.157 A 
ATOM     17  C   UNL     1      19.437   0.701  15.480  1.00  0.00     0.062 A 
ATOM     18  C   UNL     1      20.498   0.160  16.221  1.00  0.00     0.158 A 
BRANCH  16  19
ATOM     19  O   UNL     1      22.936  -0.103  16.505  1.00  0.00    -0.504 OA
ATOM     20  H   UNL     1      23.436  -0.942  16.249  1.00  0.00     0.293 HD
ENDBRANCH  16  19
BRANCH  18  21
ATOM     21  O   UNL     1      20.183  -0.584  17.367  1.00  0.00    -0.504 OA
ATOM     22  H   UNL     1      20.333  -1.583  17.452  1.00  0.00     0.293 HD
ENDBRANCH  18  21
ENDBRANCH   3  13
BRANCH  10  23
ATOM     23  O   UNL     1      14.591   3.423  10.536  1.00  0.00    -0.507 OA
ATOM     24  H   UNL     1      13.774   2.858  10.730  1.00  0.00     0.293 HD
ENDBRANCH  10  23
BRANCH  11  25
ATOM     25  O   UNL     1      15.676   7.270  13.197  1.00  0.00    -0.508 OA
ATOM     26  H   UNL     1      15.041   7.515  13.953  1.00  0.00     0.293 HD
ENDBRANCH  11  25
ENDBRANCH   1   2
BRANCH   1  27
ATOM     27  C   UNL     1      19.089  -0.286  11.025  1.00  0.00     0.339 C 
ATOM     28  C   UNL     1      18.420  -1.400  10.184  1.00  0.00     0.214 C 
ATOM     29  O   UNL     1      20.468  -0.503  11.331  1.00  0.00    -0.332 OA
ATOM     30  C   UNL     1      18.645  -2.773  10.817  1.00  0.00     0.180 C 
ATOM     31  C   UNL     1      20.822  -1.831  11.725  1.00  0.00     0.179 C 
ATOM     32  C   UNL     1      20.166  -2.971  10.900  1.00  0.00     0.177 C 
BRANCH  28  33
ATOM     33  O   UNL     1      17.037  -1.164  10.071  1.00  0.00    -0.384 OA
ATOM     34  H   UNL     1      16.807  -1.123   9.109  1.00  0.00     0.211 HD
ENDBRANCH  28  33
BRANCH  30  35
ATOM     35  O   UNL     1      17.981  -3.754  10.050  1.00  0.00    -0.387 OA
ATOM     36  H   UNL     1      17.021  -3.770  10.317  1.00  0.00     0.211 HD
ENDBRANCH  30  35
BRANCH  31  37
ATOM     37  C   UNL     1      20.785  -2.024  13.255  1.00  0.00     0.191 C 
BRANCH  37  38
ATOM     38  O   UNL     1      19.489  -2.302  13.709  1.00  0.00    -0.394 OA
ATOM     39  H   UNL     1      18.976  -1.452  13.640  1.00  0.00     0.210 HD
ENDBRANCH  37  38
ENDBRANCH  31  37
BRANCH  32  40
ATOM     40  O   UNL     1      20.481  -4.231  11.458  1.00  0.00    -0.387 OA
ATOM     41  H   UNL     1      21.336  -4.528  11.050  1.00  0.00     0.211 HD
ENDBRANCH  32  40
ENDBRANCH   1  27
TORSDOF 12
ENDMDL
MODEL 2
REMARK VINA RESULT:    -4.256      2.955      7.653
REMARK INTER + INTRA:          -8.084
REMARK INTER:                  -6.413
REMARK INTRA:                  -1.671
REMARK UNBOUND:                -1.837
REMARK SMILES O=c1c(O[C@H]2O[C@@H](CO)[C@@H](O)[C@H](O)[C@H]2O)c(-c2ccc(O)c(O)c2)oc2cc(O)cc(O)c12
REMARK SMILES IDX 4 1 3 2 16 3 25 4 2 5 26 6 1 7 33 8 27 9 31 10 28 11 30 12
REMARK SMILES IDX 17 13 18 14 19 15 20 16 24 17 22 18 21 19 23 21 32 23 29 25
REMARK SMILES IDX 5 27 14 28 6 29 12 30 7 31 10 32 15 33 13 35 8 37 9 38 11 40
REMARK H PARENT 21 20 23 22 32 24 29 26 15 34 13 36 9 39 11 41
REMARK Flexibility Score: inf
ROOT
ATOM      1  O   UNL     1      20.075   2.014  11.068  1.00  0.00    -0.454 OA
ENDROOT
BRANCH   1   2
ATOM      2  C   UNL     1      19.759   0.655  10.897  1.00  0.00     0.214 A 
ATOM      3  C   UNL     1      18.439   0.195  11.072  1.00  0.00     0.180 A 
ATOM      4  O   UNL     1      18.168  -1.097  10.937  1.00  0.00    -0.452 OA
ATOM      5  C   UNL     1      20.759  -0.278  10.593  1.00  0.00     0.239 A 
ATOM      6  C   UNL     1      19.081  -2.011  10.633  1.00  0.00     0.146 A 
ATOM      7  O   UNL     1      21.926   0.137  10.390  1.00  0.00    -0.285 OA
ATOM      8  C   UNL     1      20.441  -1.650  10.475  1.00  0.00     0.111 A 
ATOM      9  C   UNL     1      18.665  -3.331  10.448  1.00  0.00     0.094 A 
ATOM     10  C   UNL     1      21.382  -2.681  10.156  1.00  0.00     0.134 A 
ATOM     11  C   UNL     1      19.579  -4.317  10.085  1.00  0.00     0.123 A 
ATOM     12  C   UNL     1      20.931  -3.990   9.942  1.00  0.00     0.093 A 
BRANCH   3  13
ATOM     13  C   UNL     1      17.316   1.094  11.417  1.00  0.00     0.025 A 
ATOM     14  C   UNL     1      16.620   1.742  10.387  1.00  0.00     0.016 A 
ATOM     15  C   UNL     1      15.559   2.605  10.680  1.00  0.00     0.051 A 
ATOM     16  C   UNL     1      15.202   2.862  12.007  1.00  0.00     0.157 A 
ATOM     17  C   UNL     1      16.973   1.363  12.751  1.00  0.00     0.062 A 
ATOM     18  C   UNL     1      15.916   2.233  13.055  1.00  0.00     0.158 A 
BRANCH  16  19
ATOM     19  O   UNL     1      14.134   3.732  12.237  1.00  0.00    -0.504 OA
ATOM     20  H   UNL     1      13.174   3.436  12.349  1.00  0.00     0.293 HD
ENDBRANCH  16  19
BRANCH  18  21
ATOM     21  O   UNL     1      15.597   2.426  14.406  1.00  0.00    -0.504 OA
ATOM     22  H   UNL     1      16.286   2.509  15.145  1.00  0.00     0.293 HD
ENDBRANCH  18  21
ENDBRANCH   3  13
BRANCH  10  23
ATOM     23  O   UNL     1      22.761  -2.476  10.062  1.00  0.00    -0.507 OA
ATOM     24  H   UNL     1      23.406  -2.487  10.843  1.00  0.00     0.293 HD
ENDBRANCH  10  23
BRANCH  11  25
ATOM     25  O   UNL     1      19.139  -5.623   9.875  1.00  0.00    -0.508 OA
ATOM     26  H   UNL     1      18.736  -5.912   8.988  1.00  0.00     0.293 HD
ENDBRANCH  11  25
ENDBRANCH   1   2
BRANCH   1  27
ATOM     27  C   UNL     1      20.119   2.916   9.961  1.00  0.00     0.339 C 
ATOM     28  C   UNL     1      21.438   3.725   9.922  1.00  0.00     0.214 C 
ATOM     29  O   UNL     1      18.925   3.699   9.881  1.00  0.00    -0.332 OA
ATOM     30  C   UNL     1      21.426   4.840  10.967  1.00  0.00     0.180 C 
ATOM     31  C   UNL     1      18.905   4.895  10.665  1.00  0.00     0.179 C 
ATOM     32  C   UNL     1      20.215   5.728  10.646  1.00  0.00     0.177 C 
BRANCH  28  33
ATOM     33  O   UNL     1      22.537   2.880  10.160  1.00  0.00    -0.384 OA
ATOM     34  H   UNL     1      22.296   2.253  10.888  1.00  0.00     0.211 HD
ENDBRANCH  28  33
BRANCH  30  35
ATOM     35  O   UNL     1      22.662   5.522  10.935  1.00  0.00    -0.387 OA
ATOM     36  H   UNL     1      22.912   5.771  11.867  1.00  0.00     0.211 HD
ENDBRANCH  30  35
BRANCH  31  37
ATOM     37  C   UNL     1      18.286   4.678  12.060  1.00  0.00     0.191 C 
BRANCH  37  38
ATOM     38  O   UNL     1      17.407   5.714  12.403  1.00  0.00    -0.394 OA
ATOM     39  H   UNL     1      16.702   5.309  12.976  1.00  0.00     0.210 HD
ENDBRANCH  37  38
ENDBRANCH  31  37
BRANCH  32  40
ATOM     40  O   UNL     1      20.128   6.809  11.552  1.00  0.00    -0.387 OA
ATOM     41  H   UNL     1      19.171   6.911  11.797  1.00  0.00     0.211 HD
ENDBRANCH  32  40
ENDBRANCH   1  27
TORSDOF 12
ENDMDL
MODEL 3
REMARK VINA RESULT:    -3.988      3.096      7.206
REMARK INTER + INTRA:          -7.691
REMARK INTER:                  -6.241
REMARK INTRA:                  -1.450
REMARK UNBOUND:                -1.837
REMARK SMILES O=c1c(O[C@H]2O[C@@H](CO)[C@@H](O)[C@H](O)[C@H]2O)c(-c2ccc(O)c(O)c2)oc2cc(O)cc(O)c12
REMARK SMILES IDX 4 1 3 2 16 3 25 4 2 5 26 6 1 7 33 8 27 9 31 10 28 11 30 12
REMARK SMILES IDX 17 13 18 14 19 15 20 16 24 17 22 18 21 19 23 21 32 23 29 25
REMARK SMILES IDX 5 27 14 28 6 29 12 30 7 31 10 32 15 33 13 35 8 37 9 38 11 40
REMARK H PARENT 21 20 23 22 32 24 29 26 15 34 13 36 9 39 11 41
REMARK Flexibility Score: inf
ROOT
ATOM      1  O   UNL     1      19.890  -2.654  14.955  1.00  0.00    -0.454 OA
ENDROOT
BRANCH   1   2
ATOM      2  C   UNL     1      20.358  -2.343  16.244  1.00  0.00     0.214 A 
ATOM      3  C   UNL     1      20.597  -1.008  16.622  1.00  0.00     0.180 A 
ATOM      4  O   UNL     1      21.069  -0.739  17.832  1.00  0.00    -0.452 OA
ATOM      5  C   UNL     1      20.640  -3.361  17.165  1.00  0.00     0.239 A 
ATOM      6  C   UNL     1      21.332  -1.670  18.741  1.00  0.00     0.146 A 
ATOM      7  O   UNL     1      20.383  -4.547  16.848  1.00  0.00    -0.285 OA
ATOM      8  C   UNL     1      21.159  -3.042  18.442  1.00  0.00     0.111 A 
ATOM      9  C   UNL     1      21.759  -1.262  20.006  1.00  0.00     0.094 A 
ATOM     10  C   UNL     1      21.469  -4.001  19.458  1.00  0.00     0.134 A 
ATOM     11  C   UNL     1      22.005  -2.199  21.007  1.00  0.00     0.123 A 
ATOM     12  C   UNL     1      21.861  -3.563  20.729  1.00  0.00     0.093 A 
BRANCH   3  13
ATOM     13  C   UNL     1      20.355   0.136  15.716  1.00  0.00     0.025 A 
ATOM     14  C   UNL     1      21.426   0.661  14.978  1.00  0.00     0.016 A 
ATOM     15  C   UNL     1      21.233   1.748  14.120  1.00  0.00     0.051 A 
ATOM     16  C   UNL     1      19.976   2.350  14.014  1.00  0.00     0.157 A 
ATOM     17  C   UNL     1      19.096   0.750  15.627  1.00  0.00     0.062 A 
ATOM     18  C   UNL     1      18.895   1.846  14.775  1.00  0.00     0.158 A 
BRANCH  16  19
ATOM     19  O   UNL     1      19.845   3.432  13.140  1.00  0.00    -0.504 OA
ATOM     20  H   UNL     1      20.567   4.118  12.972  1.00  0.00     0.293 HD
ENDBRANCH  16  19
BRANCH  18  21
ATOM     21  O   UNL     1      17.603   2.386  14.699  1.00  0.00    -0.504 OA
ATOM     22  H   UNL     1      16.778   1.938  15.081  1.00  0.00     0.293 HD
ENDBRANCH  18  21
ENDBRANCH   3  13
BRANCH  10  23
ATOM     23  O   UNL     1      21.429  -5.385  19.264  1.00  0.00    -0.507 OA
ATOM     24  H   UNL     1      22.205  -6.017  19.417  1.00  0.00     0.293 HD
ENDBRANCH  10  23
BRANCH  11  25
ATOM     25  O   UNL     1      22.400  -1.770  22.272  1.00  0.00    -0.508 OA
ATOM     26  H   UNL     1      22.841  -0.865  22.414  1.00  0.00     0.293 HD
ENDBRANCH  11  25
ENDBRANCH   1   2
BRANCH   1  27
ATOM     27  C   UNL     1      20.789  -2.895  13.871  1.00  0.00     0.339 C 
ATOM     28  C   UNL     1      20.223  -2.389  12.523  1.00  0.00     0.214 C 
ATOM     29  O   UNL     1      21.246  -4.250  13.867  1.00  0.00    -0.332 OA
ATOM     30  C   UNL     1      19.153  -3.340  11.987  1.00  0.00     0.180 C 
ATOM     31  C   UNL     1      20.410  -5.192  13.190  1.00  0.00     0.179 C 
ATOM     32  C   UNL     1      19.826  -4.712  11.833  1.00  0.00     0.177 C 
BRANCH  28  33
ATOM     33  O   UNL     1      19.666  -1.106  12.677  1.00  0.00    -0.384 OA
ATOM     34  H   UNL     1      20.265  -0.452  12.234  1.00  0.00     0.211 HD
ENDBRANCH  28  33
BRANCH  30  35
ATOM     35  O   UNL     1      18.628  -2.821  10.785  1.00  0.00    -0.387 OA
ATOM     36  H   UNL     1      19.150  -3.194  10.023  1.00  0.00     0.211 HD
ENDBRANCH  30  35
BRANCH  31  37
ATOM     37  C   UNL     1      19.400  -5.873  14.134  1.00  0.00     0.191 C 
BRANCH  37  38
ATOM     38  O   UNL     1      20.033  -6.757  15.017  1.00  0.00    -0.394 OA
ATOM     39  H   UNL     1      20.007  -6.328  15.914  1.00  0.00     0.210 HD
ENDBRANCH  37  38
ENDBRANCH  31  37
BRANCH  32  40
ATOM     40  O   UNL     1      18.917  -5.665  11.320  1.00  0.00    -0.387 OA
ATOM     41  H   UNL     1      18.213  -5.800  12.008  1.00  0.00     0.211 HD
ENDBRANCH  32  40
ENDBRANCH   1  27
TORSDOF 12
ENDMDL
MODEL 4
REMARK VINA RESULT:    -3.954      1.907      5.127
REMARK INTER + INTRA:          -7.641
REMARK INTER:                  -5.805
REMARK INTRA:                  -1.836
REMARK UNBOUND:                -1.837
REMARK SMILES O=c1c(O[C@H]2O[C@@H](CO)[C@@H](O)[C@H](O)[C@H]2O)c(-c2ccc(O)c(O)c2)oc2cc(O)cc(O)c12
REMARK SMILES IDX 4 1 3 2 16 3 25 4 2 5 26 6 1 7 33 8 27 9 31 10 28 11 30 12
REMARK SMILES IDX 17 13 18 14 19 15 20 16 24 17 22 18 21 19 23 21 32 23 29 25
REMARK SMILES IDX 5 27 14 28 6 29 12 30 7 31 10 32 15 33 13 35 8 37 9 38 11 40
REMARK H PARENT 21 20 23 22 32 24 29 26 15 34 13 36 9 39 11 41
REMARK Flexibility Score: inf
ROOT
ATOM      1  O   UNL     1      20.106  -0.632  14.735  1.00  0.00    -0.454 OA
ENDROOT
BRANCH   1   2
ATOM      2  C   UNL     1      19.151   0.076  13.984  1.00  0.00     0.214 A 
ATOM      3  C   UNL     1      18.901  -0.257  12.639  1.00  0.00     0.180 A 
ATOM      4  O   UNL     1      18.018   0.444  11.939  1.00  0.00    -0.452 OA
ATOM      5  C   UNL     1      18.459   1.157  14.547  1.00  0.00     0.239 A 
ATOM      6  C   UNL     1      17.329   1.463  12.437  1.00  0.00     0.146 A 
ATOM      7  O   UNL     1      18.646   1.424  15.759  1.00  0.00    -0.285 OA
ATOM      8  C   UNL     1      17.538   1.896  13.769  1.00  0.00     0.111 A 
ATOM      9  C   UNL     1      16.376   2.081  11.626  1.00  0.00     0.094 A 
ATOM     10  C   UNL     1      16.773   3.006  14.248  1.00  0.00     0.134 A 
ATOM     11  C   UNL     1      15.597   3.126  12.118  1.00  0.00     0.123 A 
ATOM     12  C   UNL     1      15.798   3.584  13.424  1.00  0.00     0.093 A 
BRANCH   3  13
ATOM     13  C   UNL     1      19.594  -1.364  11.945  1.00  0.00     0.025 A 
ATOM     14  C   UNL     1      20.819  -1.111  11.312  1.00  0.00     0.016 A 
ATOM     15  C   UNL     1      21.496  -2.135  10.640  1.00  0.00     0.051 A 
ATOM     16  C   UNL     1      20.941  -3.415  10.559  1.00  0.00     0.157 A 
ATOM     17  C   UNL     1      19.025  -2.643  11.850  1.00  0.00     0.062 A 
ATOM     18  C   UNL     1      19.692  -3.674  11.171  1.00  0.00     0.158 A 
BRANCH  16  19
ATOM     19  O   UNL     1      21.664  -4.395   9.875  1.00  0.00    -0.504 OA
ATOM     20  H   UNL     1      22.556  -4.760  10.180  1.00  0.00     0.293 HD
ENDBRANCH  16  19
BRANCH  18  21
ATOM     21  O   UNL     1      19.090  -4.939  11.150  1.00  0.00    -0.504 OA
ATOM     22  H   UNL     1      19.527  -5.781  11.507  1.00  0.00     0.293 HD
ENDBRANCH  18  21
ENDBRANCH   3  13
BRANCH  10  23
ATOM     23  O   UNL     1      16.946   3.588  15.507  1.00  0.00    -0.507 OA
ATOM     24  H   UNL     1      17.063   3.078  16.374  1.00  0.00     0.293 HD
ENDBRANCH  10  23
BRANCH  11  25
ATOM     25  O   UNL     1      14.629   3.709  11.302  1.00  0.00    -0.508 OA
ATOM     26  H   UNL     1      14.575   4.717  11.178  1.00  0.00     0.293 HD
ENDBRANCH  11  25
ENDBRANCH   1   2
BRANCH   1  27
ATOM     27  C   UNL     1      19.721  -1.586  15.726  1.00  0.00     0.339 C 
ATOM     28  C   UNL     1      20.449  -1.352  17.071  1.00  0.00     0.214 C 
ATOM     29  O   UNL     1      19.797  -2.921  15.219  1.00  0.00    -0.332 OA
ATOM     30  C   UNL     1      21.893  -1.846  17.005  1.00  0.00     0.180 C 
ATOM     31  C   UNL     1      21.074  -3.557  15.316  1.00  0.00     0.179 C 
ATOM     32  C   UNL     1      21.829  -3.340  16.655  1.00  0.00     0.177 C 
BRANCH  28  33
ATOM     33  O   UNL     1      20.442   0.016  17.400  1.00  0.00    -0.384 OA
ATOM     34  H   UNL     1      20.331   0.099  18.381  1.00  0.00     0.211 HD
ENDBRANCH  28  33
BRANCH  30  35
ATOM     35  O   UNL     1      22.537  -1.572  18.231  1.00  0.00    -0.387 OA
ATOM     36  H   UNL     1      21.843  -1.455  18.935  1.00  0.00     0.211 HD
ENDBRANCH  30  35
BRANCH  31  37
ATOM     37  C   UNL     1      21.926  -3.369  14.044  1.00  0.00     0.191 C 
BRANCH  37  38
ATOM     38  O   UNL     1      22.417  -4.590  13.566  1.00  0.00    -0.394 OA
ATOM     39  H   UNL     1      22.928  -5.002  14.314  1.00  0.00     0.210 HD
ENDBRANCH  37  38
ENDBRANCH  31  37
BRANCH  32  40
ATOM     40  O   UNL     1      23.125  -3.899  16.588  1.00  0.00    -0.387 OA
ATOM     41  H   UNL     1      23.582  -3.687  17.445  1.00  0.00     0.211 HD
ENDBRANCH  32  40
ENDBRANCH   1  27
TORSDOF 12
ENDMDL
MODEL 5
REMARK VINA RESULT:    -3.916      1.541      4.932
REMARK INTER + INTRA:          -7.584
REMARK INTER:                  -6.181
REMARK INTRA:                  -1.404
REMARK UNBOUND:                -1.837
REMARK SMILES O=c1c(O[C@H]2O[C@@H](CO)[C@@H](O)[C@H](O)[C@H]2O)c(-c2ccc(O)c(O)c2)oc2cc(O)cc(O)c12
REMARK SMILES IDX 4 1 3 2 16 3 25 4 2 5 26 6 1 7 33 8 27 9 31 10 28 11 30 12
REMARK SMILES IDX 17 13 18 14 19 15 20 16 24 17 22 18 21 19 23 21 32 23 29 25
REMARK SMILES IDX 5 27 14 28 6 29 12 30 7 31 10 32 15 33 13 35 8 37 9 38 11 40
REMARK H PARENT 21 20 23 22 32 24 29 26 15 34 13 36 9 39 11 41
REMARK Flexibility Score: inf
ROOT
ATOM      1  O   UNL     1      19.834   0.622  13.738  1.00  0.00    -0.454 OA
ENDROOT
BRANCH   1   2
ATOM      2  C   UNL     1      18.813   1.151  12.929  1.00  0.00     0.214 A 
ATOM      3  C   UNL     1      18.478   0.544  11.703  1.00  0.00     0.180 A 
ATOM      4  O   UNL     1      17.533   1.079  10.939  1.00  0.00    -0.452 OA
ATOM      5  C   UNL     1      18.138   2.320  13.305  1.00  0.00     0.239 A 
ATOM      6  C   UNL     1      16.858   2.173  11.265  1.00  0.00     0.146 A 
ATOM      7  O   UNL     1      18.401   2.834  14.419  1.00  0.00    -0.285 OA
ATOM      8  C   UNL     1      17.149   2.874  12.460  1.00  0.00     0.111 A 
ATOM      9  C   UNL     1      15.837   2.602  10.415  1.00  0.00     0.094 A 
ATOM     10  C   UNL     1      16.393   4.053  12.754  1.00  0.00     0.134 A 
ATOM     11  C   UNL     1      15.070   3.720  10.736  1.00  0.00     0.123 A 
ATOM     12  C   UNL     1      15.351   4.441  11.902  1.00  0.00     0.093 A 
BRANCH   3  13
ATOM     13  C   UNL     1      19.147  -0.677  11.204  1.00  0.00     0.025 A 
ATOM     14  C   UNL     1      18.448  -1.892  11.218  1.00  0.00     0.016 A 
ATOM     15  C   UNL     1      19.055  -3.067  10.762  1.00  0.00     0.051 A 
ATOM     16  C   UNL     1      20.381  -3.052  10.319  1.00  0.00     0.157 A 
ATOM     17  C   UNL     1      20.484  -0.661  10.779  1.00  0.00     0.062 A 
ATOM     18  C   UNL     1      21.104  -1.835  10.327  1.00  0.00     0.158 A 
BRANCH  16  19
ATOM     19  O   UNL     1      20.932  -4.255   9.875  1.00  0.00    -0.504 OA
ATOM     20  H   UNL     1      21.496  -4.868  10.447  1.00  0.00     0.293 HD
ENDBRANCH  16  19
BRANCH  18  21
ATOM     21  O   UNL     1      22.428  -1.743   9.875  1.00  0.00    -0.504 OA
ATOM     22  H   UNL     1      23.125  -1.130  10.283  1.00  0.00     0.293 HD
ENDBRANCH  18  21
ENDBRANCH   3  13
BRANCH  10  23
ATOM     23  O   UNL     1      16.640   4.885  13.850  1.00  0.00    -0.507 OA
ATOM     24  H   UNL     1      15.964   5.513  14.269  1.00  0.00     0.293 HD
ENDBRANCH  10  23
BRANCH  11  25
ATOM     25  O   UNL     1      14.035   4.114   9.890  1.00  0.00    -0.508 OA
ATOM     26  H   UNL     1      13.232   4.631  10.237  1.00  0.00     0.293 HD
ENDBRANCH  11  25
ENDBRANCH   1   2
BRANCH   1  27
ATOM     27  C   UNL     1      19.653  -0.590  14.473  1.00  0.00     0.339 C 
ATOM     28  C   UNL     1      19.501  -0.332  15.991  1.00  0.00     0.214 C 
ATOM     29  O   UNL     1      20.638  -1.564  14.119  1.00  0.00    -0.332 OA
ATOM     30  C   UNL     1      20.853  -0.020  16.631  1.00  0.00     0.180 C 
ATOM     31  C   UNL     1      21.876  -1.491  14.830  1.00  0.00     0.179 C 
ATOM     32  C   UNL     1      21.756  -1.232  16.357  1.00  0.00     0.177 C 
BRANCH  28  33
ATOM     33  O   UNL     1      18.622   0.744  16.219  1.00  0.00    -0.384 OA
ATOM     34  H   UNL     1      19.115   1.588  16.054  1.00  0.00     0.211 HD
ENDBRANCH  28  33
BRANCH  30  35
ATOM     35  O   UNL     1      20.667   0.257  18.002  1.00  0.00    -0.387 OA
ATOM     36  H   UNL     1      21.215  -0.384  18.534  1.00  0.00     0.211 HD
ENDBRANCH  30  35
BRANCH  31  37
ATOM     37  C   UNL     1      22.928  -0.631  14.101  1.00  0.00     0.191 C 
BRANCH  37  38
ATOM     38  O   UNL     1      22.814   0.724  14.439  1.00  0.00    -0.394 OA
ATOM     39  H   UNL     1      23.706   1.132  14.275  1.00  0.00     0.210 HD
ENDBRANCH  37  38
ENDBRANCH  31  37
BRANCH  32  40
ATOM     40  O   UNL     1      23.034  -1.049  16.930  1.00  0.00    -0.387 OA
ATOM     41  H   UNL     1      22.937  -0.384  17.662  1.00  0.00     0.211 HD
ENDBRANCH  32  40
ENDBRANCH   1  27
TORSDOF 12
ENDMDL
MODEL 6
REMARK VINA RESULT:    -3.812      2.173      6.781
REMARK INTER + INTRA:          -7.433
REMARK INTER:                  -6.685
REMARK INTRA:                  -0.748
REMARK UNBOUND:                -1.837
REMARK SMILES O=c1c(O[C@H]2O[C@@H](CO)[C@@H](O)[C@H](O)[C@H]2O)c(-c2ccc(O)c(O)c2)oc2cc(O)cc(O)c12
REMARK SMILES IDX 4 1 3 2 16 3 25 4 2 5 26 6 1 7 33 8 27 9 31 10 28 11 30 12
REMARK SMILES IDX 17 13 18 14 19 15 20 16 24 17 22 18 21 19 23 21 32 23 29 25
REMARK SMILES IDX 5 27 14 28 6 29 12 30 7 31 10 32 15 33 13 35 8 37 9 38 11 40
REMARK H PARENT 21 20 23 22 32 24 29 26 15 34 13 36 9 39 11 41
REMARK Flexibility Score: inf
ROOT
ATOM      1  O   UNL     1      17.725   2.338  12.114  1.00  0.00    -0.454 OA
ENDROOT
BRANCH   1   2
ATOM      2  C   UNL     1      18.316   1.118  11.742  1.00  0.00     0.214 A 
ATOM      3  C   UNL     1      19.704   0.920  11.872  1.00  0.00     0.180 A 
ATOM      4  O   UNL     1      20.245  -0.228  11.484  1.00  0.00    -0.452 OA
ATOM      5  C   UNL     1      17.540   0.089  11.191  1.00  0.00     0.239 A 
ATOM      6  C   UNL     1      19.546  -1.235  10.975  1.00  0.00     0.146 A 
ATOM      7  O   UNL     1      16.297   0.245  11.120  1.00  0.00    -0.285 OA
ATOM      8  C   UNL     1      18.150  -1.116  10.772  1.00  0.00     0.111 A 
ATOM      9  C   UNL     1      20.215  -2.421  10.669  1.00  0.00     0.094 A 
ATOM     10  C   UNL     1      17.451  -2.231  10.210  1.00  0.00     0.134 A 
ATOM     11  C   UNL     1      19.518  -3.520  10.174  1.00  0.00     0.123 A 
ATOM     12  C   UNL     1      18.141  -3.421   9.945  1.00  0.00     0.093 A 
BRANCH   3  13
ATOM     13  C   UNL     1      20.613   1.951  12.418  1.00  0.00     0.025 A 
ATOM     14  C   UNL     1      20.838   1.999  13.801  1.00  0.00     0.016 A 
ATOM     15  C   UNL     1      21.685   2.968  14.350  1.00  0.00     0.051 A 
ATOM     16  C   UNL     1      22.290   3.925  13.530  1.00  0.00     0.157 A 
ATOM     17  C   UNL     1      21.203   2.922  11.594  1.00  0.00     0.062 A 
ATOM     18  C   UNL     1      22.047   3.902  12.136  1.00  0.00     0.158 A 
BRANCH  16  19
ATOM     19  O   UNL     1      23.125   4.865  14.136  1.00  0.00    -0.504 OA
ATOM     20  H   UNL     1      24.001   5.183  13.745  1.00  0.00     0.293 HD
ENDBRANCH  16  19
BRANCH  18  21
ATOM     21  O   UNL     1      22.639   4.816  11.253  1.00  0.00    -0.504 OA
ATOM     22  H   UNL     1      22.367   4.923  10.282  1.00  0.00     0.293 HD
ENDBRANCH  18  21
ENDBRANCH   3  13
BRANCH  10  23
ATOM     23  O   UNL     1      16.094  -2.213   9.875  1.00  0.00    -0.507 OA
ATOM     24  H   UNL     1      15.725  -2.264   8.933  1.00  0.00     0.293 HD
ENDBRANCH  10  23
BRANCH  11  25
ATOM     25  O   UNL     1      20.199  -4.705   9.903  1.00  0.00    -0.508 OA
ATOM     26  H   UNL     1      20.731  -4.830   9.046  1.00  0.00     0.293 HD
ENDBRANCH  11  25
ENDBRANCH   1   2
BRANCH   1  27
ATOM     27  C   UNL     1      16.787   3.005  11.267  1.00  0.00     0.339 C 
ATOM     28  C   UNL     1      17.384   4.283  10.632  1.00  0.00     0.214 C 
ATOM     29  O   UNL     1      15.530   3.184  11.924  1.00  0.00    -0.332 OA
ATOM     30  C   UNL     1      17.439   5.424  11.648  1.00  0.00     0.180 C 
ATOM     31  C   UNL     1      15.407   4.355  12.734  1.00  0.00     0.179 C 
ATOM     32  C   UNL     1      15.997   5.655  12.123  1.00  0.00     0.177 C 
BRANCH  28  33
ATOM     33  O   UNL     1      18.682   4.031  10.150  1.00  0.00    -0.384 OA
ATOM     34  H   UNL     1      18.882   3.070  10.286  1.00  0.00     0.211 HD
ENDBRANCH  28  33
BRANCH  30  35
ATOM     35  O   UNL     1      18.032   6.555  11.047  1.00  0.00    -0.387 OA
ATOM     36  H   UNL     1      18.857   6.789  11.556  1.00  0.00     0.211 HD
ENDBRANCH  30  35
BRANCH  31  37
ATOM     37  C   UNL     1      15.776   4.097  14.208  1.00  0.00     0.191 C 
BRANCH  37  38
ATOM     38  O   UNL     1      15.775   2.729  14.510  1.00  0.00    -0.394 OA
ATOM     39  H   UNL     1      16.615   2.355  14.131  1.00  0.00     0.210 HD
ENDBRANCH  37  38
ENDBRANCH  31  37
BRANCH  32  40
ATOM     40  O   UNL     1      15.937   6.713  13.058  1.00  0.00    -0.387 OA
ATOM     41  H   UNL     1      16.872   6.954  13.291  1.00  0.00     0.211 HD
ENDBRANCH  32  40
ENDBRANCH   1  27
TORSDOF 12
ENDMDL
MODEL 7
REMARK VINA RESULT:    -3.741      2.855      6.182
REMARK INTER + INTRA:          -7.328
REMARK INTER:                  -5.421
REMARK INTRA:                  -1.907
REMARK UNBOUND:                -1.837
REMARK SMILES O=c1c(O[C@H]2O[C@@H](CO)[C@@H](O)[C@H](O)[C@H]2O)c(-c2ccc(O)c(O)c2)oc2cc(O)cc(O)c12
REMARK SMILES IDX 4 1 3 2 16 3 25 4 2 5 26 6 1 7 33 8 27 9 31 10 28 11 30 12
REMARK SMILES IDX 17 13 18 14 19 15 20 16 24 17 22 18 21 19 23 21 32 23 29 25
REMARK SMILES IDX 5 27 14 28 6 29 12 30 7 31 10 32 15 33 13 35 8 37 9 38 11 40
REMARK H PARENT 21 20 23 22 32 24 29 26 15 34 13 36 9 39 11 41
REMARK Flexibility Score: inf
ROOT
ATOM      1  O   UNL     1      20.395  -2.878  14.555  1.00  0.00    -0.454 OA
ENDROOT
BRANCH   1   2
ATOM      2  C   UNL     1      19.894  -1.915  13.662  1.00  0.00     0.214 A 
ATOM      3  C   UNL     1      19.793  -2.192  12.285  1.00  0.00     0.180 A 
ATOM      4  O   UNL     1      19.347  -1.258  11.455  1.00  0.00    -0.452 OA
ATOM      5  C   UNL     1      19.526  -0.642  14.118  1.00  0.00     0.239 A 
ATOM      6  C   UNL     1      18.972  -0.047  11.846  1.00  0.00     0.146 A 
ATOM      7  O   UNL     1      19.570  -0.410  15.350  1.00  0.00    -0.285 OA
ATOM      8  C   UNL     1      19.071   0.338  13.205  1.00  0.00     0.111 A 
ATOM      9  C   UNL     1      18.452   0.829  10.892  1.00  0.00     0.094 A 
ATOM     10  C   UNL     1      18.660   1.660  13.567  1.00  0.00     0.134 A 
ATOM     11  C   UNL     1      18.003   2.095  11.261  1.00  0.00     0.123 A 
ATOM     12  C   UNL     1      18.110   2.505  12.595  1.00  0.00     0.093 A 
BRANCH   3  13
ATOM     13  C   UNL     1      20.178  -3.495  11.700  1.00  0.00     0.025 A 
ATOM     14  C   UNL     1      21.497  -3.684  11.264  1.00  0.00     0.016 A 
ATOM     15  C   UNL     1      21.891  -4.901  10.698  1.00  0.00     0.051 A 
ATOM     16  C   UNL     1      20.964  -5.933  10.525  1.00  0.00     0.157 A 
ATOM     17  C   UNL     1      19.240  -4.522  11.510  1.00  0.00     0.062 A 
ATOM     18  C   UNL     1      19.623  -5.742  10.936  1.00  0.00     0.158 A 
BRANCH  16  19
ATOM     19  O   UNL     1      21.417  -7.125   9.954  1.00  0.00    -0.504 OA
ATOM     20  H   UNL     1      20.881  -7.980   9.924  1.00  0.00     0.293 HD
ENDBRANCH  16  19
BRANCH  18  21
ATOM     21  O   UNL     1      18.648  -6.742  10.814  1.00  0.00    -0.504 OA
ATOM     22  H   UNL     1      18.236  -7.230  11.601  1.00  0.00     0.293 HD
ENDBRANCH  18  21
ENDBRANCH   3  13
BRANCH  10  23
ATOM     23  O   UNL     1      18.791   2.194  14.852  1.00  0.00    -0.507 OA
ATOM     24  H   UNL     1      18.026   2.524  15.427  1.00  0.00     0.293 HD
ENDBRANCH  10  23
BRANCH  11  25
ATOM     25  O   UNL     1      17.460   2.943  10.299  1.00  0.00    -0.508 OA
ATOM     26  H   UNL     1      16.596   3.454  10.466  1.00  0.00     0.293 HD
ENDBRANCH  11  25
ENDBRANCH   1   2
BRANCH   1  27
ATOM     27  C   UNL     1      19.531  -3.621  15.417  1.00  0.00     0.339 C 
ATOM     28  C   UNL     1      19.989  -3.559  16.893  1.00  0.00     0.214 C 
ATOM     29  O   UNL     1      19.297  -4.937  14.909  1.00  0.00    -0.332 OA
ATOM     30  C   UNL     1      21.189  -4.475  17.132  1.00  0.00     0.180 C 
ATOM     31  C   UNL     1      20.263  -5.928  15.267  1.00  0.00     0.179 C 
ATOM     32  C   UNL     1      20.743  -5.891  16.743  1.00  0.00     0.177 C 
BRANCH  28  33
ATOM     33  O   UNL     1      20.336  -2.241  17.243  1.00  0.00    -0.384 OA
ATOM     34  H   UNL     1      20.498  -1.731  16.410  1.00  0.00     0.211 HD
ENDBRANCH  28  33
BRANCH  30  35
ATOM     35  O   UNL     1      21.608  -4.354  18.475  1.00  0.00    -0.387 OA
ATOM     36  H   UNL     1      22.122  -5.171  18.722  1.00  0.00     0.211 HD
ENDBRANCH  30  35
BRANCH  31  37
ATOM     37  C   UNL     1      21.383  -6.070  14.217  1.00  0.00     0.191 C 
BRANCH  37  38
ATOM     38  O   UNL     1      22.400  -5.127  14.415  1.00  0.00    -0.394 OA
ATOM     39  H   UNL     1      22.569  -4.703  13.531  1.00  0.00     0.210 HD
ENDBRANCH  37  38
ENDBRANCH  31  37
BRANCH  32  40
ATOM     40  O   UNL     1      21.785  -6.824  16.948  1.00  0.00    -0.387 OA
ATOM     41  H   UNL     1      21.363  -7.713  17.082  1.00  0.00     0.211 HD
ENDBRANCH  32  40
ENDBRANCH   1  27
TORSDOF 12
ENDMDL
MODEL 8
REMARK VINA RESULT:    -3.740      2.863      7.280
REMARK INTER + INTRA:          -7.327
REMARK INTER:                  -5.494
REMARK INTRA:                  -1.833
REMARK UNBOUND:                -1.837
REMARK SMILES O=c1c(O[C@H]2O[C@@H](CO)[C@@H](O)[C@H](O)[C@H]2O)c(-c2ccc(O)c(O)c2)oc2cc(O)cc(O)c12
REMARK SMILES IDX 4 1 3 2 16 3 25 4 2 5 26 6 1 7 33 8 27 9 31 10 28 11 30 12
REMARK SMILES IDX 17 13 18 14 19 15 20 16 24 17 22 18 21 19 23 21 32 23 29 25
REMARK SMILES IDX 5 27 14 28 6 29 12 30 7 31 10 32 15 33 13 35 8 37 9 38 11 40
REMARK H PARENT 21 20 23 22 32 24 29 26 15 34 13 36 9 39 11 41
REMARK Flexibility Score: inf
ROOT
ATOM      1  O   UNL     1      21.061  -2.329  14.680  1.00  0.00    -0.454 OA
ENDROOT
BRANCH   1   2
ATOM      2  C   UNL     1      21.312  -2.002  16.024  1.00  0.00     0.214 A 
ATOM      3  C   UNL     1      21.103  -0.692  16.498  1.00  0.00     0.180 A 
ATOM      4  O   UNL     1      21.377  -0.397  17.763  1.00  0.00    -0.452 OA
ATOM      5  C   UNL     1      21.819  -2.963  16.910  1.00  0.00     0.239 A 
ATOM      6  C   UNL     1      21.842  -1.279  18.639  1.00  0.00     0.146 A 
ATOM      7  O   UNL     1      21.960  -4.141  16.502  1.00  0.00    -0.285 OA
ATOM      8  C   UNL     1      22.118  -2.611  18.247  1.00  0.00     0.111 A 
ATOM      9  C   UNL     1      22.025  -0.870  19.960  1.00  0.00     0.094 A 
ATOM     10  C   UNL     1      22.626  -3.516  19.233  1.00  0.00     0.134 A 
ATOM     11  C   UNL     1      22.468  -1.771  20.926  1.00  0.00     0.123 A 
ATOM     12  C   UNL     1      22.767  -3.088  20.559  1.00  0.00     0.093 A 
BRANCH   3  13
ATOM     13  C   UNL     1      20.595   0.399  15.639  1.00  0.00     0.025 A 
ATOM     14  C   UNL     1      21.507   1.169  14.903  1.00  0.00     0.016 A 
ATOM     15  C   UNL     1      21.059   2.214  14.089  1.00  0.00     0.051 A 
ATOM     16  C   UNL     1      19.698   2.529  14.026  1.00  0.00     0.157 A 
ATOM     17  C   UNL     1      19.231   0.724  15.594  1.00  0.00     0.062 A 
ATOM     18  C   UNL     1      18.773   1.776  14.786  1.00  0.00     0.158 A 
BRANCH  16  19
ATOM     19  O   UNL     1      19.313   3.582  13.194  1.00  0.00    -0.504 OA
ATOM     20  H   UNL     1      19.953   4.131  12.637  1.00  0.00     0.293 HD
ENDBRANCH  16  19
BRANCH  18  21
ATOM     21  O   UNL     1      17.393   2.021  14.752  1.00  0.00    -0.504 OA
ATOM     22  H   UNL     1      16.974   2.925  14.937  1.00  0.00     0.293 HD
ENDBRANCH  18  21
ENDBRANCH   3  13
BRANCH  10  23
ATOM     23  O   UNL     1      23.024  -4.827  18.958  1.00  0.00    -0.507 OA
ATOM     24  H   UNL     1      22.400  -5.621  18.880  1.00  0.00     0.293 HD
ENDBRANCH  10  23
BRANCH  11  25
ATOM     25  O   UNL     1      22.616  -1.351  22.246  1.00  0.00    -0.508 OA
ATOM     26  H   UNL     1      23.476  -0.918  22.574  1.00  0.00     0.293 HD
ENDBRANCH  11  25
ENDBRANCH   1   2
BRANCH   1  27
ATOM     27  C   UNL     1      19.809  -2.879  14.266  1.00  0.00     0.339 C 
ATOM     28  C   UNL     1      19.985  -4.208  13.493  1.00  0.00     0.214 C 
ATOM     29  O   UNL     1      19.003  -1.898  13.610  1.00  0.00    -0.332 OA
ATOM     30  C   UNL     1      20.466  -3.950  12.065  1.00  0.00     0.180 C 
ATOM     31  C   UNL     1      19.228  -1.737  12.207  1.00  0.00     0.179 C 
ATOM     32  C   UNL     1      19.409  -3.053  11.404  1.00  0.00     0.177 C 
BRANCH  28  33
ATOM     33  O   UNL     1      20.913  -5.037  14.150  1.00  0.00    -0.384 OA
ATOM     34  H   UNL     1      20.865  -5.940  13.743  1.00  0.00     0.211 HD
ENDBRANCH  28  33
BRANCH  30  35
ATOM     35  O   UNL     1      20.661  -5.184  11.409  1.00  0.00    -0.387 OA
ATOM     36  H   UNL     1      21.249  -5.756  11.975  1.00  0.00     0.211 HD
ENDBRANCH  30  35
BRANCH  31  37
ATOM     37  C   UNL     1      20.257  -0.632  11.896  1.00  0.00     0.191 C 
BRANCH  37  38
ATOM     38  O   UNL     1      19.832   0.190  10.844  1.00  0.00    -0.394 OA
ATOM     39  H   UNL     1      18.845   0.082  10.782  1.00  0.00     0.210 HD
ENDBRANCH  37  38
ENDBRANCH  31  37
BRANCH  32  40
ATOM     40  O   UNL     1      19.754  -2.771  10.063  1.00  0.00    -0.387 OA
ATOM     41  H   UNL     1      19.793  -1.783   9.970  1.00  0.00     0.211 HD
ENDBRANCH  32  40
ENDBRANCH   1  27
TORSDOF 12
ENDMDL
MODEL 9
REMARK VINA RESULT:    -3.179      1.849      6.631
REMARK INTER + INTRA:          -6.503
REMARK INTER:                  -5.146
REMARK INTRA:                  -1.358
REMARK UNBOUND:                -1.837
REMARK SMILES O=c1c(O[C@H]2O[C@@H](CO)[C@@H](O)[C@H](O)[C@H]2O)c(-c2ccc(O)c(O)c2)oc2cc(O)cc(O)c12
REMARK SMILES IDX 4 1 3 2 16 3 25 4 2 5 26 6 1 7 33 8 27 9 31 10 28 11 30 12
REMARK SMILES IDX 17 13 18 14 19 15 20 16 24 17 22 18 21 19 23 21 32 23 29 25
REMARK SMILES IDX 5 27 14 28 6 29 12 30 7 31 10 32 15 33 13 35 8 37 9 38 11 40
REMARK H PARENT 21 20 23 22 32 24 29 26 15 34 13 36 9 39 11 41
REMARK Flexibility Score: inf
ROOT
ATOM      1  O   UNL     1      18.534   0.042  13.755  1.00  0.00    -0.454 OA
ENDROOT
BRANCH   1   2
ATOM      2  C   UNL     1      19.172  -1.122  13.292  1.00  0.00     0.214 A 
ATOM      3  C   UNL     1      20.388  -1.551  13.857  1.00  0.00     0.180 A 
ATOM      4  O   UNL     1      20.989  -2.635  13.383  1.00  0.00    -0.452 OA
ATOM      5  C   UNL     1      18.632  -1.856  12.227  1.00  0.00     0.239 A 
ATOM      6  C   UNL     1      20.505  -3.369  12.389  1.00  0.00     0.146 A 
ATOM      7  O   UNL     1      17.524  -1.504  11.754  1.00  0.00    -0.285 OA
ATOM      8  C   UNL     1      19.307  -2.997  11.734  1.00  0.00     0.111 A 
ATOM      9  C   UNL     1      21.190  -4.529  12.024  1.00  0.00     0.094 A 
ATOM     10  C   UNL     1      18.838  -3.822  10.662  1.00  0.00     0.134 A 
ATOM     11  C   UNL     1      20.698  -5.355  11.016  1.00  0.00     0.123 A 
ATOM     12  C   UNL     1      19.526  -4.998  10.339  1.00  0.00     0.093 A 
BRANCH   3  13
ATOM     13  C   UNL     1      21.052  -0.835  14.967  1.00  0.00     0.025 A 
ATOM     14  C   UNL     1      22.138   0.006  14.684  1.00  0.00     0.016 A 
ATOM     15  C   UNL     1      22.794   0.691  15.712  1.00  0.00     0.051 A 
ATOM     16  C   UNL     1      22.398   0.518  17.042  1.00  0.00     0.157 A 
ATOM     17  C   UNL     1      20.664  -1.026  16.302  1.00  0.00     0.062 A 
ATOM     18  C   UNL     1      21.321  -0.350  17.341  1.00  0.00     0.158 A 
BRANCH  16  19
ATOM     19  O   UNL     1      23.091   1.229  18.024  1.00  0.00    -0.504 OA
ATOM     20  H   UNL     1      23.918   0.890  18.495  1.00  0.00     0.293 HD
ENDBRANCH  16  19
BRANCH  18  21
ATOM     21  O   UNL     1      20.857  -0.552  18.648  1.00  0.00    -0.504 OA
ATOM     22  H   UNL     1      19.966  -0.212  18.992  1.00  0.00     0.293 HD
ENDBRANCH  18  21
ENDBRANCH   3  13
BRANCH  10  23
ATOM     23  O   UNL     1      17.723  -3.519   9.875  1.00  0.00    -0.507 OA
ATOM     24  H   UNL     1      17.737  -3.385   8.871  1.00  0.00     0.293 HD
ENDBRANCH  10  23
BRANCH  11  25
ATOM     25  O   UNL     1      21.380  -6.524  10.686  1.00  0.00    -0.508 OA
ATOM     26  H   UNL     1      22.395  -6.569  10.695  1.00  0.00     0.293 HD
ENDBRANCH  11  25
ENDBRANCH   1   2
BRANCH   1  27
ATOM     27  C   UNL     1      19.174   1.318  13.699  1.00  0.00     0.339 C 
ATOM     28  C   UNL     1      18.617   2.295  14.761  1.00  0.00     0.214 C 
ATOM     29  O   UNL     1      19.202   1.826  12.363  1.00  0.00    -0.332 OA
ATOM     30  C   UNL     1      17.254   2.842  14.340  1.00  0.00     0.180 C 
ATOM     31  C   UNL     1      18.045   2.553  11.944  1.00  0.00     0.179 C 
ATOM     32  C   UNL     1      17.462   3.542  12.989  1.00  0.00     0.177 C 
BRANCH  28  33
ATOM     33  O   UNL     1      18.491   1.647  16.004  1.00  0.00    -0.384 OA
ATOM     34  H   UNL     1      19.400   1.503  16.373  1.00  0.00     0.211 HD
ENDBRANCH  28  33
BRANCH  30  35
ATOM     35  O   UNL     1      16.757   3.688  15.354  1.00  0.00    -0.387 OA
ATOM     36  H   UNL     1      16.176   3.151  15.960  1.00  0.00     0.211 HD
ENDBRANCH  30  35
BRANCH  31  37
ATOM     37  C   UNL     1      17.007   1.658  11.238  1.00  0.00     0.191 C 
BRANCH  37  38
ATOM     38  O   UNL     1      16.208   0.968  12.160  1.00  0.00    -0.394 OA
ATOM     39  H   UNL     1      15.451   0.579  11.644  1.00  0.00     0.210 HD
ENDBRANCH  37  38
ENDBRANCH  31  37
BRANCH  32  40
ATOM     40  O   UNL     1      16.253   4.103  12.520  1.00  0.00    -0.387 OA
ATOM     41  H   UNL     1      15.619   3.354  12.368  1.00  0.00     0.211 HD
ENDBRANCH  32  40
ENDBRANCH   1  27
TORSDOF 12
ENDMDL
