MODEL 1
REMARK VINA RESULT:    -3.894      0.000      0.000
REMARK INTER + INTRA:          -5.168
REMARK INTER:                  -4.804
REMARK INTRA:                  -0.364
REMARK UNBOUND:                -0.364
REMARK SMILES COC(=O)c1ccccc1C(=O)OC
REMARK SMILES IDX 5 1 6 2 7 3 8 4 9 5 10 6 3 7 4 8 2 9 1 10 11 11 12 12 13 13
REMARK SMILES IDX 14 14
REMARK H PARENT
REMARK Flexibility Score: inf
ROOT
ATOM      1  C   UNL     1      -1.733  -4.874  -5.681  1.00  0.00     0.074 A 
ATOM      2  C   UNL     1      -2.208  -6.115  -6.140  1.00  0.00     0.016 A 
ATOM      3  C   UNL     1      -1.437  -7.270  -6.003  1.00  0.00     0.001 A 
ATOM      4  C   UNL     1      -0.181  -7.204  -5.406  1.00  0.00     0.001 A 
ATOM      5  C   UNL     1       0.320  -5.979  -4.963  1.00  0.00     0.016 A 
ATOM      6  C   UNL     1      -0.430  -4.798  -5.111  1.00  0.00     0.074 A 
ENDROOT
BRANCH   1   7
ATOM      7  C   UNL     1      -2.649  -3.712  -5.754  1.00  0.00     0.338 C 
ATOM      8  O   UNL     1      -3.248  -3.306  -4.720  1.00  0.00    -0.246 OA
BRANCH   7   9
ATOM      9  O   UNL     1      -2.893  -3.105  -6.990  1.00  0.00    -0.465 OA
ATOM     10  C   UNL     1      -4.183  -3.078  -7.591  1.00  0.00     0.282 C 
ENDBRANCH   7   9
ENDBRANCH   1   7
BRANCH   6  11
ATOM     11  C   UNL     1       0.208  -3.520  -4.724  1.00  0.00     0.338 C 
ATOM     12  O   UNL     1      -0.015  -3.014  -3.590  1.00  0.00    -0.246 OA
BRANCH  11  13
ATOM     13  O   UNL     1       1.017  -2.847  -5.647  1.00  0.00    -0.465 OA
ATOM     14  C   UNL     1       0.487  -1.971  -6.635  1.00  0.00     0.282 C 
ENDBRANCH  11  13
ENDBRANCH   6  11
TORSDOF 4
ENDMDL
MODEL 2
REMARK VINA RESULT:    -3.887      0.045      3.249
REMARK INTER + INTRA:          -5.161
REMARK INTER:                  -4.807
REMARK INTRA:                  -0.353
REMARK UNBOUND:                -0.364
REMARK SMILES COC(=O)c1ccccc1C(=O)OC
REMARK SMILES IDX 5 1 6 2 7 3 8 4 9 5 10 6 3 7 4 8 2 9 1 10 11 11 12 12 13 13
REMARK SMILES IDX 14 14
REMARK H PARENT
REMARK Flexibility Score: inf
ROOT
ATOM      1  C   UNL     1      -0.439  -4.791  -5.102  1.00  0.00     0.074 A 
ATOM      2  C   UNL     1       0.319  -5.967  -4.956  1.00  0.00     0.016 A 
ATOM      3  C   UNL     1      -0.174  -7.195  -5.402  1.00  0.00     0.001 A 
ATOM      4  C   UNL     1      -1.430  -7.266  -6.000  1.00  0.00     0.001 A 
ATOM      5  C   UNL     1      -2.208  -6.116  -6.135  1.00  0.00     0.016 A 
ATOM      6  C   UNL     1      -1.741  -4.873  -5.672  1.00  0.00     0.074 A 
ENDROOT
BRANCH   1   7
ATOM      7  C   UNL     1       0.192  -3.509  -4.711  1.00  0.00     0.338 C 
ATOM      8  O   UNL     1      -0.045  -3.002  -3.580  1.00  0.00    -0.246 OA
BRANCH   7   9
ATOM      9  O   UNL     1       1.005  -2.834  -5.627  1.00  0.00    -0.465 OA
ATOM     10  C   UNL     1       0.477  -2.026  -6.671  1.00  0.00     0.282 C 
ENDBRANCH   7   9
ENDBRANCH   1   7
BRANCH   6  11
ATOM     11  C   UNL     1      -2.664  -3.717  -5.743  1.00  0.00     0.338 C 
ATOM     12  O   UNL     1      -3.254  -3.308  -4.706  1.00  0.00    -0.246 OA
BRANCH  11  13
ATOM     13  O   UNL     1      -2.921  -3.117  -6.981  1.00  0.00    -0.465 OA
ATOM     14  C   UNL     1      -4.236  -2.979  -7.508  1.00  0.00     0.282 C 
ENDBRANCH  11  13
ENDBRANCH   6  11
TORSDOF 4
ENDMDL
MODEL 3
REMARK VINA RESULT:    -3.766      1.597      2.285
REMARK INTER + INTRA:          -5.011
REMARK INTER:                  -4.698
REMARK INTRA:                  -0.313
REMARK UNBOUND:                -0.364
REMARK SMILES COC(=O)c1ccccc1C(=O)OC
REMARK SMILES IDX 5 1 6 2 7 3 8 4 9 5 10 6 3 7 4 8 2 9 1 10 11 11 12 12 13 13
REMARK SMILES IDX 14 14
REMARK H PARENT
REMARK Flexibility Score: inf
ROOT
ATOM      1  C   UNL     1      -0.980  -4.401  -5.294  1.00  0.00     0.074 A 
ATOM      2  C   UNL     1      -1.970  -5.299  -5.731  1.00  0.00     0.016 A 
ATOM      3  C   UNL     1      -1.742  -6.676  -5.716  1.00  0.00     0.001 A 
ATOM      4  C   UNL     1      -0.523  -7.177  -5.265  1.00  0.00     0.001 A 
ATOM      5  C   UNL     1       0.482  -6.304  -4.848  1.00  0.00     0.016 A 
ATOM      6  C   UNL     1       0.282  -4.911  -4.876  1.00  0.00     0.074 A 
ENDROOT
BRANCH   1   7
ATOM      7  C   UNL     1      -1.330  -2.963  -5.230  1.00  0.00     0.338 C 
ATOM      8  O   UNL     1      -2.266  -2.568  -4.481  1.00  0.00    -0.246 OA
BRANCH   7   9
ATOM      9  O   UNL     1      -0.655  -2.053  -6.049  1.00  0.00    -0.465 OA
ATOM     10  C   UNL     1      -0.506  -2.246  -7.450  1.00  0.00     0.282 C 
ENDBRANCH   7   9
ENDBRANCH   1   7
BRANCH   6  11
ATOM     11  C   UNL     1       1.429  -4.042  -4.529  1.00  0.00     0.338 C 
ATOM     12  O   UNL     1       2.317  -3.784  -5.387  1.00  0.00    -0.246 OA
BRANCH  11  13
ATOM     13  O   UNL     1       1.552  -3.552  -3.223  1.00  0.00    -0.465 OA
ATOM     14  C   UNL     1       2.596  -3.958  -2.347  1.00  0.00     0.282 C 
ENDBRANCH  11  13
ENDBRANCH   6  11
TORSDOF 4
ENDMDL
MODEL 4
REMARK VINA RESULT:    -3.758      1.620      3.767
REMARK INTER + INTRA:          -5.001
REMARK INTER:                  -4.701
REMARK INTRA:                  -0.300
REMARK UNBOUND:                -0.364
REMARK SMILES COC(=O)c1ccccc1C(=O)OC
REMARK SMILES IDX 5 1 6 2 7 3 8 4 9 5 10 6 3 7 4 8 2 9 1 10 11 11 12 12 13 13
REMARK SMILES IDX 14 14
REMARK H PARENT
REMARK Flexibility Score: inf
ROOT
ATOM      1  C   UNL     1       0.323  -4.913  -4.855  1.00  0.00     0.074 A 
ATOM      2  C   UNL     1       0.517  -6.306  -4.829  1.00  0.00     0.016 A 
ATOM      3  C   UNL     1      -0.496  -7.177  -5.231  1.00  0.00     0.001 A 
ATOM      4  C   UNL     1      -1.719  -6.671  -5.665  1.00  0.00     0.001 A 
ATOM      5  C   UNL     1      -1.943  -5.294  -5.677  1.00  0.00     0.016 A 
ATOM      6  C   UNL     1      -0.943  -4.399  -5.256  1.00  0.00     0.074 A 
ENDROOT
BRANCH   1   7
ATOM      7  C   UNL     1       1.478  -4.047  -4.525  1.00  0.00     0.338 C 
ATOM      8  O   UNL     1       2.353  -3.791  -5.398  1.00  0.00    -0.246 OA
BRANCH   7   9
ATOM      9  O   UNL     1       1.624  -3.562  -3.222  1.00  0.00    -0.465 OA
ATOM     10  C   UNL     1       2.613  -4.054  -2.326  1.00  0.00     0.282 C 
ENDBRANCH   7   9
ENDBRANCH   1   7
BRANCH   6  11
ATOM     11  C   UNL     1      -1.287  -2.960  -5.187  1.00  0.00     0.338 C 
ATOM     12  O   UNL     1      -2.234  -2.565  -4.452  1.00  0.00    -0.246 OA
BRANCH  11  13
ATOM     13  O   UNL     1      -0.591  -2.047  -5.988  1.00  0.00    -0.465 OA
ATOM     14  C   UNL     1      -0.443  -2.216  -7.393  1.00  0.00     0.282 C 
ENDBRANCH  11  13
ENDBRANCH   6  11
TORSDOF 4
ENDMDL
MODEL 5
REMARK VINA RESULT:    -3.621      1.282      3.576
REMARK INTER + INTRA:          -4.831
REMARK INTER:                  -4.429
REMARK INTRA:                  -0.403
REMARK UNBOUND:                -0.364
REMARK SMILES COC(=O)c1ccccc1C(=O)OC
REMARK SMILES IDX 5 1 6 2 7 3 8 4 9 5 10 6 3 7 4 8 2 9 1 10 11 11 12 12 13 13
REMARK SMILES IDX 14 14
REMARK H PARENT
REMARK Flexibility Score: inf
ROOT
ATOM      1  C   UNL     1      -1.769  -4.462  -5.784  1.00  0.00     0.074 A 
ATOM      2  C   UNL     1      -1.362  -5.687  -5.227  1.00  0.00     0.016 A 
ATOM      3  C   UNL     1      -1.603  -6.890  -5.892  1.00  0.00     0.001 A 
ATOM      4  C   UNL     1      -2.254  -6.888  -7.124  1.00  0.00     0.001 A 
ATOM      5  C   UNL     1      -2.687  -5.686  -7.684  1.00  0.00     0.016 A 
ATOM      6  C   UNL     1      -2.475  -4.464  -7.020  1.00  0.00     0.074 A 
ENDROOT
BRANCH   1   7
ATOM      7  C   UNL     1      -1.381  -3.218  -5.079  1.00  0.00     0.338 C 
ATOM      8  O   UNL     1      -2.240  -2.556  -4.434  1.00  0.00    -0.246 OA
BRANCH   7   9
ATOM      9  O   UNL     1      -0.067  -2.750  -5.183  1.00  0.00    -0.465 OA
ATOM     10  C   UNL     1       0.513  -2.358  -6.421  1.00  0.00     0.282 C 
ENDBRANCH   7   9
ENDBRANCH   1   7
BRANCH   6  11
ATOM     11  C   UNL     1      -3.061  -3.242  -7.617  1.00  0.00     0.338 C 
ATOM     12  O   UNL     1      -2.408  -2.568  -8.460  1.00  0.00    -0.246 OA
BRANCH  11  13
ATOM     13  O   UNL     1      -4.323  -2.807  -7.196  1.00  0.00    -0.465 OA
ATOM     14  C   UNL     1      -4.592  -1.453  -6.851  1.00  0.00     0.282 C 
ENDBRANCH  11  13
ENDBRANCH   6  11
TORSDOF 4
ENDMDL
MODEL 6
REMARK VINA RESULT:    -3.617      1.880      2.930
REMARK INTER + INTRA:          -4.827
REMARK INTER:                  -4.377
REMARK INTRA:                  -0.449
REMARK UNBOUND:                -0.364
REMARK SMILES COC(=O)c1ccccc1C(=O)OC
REMARK SMILES IDX 5 1 6 2 7 3 8 4 9 5 10 6 3 7 4 8 2 9 1 10 11 11 12 12 13 13
REMARK SMILES IDX 14 14
REMARK H PARENT
REMARK Flexibility Score: inf
ROOT
ATOM      1  C   UNL     1       0.058  -5.609  -5.067  1.00  0.00     0.074 A 
ATOM      2  C   UNL     1       0.918  -6.676  -4.751  1.00  0.00     0.016 A 
ATOM      3  C   UNL     1       2.039  -6.477  -3.944  1.00  0.00     0.001 A 
ATOM      4  C   UNL     1       2.319  -5.209  -3.440  1.00  0.00     0.001 A 
ATOM      5  C   UNL     1       1.493  -4.130  -3.758  1.00  0.00     0.016 A 
ATOM      6  C   UNL     1       0.370  -4.304  -4.588  1.00  0.00     0.074 A 
ENDROOT
BRANCH   1   7
ATOM      7  C   UNL     1      -1.172  -5.914  -5.832  1.00  0.00     0.338 C 
ATOM      8  O   UNL     1      -2.234  -6.236  -5.230  1.00  0.00    -0.246 OA
BRANCH   7   9
ATOM      9  O   UNL     1      -1.135  -5.901  -7.230  1.00  0.00    -0.465 OA
ATOM     10  C   UNL     1      -1.673  -4.834  -8.002  1.00  0.00     0.282 C 
ENDBRANCH   7   9
ENDBRANCH   1   7
BRANCH   6  11
ATOM     11  C   UNL     1      -0.395  -3.098  -4.977  1.00  0.00     0.338 C 
ATOM     12  O   UNL     1       0.097  -2.263  -5.785  1.00  0.00    -0.246 OA
BRANCH  11  13
ATOM     13  O   UNL     1      -1.648  -2.861  -4.399  1.00  0.00    -0.465 OA
ATOM     14  C   UNL     1      -2.820  -2.638  -5.174  1.00  0.00     0.282 C 
ENDBRANCH  11  13
ENDBRANCH   6  11
TORSDOF 4
ENDMDL
MODEL 7
REMARK VINA RESULT:    -3.567      7.826     10.362
REMARK INTER + INTRA:          -4.765
REMARK INTER:                  -4.296
REMARK INTRA:                  -0.468
REMARK UNBOUND:                -0.364
REMARK SMILES COC(=O)c1ccccc1C(=O)OC
REMARK SMILES IDX 5 1 6 2 7 3 8 4 9 5 10 6 3 7 4 8 2 9 1 10 11 11 12 12 13 13
REMARK SMILES IDX 14 14
REMARK H PARENT
REMARK Flexibility Score: inf
ROOT
ATOM      1  C   UNL     1       5.740   1.375  -2.063  1.00  0.00     0.074 A 
ATOM      2  C   UNL     1       5.699   2.742  -2.391  1.00  0.00     0.016 A 
ATOM      3  C   UNL     1       5.776   3.717  -1.396  1.00  0.00     0.001 A 
ATOM      4  C   UNL     1       5.896   3.344  -0.060  1.00  0.00     0.001 A 
ATOM      5  C   UNL     1       5.915   1.993   0.291  1.00  0.00     0.016 A 
ATOM      6  C   UNL     1       5.816   0.993  -0.694  1.00  0.00     0.074 A 
ENDROOT
BRANCH   1   7
ATOM      7  C   UNL     1       5.768   0.397  -3.176  1.00  0.00     0.338 C 
ATOM      8  O   UNL     1       4.691  -0.013  -3.691  1.00  0.00    -0.246 OA
BRANCH   7   9
ATOM      9  O   UNL     1       6.994  -0.114  -3.613  1.00  0.00    -0.465 OA
ATOM     10  C   UNL     1       7.385  -1.464  -3.392  1.00  0.00     0.282 C 
ENDBRANCH   7   9
ENDBRANCH   1   7
BRANCH   6  11
ATOM     11  C   UNL     1       5.729  -0.415  -0.243  1.00  0.00     0.338 C 
ATOM     12  O   UNL     1       6.764  -1.029   0.135  1.00  0.00    -0.246 OA
BRANCH  11  13
ATOM     13  O   UNL     1       4.498  -1.079  -0.294  1.00  0.00    -0.465 OA
ATOM     14  C   UNL     1       4.295  -2.261  -1.060  1.00  0.00     0.282 C 
ENDBRANCH  11  13
ENDBRANCH   6  11
TORSDOF 4
ENDMDL
MODEL 8
REMARK VINA RESULT:    -3.565      9.322     11.587
REMARK INTER + INTRA:          -4.763
REMARK INTER:                  -4.450
REMARK INTRA:                  -0.313
REMARK UNBOUND:                -0.364
REMARK SMILES COC(=O)c1ccccc1C(=O)OC
REMARK SMILES IDX 5 1 6 2 7 3 8 4 9 5 10 6 3 7 4 8 2 9 1 10 11 11 12 12 13 13
REMARK SMILES IDX 14 14
REMARK H PARENT
REMARK Flexibility Score: inf
ROOT
ATOM      1  C   UNL     1       6.796   1.761   0.743  1.00  0.00     0.074 A 
ATOM      2  C   UNL     1       7.490   2.237   1.869  1.00  0.00     0.016 A 
ATOM      3  C   UNL     1       8.326   1.393   2.603  1.00  0.00     0.001 A 
ATOM      4  C   UNL     1       8.482   0.063   2.222  1.00  0.00     0.001 A 
ATOM      5  C   UNL     1       7.786  -0.437   1.121  1.00  0.00     0.016 A 
ATOM      6  C   UNL     1       6.921   0.389   0.381  1.00  0.00     0.074 A 
ENDROOT
BRANCH   1   7
ATOM      7  C   UNL     1       6.017   2.737  -0.054  1.00  0.00     0.338 C 
ATOM      8  O   UNL     1       4.804   2.956   0.216  1.00  0.00    -0.246 OA
BRANCH   7   9
ATOM      9  O   UNL     1       6.619   3.373  -1.144  1.00  0.00    -0.465 OA
ATOM     10  C   UNL     1       5.891   3.768  -2.300  1.00  0.00     0.282 C 
ENDBRANCH   7   9
ENDBRANCH   1   7
BRANCH   6  11
ATOM     11  C   UNL     1       6.128  -0.234  -0.703  1.00  0.00     0.338 C 
ATOM     12  O   UNL     1       6.518  -0.161  -1.901  1.00  0.00    -0.246 OA
BRANCH  11  13
ATOM     13  O   UNL     1       4.913  -0.857  -0.398  1.00  0.00    -0.465 OA
ATOM     14  C   UNL     1       4.411  -1.964  -1.137  1.00  0.00     0.282 C 
ENDBRANCH  11  13
ENDBRANCH   6  11
TORSDOF 4
ENDMDL
MODEL 9
REMARK VINA RESULT:    -3.536      8.891     11.091
REMARK INTER + INTRA:          -4.727
REMARK INTER:                  -4.355
REMARK INTRA:                  -0.372
REMARK UNBOUND:                -0.364
REMARK SMILES COC(=O)c1ccccc1C(=O)OC
REMARK SMILES IDX 5 1 6 2 7 3 8 4 9 5 10 6 3 7 4 8 2 9 1 10 11 11 12 12 13 13
REMARK SMILES IDX 14 14
REMARK H PARENT
REMARK Flexibility Score: inf
ROOT
ATOM      1  C   UNL     1       6.006   0.663  -0.256  1.00  0.00     0.074 A 
ATOM      2  C   UNL     1       5.346   1.905  -0.280  1.00  0.00     0.016 A 
ATOM      3  C   UNL     1       5.908   3.025   0.334  1.00  0.00     0.001 A 
ATOM      4  C   UNL     1       7.138   2.923   0.981  1.00  0.00     0.001 A 
ATOM      5  C   UNL     1       7.800   1.696   1.037  1.00  0.00     0.016 A 
ATOM      6  C   UNL     1       7.241   0.548   0.444  1.00  0.00     0.074 A 
ENDROOT
BRANCH   1   7
ATOM      7  C   UNL     1       5.408  -0.453  -1.024  1.00  0.00     0.338 C 
ATOM      8  O   UNL     1       5.583  -0.534  -2.272  1.00  0.00    -0.246 OA
BRANCH   7   9
ATOM      9  O   UNL     1       4.599  -1.386  -0.367  1.00  0.00    -0.465 OA
ATOM     10  C   UNL     1       3.731  -2.273  -1.062  1.00  0.00     0.282 C 
ENDBRANCH   7   9
ENDBRANCH   1   7
BRANCH   6  11
ATOM     11  C   UNL     1       7.940  -0.741   0.640  1.00  0.00     0.338 C 
ATOM     12  O   UNL     1       7.570  -1.537   1.547  1.00  0.00    -0.246 OA
BRANCH  11  13
ATOM     13  O   UNL     1       9.053  -1.048  -0.152  1.00  0.00    -0.465 OA
ATOM     14  C   UNL     1       9.096  -0.787  -1.550  1.00  0.00     0.282 C 
ENDBRANCH  11  13
ENDBRANCH   6  11
TORSDOF 4
ENDMDL
