MODEL 1
REMARK VINA RESULT:    -3.533      0.000      0.000
REMARK INTER + INTRA:          -5.640
REMARK INTER:                  -4.359
REMARK INTRA:                  -1.282
REMARK UNBOUND:                -1.282
REMARK SMILES C=C(CCC=C(C)C)[C@@H]1CC=C(C)CC1
REMARK SMILES IDX 3 1 2 2 1 3 9 4 13 5 12 6 11 7 14 8 10 9 15 10 4 11 5 12
REMARK SMILES IDX 6 13 7 14 8 15
REMARK H PARENT
REMARK Flexibility Score: inf
ROOT
ATOM      1  C   UNL     1     139.314 135.926 122.073  1.00  0.00     0.035 C 
ENDROOT
BRANCH   1   2
ATOM      2  C   UNL     1     137.802 135.931 121.961  1.00  0.00    -0.074 C 
ATOM      3  C   UNL     1     137.188 134.878 121.396  1.00  0.00     0.008 C 
BRANCH   2   4
ATOM      4  C   UNL     1     136.981 137.137 122.401  1.00  0.00     0.018 C 
ATOM      5  C   UNL     1     135.015 140.313 124.685  1.00  0.00     0.039 C 
ATOM      6  C   UNL     1     135.728 139.161 124.031  1.00  0.00    -0.077 C 
ATOM      7  C   UNL     1     137.042 139.283 123.740  1.00  0.00    -0.027 C 
ATOM      8  C   UNL     1     134.923 137.950 123.601  1.00  0.00     0.031 C 
ATOM      9  C   UNL     1     137.857 138.169 123.134  1.00  0.00     0.035 C 
ATOM     10  C   UNL     1     135.798 136.729 123.291  1.00  0.00     0.013 C 
ENDBRANCH   2   4
ENDBRANCH   1   2
BRANCH   1  11
ATOM     11  C   UNL     1     139.788 134.875 123.085  1.00  0.00     0.032 C 
BRANCH  11  12
ATOM     12  C   UNL     1     140.126 135.519 124.406  1.00  0.00    -0.028 C 
ATOM     13  C   UNL     1     139.319 135.508 125.490  1.00  0.00    -0.080 C 
ATOM     14  C   UNL     1     139.808 136.161 126.757  1.00  0.00     0.039 C 
ATOM     15  C   UNL     1     137.946 134.877 125.459  1.00  0.00     0.039 C 
ENDBRANCH  11  12
ENDBRANCH   1  11
TORSDOF 4
ENDMDL
MODEL 2
REMARK VINA RESULT:    -3.221      1.361      2.281
REMARK INTER + INTRA:          -5.256
REMARK INTER:                  -4.169
REMARK INTRA:                  -1.087
REMARK UNBOUND:                -1.282
REMARK SMILES C=C(CCC=C(C)C)[C@@H]1CC=C(C)CC1
REMARK SMILES IDX 3 1 2 2 1 3 9 4 13 5 12 6 11 7 14 8 10 9 15 10 4 11 5 12
REMARK SMILES IDX 6 13 7 14 8 15
REMARK H PARENT
REMARK Flexibility Score: inf
ROOT
ATOM      1  C   UNL     1     137.341 135.312 125.507  1.00  0.00     0.035 C 
ENDROOT
BRANCH   1   2
ATOM      2  C   UNL     1     136.741 135.842 124.218  1.00  0.00    -0.074 C 
ATOM      3  C   UNL     1     136.495 134.983 123.215  1.00  0.00     0.008 C 
BRANCH   2   4
ATOM      4  C   UNL     1     136.493 137.331 124.016  1.00  0.00     0.018 C 
ATOM      5  C   UNL     1     134.897 141.407 124.114  1.00  0.00     0.039 C 
ATOM      6  C   UNL     1     135.321 139.964 124.150  1.00  0.00    -0.077 C 
ATOM      7  C   UNL     1     136.033 139.516 125.206  1.00  0.00    -0.027 C 
ATOM      8  C   UNL     1     135.049 139.090 122.941  1.00  0.00     0.031 C 
ATOM      9  C   UNL     1     136.459 138.077 125.361  1.00  0.00     0.035 C 
ATOM     10  C   UNL     1     135.194 137.593 123.240  1.00  0.00     0.013 C 
ENDBRANCH   2   4
ENDBRANCH   1   2
BRANCH   1  11
ATOM     11  C   UNL     1     138.798 134.881 125.300  1.00  0.00     0.032 C 
BRANCH  11  12
ATOM     12  C   UNL     1     139.725 136.066 125.398  1.00  0.00    -0.028 C 
ATOM     13  C   UNL     1     140.422 136.578 124.359  1.00  0.00    -0.080 C 
ATOM     14  C   UNL     1     141.281 137.793 124.600  1.00  0.00     0.039 C 
ATOM     15  C   UNL     1     140.375 135.961 122.981  1.00  0.00     0.039 C 
ENDBRANCH  11  12
ENDBRANCH   1  11
TORSDOF 4
ENDMDL
MODEL 3
REMARK VINA RESULT:    -1.720      1.176      4.817
REMARK INTER + INTRA:          -3.404
REMARK INTER:                  -2.867
REMARK INTRA:                  -0.536
REMARK UNBOUND:                -1.282
REMARK SMILES C=C(CCC=C(C)C)[C@@H]1CC=C(C)CC1
REMARK SMILES IDX 3 1 2 2 1 3 9 4 13 5 12 6 11 7 14 8 10 9 15 10 4 11 5 12
REMARK SMILES IDX 6 13 7 14 8 15
REMARK H PARENT
REMARK Flexibility Score: inf
ROOT
ATOM      1  C   UNL     1     136.363 135.842 122.175  1.00  0.00     0.035 C 
ENDROOT
BRANCH   1   2
ATOM      2  C   UNL     1     137.808 136.302 122.175  1.00  0.00    -0.074 C 
ATOM      3  C   UNL     1     138.261 137.023 121.136  1.00  0.00     0.008 C 
BRANCH   2   4
ATOM      4  C   UNL     1     138.766 135.892 123.286  1.00  0.00     0.018 C 
ATOM      5  C   UNL     1     140.807 135.318 127.117  1.00  0.00     0.039 C 
ATOM      6  C   UNL     1     140.019 135.616 125.870  1.00  0.00    -0.077 C 
ATOM      7  C   UNL     1     138.914 134.887 125.603  1.00  0.00    -0.027 C 
ATOM      8  C   UNL     1     140.562 136.634 124.886  1.00  0.00     0.031 C 
ATOM      9  C   UNL     1     138.029 135.142 124.409  1.00  0.00     0.035 C 
ATOM     10  C   UNL     1     139.514 137.101 123.869  1.00  0.00     0.013 C 
ENDBRANCH   2   4
ENDBRANCH   1   2
BRANCH   1  11
ATOM     11  C   UNL     1     135.633 136.315 123.437  1.00  0.00     0.032 C 
BRANCH  11  12
ATOM     12  C   UNL     1     135.136 137.729 123.269  1.00  0.00    -0.028 C 
ATOM     13  C   UNL     1     135.495 138.764 124.060  1.00  0.00    -0.080 C 
ATOM     14  C   UNL     1     134.948 140.133 123.747  1.00  0.00     0.039 C 
ATOM     15  C   UNL     1     136.410 138.583 125.250  1.00  0.00     0.039 C 
ENDBRANCH  11  12
ENDBRANCH   1  11
TORSDOF 4
ENDMDL
MODEL 4
REMARK VINA RESULT:    -1.701     13.680     16.430
REMARK INTER + INTRA:          -3.381
REMARK INTER:                  -2.814
REMARK INTRA:                  -0.566
REMARK UNBOUND:                -1.282
REMARK SMILES C=C(CCC=C(C)C)[C@@H]1CC=C(C)CC1
REMARK SMILES IDX 3 1 2 2 1 3 9 4 13 5 12 6 11 7 14 8 10 9 15 10 4 11 5 12
REMARK SMILES IDX 6 13 7 14 8 15
REMARK H PARENT
REMARK Flexibility Score: inf
ROOT
ATOM      1  C   UNL     1     135.256 154.197 122.255  1.00  0.00     0.035 C 
ENDROOT
BRANCH   1   2
ATOM      2  C   UNL     1     135.798 152.782 122.188  1.00  0.00    -0.074 C 
ATOM      3  C   UNL     1     136.380 152.362 121.052  1.00  0.00     0.008 C 
BRANCH   2   4
ATOM      4  C   UNL     1     135.620 151.812 123.349  1.00  0.00     0.018 C 
ATOM      5  C   UNL     1     135.681 149.824 127.250  1.00  0.00     0.039 C 
ATOM      6  C   UNL     1     135.755 150.607 125.968  1.00  0.00    -0.077 C 
ATOM      7  C   UNL     1     134.875 151.610 125.759  1.00  0.00    -0.027 C 
ATOM      8  C   UNL     1     136.728 150.162 124.893  1.00  0.00     0.031 C 
ATOM      9  C   UNL     1     134.901 152.486 124.532  1.00  0.00     0.035 C 
ATOM     10  C   UNL     1     136.962 151.229 123.817  1.00  0.00     0.013 C 
ENDBRANCH   2   4
ENDBRANCH   1   2
BRANCH   1  11
ATOM     11  C   UNL     1     135.800 154.939 123.482  1.00  0.00     0.032 C 
BRANCH  11  12
ATOM     12  C   UNL     1     137.293 155.125 123.375  1.00  0.00    -0.028 C 
ATOM     13  C   UNL     1     138.182 154.716 124.306  1.00  0.00    -0.080 C 
ATOM     14  C   UNL     1     139.650 154.936 124.043  1.00  0.00     0.039 C 
ATOM     15  C   UNL     1     137.746 154.066 125.598  1.00  0.00     0.039 C 
ENDBRANCH  11  12
ENDBRANCH   1  11
TORSDOF 4
ENDMDL
MODEL 5
REMARK VINA RESULT:    -1.579      1.420      4.341
REMARK INTER + INTRA:          -3.230
REMARK INTER:                  -3.296
REMARK INTRA:                   0.066
REMARK UNBOUND:                -1.282
REMARK SMILES C=C(CCC=C(C)C)[C@@H]1CC=C(C)CC1
REMARK SMILES IDX 3 1 2 2 1 3 9 4 13 5 12 6 11 7 14 8 10 9 15 10 4 11 5 12
REMARK SMILES IDX 6 13 7 14 8 15
REMARK H PARENT
REMARK Flexibility Score: inf
ROOT
ATOM      1  C   UNL     1     137.210 135.162 125.581  1.00  0.00     0.035 C 
ENDROOT
BRANCH   1   2
ATOM      2  C   UNL     1     138.562 135.284 124.906  1.00  0.00    -0.074 C 
ATOM      3  C   UNL     1     139.667 134.962 125.600  1.00  0.00     0.008 C 
BRANCH   2   4
ATOM      4  C   UNL     1     138.693 135.840 123.494  1.00  0.00     0.018 C 
ATOM      5  C   UNL     1     138.050 137.878 119.673  1.00  0.00     0.039 C 
ATOM      6  C   UNL     1     138.129 137.211 121.018  1.00  0.00    -0.077 C 
ATOM      7  C   UNL     1     138.516 137.937 122.089  1.00  0.00    -0.027 C 
ATOM      8  C   UNL     1     137.899 135.714 121.108  1.00  0.00     0.031 C 
ATOM      9  C   UNL     1     138.576 137.375 123.487  1.00  0.00     0.035 C 
ATOM     10  C   UNL     1     137.651 135.233 122.542  1.00  0.00     0.013 C 
ENDBRANCH   2   4
ENDBRANCH   1   2
BRANCH   1  11
ATOM     11  C   UNL     1     136.593 136.543 125.834  1.00  0.00     0.032 C 
BRANCH  11  12
ATOM     12  C   UNL     1     135.841 137.023 124.618  1.00  0.00    -0.028 C 
ATOM     13  C   UNL     1     135.613 138.322 124.324  1.00  0.00    -0.080 C 
ATOM     14  C   UNL     1     134.879 138.652 123.050  1.00  0.00     0.039 C 
ATOM     15  C   UNL     1     136.058 139.439 125.239  1.00  0.00     0.039 C 
ENDBRANCH  11  12
ENDBRANCH   1  11
TORSDOF 4
ENDMDL
MODEL 6
REMARK VINA RESULT:    -1.105      1.218      4.804
REMARK INTER + INTRA:          -2.645
REMARK INTER:                  -1.667
REMARK INTRA:                  -0.977
REMARK UNBOUND:                -1.282
REMARK SMILES C=C(CCC=C(C)C)[C@@H]1CC=C(C)CC1
REMARK SMILES IDX 3 1 2 2 1 3 9 4 13 5 12 6 11 7 14 8 10 9 15 10 4 11 5 12
REMARK SMILES IDX 6 13 7 14 8 15
REMARK H PARENT
REMARK Flexibility Score: inf
ROOT
ATOM      1  C   UNL     1     136.382 135.155 123.624  1.00  0.00     0.035 C 
ENDROOT
BRANCH   1   2
ATOM      2  C   UNL     1     137.784 135.149 123.047  1.00  0.00    -0.074 C 
ATOM      3  C   UNL     1     137.949 134.881 121.741  1.00  0.00     0.008 C 
BRANCH   2   4
ATOM      4  C   UNL     1     139.004 135.358 123.935  1.00  0.00     0.018 C 
ATOM      5  C   UNL     1     141.833 136.718 126.988  1.00  0.00     0.039 C 
ATOM      6  C   UNL     1     140.772 136.363 125.983  1.00  0.00    -0.077 C 
ATOM      7  C   UNL     1     139.798 135.496 126.334  1.00  0.00    -0.027 C 
ATOM      8  C   UNL     1     140.903 136.886 124.565  1.00  0.00     0.031 C 
ATOM      9  C   UNL     1     138.662 135.118 125.416  1.00  0.00     0.035 C 
ATOM     10  C   UNL     1     139.605 136.762 123.759  1.00  0.00     0.013 C 
ENDBRANCH   2   4
ENDBRANCH   1   2
BRANCH   1  11
ATOM     11  C   UNL     1     135.522 136.243 122.970  1.00  0.00     0.032 C 
BRANCH  11  12
ATOM     12  C   UNL     1     135.436 137.460 123.857  1.00  0.00    -0.028 C 
ATOM     13  C   UNL     1     136.171 138.581 123.688  1.00  0.00    -0.080 C 
ATOM     14  C   UNL     1     135.948 139.735 124.632  1.00  0.00     0.039 C 
ATOM     15  C   UNL     1     137.212 138.700 122.600  1.00  0.00     0.039 C 
ENDBRANCH  11  12
ENDBRANCH   1  11
TORSDOF 4
ENDMDL
MODEL 7
REMARK VINA RESULT:    -1.046     13.495     16.529
REMARK INTER + INTRA:          -2.573
REMARK INTER:                  -3.200
REMARK INTRA:                   0.628
REMARK UNBOUND:                -1.282
REMARK SMILES C=C(CCC=C(C)C)[C@@H]1CC=C(C)CC1
REMARK SMILES IDX 3 1 2 2 1 3 9 4 13 5 12 6 11 7 14 8 10 9 15 10 4 11 5 12
REMARK SMILES IDX 6 13 7 14 8 15
REMARK H PARENT
REMARK Flexibility Score: inf
ROOT
ATOM      1  C   UNL     1     134.879 151.809 125.490  1.00  0.00     0.035 C 
ENDROOT
BRANCH   1   2
ATOM      2  C   UNL     1     135.799 151.190 124.456  1.00  0.00    -0.074 C 
ATOM      3  C   UNL     1     136.194 149.916 124.617  1.00  0.00     0.008 C 
BRANCH   2   4
ATOM      4  C   UNL     1     136.345 152.009 123.294  1.00  0.00     0.018 C 
ATOM      5  C   UNL     1     138.215 153.343 119.566  1.00  0.00     0.039 C 
ATOM      6  C   UNL     1     137.627 152.749 120.817  1.00  0.00    -0.077 C 
ATOM      7  C   UNL     1     136.383 152.225 120.773  1.00  0.00    -0.027 C 
ATOM      8  C   UNL     1     138.396 152.874 122.119  1.00  0.00     0.031 C 
ATOM      9  C   UNL     1     135.728 151.561 121.958  1.00  0.00     0.035 C 
ATOM     10  C   UNL     1     137.878 151.934 123.213  1.00  0.00     0.013 C 
ENDBRANCH   2   4
ENDBRANCH   1   2
BRANCH   1  11
ATOM     11  C   UNL     1     134.941 153.340 125.438  1.00  0.00     0.032 C 
BRANCH  11  12
ATOM     12  C   UNL     1     136.364 153.822 125.572  1.00  0.00    -0.028 C 
ATOM     13  C   UNL     1     136.978 154.644 124.693  1.00  0.00    -0.080 C 
ATOM     14  C   UNL     1     138.394 155.074 124.980  1.00  0.00     0.039 C 
ATOM     15  C   UNL     1     136.294 155.125 123.435  1.00  0.00     0.039 C 
ENDBRANCH  11  12
ENDBRANCH   1  11
TORSDOF 4
ENDMDL
MODEL 8
REMARK VINA RESULT:    -0.563     13.034     16.272
REMARK INTER + INTRA:          -1.976
REMARK INTER:                  -1.941
REMARK INTRA:                  -0.035
REMARK UNBOUND:                -1.282
REMARK SMILES C=C(CCC=C(C)C)[C@@H]1CC=C(C)CC1
REMARK SMILES IDX 3 1 2 2 1 3 9 4 13 5 12 6 11 7 14 8 10 9 15 10 4 11 5 12
REMARK SMILES IDX 6 13 7 14 8 15
REMARK H PARENT
REMARK Flexibility Score: inf
ROOT
ATOM      1  C   UNL     1     135.398 153.753 125.669  1.00  0.00     0.035 C 
ENDROOT
BRANCH   1   2
ATOM      2  C   UNL     1     136.706 153.950 124.928  1.00  0.00    -0.074 C 
ATOM      3  C   UNL     1     137.632 154.772 125.450  1.00  0.00     0.008 C 
BRANCH   2   4
ATOM      4  C   UNL     1     136.951 153.300 123.572  1.00  0.00     0.018 C 
ATOM      5  C   UNL     1     137.778 152.510 119.346  1.00  0.00     0.039 C 
ATOM      6  C   UNL     1     137.485 152.926 120.761  1.00  0.00    -0.077 C 
ATOM      7  C   UNL     1     138.514 153.226 121.583  1.00  0.00    -0.027 C 
ATOM      8  C   UNL     1     136.054 152.869 121.260  1.00  0.00     0.031 C 
ATOM      9  C   UNL     1     138.322 153.703 123.001  1.00  0.00     0.035 C 
ATOM     10  C   UNL     1     135.844 153.646 122.565  1.00  0.00     0.013 C 
ENDBRANCH   2   4
ENDBRANCH   1   2
BRANCH   1  11
ATOM     11  C   UNL     1     134.875 152.322 125.495  1.00  0.00     0.032 C 
BRANCH  11  12
ATOM     12  C   UNL     1     136.006 151.327 125.576  1.00  0.00    -0.028 C 
ATOM     13  C   UNL     1     136.286 150.410 124.624  1.00  0.00    -0.080 C 
ATOM     14  C   UNL     1     137.474 149.505 124.824  1.00  0.00     0.039 C 
ATOM     15  C   UNL     1     135.436 150.259 123.383  1.00  0.00     0.039 C 
ENDBRANCH  11  12
ENDBRANCH   1  11
TORSDOF 4
ENDMDL
