MODEL 1
REMARK VINA RESULT:    -4.038      0.000      0.000
REMARK INTER + INTRA:          -7.089
REMARK INTER:                  -6.162
REMARK INTRA:                  -0.927
REMARK UNBOUND:                -0.927
REMARK SMILES O=C([O-])CCCCCCCCC(=O)[O-]
REMARK SMILES IDX 7 1 6 2 5 3 4 4 2 5 1 6 3 7 8 8 9 9 10 10 11 11 12 12 13 13
REMARK SMILES IDX 14 14
REMARK H PARENT
REMARK Flexibility Score: inf
ROOT
ATOM      1  C   UNL     1      -6.292   9.348  -8.333  1.00  0.00     0.000 C 
ENDROOT
BRANCH   1   2
ATOM      2  C   UNL     1      -7.758   8.933  -8.144  1.00  0.00     0.000 C 
BRANCH   2   3
ATOM      3  C   UNL     1      -8.031   7.495  -8.612  1.00  0.00     0.006 C 
BRANCH   3   4
ATOM      4  C   UNL     1      -7.704   6.452  -7.535  1.00  0.00     0.053 C 
BRANCH   4   5
ATOM      5  C   UNL     1      -7.146   5.213  -8.162  1.00  0.00     0.041 C 
ATOM      6  O   UNL     1      -6.021   4.774  -7.806  1.00  0.00    -0.550 OA
ATOM      7  O   UNL     1      -7.890   4.516  -9.106  1.00  0.00    -0.550 OA
ENDBRANCH   4   5
ENDBRANCH   3   4
ENDBRANCH   2   3
ENDBRANCH   1   2
BRANCH   1   8
ATOM      8  C   UNL     1      -5.674   8.641  -9.547  1.00  0.00     0.000 C 
BRANCH   8   9
ATOM      9  C   UNL     1      -4.241   8.183  -9.247  1.00  0.00     0.000 C 
BRANCH   9  10
ATOM     10  C   UNL     1      -3.891   8.404  -7.769  1.00  0.00     0.006 C 
BRANCH  10  11
ATOM     11  C   UNL     1      -3.506   7.098  -7.062  1.00  0.00     0.053 C 
BRANCH  11  12
ATOM     12  C   UNL     1      -4.227   6.937  -5.758  1.00  0.00     0.041 C 
ATOM     13  O   UNL     1      -5.286   7.582  -5.537  1.00  0.00    -0.550 OA
ATOM     14  O   UNL     1      -3.711   6.100  -4.777  1.00  0.00    -0.550 OA
ENDBRANCH  11  12
ENDBRANCH  10  11
ENDBRANCH   9  10
ENDBRANCH   8   9
ENDBRANCH   1   8
TORSDOF 9
ENDMDL
MODEL 2
REMARK VINA RESULT:    -3.972      0.202      4.136
REMARK INTER + INTRA:          -6.988
REMARK INTER:                  -6.112
REMARK INTRA:                  -0.877
REMARK UNBOUND:                -0.927
REMARK SMILES O=C([O-])CCCCCCCCC(=O)[O-]
REMARK SMILES IDX 7 1 6 2 5 3 4 4 2 5 1 6 3 7 8 8 9 9 10 10 11 11 12 12 13 13
REMARK SMILES IDX 14 14
REMARK H PARENT
REMARK Flexibility Score: inf
ROOT
ATOM      1  C   UNL     1      -5.622   8.496  -9.562  1.00  0.00     0.000 C 
ENDROOT
BRANCH   1   2
ATOM      2  C   UNL     1      -4.133   8.256  -9.272  1.00  0.00     0.000 C 
BRANCH   2   3
ATOM      3  C   UNL     1      -3.790   8.395  -7.780  1.00  0.00     0.006 C 
BRANCH   3   4
ATOM      4  C   UNL     1      -3.473   7.048  -7.118  1.00  0.00     0.053 C 
BRANCH   4   5
ATOM      5  C   UNL     1      -4.166   6.941  -5.796  1.00  0.00     0.041 C 
ATOM      6  O   UNL     1      -5.270   7.517  -5.609  1.00  0.00    -0.550 OA
ATOM      7  O   UNL     1      -3.616   6.163  -4.785  1.00  0.00    -0.550 OA
ENDBRANCH   4   5
ENDBRANCH   3   4
ENDBRANCH   2   3
ENDBRANCH   1   2
BRANCH   1   8
ATOM      8  C   UNL     1      -6.240   9.432  -8.516  1.00  0.00     0.000 C 
BRANCH   8   9
ATOM      9  C   UNL     1      -7.426   8.764  -7.810  1.00  0.00     0.000 C 
BRANCH   9  10
ATOM     10  C   UNL     1      -7.843   7.476  -8.535  1.00  0.00     0.006 C 
BRANCH  10  11
ATOM     11  C   UNL     1      -7.857   6.261  -7.599  1.00  0.00     0.053 C 
BRANCH  11  12
ATOM     12  C   UNL     1      -7.159   5.082  -8.205  1.00  0.00     0.041 C 
ATOM     13  O   UNL     1      -7.744   4.375  -9.068  1.00  0.00    -0.550 OA
ATOM     14  O   UNL     1      -5.875   4.747  -7.795  1.00  0.00    -0.550 OA
ENDBRANCH  11  12
ENDBRANCH  10  11
ENDBRANCH   9  10
ENDBRANCH   8   9
ENDBRANCH   1   8
TORSDOF 9
ENDMDL
MODEL 3
REMARK VINA RESULT:    -3.884      0.669      1.102
REMARK INTER + INTRA:          -6.854
REMARK INTER:                  -5.920
REMARK INTRA:                  -0.934
REMARK UNBOUND:                -0.927
REMARK SMILES O=C([O-])CCCCCCCCC(=O)[O-]
REMARK SMILES IDX 7 1 6 2 5 3 4 4 2 5 1 6 3 7 8 8 9 9 10 10 11 11 12 12 13 13
REMARK SMILES IDX 14 14
REMARK H PARENT
REMARK Flexibility Score: inf
ROOT
ATOM      1  C   UNL     1      -6.561   9.561  -7.926  1.00  0.00     0.000 C 
ENDROOT
BRANCH   1   2
ATOM      2  C   UNL     1      -7.948   9.076  -8.370  1.00  0.00     0.000 C 
BRANCH   2   3
ATOM      3  C   UNL     1      -7.930   7.632  -8.896  1.00  0.00     0.006 C 
BRANCH   3   4
ATOM      4  C   UNL     1      -7.809   6.596  -7.771  1.00  0.00     0.053 C 
BRANCH   4   5
ATOM      5  C   UNL     1      -7.411   5.265  -8.328  1.00  0.00     0.041 C 
ATOM      6  O   UNL     1      -8.209   4.616  -9.053  1.00  0.00    -0.550 OA
ATOM      7  O   UNL     1      -6.138   4.764  -8.085  1.00  0.00    -0.550 OA
ENDBRANCH   4   5
ENDBRANCH   3   4
ENDBRANCH   2   3
ENDBRANCH   1   2
BRANCH   1   8
ATOM      8  C   UNL     1      -5.659   9.827  -9.138  1.00  0.00     0.000 C 
BRANCH   8   9
ATOM      9  C   UNL     1      -4.233   9.320  -8.886  1.00  0.00     0.000 C 
BRANCH   9  10
ATOM     10  C   UNL     1      -4.244   7.853  -8.432  1.00  0.00     0.006 C 
BRANCH  10  11
ATOM     11  C   UNL     1      -3.413   7.633  -7.161  1.00  0.00     0.053 C 
BRANCH  11  12
ATOM     12  C   UNL     1      -4.175   6.868  -6.122  1.00  0.00     0.041 C 
ATOM     13  O   UNL     1      -5.118   7.420  -5.495  1.00  0.00    -0.550 OA
ATOM     14  O   UNL     1      -3.824   5.558  -5.825  1.00  0.00    -0.550 OA
ENDBRANCH  11  12
ENDBRANCH  10  11
ENDBRANCH   9  10
ENDBRANCH   8   9
ENDBRANCH   1   8
TORSDOF 9
ENDMDL
MODEL 4
REMARK VINA RESULT:    -3.798      0.241      4.133
REMARK INTER + INTRA:          -6.724
REMARK INTER:                  -5.836
REMARK INTRA:                  -0.888
REMARK UNBOUND:                -0.927
REMARK SMILES O=C([O-])CCCCCCCCC(=O)[O-]
REMARK SMILES IDX 7 1 6 2 5 3 4 4 2 5 1 6 3 7 8 8 9 9 10 10 11 11 12 12 13 13
REMARK SMILES IDX 14 14
REMARK H PARENT
REMARK Flexibility Score: inf
ROOT
ATOM      1  C   UNL     1      -5.586   8.863  -9.580  1.00  0.00     0.000 C 
ENDROOT
BRANCH   1   2
ATOM      2  C   UNL     1      -4.262   8.227  -9.134  1.00  0.00     0.000 C 
BRANCH   2   3
ATOM      3  C   UNL     1      -4.035   8.334  -7.618  1.00  0.00     0.006 C 
BRANCH   3   4
ATOM      4  C   UNL     1      -3.495   7.034  -7.009  1.00  0.00     0.053 C 
BRANCH   4   5
ATOM      5  C   UNL     1      -4.132   6.776  -5.679  1.00  0.00     0.041 C 
ATOM      6  O   UNL     1      -3.628   5.938  -4.886  1.00  0.00    -0.550 OA
ATOM      7  O   UNL     1      -5.255   7.499  -5.296  1.00  0.00    -0.550 OA
ENDBRANCH   4   5
ENDBRANCH   3   4
ENDBRANCH   2   3
ENDBRANCH   1   2
BRANCH   1   8
ATOM      8  C   UNL     1      -6.443   9.252  -8.368  1.00  0.00     0.000 C 
BRANCH   8   9
ATOM      9  C   UNL     1      -7.931   8.991  -8.639  1.00  0.00     0.000 C 
BRANCH   9  10
ATOM     10  C   UNL     1      -8.202   7.490  -8.816  1.00  0.00     0.006 C 
BRANCH  10  11
ATOM     11  C   UNL     1      -7.603   6.653  -7.678  1.00  0.00     0.053 C 
BRANCH  11  12
ATOM     12  C   UNL     1      -7.169   5.300  -8.151  1.00  0.00     0.041 C 
ATOM     13  O   UNL     1      -6.013   4.876  -7.882  1.00  0.00    -0.550 OA
ATOM     14  O   UNL     1      -8.028   4.521  -8.915  1.00  0.00    -0.550 OA
ENDBRANCH  11  12
ENDBRANCH  10  11
ENDBRANCH   9  10
ENDBRANCH   8   9
ENDBRANCH   1   8
TORSDOF 9
ENDMDL
MODEL 5
REMARK VINA RESULT:    -3.559      3.207      6.006
REMARK INTER + INTRA:          -6.359
REMARK INTER:                  -5.959
REMARK INTRA:                  -0.400
REMARK UNBOUND:                -0.927
REMARK SMILES O=C([O-])CCCCCCCCC(=O)[O-]
REMARK SMILES IDX 7 1 6 2 5 3 4 4 2 5 1 6 3 7 8 8 9 9 10 10 11 11 12 12 13 13
REMARK SMILES IDX 14 14
REMARK H PARENT
REMARK Flexibility Score: inf
ROOT
ATOM      1  C   UNL     1      -3.786   5.661  -5.954  1.00  0.00     0.000 C 
ENDROOT
BRANCH   1   2
ATOM      2  C   UNL     1      -3.384   5.386  -4.498  1.00  0.00     0.000 C 
BRANCH   2   3
ATOM      3  C   UNL     1      -2.578   4.086  -4.342  1.00  0.00     0.006 C 
BRANCH   3   4
ATOM      4  C   UNL     1      -2.843   3.383  -3.005  1.00  0.00     0.053 C 
BRANCH   4   5
ATOM      5  C   UNL     1      -1.575   2.808  -2.458  1.00  0.00     0.041 C 
ATOM      6  O   UNL     1      -0.995   3.359  -1.486  1.00  0.00    -0.550 OA
ATOM      7  O   UNL     1      -1.058   1.634  -2.992  1.00  0.00    -0.550 OA
ENDBRANCH   4   5
ENDBRANCH   3   4
ENDBRANCH   2   3
ENDBRANCH   1   2
BRANCH   1   8
ATOM      8  C   UNL     1      -3.375   7.077  -6.378  1.00  0.00     0.000 C 
BRANCH   8   9
ATOM      9  C   UNL     1      -4.516   7.783  -7.121  1.00  0.00     0.000 C 
BRANCH   9  10
ATOM     10  C   UNL     1      -5.871   7.481  -6.462  1.00  0.00     0.006 C 
BRANCH  10  11
ATOM     11  C   UNL     1      -6.970   7.207  -7.497  1.00  0.00     0.053 C 
BRANCH  11  12
ATOM     12  C   UNL     1      -7.291   5.747  -7.596  1.00  0.00     0.041 C 
ATOM     13  O   UNL     1      -8.416   5.319  -7.224  1.00  0.00    -0.550 OA
ATOM     14  O   UNL     1      -6.336   4.856  -8.069  1.00  0.00    -0.550 OA
ENDBRANCH  11  12
ENDBRANCH  10  11
ENDBRANCH   9  10
ENDBRANCH   8   9
ENDBRANCH   1   8
TORSDOF 9
ENDMDL
MODEL 6
REMARK VINA RESULT:    -3.543      3.243      4.489
REMARK INTER + INTRA:          -6.334
REMARK INTER:                  -5.937
REMARK INTRA:                  -0.396
REMARK UNBOUND:                -0.927
REMARK SMILES O=C([O-])CCCCCCCCC(=O)[O-]
REMARK SMILES IDX 7 1 6 2 5 3 4 4 2 5 1 6 3 7 8 8 9 9 10 10 11 11 12 12 13 13
REMARK SMILES IDX 14 14
REMARK H PARENT
REMARK Flexibility Score: inf
ROOT
ATOM      1  C   UNL     1      -3.889   7.051  -6.276  1.00  0.00     0.000 C 
ENDROOT
BRANCH   1   2
ATOM      2  C   UNL     1      -5.344   7.544  -6.263  1.00  0.00     0.000 C 
BRANCH   2   3
ATOM      3  C   UNL     1      -5.967   7.583  -7.668  1.00  0.00     0.006 C 
BRANCH   3   4
ATOM      4  C   UNL     1      -7.394   7.021  -7.696  1.00  0.00     0.053 C 
BRANCH   4   5
ATOM      5  C   UNL     1      -7.366   5.525  -7.641  1.00  0.00     0.041 C 
ATOM      6  O   UNL     1      -8.262   4.896  -7.020  1.00  0.00    -0.550 OA
ATOM      7  O   UNL     1      -6.375   4.824  -8.317  1.00  0.00    -0.550 OA
ENDBRANCH   4   5
ENDBRANCH   3   4
ENDBRANCH   2   3
ENDBRANCH   1   2
BRANCH   1   8
ATOM      8  C   UNL     1      -3.814   5.556  -5.943  1.00  0.00     0.000 C 
BRANCH   8   9
ATOM      9  C   UNL     1      -3.376   5.336  -4.489  1.00  0.00     0.000 C 
BRANCH   9  10
ATOM     10  C   UNL     1      -2.540   4.055  -4.355  1.00  0.00     0.006 C 
BRANCH  10  11
ATOM     11  C   UNL     1      -2.821   3.313  -3.041  1.00  0.00     0.053 C 
BRANCH  11  12
ATOM     12  C   UNL     1      -1.578   2.707  -2.467  1.00  0.00     0.041 C 
ATOM     13  O   UNL     1      -1.040   3.212  -1.446  1.00  0.00    -0.550 OA
ATOM     14  O   UNL     1      -0.995   1.603  -3.078  1.00  0.00    -0.550 OA
ENDBRANCH  11  12
ENDBRANCH  10  11
ENDBRANCH   9  10
ENDBRANCH   8   9
ENDBRANCH   1   8
TORSDOF 9
ENDMDL
MODEL 7
REMARK VINA RESULT:    -3.501      2.467      3.241
REMARK INTER + INTRA:          -6.271
REMARK INTER:                  -5.548
REMARK INTRA:                  -0.723
REMARK UNBOUND:                -0.927
REMARK SMILES O=C([O-])CCCCCCCCC(=O)[O-]
REMARK SMILES IDX 7 1 6 2 5 3 4 4 2 5 1 6 3 7 8 8 9 9 10 10 11 11 12 12 13 13
REMARK SMILES IDX 14 14
REMARK H PARENT
REMARK Flexibility Score: inf
ROOT
ATOM      1  C   UNL     1      -7.158   5.403  -7.987  1.00  0.00     0.000 C 
ENDROOT
BRANCH   1   2
ATOM      2  C   UNL     1      -8.288   4.844  -8.864  1.00  0.00     0.000 C 
BRANCH   2   3
ATOM      3  C   UNL     1      -9.662   4.923  -8.180  1.00  0.00     0.006 C 
BRANCH   3   4
ATOM      4  C   UNL     1     -10.069   3.600  -7.518  1.00  0.00     0.053 C 
BRANCH   4   5
ATOM      5  C   UNL     1      -9.870   3.677  -6.036  1.00  0.00     0.041 C 
ATOM      6  O   UNL     1      -9.913   4.788  -5.447  1.00  0.00    -0.550 OA
ATOM      7  O   UNL     1      -9.686   2.513  -5.300  1.00  0.00    -0.550 OA
ENDBRANCH   4   5
ENDBRANCH   3   4
ENDBRANCH   2   3
ENDBRANCH   1   2
BRANCH   1   8
ATOM      8  C   UNL     1      -7.573   6.730  -7.338  1.00  0.00     0.000 C 
BRANCH   8   9
ATOM      9  C   UNL     1      -6.508   7.810  -7.562  1.00  0.00     0.000 C 
BRANCH   9  10
ATOM     10  C   UNL     1      -5.158   7.182  -7.936  1.00  0.00     0.006 C 
BRANCH  10  11
ATOM     11  C   UNL     1      -4.090   7.415  -6.859  1.00  0.00     0.053 C 
BRANCH  11  12
ATOM     12  C   UNL     1      -3.960   6.240  -5.939  1.00  0.00     0.041 C 
ATOM     13  O   UNL     1      -3.708   6.417  -4.718  1.00  0.00    -0.550 OA
ATOM     14  O   UNL     1      -4.084   4.949  -6.438  1.00  0.00    -0.550 OA
ENDBRANCH  11  12
ENDBRANCH  10  11
ENDBRANCH   9  10
ENDBRANCH   8   9
ENDBRANCH   1   8
TORSDOF 9
ENDMDL
MODEL 8
REMARK VINA RESULT:    -3.494      1.138      1.383
REMARK INTER + INTRA:          -6.260
REMARK INTER:                  -5.540
REMARK INTRA:                  -0.720
REMARK UNBOUND:                -0.927
REMARK SMILES O=C([O-])CCCCCCCCC(=O)[O-]
REMARK SMILES IDX 7 1 6 2 5 3 4 4 2 5 1 6 3 7 8 8 9 9 10 10 11 11 12 12 13 13
REMARK SMILES IDX 14 14
REMARK H PARENT
REMARK Flexibility Score: inf
ROOT
ATOM      1  C   UNL     1      -6.332   9.662  -9.663  1.00  0.00     0.000 C 
ENDROOT
BRANCH   1   2
ATOM      2  C   UNL     1      -7.131   8.381  -9.944  1.00  0.00     0.000 C 
BRANCH   2   3
ATOM      3  C   UNL     1      -7.600   7.682  -8.658  1.00  0.00     0.006 C 
BRANCH   3   4
ATOM      4  C   UNL     1      -8.268   6.328  -8.932  1.00  0.00     0.053 C 
BRANCH   4   5
ATOM      5  C   UNL     1      -7.672   5.268  -8.060  1.00  0.00     0.041 C 
ATOM      6  O   UNL     1      -6.486   4.889  -8.242  1.00  0.00    -0.550 OA
ATOM      7  O   UNL     1      -8.414   4.731  -7.015  1.00  0.00    -0.550 OA
ENDBRANCH   4   5
ENDBRANCH   3   4
ENDBRANCH   2   3
ENDBRANCH   1   2
BRANCH   1   8
ATOM      8  C   UNL     1      -5.323   9.441  -8.529  1.00  0.00     0.000 C 
BRANCH   8   9
ATOM      9  C   UNL     1      -4.158   8.557  -8.993  1.00  0.00     0.000 C 
BRANCH   9  10
ATOM     10  C   UNL     1      -3.493   7.854  -7.800  1.00  0.00     0.006 C 
BRANCH  10  11
ATOM     11  C   UNL     1      -4.495   7.529  -6.685  1.00  0.00     0.053 C 
BRANCH  11  12
ATOM     12  C   UNL     1      -4.066   6.341  -5.879  1.00  0.00     0.041 C 
ATOM     13  O   UNL     1      -3.731   5.273  -6.456  1.00  0.00    -0.550 OA
ATOM     14  O   UNL     1      -4.068   6.405  -4.492  1.00  0.00    -0.550 OA
ENDBRANCH  11  12
ENDBRANCH  10  11
ENDBRANCH   9  10
ENDBRANCH   8   9
ENDBRANCH   1   8
TORSDOF 9
ENDMDL
MODEL 9
REMARK VINA RESULT:    -3.419      2.134      4.346
REMARK INTER + INTRA:          -6.145
REMARK INTER:                  -5.286
REMARK INTRA:                  -0.859
REMARK UNBOUND:                -0.927
REMARK SMILES O=C([O-])CCCCCCCCC(=O)[O-]
REMARK SMILES IDX 7 1 6 2 5 3 4 4 2 5 1 6 3 7 8 8 9 9 10 10 11 11 12 12 13 13
REMARK SMILES IDX 14 14
REMARK H PARENT
REMARK Flexibility Score: inf
ROOT
ATOM      1  C   UNL     1      -3.736   7.898  -7.155  1.00  0.00     0.000 C 
ENDROOT
BRANCH   1   2
ATOM      2  C   UNL     1      -4.106   8.210  -8.613  1.00  0.00     0.000 C 
BRANCH   2   3
ATOM      3  C   UNL     1      -5.048   9.417  -8.739  1.00  0.00     0.006 C 
BRANCH   3   4
ATOM      4  C   UNL     1      -6.453   9.023  -9.214  1.00  0.00     0.053 C 
BRANCH   4   5
ATOM      5  C   UNL     1      -7.480   9.442  -8.209  1.00  0.00     0.041 C 
ATOM      6  O   UNL     1      -7.131   9.782  -7.049  1.00  0.00    -0.550 OA
ATOM      7  O   UNL     1      -8.820   9.505  -8.571  1.00  0.00    -0.550 OA
ENDBRANCH   4   5
ENDBRANCH   3   4
ENDBRANCH   2   3
ENDBRANCH   1   2
BRANCH   1   8
ATOM      8  C   UNL     1      -4.866   7.131  -6.455  1.00  0.00     0.000 C 
BRANCH   8   9
ATOM      9  C   UNL     1      -4.851   5.648  -6.848  1.00  0.00     0.000 C 
BRANCH   9  10
ATOM     10  C   UNL     1      -6.076   5.294  -7.704  1.00  0.00     0.006 C 
BRANCH  10  11
ATOM     11  C   UNL     1      -7.345   6.013  -7.227  1.00  0.00     0.053 C 
BRANCH  11  12
ATOM     12  C   UNL     1      -8.577   5.203  -7.493  1.00  0.00     0.041 C 
ATOM     13  O   UNL     1      -9.050   5.135  -8.659  1.00  0.00    -0.550 OA
ATOM     14  O   UNL     1      -9.220   4.552  -6.449  1.00  0.00    -0.550 OA
ENDBRANCH  11  12
ENDBRANCH  10  11
ENDBRANCH   9  10
ENDBRANCH   8   9
ENDBRANCH   1   8
TORSDOF 9
ENDMDL
