MODEL 1
REMARK VINA RESULT:    -4.985      0.000      0.000
REMARK INTER + INTRA:          -6.734
REMARK INTER:                  -6.443
REMARK INTRA:                  -0.291
REMARK UNBOUND:                -0.291
REMARK SMILES CCO[C@@H]1O[C@H](CO)[C@@H](O)[C@@H](O)[C@@H]1O
REMARK SMILES IDX 4 1 13 2 11 3 9 4 6 5 5 6 3 7 2 8 1 9 14 10 12 12 7 14 8 15
REMARK SMILES IDX 10 17
REMARK H PARENT 14 11 12 13 8 16 10 18
REMARK Flexibility Score: inf
ROOT
ATOM      1  C   UNL     1      36.491   4.898  43.184  1.00  0.00     0.281 C 
ATOM      2  C   UNL     1      36.079   6.197  43.900  1.00  0.00     0.202 C 
ATOM      3  C   UNL     1      37.310   6.910  44.461  1.00  0.00     0.179 C 
ATOM      4  C   UNL     1      38.341   7.126  43.338  1.00  0.00     0.177 C 
ATOM      5  C   UNL     1      38.610   5.820  42.547  1.00  0.00     0.178 C 
ATOM      6  O   UNL     1      37.430   5.130  42.142  1.00  0.00    -0.341 OA
ENDROOT
BRANCH   1   7
ATOM      7  O   UNL     1      36.975   3.947  44.117  1.00  0.00    -0.350 OA
BRANCH   7   8
ATOM      8  C   UNL     1      36.732   2.635  43.652  1.00  0.00     0.160 C 
ATOM      9  C   UNL     1      37.482   1.648  44.533  1.00  0.00     0.035 C 
ENDBRANCH   7   8
ENDBRANCH   1   7
BRANCH   2  10
ATOM     10  O   UNL     1      35.188   5.911  44.948  1.00  0.00    -0.385 OA
ATOM     11  H   UNL     1      34.361   5.553  44.532  1.00  0.00     0.211 HD
ENDBRANCH   2  10
BRANCH   3  12
ATOM     12  O   UNL     1      36.922   8.141  45.015  1.00  0.00    -0.387 OA
ATOM     13  H   UNL     1      36.018   8.007  45.405  1.00  0.00     0.211 HD
ENDBRANCH   3  12
BRANCH   5  14
ATOM     14  C   UNL     1      39.674   4.887  43.167  1.00  0.00     0.191 C 
BRANCH  14  15
ATOM     15  O   UNL     1      39.694   4.962  44.564  1.00  0.00    -0.394 OA
ATOM     16  H   UNL     1      38.746   5.015  44.852  1.00  0.00     0.210 HD
ENDBRANCH  14  15
ENDBRANCH   5  14
BRANCH   4  17
ATOM     17  O   UNL     1      37.874   8.106  42.444  1.00  0.00    -0.387 OA
ATOM     18  H   UNL     1      38.635   8.712  42.248  1.00  0.00     0.211 HD
ENDBRANCH   4  17
TORSDOF 7
ENDMDL
MODEL 2
REMARK VINA RESULT:    -4.713      1.555      2.094
REMARK INTER + INTRA:          -6.382
REMARK INTER:                  -6.068
REMARK INTRA:                  -0.314
REMARK UNBOUND:                -0.291
REMARK SMILES CCO[C@@H]1O[C@H](CO)[C@@H](O)[C@@H](O)[C@@H]1O
REMARK SMILES IDX 4 1 13 2 11 3 9 4 6 5 5 6 3 7 2 8 1 9 14 10 12 12 7 14 8 15
REMARK SMILES IDX 10 17
REMARK H PARENT 14 11 12 13 8 16 10 18
REMARK Flexibility Score: inf
ROOT
ATOM      1  C   UNL     1      37.223   4.916  42.856  1.00  0.00     0.281 C 
ATOM      2  C   UNL     1      35.936   5.051  43.690  1.00  0.00     0.202 C 
ATOM      3  C   UNL     1      36.173   5.968  44.891  1.00  0.00     0.179 C 
ATOM      4  C   UNL     1      36.740   7.317  44.410  1.00  0.00     0.177 C 
ATOM      5  C   UNL     1      37.942   7.125  43.450  1.00  0.00     0.178 C 
ATOM      6  O   UNL     1      37.714   6.175  42.412  1.00  0.00    -0.341 OA
ENDROOT
BRANCH   1   7
ATOM      7  O   UNL     1      38.211   4.199  43.577  1.00  0.00    -0.350 OA
BRANCH   7   8
ATOM      8  C   UNL     1      38.996   3.423  42.695  1.00  0.00     0.160 C 
ATOM      9  C   UNL     1      38.119   2.366  42.045  1.00  0.00     0.035 C 
ENDBRANCH   7   8
ENDBRANCH   1   7
BRANCH   2  10
ATOM     10  O   UNL     1      35.518   3.789  44.144  1.00  0.00    -0.385 OA
ATOM     11  H   UNL     1      34.598   3.902  44.500  1.00  0.00     0.211 HD
ENDBRANCH   2  10
BRANCH   3  12
ATOM     12  O   UNL     1      34.961   6.160  45.575  1.00  0.00    -0.387 OA
ATOM     13  H   UNL     1      34.938   5.492  46.309  1.00  0.00     0.211 HD
ENDBRANCH   3  12
BRANCH   5  14
ATOM     14  C   UNL     1      39.310   6.946  44.145  1.00  0.00     0.191 C 
BRANCH  14  15
ATOM     15  O   UNL     1      39.455   7.786  45.254  1.00  0.00    -0.394 OA
ATOM     16  H   UNL     1      40.394   7.681  45.560  1.00  0.00     0.210 HD
ENDBRANCH  14  15
ENDBRANCH   5  14
BRANCH   4  17
ATOM     17  O   UNL     1      35.738   8.042  43.738  1.00  0.00    -0.387 OA
ATOM     18  H   UNL     1      36.173   8.837  43.332  1.00  0.00     0.211 HD
ENDBRANCH   4  17
TORSDOF 7
ENDMDL
MODEL 3
REMARK VINA RESULT:    -4.680      1.683      3.514
REMARK INTER + INTRA:          -6.339
REMARK INTER:                  -5.872
REMARK INTRA:                  -0.466
REMARK UNBOUND:                -0.291
REMARK SMILES CCO[C@@H]1O[C@H](CO)[C@@H](O)[C@@H](O)[C@@H]1O
REMARK SMILES IDX 4 1 13 2 11 3 9 4 6 5 5 6 3 7 2 8 1 9 14 10 12 12 7 14 8 15
REMARK SMILES IDX 10 17
REMARK H PARENT 14 11 12 13 8 16 10 18
REMARK Flexibility Score: inf
ROOT
ATOM      1  C   UNL     1      38.202   5.431  43.649  1.00  0.00     0.281 C 
ATOM      2  C   UNL     1      37.876   6.697  44.461  1.00  0.00     0.202 C 
ATOM      3  C   UNL     1      36.500   7.239  44.074  1.00  0.00     0.179 C 
ATOM      4  C   UNL     1      35.445   6.126  44.217  1.00  0.00     0.177 C 
ATOM      5  C   UNL     1      35.888   4.820  43.510  1.00  0.00     0.178 C 
ATOM      6  O   UNL     1      37.220   4.415  43.814  1.00  0.00    -0.341 OA
ENDROOT
BRANCH   1   7
ATOM      7  O   UNL     1      38.392   5.751  42.281  1.00  0.00    -0.350 OA
BRANCH   7   8
ATOM      8  C   UNL     1      39.597   5.187  41.807  1.00  0.00     0.160 C 
ATOM      9  C   UNL     1      39.531   5.072  40.292  1.00  0.00     0.035 C 
ENDBRANCH   7   8
ENDBRANCH   1   7
BRANCH   2  10
ATOM     10  O   UNL     1      38.847   7.685  44.229  1.00  0.00    -0.385 OA
ATOM     11  H   UNL     1      39.277   7.875  45.103  1.00  0.00     0.211 HD
ENDBRANCH   2  10
BRANCH   3  12
ATOM     12  O   UNL     1      36.179   8.328  44.900  1.00  0.00    -0.387 OA
ATOM     13  H   UNL     1      36.178   7.988  45.834  1.00  0.00     0.211 HD
ENDBRANCH   3  12
BRANCH   5  14
ATOM     14  C   UNL     1      35.564   4.752  42.000  1.00  0.00     0.191 C 
BRANCH  14  15
ATOM     15  O   UNL     1      36.303   3.761  41.344  1.00  0.00    -0.394 OA
ATOM     16  H   UNL     1      37.061   4.227  40.905  1.00  0.00     0.210 HD
ENDBRANCH  14  15
ENDBRANCH   5  14
BRANCH   4  17
ATOM     17  O   UNL     1      35.227   5.849  45.580  1.00  0.00    -0.387 OA
ATOM     18  H   UNL     1      36.044   5.398  45.922  1.00  0.00     0.211 HD
ENDBRANCH   4  17
TORSDOF 7
ENDMDL
MODEL 4
REMARK VINA RESULT:    -4.650      2.188      4.143
REMARK INTER + INTRA:          -6.300
REMARK INTER:                  -5.815
REMARK INTRA:                  -0.485
REMARK UNBOUND:                -0.291
REMARK SMILES CCO[C@@H]1O[C@H](CO)[C@@H](O)[C@@H](O)[C@@H]1O
REMARK SMILES IDX 4 1 13 2 11 3 9 4 6 5 5 6 3 7 2 8 1 9 14 10 12 12 7 14 8 15
REMARK SMILES IDX 10 17
REMARK H PARENT 14 11 12 13 8 16 10 18
REMARK Flexibility Score: inf
ROOT
ATOM      1  C   UNL     1      39.303   6.304  41.698  1.00  0.00     0.281 C 
ATOM      2  C   UNL     1      38.578   6.795  42.964  1.00  0.00     0.202 C 
ATOM      3  C   UNL     1      37.625   5.719  43.484  1.00  0.00     0.179 C 
ATOM      4  C   UNL     1      38.394   4.399  43.686  1.00  0.00     0.177 C 
ATOM      5  C   UNL     1      39.230   4.025  42.435  1.00  0.00     0.178 C 
ATOM      6  O   UNL     1      40.017   5.095  41.918  1.00  0.00    -0.341 OA
ENDROOT
BRANCH   1   7
ATOM      7  O   UNL     1      38.391   6.180  40.620  1.00  0.00    -0.350 OA
BRANCH   7   8
ATOM      8  C   UNL     1      38.998   6.595  39.413  1.00  0.00     0.160 C 
ATOM      9  C   UNL     1      38.977   8.113  39.339  1.00  0.00     0.035 C 
ENDBRANCH   7   8
ENDBRANCH   1   7
BRANCH   2  10
ATOM     10  O   UNL     1      37.851   7.964  42.685  1.00  0.00    -0.385 OA
ATOM     11  H   UNL     1      37.128   8.021  43.363  1.00  0.00     0.211 HD
ENDBRANCH   2  10
BRANCH   3  12
ATOM     12  O   UNL     1      37.058   6.146  44.696  1.00  0.00    -0.387 OA
ATOM     13  H   UNL     1      37.591   6.925  45.002  1.00  0.00     0.211 HD
ENDBRANCH   3  12
BRANCH   5  14
ATOM     14  C   UNL     1      38.458   3.256  41.339  1.00  0.00     0.191 C 
BRANCH  14  15
ATOM     15  O   UNL     1      39.177   3.178  40.141  1.00  0.00    -0.394 OA
ATOM     16  H   UNL     1      38.648   3.680  39.468  1.00  0.00     0.210 HD
ENDBRANCH  14  15
ENDBRANCH   5  14
BRANCH   4  17
ATOM     17  O   UNL     1      39.260   4.516  44.788  1.00  0.00    -0.387 OA
ATOM     18  H   UNL     1      38.725   4.869  45.547  1.00  0.00     0.211 HD
ENDBRANCH   4  17
TORSDOF 7
ENDMDL
MODEL 5
REMARK VINA RESULT:    -4.406      2.112      3.466
REMARK INTER + INTRA:          -5.985
REMARK INTER:                  -5.713
REMARK INTRA:                  -0.272
REMARK UNBOUND:                -0.291
REMARK SMILES CCO[C@@H]1O[C@H](CO)[C@@H](O)[C@@H](O)[C@@H]1O
REMARK SMILES IDX 4 1 13 2 11 3 9 4 6 5 5 6 3 7 2 8 1 9 14 10 12 12 7 14 8 15
REMARK SMILES IDX 10 17
REMARK H PARENT 14 11 12 13 8 16 10 18
REMARK Flexibility Score: inf
ROOT
ATOM      1  C   UNL     1      38.405   4.491  41.341  1.00  0.00     0.281 C 
ATOM      2  C   UNL     1      38.538   6.010  41.556  1.00  0.00     0.202 C 
ATOM      3  C   UNL     1      37.626   6.468  42.694  1.00  0.00     0.179 C 
ATOM      4  C   UNL     1      37.917   5.639  43.959  1.00  0.00     0.177 C 
ATOM      5  C   UNL     1      37.923   4.118  43.659  1.00  0.00     0.178 C 
ATOM      6  O   UNL     1      38.697   3.751  42.519  1.00  0.00    -0.341 OA
ENDROOT
BRANCH   1   7
ATOM      7  O   UNL     1      37.123   4.171  40.830  1.00  0.00    -0.350 OA
BRANCH   7   8
ATOM      8  C   UNL     1      37.188   3.007  40.031  1.00  0.00     0.160 C 
ATOM      9  C   UNL     1      38.065   3.283  38.820  1.00  0.00     0.035 C 
ENDBRANCH   7   8
ENDBRANCH   1   7
BRANCH   2  10
ATOM     10  O   UNL     1      38.196   6.698  40.380  1.00  0.00    -0.385 OA
ATOM     11  H   UNL     1      37.518   7.378  40.632  1.00  0.00     0.211 HD
ENDBRANCH   2  10
BRANCH   3  12
ATOM     12  O   UNL     1      37.843   7.833  42.943  1.00  0.00    -0.387 OA
ATOM     13  H   UNL     1      38.634   7.893  43.540  1.00  0.00     0.211 HD
ENDBRANCH   3  12
BRANCH   5  14
ATOM     14  C   UNL     1      36.535   3.440  43.692  1.00  0.00     0.191 C 
BRANCH  14  15
ATOM     15  O   UNL     1      36.400   2.561  44.773  1.00  0.00    -0.394 OA
ATOM     16  H   UNL     1      36.204   1.671  44.382  1.00  0.00     0.210 HD
ENDBRANCH  14  15
ENDBRANCH   5  14
BRANCH   4  17
ATOM     17  O   UNL     1      39.171   5.998  44.486  1.00  0.00    -0.387 OA
ATOM     18  H   UNL     1      39.133   5.846  45.467  1.00  0.00     0.211 HD
ENDBRANCH   4  17
TORSDOF 7
ENDMDL
MODEL 6
REMARK VINA RESULT:    -4.375      1.823      2.619
REMARK INTER + INTRA:          -5.945
REMARK INTER:                  -5.639
REMARK INTRA:                  -0.306
REMARK UNBOUND:                -0.291
REMARK SMILES CCO[C@@H]1O[C@H](CO)[C@@H](O)[C@@H](O)[C@@H]1O
REMARK SMILES IDX 4 1 13 2 11 3 9 4 6 5 5 6 3 7 2 8 1 9 14 10 12 12 7 14 8 15
REMARK SMILES IDX 10 17
REMARK H PARENT 14 11 12 13 8 16 10 18
REMARK Flexibility Score: inf
ROOT
ATOM      1  C   UNL     1      38.146   2.839  43.212  1.00  0.00     0.281 C 
ATOM      2  C   UNL     1      36.736   3.130  43.757  1.00  0.00     0.202 C 
ATOM      3  C   UNL     1      36.599   4.609  44.119  1.00  0.00     0.179 C 
ATOM      4  C   UNL     1      36.983   5.478  42.907  1.00  0.00     0.177 C 
ATOM      5  C   UNL     1      38.342   5.046  42.298  1.00  0.00     0.178 C 
ATOM      6  O   UNL     1      38.465   3.643  42.084  1.00  0.00    -0.341 OA
ENDROOT
BRANCH   1   7
ATOM      7  O   UNL     1      39.114   2.976  44.238  1.00  0.00    -0.350 OA
BRANCH   7   8
ATOM      8  C   UNL     1      40.068   1.937  44.155  1.00  0.00     0.160 C 
ATOM      9  C   UNL     1      39.731   0.867  45.181  1.00  0.00     0.035 C 
ENDBRANCH   7   8
ENDBRANCH   1   7
BRANCH   2  10
ATOM     10  O   UNL     1      36.485   2.347  44.896  1.00  0.00    -0.385 OA
ATOM     11  H   UNL     1      37.115   1.581  44.862  1.00  0.00     0.211 HD
ENDBRANCH   2  10
BRANCH   3  12
ATOM     12  O   UNL     1      35.276   4.872  44.512  1.00  0.00    -0.387 OA
ATOM     13  H   UNL     1      34.890   5.479  43.828  1.00  0.00     0.211 HD
ENDBRANCH   3  12
BRANCH   5  14
ATOM     14  C   UNL     1      39.586   5.668  42.972  1.00  0.00     0.191 C 
BRANCH  14  15
ATOM     15  O   UNL     1      39.387   5.902  44.338  1.00  0.00    -0.394 OA
ATOM     16  H   UNL     1      39.151   6.862  44.422  1.00  0.00     0.210 HD
ENDBRANCH  14  15
ENDBRANCH   5  14
BRANCH   4  17
ATOM     17  O   UNL     1      35.992   5.374  41.913  1.00  0.00    -0.387 OA
ATOM     18  H   UNL     1      36.384   4.859  41.160  1.00  0.00     0.211 HD
ENDBRANCH   4  17
TORSDOF 7
ENDMDL
MODEL 7
REMARK VINA RESULT:    -4.299      1.895      4.077
REMARK INTER + INTRA:          -5.846
REMARK INTER:                  -5.526
REMARK INTRA:                  -0.321
REMARK UNBOUND:                -0.291
REMARK SMILES CCO[C@@H]1O[C@H](CO)[C@@H](O)[C@@H](O)[C@@H]1O
REMARK SMILES IDX 4 1 13 2 11 3 9 4 6 5 5 6 3 7 2 8 1 9 14 10 12 12 7 14 8 15
REMARK SMILES IDX 10 17
REMARK H PARENT 14 11 12 13 8 16 10 18
REMARK Flexibility Score: inf
ROOT
ATOM      1  C   UNL     1      37.482   5.415  43.252  1.00  0.00     0.281 C 
ATOM      2  C   UNL     1      36.041   4.874  43.242  1.00  0.00     0.202 C 
ATOM      3  C   UNL     1      36.028   3.402  42.828  1.00  0.00     0.179 C 
ATOM      4  C   UNL     1      36.981   2.600  43.733  1.00  0.00     0.177 C 
ATOM      5  C   UNL     1      38.376   3.268  43.833  1.00  0.00     0.178 C 
ATOM      6  O   UNL     1      38.335   4.666  44.108  1.00  0.00    -0.341 OA
ENDROOT
BRANCH   1   7
ATOM      7  O   UNL     1      37.999   5.481  41.934  1.00  0.00    -0.350 OA
BRANCH   7   8
ATOM      8  C   UNL     1      38.947   6.523  41.828  1.00  0.00     0.160 C 
ATOM      9  C   UNL     1      39.883   6.229  40.667  1.00  0.00     0.035 C 
ENDBRANCH   7   8
ENDBRANCH   1   7
BRANCH   2  10
ATOM     10  O   UNL     1      35.251   5.616  42.348  1.00  0.00    -0.385 OA
ATOM     11  H   UNL     1      35.640   6.528  42.311  1.00  0.00     0.211 HD
ENDBRANCH   2  10
BRANCH   3  12
ATOM     12  O   UNL     1      34.719   2.903  42.929  1.00  0.00    -0.387 OA
ATOM     13  H   UNL     1      34.157   3.643  43.280  1.00  0.00     0.211 HD
ENDBRANCH   3  12
BRANCH   5  14
ATOM     14  C   UNL     1      39.358   2.904  42.696  1.00  0.00     0.191 C 
BRANCH  14  15
ATOM     15  O   UNL     1      38.696   2.609  41.499  1.00  0.00    -0.394 OA
ATOM     16  H   UNL     1      39.324   2.057  40.965  1.00  0.00     0.210 HD
ENDBRANCH  14  15
ENDBRANCH   5  14
BRANCH   4  17
ATOM     17  O   UNL     1      36.437   2.498  45.027  1.00  0.00    -0.387 OA
ATOM     18  H   UNL     1      35.955   3.347  45.211  1.00  0.00     0.211 HD
ENDBRANCH   4  17
TORSDOF 7
ENDMDL
MODEL 8
REMARK VINA RESULT:    -4.263      2.002      2.789
REMARK INTER + INTRA:          -5.801
REMARK INTER:                  -5.341
REMARK INTRA:                  -0.460
REMARK UNBOUND:                -0.291
REMARK SMILES CCO[C@@H]1O[C@H](CO)[C@@H](O)[C@@H](O)[C@@H]1O
REMARK SMILES IDX 4 1 13 2 11 3 9 4 6 5 5 6 3 7 2 8 1 9 14 10 12 12 7 14 8 15
REMARK SMILES IDX 10 17
REMARK H PARENT 14 11 12 13 8 16 10 18
REMARK Flexibility Score: inf
ROOT
ATOM      1  C   UNL     1      37.678   4.282  42.365  1.00  0.00     0.281 C 
ATOM      2  C   UNL     1      38.158   4.965  43.658  1.00  0.00     0.202 C 
ATOM      3  C   UNL     1      39.275   5.961  43.352  1.00  0.00     0.179 C 
ATOM      4  C   UNL     1      38.805   6.952  42.270  1.00  0.00     0.177 C 
ATOM      5  C   UNL     1      38.190   6.220  41.050  1.00  0.00     0.178 C 
ATOM      6  O   UNL     1      37.234   5.219  41.391  1.00  0.00    -0.341 OA
ENDROOT
BRANCH   1   7
ATOM      7  O   UNL     1      38.688   3.433  41.846  1.00  0.00    -0.350 OA
BRANCH   7   8
ATOM      8  C   UNL     1      38.154   2.159  41.548  1.00  0.00     0.160 C 
ATOM      9  C   UNL     1      38.836   1.116  42.419  1.00  0.00     0.035 C 
ENDBRANCH   7   8
ENDBRANCH   1   7
BRANCH   2  10
ATOM     10  O   UNL     1      38.628   4.003  44.569  1.00  0.00    -0.385 OA
ATOM     11  H   UNL     1      39.149   3.341  44.043  1.00  0.00     0.211 HD
ENDBRANCH   2  10
BRANCH   3  12
ATOM     12  O   UNL     1      39.622   6.647  44.527  1.00  0.00    -0.387 OA
ATOM     13  H   UNL     1      38.842   6.579  45.139  1.00  0.00     0.211 HD
ENDBRANCH   3  12
BRANCH   5  14
ATOM     14  C   UNL     1      39.209   5.747  39.989  1.00  0.00     0.191 C 
BRANCH  14  15
ATOM     15  O   UNL     1      38.629   4.902  39.036  1.00  0.00    -0.394 OA
ATOM     16  H   UNL     1      38.381   5.481  38.269  1.00  0.00     0.210 HD
ENDBRANCH  14  15
ENDBRANCH   5  14
BRANCH   4  17
ATOM     17  O   UNL     1      37.839   7.821  42.808  1.00  0.00    -0.387 OA
ATOM     18  H   UNL     1      37.776   8.604  42.200  1.00  0.00     0.211 HD
ENDBRANCH   4  17
TORSDOF 7
ENDMDL
MODEL 9
REMARK VINA RESULT:    -4.156      1.883      4.193
REMARK INTER + INTRA:          -5.661
REMARK INTER:                  -5.205
REMARK INTRA:                  -0.456
REMARK UNBOUND:                -0.291
REMARK SMILES CCO[C@@H]1O[C@H](CO)[C@@H](O)[C@@H](O)[C@@H]1O
REMARK SMILES IDX 4 1 13 2 11 3 9 4 6 5 5 6 3 7 2 8 1 9 14 10 12 12 7 14 8 15
REMARK SMILES IDX 10 17
REMARK H PARENT 14 11 12 13 8 16 10 18
REMARK Flexibility Score: inf
ROOT
ATOM      1  C   UNL     1      36.429   4.727  42.331  1.00  0.00     0.281 C 
ATOM      2  C   UNL     1      37.539   5.035  41.309  1.00  0.00     0.202 C 
ATOM      3  C   UNL     1      38.795   4.223  41.626  1.00  0.00     0.179 C 
ATOM      4  C   UNL     1      38.438   2.728  41.715  1.00  0.00     0.177 C 
ATOM      5  C   UNL     1      37.216   2.483  42.638  1.00  0.00     0.178 C 
ATOM      6  O   UNL     1      36.109   3.342  42.379  1.00  0.00    -0.341 OA
ENDROOT
BRANCH   1   7
ATOM      7  O   UNL     1      36.779   5.224  43.611  1.00  0.00    -0.350 OA
BRANCH   7   8
ATOM      8  C   UNL     1      35.741   6.034  44.125  1.00  0.00     0.160 C 
ATOM      9  C   UNL     1      36.327   7.357  44.592  1.00  0.00     0.035 C 
ENDBRANCH   7   8
ENDBRANCH   1   7
BRANCH   2  10
ATOM     10  O   UNL     1      37.852   6.405  41.331  1.00  0.00    -0.385 OA
ATOM     11  H   UNL     1      37.689   6.721  42.258  1.00  0.00     0.211 HD
ENDBRANCH   2  10
BRANCH   3  12
ATOM     12  O   UNL     1      39.753   4.440  40.622  1.00  0.00    -0.387 OA
ATOM     13  H   UNL     1      40.600   4.029  40.941  1.00  0.00     0.211 HD
ENDBRANCH   3  12
BRANCH   5  14
ATOM     14  C   UNL     1      37.549   2.360  44.142  1.00  0.00     0.191 C 
BRANCH  14  15
ATOM     15  O   UNL     1      36.409   2.465  44.946  1.00  0.00    -0.394 OA
ATOM     16  H   UNL     1      36.673   3.012  45.731  1.00  0.00     0.210 HD
ENDBRANCH  14  15
ENDBRANCH   5  14
BRANCH   4  17
ATOM     17  O   UNL     1      38.139   2.232  40.432  1.00  0.00    -0.387 OA
ATOM     18  H   UNL     1      38.978   2.267  39.901  1.00  0.00     0.211 HD
ENDBRANCH   4  17
TORSDOF 7
ENDMDL
