MODEL 1
REMARK VINA RESULT:     2.097      0.000      0.000
REMARK INTER + INTRA:           3.980
REMARK INTER:                   5.283
REMARK INTRA:                  -1.303
REMARK UNBOUND:                -1.303
REMARK SMILES CCCCCCCCCCCCCCCCCCCCCCCCCCCC(=O)[O-]
REMARK SMILES IDX 15 1 16 2 17 3 18 4 19 5 20 6 21 7 22 8 23 9 24 10 25 11
REMARK SMILES IDX 26 12 27 13 28 14 29 15 30 16 14 17 13 18 12 19 11 20 10 21
REMARK SMILES IDX 9 22 8 23 7 24 6 25 5 26 4 27 3 28 2 29 1 30
REMARK H PARENT
REMARK Flexibility Score: inf
ROOT
ATOM      1  C   UNL     1       2.006  -5.459  -9.384  1.00  0.00     0.000 C 
ENDROOT
BRANCH   1   2
ATOM      2  C   UNL     1       3.314  -5.127 -10.120  1.00  0.00     0.000 C 
BRANCH   2   3
ATOM      3  C   UNL     1       3.841  -3.721  -9.794  1.00  0.00     0.000 C 
BRANCH   3   4
ATOM      4  C   UNL     1       5.373  -3.625  -9.884  1.00  0.00     0.000 C 
BRANCH   4   5
ATOM      5  C   UNL     1       6.036  -4.275  -8.660  1.00  0.00     0.000 C 
BRANCH   5   6
ATOM      6  C   UNL     1       7.306  -5.069  -9.032  1.00  0.00     0.000 C 
BRANCH   6   7
ATOM      7  C   UNL     1       8.538  -4.695  -8.191  1.00  0.00     0.000 C 
BRANCH   7   8
ATOM      8  C   UNL     1       8.508  -5.303  -6.779  1.00  0.00     0.000 C 
BRANCH   8   9
ATOM      9  C   UNL     1       8.770  -6.819  -6.776  1.00  0.00     0.000 C 
BRANCH   9  10
ATOM     10  C   UNL     1       9.926  -7.272  -7.686  1.00  0.00     0.000 C 
BRANCH  10  11
ATOM     11  C   UNL     1      11.308  -7.008  -7.065  1.00  0.00     0.000 C 
BRANCH  11  12
ATOM     12  C   UNL     1      11.386  -7.468  -5.601  1.00  0.00     0.006 C 
BRANCH  12  13
ATOM     13  C   UNL     1      12.023  -6.410  -4.690  1.00  0.00     0.053 C 
BRANCH  13  14
ATOM     14  C   UNL     1      11.344  -6.387  -3.356  1.00  0.00     0.041 C 
ATOM     15  O   UNL     1      11.248  -7.442  -2.674  1.00  0.00    -0.550 OA
ATOM     16  O   UNL     1      10.799  -5.203  -2.872  1.00  0.00    -0.550 OA
ENDBRANCH  13  14
ENDBRANCH  12  13
ENDBRANCH  11  12
ENDBRANCH  10  11
ENDBRANCH   9  10
ENDBRANCH   8   9
ENDBRANCH   7   8
ENDBRANCH   6   7
ENDBRANCH   5   6
ENDBRANCH   4   5
ENDBRANCH   3   4
ENDBRANCH   2   3
ENDBRANCH   1   2
BRANCH   1  17
ATOM     17  C   UNL     1       1.654  -6.946  -9.542  1.00  0.00     0.000 C 
BRANCH  17  18
ATOM     18  C   UNL     1       0.508  -7.388  -8.618  1.00  0.00     0.000 C 
BRANCH  18  19
ATOM     19  C   UNL     1       0.286  -6.419  -7.443  1.00  0.00     0.000 C 
BRANCH  19  20
ATOM     20  C   UNL     1      -1.032  -6.678  -6.689  1.00  0.00     0.000 C 
BRANCH  20  21
ATOM     21  C   UNL     1      -1.992  -5.476  -6.608  1.00  0.00     0.000 C 
BRANCH  21  22
ATOM     22  C   UNL     1      -3.289  -5.792  -5.844  1.00  0.00    -0.000 C 
BRANCH  22  23
ATOM     23  C   UNL     1      -4.159  -6.847  -6.552  1.00  0.00    -0.000 C 
BRANCH  23  24
ATOM     24  C   UNL     1      -5.363  -6.286  -7.329  1.00  0.00    -0.000 C 
BRANCH  24  25
ATOM     25  C   UNL     1      -6.601  -6.072  -6.441  1.00  0.00    -0.000 C 
BRANCH  25  26
ATOM     26  C   UNL     1      -6.322  -5.130  -5.260  1.00  0.00    -0.000 C 
BRANCH  26  27
ATOM     27  C   UNL     1      -7.515  -4.210  -4.942  1.00  0.00    -0.000 C 
BRANCH  27  28
ATOM     28  C   UNL     1      -7.935  -3.361  -6.161  1.00  0.00    -0.000 C 
BRANCH  28  29
ATOM     29  C   UNL     1      -6.756  -2.652  -6.850  1.00  0.00    -0.003 C 
ATOM     30  C   UNL     1      -7.034  -2.315  -8.312  1.00  0.00     0.004 C 
ENDBRANCH  28  29
ENDBRANCH  27  28
ENDBRANCH  26  27
ENDBRANCH  25  26
ENDBRANCH  24  25
ENDBRANCH  23  24
ENDBRANCH  22  23
ENDBRANCH  21  22
ENDBRANCH  20  21
ENDBRANCH  19  20
ENDBRANCH  18  19
ENDBRANCH  17  18
ENDBRANCH   1  17
TORSDOF 26
ENDMDL
MODEL 2
REMARK VINA RESULT:     2.441      4.923     14.384
REMARK INTER + INTRA:           4.850
REMARK INTER:                   6.556
REMARK INTRA:                  -1.707
REMARK UNBOUND:                -1.303
REMARK SMILES CCCCCCCCCCCCCCCCCCCCCCCCCCCC(=O)[O-]
REMARK SMILES IDX 15 1 16 2 17 3 18 4 19 5 20 6 21 7 22 8 23 9 24 10 25 11
REMARK SMILES IDX 26 12 27 13 28 14 29 15 30 16 14 17 13 18 12 19 11 20 10 21
REMARK SMILES IDX 9 22 8 23 7 24 6 25 5 26 4 27 3 28 2 29 1 30
REMARK H PARENT
REMARK Flexibility Score: inf
ROOT
ATOM      1  C   UNL     1       2.194  -7.017  -9.422  1.00  0.00     0.000 C 
ENDROOT
BRANCH   1   2
ATOM      2  C   UNL     1       0.947  -7.393  -8.606  1.00  0.00     0.000 C 
BRANCH   2   3
ATOM      3  C   UNL     1       0.332  -6.194  -7.869  1.00  0.00     0.000 C 
BRANCH   3   4
ATOM      4  C   UNL     1      -0.677  -6.614  -6.788  1.00  0.00     0.000 C 
BRANCH   4   5
ATOM      5  C   UNL     1      -1.754  -5.535  -6.594  1.00  0.00     0.000 C 
BRANCH   5   6
ATOM      6  C   UNL     1      -3.042  -6.098  -5.959  1.00  0.00     0.000 C 
BRANCH   6   7
ATOM      7  C   UNL     1      -4.234  -6.160  -6.930  1.00  0.00     0.000 C 
BRANCH   7   8
ATOM      8  C   UNL     1      -5.587  -6.290  -6.212  1.00  0.00     0.000 C 
BRANCH   8   9
ATOM      9  C   UNL     1      -5.615  -5.562  -4.856  1.00  0.00     0.000 C 
BRANCH   9  10
ATOM     10  C   UNL     1      -6.675  -4.453  -4.745  1.00  0.00     0.000 C 
BRANCH  10  11
ATOM     11  C   UNL     1      -7.824  -4.626  -5.754  1.00  0.00     0.000 C 
BRANCH  11  12
ATOM     12  C   UNL     1      -8.105  -3.336  -6.541  1.00  0.00     0.006 C 
BRANCH  12  13
ATOM     13  C   UNL     1      -6.819  -2.587  -6.914  1.00  0.00     0.053 C 
BRANCH  13  14
ATOM     14  C   UNL     1      -6.736  -2.387  -8.395  1.00  0.00     0.041 C 
ATOM     15  O   UNL     1      -7.502  -1.568  -8.968  1.00  0.00    -0.550 OA
ATOM     16  O   UNL     1      -5.826  -3.121  -9.148  1.00  0.00    -0.550 OA
ENDBRANCH  13  14
ENDBRANCH  12  13
ENDBRANCH  11  12
ENDBRANCH  10  11
ENDBRANCH   9  10
ENDBRANCH   8   9
ENDBRANCH   7   8
ENDBRANCH   6   7
ENDBRANCH   5   6
ENDBRANCH   4   5
ENDBRANCH   3   4
ENDBRANCH   2   3
ENDBRANCH   1   2
BRANCH   1  17
ATOM     17  C   UNL     1       2.003  -5.659 -10.114  1.00  0.00     0.000 C 
BRANCH  17  18
ATOM     18  C   UNL     1       2.819  -4.535  -9.455  1.00  0.00     0.000 C 
BRANCH  18  19
ATOM     19  C   UNL     1       4.190  -4.328 -10.124  1.00  0.00     0.000 C 
BRANCH  19  20
ATOM     20  C   UNL     1       5.272  -3.838  -9.142  1.00  0.00     0.000 C 
BRANCH  20  21
ATOM     21  C   UNL     1       6.611  -4.597  -9.205  1.00  0.00     0.000 C 
BRANCH  21  22
ATOM     22  C   UNL     1       7.438  -4.467  -7.914  1.00  0.00    -0.000 C 
BRANCH  22  23
ATOM     23  C   UNL     1       8.726  -5.310  -7.941  1.00  0.00    -0.000 C 
BRANCH  23  24
ATOM     24  C   UNL     1       8.512  -6.832  -7.863  1.00  0.00    -0.000 C 
BRANCH  24  25
ATOM     25  C   UNL     1       9.601  -7.629  -8.602  1.00  0.00    -0.000 C 
BRANCH  25  26
ATOM     26  C   UNL     1      10.780  -6.747  -9.040  1.00  0.00    -0.000 C 
BRANCH  26  27
ATOM     27  C   UNL     1      12.088  -7.101  -8.310  1.00  0.00    -0.000 C 
BRANCH  27  28
ATOM     28  C   UNL     1      11.848  -8.046  -7.112  1.00  0.00    -0.000 C 
BRANCH  28  29
ATOM     29  C   UNL     1      12.073  -7.373  -5.748  1.00  0.00    -0.003 C 
ATOM     30  C   UNL     1      11.416  -5.999  -5.645  1.00  0.00     0.004 C 
ENDBRANCH  28  29
ENDBRANCH  27  28
ENDBRANCH  26  27
ENDBRANCH  25  26
ENDBRANCH  24  25
ENDBRANCH  23  24
ENDBRANCH  22  23
ENDBRANCH  21  22
ENDBRANCH  20  21
ENDBRANCH  19  20
ENDBRANCH  18  19
ENDBRANCH  17  18
ENDBRANCH   1  17
TORSDOF 26
ENDMDL
MODEL 3
REMARK VINA RESULT:     2.687      4.920     14.015
REMARK INTER + INTRA:           5.467
REMARK INTER:                   7.218
REMARK INTRA:                  -1.750
REMARK UNBOUND:                -1.303
REMARK SMILES CCCCCCCCCCCCCCCCCCCCCCCCCCCC(=O)[O-]
REMARK SMILES IDX 15 1 16 2 17 3 18 4 19 5 20 6 21 7 22 8 23 9 24 10 25 11
REMARK SMILES IDX 26 12 27 13 28 14 29 15 30 16 14 17 13 18 12 19 11 20 10 21
REMARK SMILES IDX 9 22 8 23 7 24 6 25 5 26 4 27 3 28 2 29 1 30
REMARK H PARENT
REMARK Flexibility Score: inf
ROOT
ATOM      1  C   UNL     1       3.285  -4.261 -10.048  1.00  0.00     0.000 C 
ENDROOT
BRANCH   1   2
ATOM      2  C   UNL     1       2.621  -5.645 -10.124  1.00  0.00     0.000 C 
BRANCH   2   3
ATOM      3  C   UNL     1       1.793  -5.978  -8.873  1.00  0.00     0.000 C 
BRANCH   3   4
ATOM      4  C   UNL     1       1.185  -7.389  -8.922  1.00  0.00     0.000 C 
BRANCH   4   5
ATOM      5  C   UNL     1      -0.028  -7.497  -7.985  1.00  0.00     0.000 C 
BRANCH   5   6
ATOM      6  C   UNL     1      -0.408  -6.140  -7.357  1.00  0.00     0.000 C 
BRANCH   6   7
ATOM      7  C   UNL     1      -1.318  -6.261  -6.123  1.00  0.00     0.000 C 
BRANCH   7   8
ATOM      8  C   UNL     1      -2.739  -6.734  -6.469  1.00  0.00     0.000 C 
BRANCH   8   9
ATOM      9  C   UNL     1      -3.826  -5.751  -5.999  1.00  0.00     0.000 C 
BRANCH   9  10
ATOM     10  C   UNL     1      -5.184  -6.400  -5.681  1.00  0.00     0.000 C 
BRANCH  10  11
ATOM     11  C   UNL     1      -6.092  -6.513  -6.918  1.00  0.00     0.000 C 
BRANCH  11  12
ATOM     12  C   UNL     1      -6.060  -5.242  -7.781  1.00  0.00     0.006 C 
BRANCH  12  13
ATOM     13  C   UNL     1      -7.335  -4.402  -7.632  1.00  0.00     0.053 C 
BRANCH  13  14
ATOM     14  C   UNL     1      -6.996  -2.948  -7.517  1.00  0.00     0.041 C 
ATOM     15  O   UNL     1      -6.274  -2.395  -8.388  1.00  0.00    -0.550 OA
ATOM     16  O   UNL     1      -7.463  -2.207  -6.437  1.00  0.00    -0.550 OA
ENDBRANCH  13  14
ENDBRANCH  12  13
ENDBRANCH  11  12
ENDBRANCH  10  11
ENDBRANCH   9  10
ENDBRANCH   8   9
ENDBRANCH   7   8
ENDBRANCH   6   7
ENDBRANCH   5   6
ENDBRANCH   4   5
ENDBRANCH   3   4
ENDBRANCH   2   3
ENDBRANCH   1   2
BRANCH   1  17
ATOM     17  C   UNL     1       4.814  -4.385 -10.125  1.00  0.00     0.000 C 
BRANCH  17  18
ATOM     18  C   UNL     1       5.541  -3.300  -9.314  1.00  0.00     0.000 C 
BRANCH  18  19
ATOM     19  C   UNL     1       7.037  -3.605  -9.124  1.00  0.00     0.000 C 
BRANCH  19  20
ATOM     20  C   UNL     1       7.298  -5.010  -8.548  1.00  0.00     0.000 C 
BRANCH  20  21
ATOM     21  C   UNL     1       8.543  -5.134  -7.651  1.00  0.00     0.000 C 
BRANCH  21  22
ATOM     22  C   UNL     1       8.379  -6.181  -6.535  1.00  0.00    -0.000 C 
BRANCH  22  23
ATOM     23  C   UNL     1       9.158  -7.480  -6.816  1.00  0.00    -0.000 C 
BRANCH  23  24
ATOM     24  C   UNL     1      10.406  -7.315  -7.700  1.00  0.00    -0.000 C 
BRANCH  24  25
ATOM     25  C   UNL     1      11.720  -7.514  -6.926  1.00  0.00    -0.000 C 
BRANCH  25  26
ATOM     26  C   UNL     1      11.486  -7.956  -5.473  1.00  0.00    -0.000 C 
BRANCH  26  27
ATOM     27  C   UNL     1      11.922  -6.890  -4.452  1.00  0.00    -0.000 C 
BRANCH  27  28
ATOM     28  C   UNL     1      11.830  -5.460  -5.029  1.00  0.00    -0.000 C 
BRANCH  28  29
ATOM     29  C   UNL     1      11.394  -4.410  -3.993  1.00  0.00    -0.003 C 
ATOM     30  C   UNL     1      11.013  -5.021  -2.648  1.00  0.00     0.004 C 
ENDBRANCH  28  29
ENDBRANCH  27  28
ENDBRANCH  26  27
ENDBRANCH  25  26
ENDBRANCH  24  25
ENDBRANCH  23  24
ENDBRANCH  22  23
ENDBRANCH  21  22
ENDBRANCH  20  21
ENDBRANCH  19  20
ENDBRANCH  18  19
ENDBRANCH  17  18
ENDBRANCH   1  17
TORSDOF 26
ENDMDL
MODEL 4
REMARK VINA RESULT:     3.009      1.225      2.907
REMARK INTER + INTRA:           6.279
REMARK INTER:                   8.008
REMARK INTRA:                  -1.729
REMARK UNBOUND:                -1.303
REMARK SMILES CCCCCCCCCCCCCCCCCCCCCCCCCCCC(=O)[O-]
REMARK SMILES IDX 15 1 16 2 17 3 18 4 19 5 20 6 21 7 22 8 23 9 24 10 25 11
REMARK SMILES IDX 26 12 27 13 28 14 29 15 30 16 14 17 13 18 12 19 11 20 10 21
REMARK SMILES IDX 9 22 8 23 7 24 6 25 5 26 4 27 3 28 2 29 1 30
REMARK H PARENT
REMARK Flexibility Score: inf
ROOT
ATOM      1  C   UNL     1       0.282  -6.240  -8.265  1.00  0.00     0.000 C 
ENDROOT
BRANCH   1   2
ATOM      2  C   UNL     1       1.626  -6.897  -8.618  1.00  0.00     0.000 C 
BRANCH   2   3
ATOM      3  C   UNL     1       2.384  -6.147  -9.724  1.00  0.00     0.000 C 
BRANCH   3   4
ATOM      4  C   UNL     1       2.461  -4.633  -9.471  1.00  0.00     0.000 C 
BRANCH   4   5
ATOM      5  C   UNL     1       3.714  -4.030 -10.125  1.00  0.00     0.000 C 
BRANCH   5   6
ATOM      6  C   UNL     1       5.000  -4.795  -9.746  1.00  0.00     0.000 C 
BRANCH   6   7
ATOM      7  C   UNL     1       6.134  -3.886  -9.243  1.00  0.00     0.000 C 
BRANCH   7   8
ATOM      8  C   UNL     1       7.481  -4.172  -9.928  1.00  0.00     0.000 C 
BRANCH   8   9
ATOM      9  C   UNL     1       8.529  -4.752  -8.962  1.00  0.00     0.000 C 
BRANCH   9  10
ATOM     10  C   UNL     1       8.198  -4.571  -7.470  1.00  0.00     0.000 C 
BRANCH  10  11
ATOM     11  C   UNL     1       8.160  -5.905  -6.704  1.00  0.00     0.000 C 
BRANCH  11  12
ATOM     12  C   UNL     1       9.526  -6.610  -6.697  1.00  0.00     0.006 C 
BRANCH  12  13
ATOM     13  C   UNL     1      10.692  -5.623  -6.556  1.00  0.00     0.053 C 
BRANCH  13  14
ATOM     14  C   UNL     1      10.826  -5.167  -5.136  1.00  0.00     0.041 C 
ATOM     15  O   UNL     1      10.617  -5.971  -4.189  1.00  0.00    -0.550 OA
ATOM     16  O   UNL     1      11.162  -3.847  -4.857  1.00  0.00    -0.550 OA
ENDBRANCH  13  14
ENDBRANCH  12  13
ENDBRANCH  11  12
ENDBRANCH  10  11
ENDBRANCH   9  10
ENDBRANCH   8   9
ENDBRANCH   7   8
ENDBRANCH   6   7
ENDBRANCH   5   6
ENDBRANCH   4   5
ENDBRANCH   3   4
ENDBRANCH   2   3
ENDBRANCH   1   2
BRANCH   1  17
ATOM     17  C   UNL     1      -0.156  -6.623  -6.844  1.00  0.00     0.000 C 
BRANCH  17  18
ATOM     18  C   UNL     1      -1.378  -5.825  -6.362  1.00  0.00     0.000 C 
BRANCH  18  19
ATOM     19  C   UNL     1      -2.711  -6.485  -6.759  1.00  0.00     0.000 C 
BRANCH  19  20
ATOM     20  C   UNL     1      -3.907  -5.970  -5.935  1.00  0.00     0.000 C 
BRANCH  20  21
ATOM     21  C   UNL     1      -5.121  -6.916  -5.873  1.00  0.00     0.000 C 
BRANCH  21  22
ATOM     22  C   UNL     1      -5.742  -7.188  -7.254  1.00  0.00    -0.000 C 
BRANCH  22  23
ATOM     23  C   UNL     1      -7.166  -6.617  -7.392  1.00  0.00    -0.000 C 
BRANCH  23  24
ATOM     24  C   UNL     1      -7.291  -5.389  -8.310  1.00  0.00    -0.000 C 
BRANCH  24  25
ATOM     25  C   UNL     1      -6.076  -4.450  -8.222  1.00  0.00    -0.000 C 
BRANCH  25  26
ATOM     26  C   UNL     1      -6.443  -2.986  -8.508  1.00  0.00    -0.000 C 
BRANCH  26  27
ATOM     27  C   UNL     1      -7.730  -2.546  -7.786  1.00  0.00    -0.000 C 
BRANCH  27  28
ATOM     28  C   UNL     1      -7.448  -2.028  -6.359  1.00  0.00    -0.000 C 
BRANCH  28  29
ATOM     29  C   UNL     1      -8.100  -2.882  -5.259  1.00  0.00    -0.003 C 
ATOM     30  C   UNL     1      -7.278  -4.117  -4.897  1.00  0.00     0.004 C 
ENDBRANCH  28  29
ENDBRANCH  27  28
ENDBRANCH  26  27
ENDBRANCH  25  26
ENDBRANCH  24  25
ENDBRANCH  23  24
ENDBRANCH  22  23
ENDBRANCH  21  22
ENDBRANCH  20  21
ENDBRANCH  19  20
ENDBRANCH  18  19
ENDBRANCH  17  18
ENDBRANCH   1  17
TORSDOF 26
ENDMDL
MODEL 5
REMARK VINA RESULT:     3.100      1.348      1.910
REMARK INTER + INTRA:           6.508
REMARK INTER:                   7.857
REMARK INTRA:                  -1.349
REMARK UNBOUND:                -1.303
REMARK SMILES CCCCCCCCCCCCCCCCCCCCCCCCCCCC(=O)[O-]
REMARK SMILES IDX 15 1 16 2 17 3 18 4 19 5 20 6 21 7 22 8 23 9 24 10 25 11
REMARK SMILES IDX 26 12 27 13 28 14 29 15 30 16 14 17 13 18 12 19 11 20 10 21
REMARK SMILES IDX 9 22 8 23 7 24 6 25 5 26 4 27 3 28 2 29 1 30
REMARK H PARENT
REMARK Flexibility Score: inf
ROOT
ATOM      1  C   UNL     1       2.019  -5.455  -8.921  1.00  0.00     0.000 C 
ENDROOT
BRANCH   1   2
ATOM      2  C   UNL     1       2.901  -5.089 -10.125  1.00  0.00     0.000 C 
BRANCH   2   3
ATOM      3  C   UNL     1       3.939  -4.005  -9.797  1.00  0.00     0.000 C 
BRANCH   3   4
ATOM      4  C   UNL     1       5.376  -4.440 -10.125  1.00  0.00     0.000 C 
BRANCH   4   5
ATOM      5  C   UNL     1       6.388  -3.711  -9.227  1.00  0.00     0.000 C 
BRANCH   5   6
ATOM      6  C   UNL     1       6.684  -4.486  -7.926  1.00  0.00     0.000 C 
BRANCH   6   7
ATOM      7  C   UNL     1       8.045  -5.203  -7.928  1.00  0.00     0.000 C 
BRANCH   7   8
ATOM      8  C   UNL     1       8.974  -4.722  -9.055  1.00  0.00     0.000 C 
BRANCH   8   9
ATOM      9  C   UNL     1      10.081  -5.739  -9.389  1.00  0.00     0.000 C 
BRANCH   9  10
ATOM     10  C   UNL     1       9.976  -7.074  -8.631  1.00  0.00     0.000 C 
BRANCH  10  11
ATOM     11  C   UNL     1      11.336  -7.571  -8.112  1.00  0.00     0.000 C 
BRANCH  11  12
ATOM     12  C   UNL     1      11.704  -6.948  -6.756  1.00  0.00     0.006 C 
BRANCH  12  13
ATOM     13  C   UNL     1      11.413  -5.443  -6.707  1.00  0.00     0.053 C 
BRANCH  13  14
ATOM     14  C   UNL     1      11.025  -5.026  -5.323  1.00  0.00     0.041 C 
ATOM     15  O   UNL     1      11.445  -3.939  -4.846  1.00  0.00    -0.550 OA
ATOM     16  O   UNL     1      10.213  -5.849  -4.549  1.00  0.00    -0.550 OA
ENDBRANCH  13  14
ENDBRANCH  12  13
ENDBRANCH  11  12
ENDBRANCH  10  11
ENDBRANCH   9  10
ENDBRANCH   8   9
ENDBRANCH   7   8
ENDBRANCH   6   7
ENDBRANCH   5   6
ENDBRANCH   4   5
ENDBRANCH   3   4
ENDBRANCH   2   3
ENDBRANCH   1   2
BRANCH   1  17
ATOM     17  C   UNL     1       1.640  -6.943  -8.954  1.00  0.00     0.000 C 
BRANCH  17  18
ATOM     18  C   UNL     1       0.295  -7.231  -8.267  1.00  0.00     0.000 C 
BRANCH  18  19
ATOM     19  C   UNL     1      -0.163  -6.079  -7.355  1.00  0.00     0.000 C 
BRANCH  19  20
ATOM     20  C   UNL     1      -1.229  -6.511  -6.329  1.00  0.00     0.000 C 
BRANCH  20  21
ATOM     21  C   UNL     1      -2.676  -6.539  -6.854  1.00  0.00     0.000 C 
BRANCH  21  22
ATOM     22  C   UNL     1      -3.662  -5.789  -5.943  1.00  0.00    -0.000 C 
BRANCH  22  23
ATOM     23  C   UNL     1      -4.810  -6.684  -5.438  1.00  0.00    -0.000 C 
BRANCH  23  24
ATOM     24  C   UNL     1      -6.217  -6.076  -5.567  1.00  0.00    -0.000 C 
BRANCH  24  25
ATOM     25  C   UNL     1      -6.297  -4.632  -5.042  1.00  0.00    -0.000 C 
BRANCH  25  26
ATOM     26  C   UNL     1      -7.200  -3.740  -5.906  1.00  0.00    -0.000 C 
BRANCH  26  27
ATOM     27  C   UNL     1      -8.079  -4.551  -6.876  1.00  0.00    -0.000 C 
BRANCH  27  28
ATOM     28  C   UNL     1      -7.762  -4.233  -8.353  1.00  0.00    -0.000 C 
BRANCH  28  29
ATOM     29  C   UNL     1      -7.521  -5.488  -9.211  1.00  0.00    -0.003 C 
ATOM     30  C   UNL     1      -6.046  -5.721  -9.525  1.00  0.00     0.004 C 
ENDBRANCH  28  29
ENDBRANCH  27  28
ENDBRANCH  26  27
ENDBRANCH  25  26
ENDBRANCH  24  25
ENDBRANCH  23  24
ENDBRANCH  22  23
ENDBRANCH  21  22
ENDBRANCH  20  21
ENDBRANCH  19  20
ENDBRANCH  18  19
ENDBRANCH  17  18
ENDBRANCH   1  17
TORSDOF 26
ENDMDL
MODEL 6
REMARK VINA RESULT:     3.216      4.824     14.141
REMARK INTER + INTRA:           6.801
REMARK INTER:                   8.048
REMARK INTRA:                  -1.246
REMARK UNBOUND:                -1.303
REMARK SMILES CCCCCCCCCCCCCCCCCCCCCCCCCCCC(=O)[O-]
REMARK SMILES IDX 15 1 16 2 17 3 18 4 19 5 20 6 21 7 22 8 23 9 24 10 25 11
REMARK SMILES IDX 26 12 27 13 28 14 29 15 30 16 14 17 13 18 12 19 11 20 10 21
REMARK SMILES IDX 9 22 8 23 7 24 6 25 5 26 4 27 3 28 2 29 1 30
REMARK H PARENT
REMARK Flexibility Score: inf
ROOT
ATOM      1  C   UNL     1       2.670  -5.571  -8.872  1.00  0.00     0.000 C 
ENDROOT
BRANCH   1   2
ATOM      2  C   UNL     1       2.035  -6.780  -9.578  1.00  0.00     0.000 C 
BRANCH   2   3
ATOM      3  C   UNL     1       0.656  -7.147  -9.010  1.00  0.00     0.000 C 
BRANCH   3   4
ATOM      4  C   UNL     1       0.381  -6.491  -7.647  1.00  0.00     0.000 C 
BRANCH   4   5
ATOM      5  C   UNL     1      -1.052  -6.782  -7.177  1.00  0.00     0.000 C 
BRANCH   5   6
ATOM      6  C   UNL     1      -1.651  -5.616  -6.363  1.00  0.00     0.000 C 
BRANCH   6   7
ATOM      7  C   UNL     1      -3.123  -5.829  -5.968  1.00  0.00     0.000 C 
BRANCH   7   8
ATOM      8  C   UNL     1      -3.819  -6.912  -6.808  1.00  0.00     0.000 C 
BRANCH   8   9
ATOM      9  C   UNL     1      -5.339  -6.963  -6.573  1.00  0.00     0.000 C 
BRANCH   9  10
ATOM     10  C   UNL     1      -5.807  -6.322  -5.255  1.00  0.00     0.000 C 
BRANCH  10  11
ATOM     11  C   UNL     1      -7.237  -5.762  -5.341  1.00  0.00     0.000 C 
BRANCH  11  12
ATOM     12  C   UNL     1      -7.254  -4.235  -5.510  1.00  0.00     0.006 C 
BRANCH  12  13
ATOM     13  C   UNL     1      -7.969  -3.798  -6.796  1.00  0.00     0.053 C 
BRANCH  13  14
ATOM     14  C   UNL     1      -7.011  -3.117  -7.725  1.00  0.00     0.041 C 
ATOM     15  O   UNL     1      -7.005  -1.862  -7.820  1.00  0.00    -0.550 OA
ATOM     16  O   UNL     1      -6.138  -3.872  -8.501  1.00  0.00    -0.550 OA
ENDBRANCH  13  14
ENDBRANCH  12  13
ENDBRANCH  11  12
ENDBRANCH  10  11
ENDBRANCH   9  10
ENDBRANCH   8   9
ENDBRANCH   7   8
ENDBRANCH   6   7
ENDBRANCH   5   6
ENDBRANCH   4   5
ENDBRANCH   3   4
ENDBRANCH   2   3
ENDBRANCH   1   2
BRANCH   1  17
ATOM     17  C   UNL     1       2.813  -4.387  -9.839  1.00  0.00     0.000 C 
BRANCH  17  18
ATOM     18  C   UNL     1       4.150  -3.645  -9.679  1.00  0.00     0.000 C 
BRANCH  18  19
ATOM     19  C   UNL     1       5.355  -4.492 -10.125  1.00  0.00     0.000 C 
BRANCH  19  20
ATOM     20  C   UNL     1       6.670  -4.081  -9.434  1.00  0.00     0.000 C 
BRANCH  20  21
ATOM     21  C   UNL     1       6.662  -4.172  -7.896  1.00  0.00     0.000 C 
BRANCH  21  22
ATOM     22  C   UNL     1       7.940  -4.811  -7.325  1.00  0.00    -0.000 C 
BRANCH  22  23
ATOM     23  C   UNL     1       8.693  -5.669  -8.359  1.00  0.00    -0.000 C 
BRANCH  23  24
ATOM     24  C   UNL     1       9.378  -6.924  -7.790  1.00  0.00    -0.000 C 
BRANCH  24  25
ATOM     25  C   UNL     1      10.823  -6.662  -7.330  1.00  0.00    -0.000 C 
BRANCH  25  26
ATOM     26  C   UNL     1      10.929  -6.462  -5.811  1.00  0.00    -0.000 C 
BRANCH  26  27
ATOM     27  C   UNL     1      11.686  -5.175  -5.436  1.00  0.00    -0.000 C 
BRANCH  27  28
ATOM     28  C   UNL     1      11.032  -4.441  -4.245  1.00  0.00    -0.000 C 
BRANCH  28  29
ATOM     29  C   UNL     1      11.364  -5.070  -2.881  1.00  0.00    -0.003 C 
ATOM     30  C   UNL     1      12.090  -6.407  -3.003  1.00  0.00     0.004 C 
ENDBRANCH  28  29
ENDBRANCH  27  28
ENDBRANCH  26  27
ENDBRANCH  25  26
ENDBRANCH  24  25
ENDBRANCH  23  24
ENDBRANCH  22  23
ENDBRANCH  21  22
ENDBRANCH  20  21
ENDBRANCH  19  20
ENDBRANCH  18  19
ENDBRANCH  17  18
ENDBRANCH   1  17
TORSDOF 26
ENDMDL
MODEL 7
REMARK VINA RESULT:     3.598      1.254      3.162
REMARK INTER + INTRA:           7.763
REMARK INTER:                   7.681
REMARK INTRA:                   0.082
REMARK UNBOUND:                -1.303
REMARK SMILES CCCCCCCCCCCCCCCCCCCCCCCCCCCC(=O)[O-]
REMARK SMILES IDX 15 1 16 2 17 3 18 4 19 5 20 6 21 7 22 8 23 9 24 10 25 11
REMARK SMILES IDX 26 12 27 13 28 14 29 15 30 16 14 17 13 18 12 19 11 20 10 21
REMARK SMILES IDX 9 22 8 23 7 24 6 25 5 26 4 27 3 28 2 29 1 30
REMARK H PARENT
REMARK Flexibility Score: inf
ROOT
ATOM      1  C   UNL     1       5.468  -4.545  -9.414  1.00  0.00     0.000 C 
ENDROOT
BRANCH   1   2
ATOM      2  C   UNL     1       6.275  -3.270  -9.124  1.00  0.00     0.000 C 
BRANCH   2   3
ATOM      3  C   UNL     1       7.533  -3.147  -9.998  1.00  0.00     0.000 C 
BRANCH   3   4
ATOM      4  C   UNL     1       8.684  -4.042  -9.511  1.00  0.00     0.000 C 
BRANCH   4   5
ATOM      5  C   UNL     1       8.161  -5.418  -9.069  1.00  0.00     0.000 C 
BRANCH   5   6
ATOM      6  C   UNL     1       8.945  -6.579  -9.715  1.00  0.00     0.000 C 
BRANCH   6   7
ATOM      7  C   UNL     1      10.468  -6.365  -9.731  1.00  0.00     0.000 C 
BRANCH   7   8
ATOM      8  C   UNL     1      11.212  -7.269  -8.735  1.00  0.00     0.000 C 
BRANCH   8   9
ATOM      9  C   UNL     1      11.678  -6.515  -7.478  1.00  0.00     0.000 C 
BRANCH   9  10
ATOM     10  C   UNL     1      10.689  -6.559  -6.299  1.00  0.00     0.000 C 
BRANCH  10  11
ATOM     11  C   UNL     1      10.159  -5.166  -5.916  1.00  0.00     0.000 C 
BRANCH  11  12
ATOM     12  C   UNL     1      11.169  -4.372  -5.073  1.00  0.00     0.006 C 
BRANCH  12  13
ATOM     13  C   UNL     1      12.114  -5.286  -4.280  1.00  0.00     0.053 C 
BRANCH  13  14
ATOM     14  C   UNL     1      11.413  -5.859  -3.088  1.00  0.00     0.041 C 
ATOM     15  O   UNL     1      11.220  -5.151  -2.064  1.00  0.00    -0.550 OA
ATOM     16  O   UNL     1      10.990  -7.184  -3.098  1.00  0.00    -0.550 OA
ENDBRANCH  13  14
ENDBRANCH  12  13
ENDBRANCH  11  12
ENDBRANCH  10  11
ENDBRANCH   9  10
ENDBRANCH   8   9
ENDBRANCH   7   8
ENDBRANCH   6   7
ENDBRANCH   5   6
ENDBRANCH   4   5
ENDBRANCH   3   4
ENDBRANCH   2   3
ENDBRANCH   1   2
BRANCH   1  17
ATOM     17  C   UNL     1       4.149  -4.206 -10.123  1.00  0.00     0.000 C 
BRANCH  17  18
ATOM     18  C   UNL     1       2.914  -4.710  -9.358  1.00  0.00     0.000 C 
BRANCH  18  19
ATOM     19  C   UNL     1       2.240  -5.911 -10.046  1.00  0.00     0.000 C 
BRANCH  19  20
ATOM     20  C   UNL     1       1.986  -7.090  -9.087  1.00  0.00     0.000 C 
BRANCH  20  21
ATOM     21  C   UNL     1       0.511  -7.333  -8.718  1.00  0.00     0.000 C 
BRANCH  21  22
ATOM     22  C   UNL     1       0.099  -6.651  -7.402  1.00  0.00    -0.000 C 
BRANCH  22  23
ATOM     23  C   UNL     1      -1.423  -6.671  -7.169  1.00  0.00    -0.000 C 
BRANCH  23  24
ATOM     24  C   UNL     1      -1.919  -5.776  -6.020  1.00  0.00    -0.000 C 
BRANCH  24  25
ATOM     25  C   UNL     1      -3.420  -5.453  -6.118  1.00  0.00    -0.000 C 
BRANCH  25  26
ATOM     26  C   UNL     1      -4.300  -6.709  -6.026  1.00  0.00    -0.000 C 
BRANCH  26  27
ATOM     27  C   UNL     1      -5.097  -6.968  -7.318  1.00  0.00    -0.000 C 
BRANCH  27  28
ATOM     28  C   UNL     1      -5.989  -5.768  -7.703  1.00  0.00    -0.000 C 
BRANCH  28  29
ATOM     29  C   UNL     1      -6.140  -4.732  -6.576  1.00  0.00    -0.003 C 
ATOM     30  C   UNL     1      -7.102  -5.181  -5.479  1.00  0.00     0.004 C 
ENDBRANCH  28  29
ENDBRANCH  27  28
ENDBRANCH  26  27
ENDBRANCH  25  26
ENDBRANCH  24  25
ENDBRANCH  23  24
ENDBRANCH  22  23
ENDBRANCH  21  22
ENDBRANCH  20  21
ENDBRANCH  19  20
ENDBRANCH  18  19
ENDBRANCH  17  18
ENDBRANCH   1  17
TORSDOF 26
ENDMDL
MODEL 8
REMARK VINA RESULT:     3.681      4.902     14.109
REMARK INTER + INTRA:           7.972
REMARK INTER:                   9.002
REMARK INTRA:                  -1.030
REMARK UNBOUND:                -1.303
REMARK SMILES CCCCCCCCCCCCCCCCCCCCCCCCCCCC(=O)[O-]
REMARK SMILES IDX 15 1 16 2 17 3 18 4 19 5 20 6 21 7 22 8 23 9 24 10 25 11
REMARK SMILES IDX 26 12 27 13 28 14 29 15 30 16 14 17 13 18 12 19 11 20 10 21
REMARK SMILES IDX 9 22 8 23 7 24 6 25 5 26 4 27 3 28 2 29 1 30
REMARK H PARENT
REMARK Flexibility Score: inf
ROOT
ATOM      1  C   UNL     1       1.715  -6.335  -8.435  1.00  0.00     0.000 C 
ENDROOT
BRANCH   1   2
ATOM      2  C   UNL     1       0.227  -6.624  -8.185  1.00  0.00     0.000 C 
BRANCH   2   3
ATOM      3  C   UNL     1      -0.326  -5.889  -6.954  1.00  0.00     0.000 C 
BRANCH   3   4
ATOM      4  C   UNL     1      -1.454  -6.664  -6.256  1.00  0.00     0.000 C 
BRANCH   4   5
ATOM      5  C   UNL     1      -2.647  -5.744  -5.953  1.00  0.00     0.000 C 
BRANCH   5   6
ATOM      6  C   UNL     1      -3.949  -6.230  -6.624  1.00  0.00     0.000 C 
BRANCH   6   7
ATOM      7  C   UNL     1      -5.214  -5.953  -5.794  1.00  0.00     0.000 C 
BRANCH   7   8
ATOM      8  C   UNL     1      -6.428  -6.772  -6.259  1.00  0.00     0.000 C 
BRANCH   8   9
ATOM      9  C   UNL     1      -6.122  -7.648  -7.487  1.00  0.00     0.000 C 
BRANCH   9  10
ATOM     10  C   UNL     1      -7.315  -7.864  -8.435  1.00  0.00     0.000 C 
BRANCH  10  11
ATOM     11  C   UNL     1      -7.989  -6.546  -8.852  1.00  0.00     0.000 C 
BRANCH  11  12
ATOM     12  C   UNL     1      -7.006  -5.364  -8.846  1.00  0.00     0.006 C 
BRANCH  12  13
ATOM     13  C   UNL     1      -7.725  -4.008  -8.827  1.00  0.00     0.053 C 
BRANCH  13  14
ATOM     14  C   UNL     1      -6.820  -2.941  -8.294  1.00  0.00     0.041 C 
ATOM     15  O   UNL     1      -5.617  -2.886  -8.664  1.00  0.00    -0.550 OA
ATOM     16  O   UNL     1      -7.300  -2.017  -7.372  1.00  0.00    -0.550 OA
ENDBRANCH  13  14
ENDBRANCH  12  13
ENDBRANCH  11  12
ENDBRANCH  10  11
ENDBRANCH   9  10
ENDBRANCH   8   9
ENDBRANCH   7   8
ENDBRANCH   6   7
ENDBRANCH   5   6
ENDBRANCH   4   5
ENDBRANCH   3   4
ENDBRANCH   2   3
ENDBRANCH   1   2
BRANCH   1  17
ATOM     17  C   UNL     1       1.969  -6.024  -9.917  1.00  0.00     0.000 C 
BRANCH  17  18
ATOM     18  C   UNL     1       2.811  -4.755 -10.125  1.00  0.00     0.000 C 
BRANCH  18  19
ATOM     19  C   UNL     1       4.026  -4.689  -9.183  1.00  0.00     0.000 C 
BRANCH  19  20
ATOM     20  C   UNL     1       4.572  -3.259  -9.002  1.00  0.00     0.000 C 
BRANCH  20  21
ATOM     21  C   UNL     1       5.796  -2.908  -9.869  1.00  0.00     0.000 C 
BRANCH  21  22
ATOM     22  C   UNL     1       6.719  -4.112 -10.124  1.00  0.00    -0.000 C 
BRANCH  22  23
ATOM     23  C   UNL     1       7.294  -4.710  -8.827  1.00  0.00    -0.000 C 
BRANCH  23  24
ATOM     24  C   UNL     1       8.768  -5.146  -8.906  1.00  0.00    -0.000 C 
BRANCH  24  25
ATOM     25  C   UNL     1       8.947  -6.671  -8.810  1.00  0.00    -0.000 C 
BRANCH  25  26
ATOM     26  C   UNL     1      10.065  -7.072  -7.835  1.00  0.00    -0.000 C 
BRANCH  26  27
ATOM     27  C   UNL     1       9.522  -7.560  -6.481  1.00  0.00    -0.000 C 
BRANCH  27  28
ATOM     28  C   UNL     1      10.160  -6.808  -5.292  1.00  0.00    -0.000 C 
BRANCH  28  29
ATOM     29  C   UNL     1      11.346  -5.918  -5.698  1.00  0.00    -0.003 C 
ATOM     30  C   UNL     1      11.244  -4.499  -5.144  1.00  0.00     0.004 C 
ENDBRANCH  28  29
ENDBRANCH  27  28
ENDBRANCH  26  27
ENDBRANCH  25  26
ENDBRANCH  24  25
ENDBRANCH  23  24
ENDBRANCH  22  23
ENDBRANCH  21  22
ENDBRANCH  20  21
ENDBRANCH  19  20
ENDBRANCH  18  19
ENDBRANCH  17  18
ENDBRANCH   1  17
TORSDOF 26
ENDMDL
MODEL 9
REMARK VINA RESULT:     3.806      1.639      4.367
REMARK INTER + INTRA:           8.289
REMARK INTER:                  10.189
REMARK INTRA:                  -1.900
REMARK UNBOUND:                -1.303
REMARK SMILES CCCCCCCCCCCCCCCCCCCCCCCCCCCC(=O)[O-]
REMARK SMILES IDX 15 1 16 2 17 3 18 4 19 5 20 6 21 7 22 8 23 9 24 10 25 11
REMARK SMILES IDX 26 12 27 13 28 14 29 15 30 16 14 17 13 18 12 19 11 20 10 21
REMARK SMILES IDX 9 22 8 23 7 24 6 25 5 26 4 27 3 28 2 29 1 30
REMARK H PARENT
REMARK Flexibility Score: inf
ROOT
ATOM      1  C   UNL     1      -1.417  -5.792  -6.660  1.00  0.00     0.000 C 
ENDROOT
BRANCH   1   2
ATOM      2  C   UNL     1      -0.822  -6.674  -7.769  1.00  0.00     0.000 C 
BRANCH   2   3
ATOM      3  C   UNL     1       0.705  -6.810  -7.670  1.00  0.00     0.000 C 
BRANCH   3   4
ATOM      4  C   UNL     1       1.423  -6.405  -8.967  1.00  0.00     0.000 C 
BRANCH   4   5
ATOM      5  C   UNL     1       2.608  -5.473  -8.671  1.00  0.00     0.000 C 
BRANCH   5   6
ATOM      6  C   UNL     1       3.037  -4.657  -9.908  1.00  0.00     0.000 C 
BRANCH   6   7
ATOM      7  C   UNL     1       4.562  -4.587 -10.105  1.00  0.00     0.000 C 
BRANCH   7   8
ATOM      8  C   UNL     1       5.189  -3.328  -9.484  1.00  0.00     0.000 C 
BRANCH   8   9
ATOM      9  C   UNL     1       6.720  -3.286  -9.641  1.00  0.00     0.000 C 
BRANCH   9  10
ATOM     10  C   UNL     1       7.431  -4.621  -9.361  1.00  0.00     0.000 C 
BRANCH  10  11
ATOM     11  C   UNL     1       8.863  -4.661  -9.924  1.00  0.00     0.000 C 
BRANCH  11  12
ATOM     12  C   UNL     1       9.864  -5.255  -8.921  1.00  0.00     0.006 C 
BRANCH  12  13
ATOM     13  C   UNL     1       9.226  -5.535  -7.554  1.00  0.00     0.053 C 
BRANCH  13  14
ATOM     14  C   UNL     1      10.255  -5.466  -6.469  1.00  0.00     0.041 C 
ATOM     15  O   UNL     1      11.024  -6.442  -6.261  1.00  0.00    -0.550 OA
ATOM     16  O   UNL     1      10.353  -4.330  -5.672  1.00  0.00    -0.550 OA
ENDBRANCH  13  14
ENDBRANCH  12  13
ENDBRANCH  11  12
ENDBRANCH  10  11
ENDBRANCH   9  10
ENDBRANCH   8   9
ENDBRANCH   7   8
ENDBRANCH   6   7
ENDBRANCH   5   6
ENDBRANCH   4   5
ENDBRANCH   3   4
ENDBRANCH   2   3
ENDBRANCH   1   2
BRANCH   1  17
ATOM     17  C   UNL     1      -2.517  -6.543  -5.896  1.00  0.00     0.000 C 
BRANCH  17  18
ATOM     18  C   UNL     1      -3.814  -6.689  -6.709  1.00  0.00     0.000 C 
BRANCH  18  19
ATOM     19  C   UNL     1      -5.012  -7.117  -5.843  1.00  0.00     0.000 C 
BRANCH  19  20
ATOM     20  C   UNL     1      -6.371  -6.802  -6.497  1.00  0.00     0.000 C 
BRANCH  20  21
ATOM     21  C   UNL     1      -6.318  -6.470  -8.000  1.00  0.00     0.000 C 
BRANCH  21  22
ATOM     22  C   UNL     1      -7.681  -6.037  -8.569  1.00  0.00    -0.000 C 
BRANCH  22  23
ATOM     23  C   UNL     1      -7.553  -5.188  -9.847  1.00  0.00    -0.000 C 
BRANCH  23  24
ATOM     24  C   UNL     1      -6.288  -4.316  -9.928  1.00  0.00    -0.000 C 
BRANCH  24  25
ATOM     25  C   UNL     1      -6.590  -2.811  -9.819  1.00  0.00    -0.000 C 
BRANCH  25  26
ATOM     26  C   UNL     1      -6.499  -2.296  -8.374  1.00  0.00    -0.000 C 
BRANCH  26  27
ATOM     27  C   UNL     1      -7.881  -2.022  -7.755  1.00  0.00    -0.000 C 
BRANCH  27  28
ATOM     28  C   UNL     1      -7.853  -2.098  -6.213  1.00  0.00    -0.000 C 
BRANCH  28  29
ATOM     29  C   UNL     1      -7.919  -3.535  -5.670  1.00  0.00    -0.003 C 
ATOM     30  C   UNL     1      -7.777  -3.606  -4.152  1.00  0.00     0.004 C 
ENDBRANCH  28  29
ENDBRANCH  27  28
ENDBRANCH  26  27
ENDBRANCH  25  26
ENDBRANCH  24  25
ENDBRANCH  23  24
ENDBRANCH  22  23
ENDBRANCH  21  22
ENDBRANCH  20  21
ENDBRANCH  19  20
ENDBRANCH  18  19
ENDBRANCH  17  18
ENDBRANCH   1  17
TORSDOF 26
ENDMDL
