MODEL 1
REMARK VINA RESULT:    47.039      0.000      0.000
REMARK INTER + INTRA:          59.808
REMARK INTER:                  59.413
REMARK INTRA:                   0.395
REMARK UNBOUND:                 0.395
REMARK SMILES CC(C)[C@@H](C)C=C[C@H](C)[C@@H]1CC[C@@H]2C3=CC=C4C[C@H](O)CC[C@]4(C)[C@@H]3CC[C@@]21C
REMARK SMILES IDX 8 1 9 2 7 3 6 4 4 5 5 6 2 7 1 8 3 9 10 10 11 11 28 12 12 13
REMARK SMILES IDX 13 14 27 15 29 16 14 17 26 18 25 19 15 20 23 21 16 22 17 23
REMARK SMILES IDX 22 24 24 25 18 26 21 27 19 28 20 29
REMARK H PARENT 20 30
REMARK Flexibility Score: inf
ROOT
ATOM      1  C   UNL     1     -37.017  20.200   7.932  1.00  0.00     0.012 C 
ATOM      2  C   UNL     1     -38.092  19.816   8.955  1.00  0.00     0.012 C 
ENDROOT
BRANCH   1   3
ATOM      3  C   UNL     1     -37.676  20.384   6.579  1.00  0.00    -0.028 C 
ATOM      4  C   UNL     1     -37.522  21.522   5.876  1.00  0.00    -0.028 C 
BRANCH   4   5
ATOM      5  C   UNL     1     -38.125  21.761   4.504  1.00  0.00     0.011 C 
ATOM      6  C   UNL     1     -37.971  20.536   3.585  1.00  0.00     0.012 C 
BRANCH   5   7
ATOM      7  C   UNL     1     -37.640  23.109   3.878  1.00  0.00    -0.011 C 
ATOM      8  C   UNL     1     -37.978  24.356   4.714  1.00  0.00     0.008 C 
ATOM      9  C   UNL     1     -36.130  23.076   3.588  1.00  0.00     0.008 C 
ENDBRANCH   5   7
ENDBRANCH   4   5
ENDBRANCH   1   3
BRANCH   1  10
ATOM     10  C   UNL     1     -36.224  21.494   8.329  1.00  0.00     0.002 C 
ATOM     11  C   UNL     1     -36.835  22.747   7.674  1.00  0.00     0.005 C 
ATOM     12  C   UNL     1     -34.691  21.602   8.026  1.00  0.00    -0.023 C 
ATOM     13  C   UNL     1     -35.724  23.792   7.574  1.00  0.00     0.009 C 
ATOM     14  C   UNL     1     -34.469  23.133   8.140  1.00  0.00     0.021 C 
ATOM     15  C   UNL     1     -34.303  21.031   6.608  1.00  0.00     0.008 C 
ATOM     16  C   UNL     1     -33.836  20.913   9.125  1.00  0.00     0.012 C 
ATOM     17  C   UNL     1     -33.191  23.644   7.499  1.00  0.00    -0.063 C 
ATOM     18  C   UNL     1     -33.556  22.000   5.677  1.00  0.00     0.009 C 
ATOM     19  C   UNL     1     -32.501  22.834   6.427  1.00  0.00     0.025 C 
ATOM     20  C   UNL     1     -32.589  24.723   8.007  1.00  0.00    -0.000 C 
ATOM     21  C   UNL     1     -31.570  23.698   5.481  1.00  0.00    -0.005 C 
ATOM     22  C   UNL     1     -31.359  25.262   7.426  1.00  0.00    -0.000 C 
ATOM     23  C   UNL     1     -30.865  24.810   6.263  1.00  0.00    -0.061 C 
ATOM     24  C   UNL     1     -32.368  24.406   4.344  1.00  0.00     0.014 C 
ATOM     25  C   UNL     1     -30.507  22.742   4.870  1.00  0.00     0.017 C 
ATOM     26  C   UNL     1     -29.938  25.718   5.491  1.00  0.00     0.063 C 
ATOM     27  C   UNL     1     -31.512  25.394   3.512  1.00  0.00     0.033 C 
ATOM     28  C   UNL     1     -30.744  26.416   4.379  1.00  0.00     0.118 C 
BRANCH  28  29
ATOM     29  O   UNL     1     -31.657  27.329   4.934  1.00  0.00    -0.393 OA
ATOM     30  H   UNL     1     -31.328  27.545   5.847  1.00  0.00     0.210 HD
ENDBRANCH  28  29
ENDBRANCH   1  10
TORSDOF 5
ENDMDL
