MODEL 1
REMARK VINA RESULT:    -4.449      0.000      0.000
REMARK INTER + INTRA:          -7.951
REMARK INTER:                  -6.790
REMARK INTRA:                  -1.161
REMARK UNBOUND:                -1.161
REMARK SMILES CCCCCCCCCCC(=O)[O-]
REMARK SMILES IDX 7 1 8 2 9 3 10 4 11 5 12 6 13 7 6 8 5 9 4 10 3 11 2 12 1 13
REMARK H PARENT
REMARK Flexibility Score: inf
ROOT
ATOM      1  C   UNL     1     161.219 167.957 160.767  1.00  0.00     0.000 C 
ENDROOT
BRANCH   1   2
ATOM      2  C   UNL     1     159.968 167.378 160.085  1.00  0.00     0.000 C 
BRANCH   2   3
ATOM      3  C   UNL     1     159.509 166.056 160.722  1.00  0.00     0.006 C 
BRANCH   3   4
ATOM      4  C   UNL     1     160.068 165.853 162.136  1.00  0.00     0.053 C 
BRANCH   4   5
ATOM      5  C   UNL     1     160.966 164.657 162.175  1.00  0.00     0.041 C 
ATOM      6  O   UNL     1     161.256 164.048 161.113  1.00  0.00    -0.550 OA
ATOM      7  O   UNL     1     161.524 164.246 163.379  1.00  0.00    -0.550 OA
ENDBRANCH   4   5
ENDBRANCH   3   4
ENDBRANCH   2   3
ENDBRANCH   1   2
BRANCH   1   8
ATOM      8  C   UNL     1     162.447 167.960 159.839  1.00  0.00     0.000 C 
BRANCH   8   9
ATOM      9  C   UNL     1     163.246 166.650 159.907  1.00  0.00    -0.000 C 
BRANCH   9  10
ATOM     10  C   UNL     1     163.710 166.216 158.511  1.00  0.00    -0.000 C 
BRANCH  10  11
ATOM     11  C   UNL     1     162.960 164.959 158.047  1.00  0.00    -0.000 C 
BRANCH  11  12
ATOM     12  C   UNL     1     161.502 165.251 157.659  1.00  0.00    -0.003 C 
ATOM     13  C   UNL     1     161.384 166.282 156.536  1.00  0.00     0.004 C 
ENDBRANCH  11  12
ENDBRANCH  10  11
ENDBRANCH   9  10
ENDBRANCH   8   9
ENDBRANCH   1   8
TORSDOF 9
ENDMDL
MODEL 2
REMARK VINA RESULT:    -4.437      1.769      2.009
REMARK INTER + INTRA:          -7.933
REMARK INTER:                  -6.701
REMARK INTRA:                  -1.232
REMARK UNBOUND:                -1.161
REMARK SMILES CCCCCCCCCCC(=O)[O-]
REMARK SMILES IDX 7 1 8 2 9 3 10 4 11 5 12 6 13 7 6 8 5 9 4 10 3 11 2 12 1 13
REMARK H PARENT
REMARK Flexibility Score: inf
ROOT
ATOM      1  C   UNL     1     161.098 167.842 160.766  1.00  0.00     0.000 C 
ENDROOT
BRANCH   1   2
ATOM      2  C   UNL     1     159.874 167.282 160.023  1.00  0.00     0.000 C 
BRANCH   2   3
ATOM      3  C   UNL     1     159.034 166.338 160.898  1.00  0.00     0.006 C 
BRANCH   3   4
ATOM      4  C   UNL     1     159.535 164.889 160.857  1.00  0.00     0.053 C 
BRANCH   4   5
ATOM      5  C   UNL     1     158.633 164.049 160.009  1.00  0.00     0.041 C 
ATOM      6  O   UNL     1     159.114 163.163 159.256  1.00  0.00    -0.550 OA
ATOM      7  O   UNL     1     157.255 164.210 160.088  1.00  0.00    -0.550 OA
ENDBRANCH   4   5
ENDBRANCH   3   4
ENDBRANCH   2   3
ENDBRANCH   1   2
BRANCH   1   8
ATOM      8  C   UNL     1     162.347 167.920 159.871  1.00  0.00     0.000 C 
BRANCH   8   9
ATOM      9  C   UNL     1     163.199 166.643 159.929  1.00  0.00    -0.000 C 
BRANCH   9  10
ATOM     10  C   UNL     1     163.355 166.024 158.534  1.00  0.00    -0.000 C 
BRANCH  10  11
ATOM     11  C   UNL     1     162.352 164.880 158.324  1.00  0.00    -0.000 C 
BRANCH  11  12
ATOM     12  C   UNL     1     161.184 165.280 157.410  1.00  0.00    -0.003 C 
ATOM     13  C   UNL     1     161.530 166.447 156.485  1.00  0.00     0.004 C 
ENDBRANCH  11  12
ENDBRANCH  10  11
ENDBRANCH   9  10
ENDBRANCH   8   9
ENDBRANCH   1   8
TORSDOF 9
ENDMDL
MODEL 3
REMARK VINA RESULT:    -4.346      2.200      4.491
REMARK INTER + INTRA:          -7.793
REMARK INTER:                  -6.427
REMARK INTRA:                  -1.366
REMARK UNBOUND:                -1.161
REMARK SMILES CCCCCCCCCCC(=O)[O-]
REMARK SMILES IDX 7 1 8 2 9 3 10 4 11 5 12 6 13 7 6 8 5 9 4 10 3 11 2 12 1 13
REMARK H PARENT
REMARK Flexibility Score: inf
ROOT
ATOM      1  C   UNL     1     163.184 164.818 157.867  1.00  0.00     0.000 C 
ENDROOT
BRANCH   1   2
ATOM      2  C   UNL     1     164.171 165.515 158.819  1.00  0.00     0.000 C 
BRANCH   2   3
ATOM      3  C   UNL     1     163.491 166.574 159.702  1.00  0.00     0.006 C 
BRANCH   3   4
ATOM      4  C   UNL     1     162.265 167.206 159.031  1.00  0.00     0.053 C 
BRANCH   4   5
ATOM      5  C   UNL     1     161.449 167.956 160.036  1.00  0.00     0.041 C 
ATOM      6  O   UNL     1     161.992 168.817 160.777  1.00  0.00    -0.550 OA
ATOM      7  O   UNL     1     160.079 167.741 160.120  1.00  0.00    -0.550 OA
ENDBRANCH   4   5
ENDBRANCH   3   4
ENDBRANCH   2   3
ENDBRANCH   1   2
BRANCH   1   8
ATOM      8  C   UNL     1     163.204 163.287 158.014  1.00  0.00     0.000 C 
BRANCH   8   9
ATOM      9  C   UNL     1     162.190 162.778 159.050  1.00  0.00    -0.000 C 
BRANCH   9  10
ATOM     10  C   UNL     1     160.803 163.386 158.806  1.00  0.00    -0.000 C 
BRANCH  10  11
ATOM     11  C   UNL     1     160.346 164.216 160.014  1.00  0.00    -0.000 C 
BRANCH  11  12
ATOM     12  C   UNL     1     161.287 164.072 161.220  1.00  0.00    -0.003 C 
ATOM     13  C   UNL     1     160.975 165.068 162.337  1.00  0.00     0.004 C 
ENDBRANCH  11  12
ENDBRANCH  10  11
ENDBRANCH   9  10
ENDBRANCH   8   9
ENDBRANCH   1   8
TORSDOF 9
ENDMDL
MODEL 4
REMARK VINA RESULT:    -4.270      2.107      4.158
REMARK INTER + INTRA:          -7.678
REMARK INTER:                  -6.424
REMARK INTRA:                  -1.254
REMARK UNBOUND:                -1.161
REMARK SMILES CCCCCCCCCCC(=O)[O-]
REMARK SMILES IDX 7 1 8 2 9 3 10 4 11 5 12 6 13 7 6 8 5 9 4 10 3 11 2 12 1 13
REMARK H PARENT
REMARK Flexibility Score: inf
ROOT
ATOM      1  C   UNL     1     162.844 164.784 157.878  1.00  0.00     0.000 C 
ENDROOT
BRANCH   1   2
ATOM      2  C   UNL     1     162.863 163.303 158.293  1.00  0.00     0.000 C 
BRANCH   2   3
ATOM      3  C   UNL     1     161.456 162.751 158.573  1.00  0.00     0.006 C 
BRANCH   3   4
ATOM      4  C   UNL     1     160.347 163.761 158.247  1.00  0.00     0.053 C 
BRANCH   4   5
ATOM      5  C   UNL     1     159.052 163.329 158.860  1.00  0.00     0.041 C 
ATOM      6  O   UNL     1     158.338 162.464 158.288  1.00  0.00    -0.550 OA
ATOM      7  O   UNL     1     158.657 163.845 160.088  1.00  0.00    -0.550 OA
ENDBRANCH   4   5
ENDBRANCH   3   4
ENDBRANCH   2   3
ENDBRANCH   1   2
BRANCH   1   8
ATOM      8  C   UNL     1     163.961 165.600 158.550  1.00  0.00     0.000 C 
BRANCH   8   9
ATOM      9  C   UNL     1     163.455 166.436 159.735  1.00  0.00    -0.000 C 
BRANCH   9  10
ATOM     10  C   UNL     1     161.992 166.849 159.529  1.00  0.00    -0.000 C 
BRANCH  10  11
ATOM     11  C   UNL     1     161.141 166.491 160.756  1.00  0.00    -0.000 C 
BRANCH  11  12
ATOM     12  C   UNL     1     161.597 165.188 161.430  1.00  0.00    -0.003 C 
ATOM     13  C   UNL     1     160.864 164.914 162.744  1.00  0.00     0.004 C 
ENDBRANCH  11  12
ENDBRANCH  10  11
ENDBRANCH   9  10
ENDBRANCH   8   9
ENDBRANCH   1   8
TORSDOF 9
ENDMDL
MODEL 5
REMARK VINA RESULT:    -4.233      1.463      3.118
REMARK INTER + INTRA:          -7.621
REMARK INTER:                  -6.419
REMARK INTRA:                  -1.202
REMARK UNBOUND:                -1.161
REMARK SMILES CCCCCCCCCCC(=O)[O-]
REMARK SMILES IDX 7 1 8 2 9 3 10 4 11 5 12 6 13 7 6 8 5 9 4 10 3 11 2 12 1 13
REMARK H PARENT
REMARK Flexibility Score: inf
ROOT
ATOM      1  C   UNL     1     161.745 163.258 158.601  1.00  0.00     0.000 C 
ENDROOT
BRANCH   1   2
ATOM      2  C   UNL     1     160.675 164.360 158.687  1.00  0.00     0.000 C 
BRANCH   2   3
ATOM      3  C   UNL     1     160.040 164.456 160.084  1.00  0.00     0.006 C 
BRANCH   3   4
ATOM      4  C   UNL     1     161.056 164.244 161.213  1.00  0.00     0.053 C 
BRANCH   4   5
ATOM      5  C   UNL     1     160.677 165.051 162.415  1.00  0.00     0.041 C 
ATOM      6  O   UNL     1     160.957 164.638 163.570  1.00  0.00    -0.550 OA
ATOM      7  O   UNL     1     160.058 166.285 162.256  1.00  0.00    -0.550 OA
ENDBRANCH   4   5
ENDBRANCH   3   4
ENDBRANCH   2   3
ENDBRANCH   1   2
BRANCH   1   8
ATOM      8  C   UNL     1     163.033 163.739 157.912  1.00  0.00     0.000 C 
BRANCH   8   9
ATOM      9  C   UNL     1     163.128 165.271 157.835  1.00  0.00    -0.000 C 
BRANCH   9  10
ATOM     10  C   UNL     1     164.134 165.810 158.860  1.00  0.00    -0.000 C 
BRANCH  10  11
ATOM     11  C   UNL     1     163.416 166.554 159.996  1.00  0.00    -0.000 C 
BRANCH  11  12
ATOM     12  C   UNL     1     162.344 167.525 159.480  1.00  0.00    -0.003 C 
ATOM     13  C   UNL     1     161.994 168.614 160.496  1.00  0.00     0.004 C 
ENDBRANCH  11  12
ENDBRANCH  10  11
ENDBRANCH   9  10
ENDBRANCH   8   9
ENDBRANCH   1   8
TORSDOF 9
ENDMDL
MODEL 6
REMARK VINA RESULT:    -4.231      1.813      4.019
REMARK INTER + INTRA:          -7.618
REMARK INTER:                  -6.397
REMARK INTRA:                  -1.221
REMARK UNBOUND:                -1.161
REMARK SMILES CCCCCCCCCCC(=O)[O-]
REMARK SMILES IDX 7 1 8 2 9 3 10 4 11 5 12 6 13 7 6 8 5 9 4 10 3 11 2 12 1 13
REMARK H PARENT
REMARK Flexibility Score: inf
ROOT
ATOM      1  C   UNL     1     163.740 166.098 158.811  1.00  0.00     0.000 C 
ENDROOT
BRANCH   1   2
ATOM      2  C   UNL     1     162.568 165.968 157.823  1.00  0.00     0.000 C 
BRANCH   2   3
ATOM      3  C   UNL     1     161.913 164.577 157.866  1.00  0.00     0.006 C 
BRANCH   3   4
ATOM      4  C   UNL     1     162.911 163.462 158.205  1.00  0.00     0.053 C 
BRANCH   4   5
ATOM      5  C   UNL     1     162.184 162.215 158.599  1.00  0.00     0.041 C 
ATOM      6  O   UNL     1     162.817 161.140 158.771  1.00  0.00    -0.550 OA
ATOM      7  O   UNL     1     160.814 162.249 158.824  1.00  0.00    -0.550 OA
ENDBRANCH   4   5
ENDBRANCH   3   4
ENDBRANCH   2   3
ENDBRANCH   1   2
BRANCH   1   8
ATOM      8  C   UNL     1     163.330 166.785 160.125  1.00  0.00     0.000 C 
BRANCH   8   9
ATOM      9  C   UNL     1     162.220 167.829 159.927  1.00  0.00    -0.000 C 
BRANCH   9  10
ATOM     10  C   UNL     1     161.029 167.545 160.850  1.00  0.00    -0.000 C 
BRANCH  10  11
ATOM     11  C   UNL     1     159.789 167.140 160.039  1.00  0.00    -0.000 C 
BRANCH  11  12
ATOM     12  C   UNL     1     159.346 165.696 160.321  1.00  0.00    -0.003 C 
ATOM     13  C   UNL     1     160.284 164.966 161.283  1.00  0.00     0.004 C 
ENDBRANCH  11  12
ENDBRANCH  10  11
ENDBRANCH   9  10
ENDBRANCH   8   9
ENDBRANCH   1   8
TORSDOF 9
ENDMDL
MODEL 7
REMARK VINA RESULT:    -4.206      2.239      3.411
REMARK INTER + INTRA:          -7.579
REMARK INTER:                  -6.478
REMARK INTRA:                  -1.101
REMARK UNBOUND:                -1.161
REMARK SMILES CCCCCCCCCCC(=O)[O-]
REMARK SMILES IDX 7 1 8 2 9 3 10 4 11 5 12 6 13 7 6 8 5 9 4 10 3 11 2 12 1 13
REMARK H PARENT
REMARK Flexibility Score: inf
ROOT
ATOM      1  C   UNL     1     159.905 162.424 158.834  1.00  0.00     0.000 C 
ENDROOT
BRANCH   1   2
ATOM      2  C   UNL     1     159.425 163.879 158.976  1.00  0.00     0.000 C 
BRANCH   2   3
ATOM      3  C   UNL     1     159.168 164.275 160.440  1.00  0.00     0.006 C 
BRANCH   3   4
ATOM      4  C   UNL     1     158.650 165.711 160.583  1.00  0.00     0.053 C 
BRANCH   4   5
ATOM      5  C   UNL     1     159.787 166.683 160.534  1.00  0.00     0.041 C 
ATOM      6  O   UNL     1     159.739 167.675 159.761  1.00  0.00    -0.550 OA
ATOM      7  O   UNL     1     160.878 166.520 161.378  1.00  0.00    -0.550 OA
ENDBRANCH   4   5
ENDBRANCH   3   4
ENDBRANCH   2   3
ENDBRANCH   1   2
BRANCH   1   8
ATOM      8  C   UNL     1     161.294 162.324 158.182  1.00  0.00     0.000 C 
BRANCH   8   9
ATOM      9  C   UNL     1     162.356 163.157 158.915  1.00  0.00    -0.000 C 
BRANCH   9  10
ATOM     10  C   UNL     1     162.974 164.204 157.980  1.00  0.00    -0.000 C 
BRANCH  10  11
ATOM     11  C   UNL     1     163.027 165.582 158.655  1.00  0.00    -0.000 C 
BRANCH  11  12
ATOM     12  C   UNL     1     162.441 166.694 157.771  1.00  0.00    -0.003 C 
ATOM     13  C   UNL     1     161.361 166.185 156.817  1.00  0.00     0.004 C 
ENDBRANCH  11  12
ENDBRANCH  10  11
ENDBRANCH   9  10
ENDBRANCH   8   9
ENDBRANCH   1   8
TORSDOF 9
ENDMDL
MODEL 8
REMARK VINA RESULT:    -4.183      1.563      2.531
REMARK INTER + INTRA:          -7.545
REMARK INTER:                  -6.343
REMARK INTRA:                  -1.202
REMARK UNBOUND:                -1.161
REMARK SMILES CCCCCCCCCCC(=O)[O-]
REMARK SMILES IDX 7 1 8 2 9 3 10 4 11 5 12 6 13 7 6 8 5 9 4 10 3 11 2 12 1 13
REMARK H PARENT
REMARK Flexibility Score: inf
ROOT
ATOM      1  C   UNL     1     160.565 166.452 161.137  1.00  0.00     0.000 C 
ENDROOT
BRANCH   1   2
ATOM      2  C   UNL     1     159.233 165.878 160.623  1.00  0.00     0.000 C 
BRANCH   2   3
ATOM      3  C   UNL     1     159.342 164.394 160.235  1.00  0.00     0.006 C 
BRANCH   3   4
ATOM      4  C   UNL     1     160.093 164.180 158.915  1.00  0.00     0.053 C 
BRANCH   4   5
ATOM      5  C   UNL     1     161.284 163.300 159.129  1.00  0.00     0.041 C 
ATOM      6  O   UNL     1     161.723 163.099 160.292  1.00  0.00    -0.550 OA
ATOM      7  O   UNL     1     161.879 162.660 158.049  1.00  0.00    -0.550 OA
ENDBRANCH   4   5
ENDBRANCH   3   4
ENDBRANCH   2   3
ENDBRANCH   1   2
BRANCH   1   8
ATOM      8  C   UNL     1     160.909 167.807 160.496  1.00  0.00     0.000 C 
BRANCH   8   9
ATOM      9  C   UNL     1     162.388 167.915 160.094  1.00  0.00    -0.000 C 
BRANCH   9  10
ATOM     10  C   UNL     1     163.062 166.537 160.107  1.00  0.00    -0.000 C 
BRANCH  10  11
ATOM     11  C   UNL     1     163.550 166.151 158.703  1.00  0.00    -0.000 C 
BRANCH  11  12
ATOM     12  C   UNL     1     163.094 167.145 157.625  1.00  0.00    -0.003 C 
ATOM     13  C   UNL     1     161.996 166.578 156.723  1.00  0.00     0.004 C 
ENDBRANCH  11  12
ENDBRANCH  10  11
ENDBRANCH   9  10
ENDBRANCH   8   9
ENDBRANCH   1   8
TORSDOF 9
ENDMDL
MODEL 9
REMARK VINA RESULT:    -4.165      2.158      5.016
REMARK INTER + INTRA:          -7.518
REMARK INTER:                  -6.459
REMARK INTRA:                  -1.059
REMARK UNBOUND:                -1.161
REMARK SMILES CCCCCCCCCCC(=O)[O-]
REMARK SMILES IDX 7 1 8 2 9 3 10 4 11 5 12 6 13 7 6 8 5 9 4 10 3 11 2 12 1 13
REMARK H PARENT
REMARK Flexibility Score: inf
ROOT
ATOM      1  C   UNL     1     160.531 163.068 159.236  1.00  0.00     0.000 C 
ENDROOT
BRANCH   1   2
ATOM      2  C   UNL     1     161.713 163.700 158.482  1.00  0.00     0.000 C 
BRANCH   2   3
ATOM      3  C   UNL     1     161.396 165.114 157.969  1.00  0.00     0.006 C 
BRANCH   3   4
ATOM      4  C   UNL     1     162.650 165.878 157.525  1.00  0.00     0.053 C 
BRANCH   4   5
ATOM      5  C   UNL     1     163.540 166.146 158.697  1.00  0.00     0.041 C 
ATOM      6  O   UNL     1     163.186 166.960 159.589  1.00  0.00    -0.550 OA
ATOM      7  O   UNL     1     164.740 165.458 158.830  1.00  0.00    -0.550 OA
ENDBRANCH   4   5
ENDBRANCH   3   4
ENDBRANCH   2   3
ENDBRANCH   1   2
BRANCH   1   8
ATOM      8  C   UNL     1     159.222 163.854 159.045  1.00  0.00     0.000 C 
BRANCH   8   9
ATOM      9  C   UNL     1     158.589 164.285 160.377  1.00  0.00    -0.000 C 
BRANCH   9  10
ATOM     10  C   UNL     1     158.699 165.803 160.570  1.00  0.00    -0.000 C 
BRANCH  10  11
ATOM     11  C   UNL     1     160.025 166.177 161.248  1.00  0.00    -0.000 C 
BRANCH  11  12
ATOM     12  C   UNL     1     160.171 165.553 162.644  1.00  0.00    -0.003 C 
ATOM     13  C   UNL     1     161.341 164.572 162.734  1.00  0.00     0.004 C 
ENDBRANCH  11  12
ENDBRANCH  10  11
ENDBRANCH   9  10
ENDBRANCH   8   9
ENDBRANCH   1   8
TORSDOF 9
ENDMDL
