MODEL 1
REMARK VINA RESULT:    -6.241      0.000      0.000
REMARK INTER + INTRA:          -6.789
REMARK INTER:                  -6.789
REMARK INTRA:                   0.000
REMARK UNBOUND:                 0.000
REMARK SMILES Cc1cc(O)c2c(c1)C(=O)c1cc(O)cc(O)c1C2=O
REMARK SMILES IDX 1 1 2 2 8 3 7 4 6 5 4 6 3 7 19 8 20 9 18 10 11 11 9 12 10 13
REMARK SMILES IDX 12 14 13 15 15 16 16 17 5 18 17 20 14 22
REMARK H PARENT 5 19 17 21 14 23
REMARK Flexibility Score: inf
ROOT
ATOM      1  C   UNL     1       5.885 -34.212  12.531  1.00  0.00     0.044 C 
ATOM      2  C   UNL     1       6.838 -33.166  13.031  1.00  0.00    -0.047 A 
ATOM      3  C   UNL     1       6.635 -32.567  14.278  1.00  0.00     0.016 A 
ATOM      4  C   UNL     1       7.494 -31.553  14.736  1.00  0.00     0.038 A 
ATOM      5  C   UNL     1       8.561 -31.110  13.919  1.00  0.00     0.076 A 
ATOM      6  C   UNL     1       8.795 -31.766  12.680  1.00  0.00     0.127 A 
ATOM      7  C   UNL     1       7.911 -32.753  12.236  1.00  0.00     0.050 A 
ATOM      8  C   UNL     1       9.352 -29.930  14.367  1.00  0.00     0.201 C 
ATOM      9  O   UNL     1      10.008 -29.253  13.531  1.00  0.00    -0.288 OA
ATOM     10  C   UNL     1       9.282 -29.476  15.780  1.00  0.00     0.076 A 
ATOM     11  C   UNL     1       8.252 -29.970  16.610  1.00  0.00     0.041 A 
ATOM     12  C   UNL     1       7.285 -30.955  16.076  1.00  0.00     0.194 C 
ATOM     13  O   UNL     1       6.291 -31.301  16.773  1.00  0.00    -0.289 OA
ATOM     14  C   UNL     1       8.149 -29.520  17.938  1.00  0.00     0.059 A 
ATOM     15  C   UNL     1       9.063 -28.592  18.447  1.00  0.00     0.120 A 
ATOM     16  C   UNL     1      10.087 -28.109  17.632  1.00  0.00     0.093 A 
ATOM     17  C   UNL     1      10.206 -28.542  16.305  1.00  0.00     0.131 A 
ENDROOT
BRANCH   6  18
ATOM     18  O   UNL     1       9.906 -31.498  11.875  1.00  0.00    -0.507 OA
ATOM     19  H   UNL     1      10.180 -30.569  11.588  1.00  0.00     0.293 HD
ENDBRANCH   6  18
BRANCH  17  20
ATOM     20  O   UNL     1      11.247 -28.051  15.517  1.00  0.00    -0.507 OA
ATOM     21  H   UNL     1      12.202 -28.367  15.638  1.00  0.00     0.293 HD
ENDBRANCH  17  20
BRANCH  15  22
ATOM     22  O   UNL     1       8.964 -28.146  19.762  1.00  0.00    -0.508 OA
ATOM     23  H   UNL     1       8.940 -28.793  20.541  1.00  0.00     0.293 HD
ENDBRANCH  15  22
TORSDOF 3
ENDMDL
MODEL 2
REMARK VINA RESULT:    -5.943      1.548      3.395
REMARK INTER + INTRA:          -6.465
REMARK INTER:                  -6.465
REMARK INTRA:                   0.000
REMARK UNBOUND:                 0.000
REMARK SMILES Cc1cc(O)c2c(c1)C(=O)c1cc(O)cc(O)c1C2=O
REMARK SMILES IDX 1 1 2 2 8 3 7 4 6 5 4 6 3 7 19 8 20 9 18 10 11 11 9 12 10 13
REMARK SMILES IDX 12 14 13 15 15 16 16 17 5 18 17 20 14 22
REMARK H PARENT 5 19 17 21 14 23
REMARK Flexibility Score: inf
ROOT
ATOM      1  C   UNL     1       7.330 -34.578  11.936  1.00  0.00     0.044 C 
ATOM      2  C   UNL     1       7.375 -33.863  13.256  1.00  0.00    -0.047 A 
ATOM      3  C   UNL     1       8.144 -32.705  13.403  1.00  0.00     0.016 A 
ATOM      4  C   UNL     1       8.231 -32.054  14.646  1.00  0.00     0.038 A 
ATOM      5  C   UNL     1       7.557 -32.587  15.770  1.00  0.00     0.076 A 
ATOM      6  C   UNL     1       6.730 -33.730  15.596  1.00  0.00     0.127 A 
ATOM      7  C   UNL     1       6.681 -34.373  14.357  1.00  0.00     0.050 A 
ATOM      8  C   UNL     1       7.798 -31.963  17.101  1.00  0.00     0.201 C 
ATOM      9  O   UNL     1       7.577 -32.616  18.156  1.00  0.00    -0.288 OA
ATOM     10  C   UNL     1       8.408 -30.611  17.193  1.00  0.00     0.076 A 
ATOM     11  C   UNL     1       9.024 -30.056  16.050  1.00  0.00     0.041 A 
ATOM     12  C   UNL     1       9.022 -30.807  14.774  1.00  0.00     0.194 C 
ATOM     13  O   UNL     1       9.679 -30.373  13.789  1.00  0.00    -0.289 OA
ATOM     14  C   UNL     1       9.639 -28.794  16.131  1.00  0.00     0.059 A 
ATOM     15  C   UNL     1       9.639 -28.080  17.334  1.00  0.00     0.120 A 
ATOM     16  C   UNL     1       9.023 -28.622  18.462  1.00  0.00     0.093 A 
ATOM     17  C   UNL     1       8.407 -29.879  18.404  1.00  0.00     0.131 A 
ENDROOT
BRANCH   6  18
ATOM     18  O   UNL     1       5.914 -34.240  16.611  1.00  0.00    -0.507 OA
ATOM     19  H   UNL     1       6.194 -34.983  17.236  1.00  0.00     0.293 HD
ENDBRANCH   6  18
BRANCH  17  20
ATOM     20  O   UNL     1       7.788 -30.390  19.544  1.00  0.00    -0.507 OA
ATOM     21  H   UNL     1       8.094 -30.137  20.476  1.00  0.00     0.293 HD
ENDBRANCH  17  20
BRANCH  15  22
ATOM     22  O   UNL     1      10.246 -26.830  17.417  1.00  0.00    -0.508 OA
ATOM     23  H   UNL     1       9.790 -25.995  17.069  1.00  0.00     0.293 HD
ENDBRANCH  15  22
TORSDOF 3
ENDMDL
MODEL 3
REMARK VINA RESULT:    -4.826      1.880      2.255
REMARK INTER + INTRA:          -5.249
REMARK INTER:                  -5.249
REMARK INTRA:                   0.000
REMARK UNBOUND:                 0.000
REMARK SMILES Cc1cc(O)c2c(c1)C(=O)c1cc(O)cc(O)c1C2=O
REMARK SMILES IDX 1 1 2 2 8 3 7 4 6 5 4 6 3 7 19 8 20 9 18 10 11 11 9 12 10 13
REMARK SMILES IDX 12 14 13 15 15 16 16 17 5 18 17 20 14 22
REMARK H PARENT 5 19 17 21 14 23
REMARK Flexibility Score: inf
ROOT
ATOM      1  C   UNL     1       9.997 -35.125  11.875  1.00  0.00     0.044 C 
ATOM      2  C   UNL     1       9.979 -33.876  12.707  1.00  0.00    -0.047 A 
ATOM      3  C   UNL     1       9.107 -33.767  13.795  1.00  0.00     0.016 A 
ATOM      4  C   UNL     1       9.049 -32.585  14.553  1.00  0.00     0.038 A 
ATOM      5  C   UNL     1       9.858 -31.480  14.199  1.00  0.00     0.076 A 
ATOM      6  C   UNL     1      10.784 -31.621  13.130  1.00  0.00     0.127 A 
ATOM      7  C   UNL     1      10.805 -32.797  12.377  1.00  0.00     0.050 A 
ATOM      8  C   UNL     1       9.657 -30.194  14.925  1.00  0.00     0.201 C 
ATOM      9  O   UNL     1      10.024 -29.108  14.403  1.00  0.00    -0.288 OA
ATOM     10  C   UNL     1       8.918 -30.172  16.215  1.00  0.00     0.076 A 
ATOM     11  C   UNL     1       8.162 -31.302  16.593  1.00  0.00     0.041 A 
ATOM     12  C   UNL     1       8.145 -32.502  15.725  1.00  0.00     0.194 C 
ATOM     13  O   UNL     1       7.372 -33.462  15.995  1.00  0.00    -0.289 OA
ATOM     14  C   UNL     1       7.427 -31.282  17.791  1.00  0.00     0.059 A 
ATOM     15  C   UNL     1       7.444 -30.153  18.616  1.00  0.00     0.120 A 
ATOM     16  C   UNL     1       8.198 -29.038  18.249  1.00  0.00     0.093 A 
ATOM     17  C   UNL     1       8.935 -29.036  17.058  1.00  0.00     0.131 A 
ENDROOT
BRANCH   6  18
ATOM     18  O   UNL     1      11.723 -30.638  12.803  1.00  0.00    -0.507 OA
ATOM     19  H   UNL     1      12.639 -30.840  12.427  1.00  0.00     0.293 HD
ENDBRANCH   6  18
BRANCH  17  20
ATOM     20  O   UNL     1       9.689 -27.911  16.723  1.00  0.00    -0.507 OA
ATOM     21  H   UNL     1       9.951 -27.711  15.765  1.00  0.00     0.293 HD
ENDBRANCH  17  20
BRANCH  15  22
ATOM     22  O   UNL     1       6.719 -30.130  19.804  1.00  0.00    -0.508 OA
ATOM     23  H   UNL     1       5.933 -30.751  19.958  1.00  0.00     0.293 HD
ENDBRANCH  15  22
TORSDOF 3
ENDMDL
MODEL 4
REMARK VINA RESULT:    -4.528      1.537      3.655
REMARK INTER + INTRA:          -4.925
REMARK INTER:                  -4.925
REMARK INTRA:                   0.000
REMARK UNBOUND:                 0.000
REMARK SMILES Cc1cc(O)c2c(c1)C(=O)c1cc(O)cc(O)c1C2=O
REMARK SMILES IDX 1 1 2 2 8 3 7 4 6 5 4 6 3 7 19 8 20 9 18 10 11 11 9 12 10 13
REMARK SMILES IDX 12 14 13 15 15 16 16 17 5 18 17 20 14 22
REMARK H PARENT 5 19 17 21 14 23
REMARK Flexibility Score: inf
ROOT
ATOM      1  C   UNL     1       6.095 -35.073  12.720  1.00  0.00     0.044 C 
ATOM      2  C   UNL     1       6.651 -33.936  13.528  1.00  0.00    -0.047 A 
ATOM      3  C   UNL     1       7.781 -33.244  13.082  1.00  0.00     0.016 A 
ATOM      4  C   UNL     1       8.338 -32.208  13.852  1.00  0.00     0.038 A 
ATOM      5  C   UNL     1       7.771 -31.878  15.106  1.00  0.00     0.076 A 
ATOM      6  C   UNL     1       6.587 -32.546  15.522  1.00  0.00     0.127 A 
ATOM      7  C   UNL     1       6.068 -33.589  14.750  1.00  0.00     0.050 A 
ATOM      8  C   UNL     1       8.478 -30.887  15.964  1.00  0.00     0.201 C 
ATOM      9  O   UNL     1       8.272 -30.863  17.206  1.00  0.00    -0.288 OA
ATOM     10  C   UNL     1       9.517 -29.998  15.378  1.00  0.00     0.076 A 
ATOM     11  C   UNL     1      10.034 -30.297  14.100  1.00  0.00     0.041 A 
ATOM     12  C   UNL     1       9.514 -31.461  13.347  1.00  0.00     0.194 C 
ATOM     13  O   UNL     1      10.061 -31.804  12.263  1.00  0.00    -0.289 OA
ATOM     14  C   UNL     1      11.044 -29.488  13.548  1.00  0.00     0.059 A 
ATOM     15  C   UNL     1      11.536 -28.386  14.255  1.00  0.00     0.120 A 
ATOM     16  C   UNL     1      11.019 -28.084  15.514  1.00  0.00     0.093 A 
ATOM     17  C   UNL     1      10.015 -28.877  16.083  1.00  0.00     0.131 A 
ENDROOT
BRANCH   6  18
ATOM     18  O   UNL     1       5.875 -32.189  16.670  1.00  0.00    -0.507 OA
ATOM     19  H   UNL     1       4.905 -31.911  16.665  1.00  0.00     0.293 HD
ENDBRANCH   6  18
BRANCH  17  20
ATOM     20  O   UNL     1       9.509 -28.543  17.339  1.00  0.00    -0.507 OA
ATOM     21  H   UNL     1       8.608 -28.878  17.658  1.00  0.00     0.293 HD
ENDBRANCH  17  20
BRANCH  15  22
ATOM     22  O   UNL     1      12.535 -27.582  13.711  1.00  0.00    -0.508 OA
ATOM     23  H   UNL     1      13.510 -27.714  13.951  1.00  0.00     0.293 HD
ENDBRANCH  15  22
TORSDOF 3
ENDMDL
MODEL 5
REMARK VINA RESULT:    -4.191      1.729      6.386
REMARK INTER + INTRA:          -4.558
REMARK INTER:                  -4.558
REMARK INTRA:                   0.000
REMARK UNBOUND:                 0.000
REMARK SMILES Cc1cc(O)c2c(c1)C(=O)c1cc(O)cc(O)c1C2=O
REMARK SMILES IDX 1 1 2 2 8 3 7 4 6 5 4 6 3 7 19 8 20 9 18 10 11 11 9 12 10 13
REMARK SMILES IDX 12 14 13 15 15 16 16 17 5 18 17 20 14 22
REMARK H PARENT 5 19 17 21 14 23
REMARK Flexibility Score: inf
ROOT
ATOM      1  C   UNL     1      10.450 -27.149  17.125  1.00  0.00     0.044 C 
ATOM      2  C   UNL     1       9.695 -28.442  17.025  1.00  0.00    -0.047 A 
ATOM      3  C   UNL     1       9.626 -29.124  15.806  1.00  0.00     0.016 A 
ATOM      4  C   UNL     1       8.883 -30.312  15.689  1.00  0.00     0.038 A 
ATOM      5  C   UNL     1       8.173 -30.812  16.806  1.00  0.00     0.076 A 
ATOM      6  C   UNL     1       8.299 -30.145  18.055  1.00  0.00     0.127 A 
ATOM      7  C   UNL     1       9.022 -28.953  18.139  1.00  0.00     0.050 A 
ATOM      8  C   UNL     1       7.273 -31.982  16.606  1.00  0.00     0.201 C 
ATOM      9  O   UNL     1       6.333 -32.204  17.416  1.00  0.00    -0.288 OA
ATOM     10  C   UNL     1       7.403 -32.826  15.390  1.00  0.00     0.076 A 
ATOM     11  C   UNL     1       8.166 -32.349  14.302  1.00  0.00     0.041 A 
ATOM     12  C   UNL     1       8.852 -31.041  14.399  1.00  0.00     0.194 C 
ATOM     13  O   UNL     1       9.426 -30.555  13.387  1.00  0.00    -0.289 OA
ATOM     14  C   UNL     1       8.267 -33.119  13.129  1.00  0.00     0.059 A 
ATOM     15  C   UNL     1       7.624 -34.357  13.034  1.00  0.00     0.120 A 
ATOM     16  C   UNL     1       6.877 -34.834  14.112  1.00  0.00     0.093 A 
ATOM     17  C   UNL     1       6.761 -34.083  15.288  1.00  0.00     0.131 A 
ENDROOT
BRANCH   6  18
ATOM     18  O   UNL     1       7.755 -30.644  19.242  1.00  0.00    -0.507 OA
ATOM     19  H   UNL     1       8.282 -31.170  19.924  1.00  0.00     0.293 HD
ENDBRANCH   6  18
BRANCH  17  20
ATOM     20  O   UNL     1       6.018 -34.591  16.353  1.00  0.00    -0.507 OA
ATOM     21  H   UNL     1       5.108 -34.217  16.596  1.00  0.00     0.293 HD
ENDBRANCH  17  20
BRANCH  15  22
ATOM     22  O   UNL     1       7.724 -35.122  11.875  1.00  0.00    -0.508 OA
ATOM     23  H   UNL     1       6.906 -35.528  11.436  1.00  0.00     0.293 HD
ENDBRANCH  15  22
TORSDOF 3
ENDMDL
MODEL 6
REMARK VINA RESULT:    -4.099      1.293      5.505
REMARK INTER + INTRA:          -4.458
REMARK INTER:                  -4.458
REMARK INTRA:                   0.000
REMARK UNBOUND:                 0.000
REMARK SMILES Cc1cc(O)c2c(c1)C(=O)c1cc(O)cc(O)c1C2=O
REMARK SMILES IDX 1 1 2 2 8 3 7 4 6 5 4 6 3 7 19 8 20 9 18 10 11 11 9 12 10 13
REMARK SMILES IDX 12 14 13 15 15 16 16 17 5 18 17 20 14 22
REMARK H PARENT 5 19 17 21 14 23
REMARK Flexibility Score: inf
ROOT
ATOM      1  C   UNL     1       9.256 -28.382  20.135  1.00  0.00     0.044 C 
ATOM      2  C   UNL     1       9.287 -28.817  18.698  1.00  0.00    -0.047 A 
ATOM      3  C   UNL     1       8.532 -29.916  18.279  1.00  0.00     0.016 A 
ATOM      4  C   UNL     1       8.589 -30.361  16.947  1.00  0.00     0.038 A 
ATOM      5  C   UNL     1       9.440 -29.710  16.022  1.00  0.00     0.076 A 
ATOM      6  C   UNL     1      10.157 -28.557  16.443  1.00  0.00     0.127 A 
ATOM      7  C   UNL     1      10.103 -28.151  17.779  1.00  0.00     0.050 A 
ATOM      8  C   UNL     1       9.595 -30.303  14.665  1.00  0.00     0.201 C 
ATOM      9  O   UNL     1      10.610 -30.034  13.968  1.00  0.00    -0.288 OA
ATOM     10  C   UNL     1       8.614 -31.305  14.170  1.00  0.00     0.076 A 
ATOM     11  C   UNL     1       7.724 -31.905  15.087  1.00  0.00     0.041 A 
ATOM     12  C   UNL     1       7.754 -31.505  16.513  1.00  0.00     0.194 C 
ATOM     13  O   UNL     1       7.051 -32.129  17.355  1.00  0.00    -0.289 OA
ATOM     14  C   UNL     1       6.817 -32.883  14.642  1.00  0.00     0.059 A 
ATOM     15  C   UNL     1       6.783 -33.260  13.296  1.00  0.00     0.120 A 
ATOM     16  C   UNL     1       7.655 -32.662  12.387  1.00  0.00     0.093 A 
ATOM     17  C   UNL     1       8.569 -31.688  12.809  1.00  0.00     0.131 A 
ENDROOT
BRANCH   6  18
ATOM     18  O   UNL     1      10.906 -27.766  15.567  1.00  0.00    -0.507 OA
ATOM     19  H   UNL     1      11.530 -27.031  15.868  1.00  0.00     0.293 HD
ENDBRANCH   6  18
BRANCH  17  20
ATOM     20  O   UNL     1       9.420 -31.098  11.875  1.00  0.00    -0.507 OA
ATOM     21  H   UNL     1      10.424 -31.069  12.011  1.00  0.00     0.293 HD
ENDBRANCH  17  20
BRANCH  15  22
ATOM     22  O   UNL     1       5.884 -34.227  12.852  1.00  0.00    -0.508 OA
ATOM     23  H   UNL     1       6.200 -35.123  12.501  1.00  0.00     0.293 HD
ENDBRANCH  15  22
TORSDOF 3
ENDMDL
MODEL 7
REMARK VINA RESULT:    -3.765      1.790      2.495
REMARK INTER + INTRA:          -4.095
REMARK INTER:                  -4.095
REMARK INTRA:                   0.000
REMARK UNBOUND:                 0.000
REMARK SMILES Cc1cc(O)c2c(c1)C(=O)c1cc(O)cc(O)c1C2=O
REMARK SMILES IDX 1 1 2 2 8 3 7 4 6 5 4 6 3 7 19 8 20 9 18 10 11 11 9 12 10 13
REMARK SMILES IDX 12 14 13 15 15 16 16 17 5 18 17 20 14 22
REMARK H PARENT 5 19 17 21 14 23
REMARK Flexibility Score: inf
ROOT
ATOM      1  C   UNL     1       5.875 -35.125  16.888  1.00  0.00     0.044 C 
ATOM      2  C   UNL     1       6.793 -34.140  16.224  1.00  0.00    -0.047 A 
ATOM      3  C   UNL     1       7.087 -32.922  16.845  1.00  0.00     0.016 A 
ATOM      4  C   UNL     1       7.908 -31.973  16.212  1.00  0.00     0.038 A 
ATOM      5  C   UNL     1       8.423 -32.235  14.921  1.00  0.00     0.076 A 
ATOM      6  C   UNL     1       8.169 -33.500  14.324  1.00  0.00     0.127 A 
ATOM      7  C   UNL     1       7.329 -34.416  14.963  1.00  0.00     0.050 A 
ATOM      8  C   UNL     1       9.156 -31.146  14.217  1.00  0.00     0.201 C 
ATOM      9  O   UNL     1       9.266 -31.165  12.962  1.00  0.00    -0.288 OA
ATOM     10  C   UNL     1       9.661 -29.973  14.977  1.00  0.00     0.076 A 
ATOM     11  C   UNL     1       9.191 -29.751  16.290  1.00  0.00     0.041 A 
ATOM     12  C   UNL     1       8.237 -30.703  16.902  1.00  0.00     0.194 C 
ATOM     13  O   UNL     1       7.719 -30.441  18.022  1.00  0.00    -0.289 OA
ATOM     14  C   UNL     1       9.630 -28.624  17.008  1.00  0.00     0.059 A 
ATOM     15  C   UNL     1      10.534 -27.724  16.434  1.00  0.00     0.120 A 
ATOM     16  C   UNL     1      11.007 -27.947  15.141  1.00  0.00     0.093 A 
ATOM     17  C   UNL     1      10.581 -29.061  14.407  1.00  0.00     0.131 A 
ENDROOT
BRANCH   6  18
ATOM     18  O   UNL     1       8.753 -33.904  13.120  1.00  0.00    -0.507 OA
ATOM     19  H   UNL     1       9.616 -34.425  13.062  1.00  0.00     0.293 HD
ENDBRANCH   6  18
BRANCH  17  20
ATOM     20  O   UNL     1      11.080 -29.264  13.121  1.00  0.00    -0.507 OA
ATOM     21  H   UNL     1      10.869 -28.629  12.360  1.00  0.00     0.293 HD
ENDBRANCH  17  20
BRANCH  15  22
ATOM     22  O   UNL     1      10.972 -26.609  17.143  1.00  0.00    -0.508 OA
ATOM     23  H   UNL     1      11.235 -26.670  18.120  1.00  0.00     0.293 HD
ENDBRANCH  15  22
TORSDOF 3
ENDMDL
MODEL 8
REMARK VINA RESULT:    -3.476      2.330      5.664
REMARK INTER + INTRA:          -3.781
REMARK INTER:                  -3.781
REMARK INTRA:                   0.000
REMARK UNBOUND:                 0.000
REMARK SMILES Cc1cc(O)c2c(c1)C(=O)c1cc(O)cc(O)c1C2=O
REMARK SMILES IDX 1 1 2 2 8 3 7 4 6 5 4 6 3 7 19 8 20 9 18 10 11 11 9 12 10 13
REMARK SMILES IDX 12 14 13 15 15 16 16 17 5 18 17 20 14 22
REMARK H PARENT 5 19 17 21 14 23
REMARK Flexibility Score: inf
ROOT
ATOM      1  C   UNL     1       6.115 -28.751  18.202  1.00  0.00     0.044 C 
ATOM      2  C   UNL     1       6.703 -29.874  17.398  1.00  0.00    -0.047 A 
ATOM      3  C   UNL     1       7.753 -29.628  16.508  1.00  0.00     0.016 A 
ATOM      4  C   UNL     1       8.281 -30.663  15.715  1.00  0.00     0.038 A 
ATOM      5  C   UNL     1       7.729 -31.963  15.795  1.00  0.00     0.076 A 
ATOM      6  C   UNL     1       6.703 -32.217  16.745  1.00  0.00     0.127 A 
ATOM      7  C   UNL     1       6.179 -31.166  17.502  1.00  0.00     0.050 A 
ATOM      8  C   UNL     1       8.205 -32.994  14.831  1.00  0.00     0.201 C 
ATOM      9  O   UNL     1       7.492 -34.000  14.576  1.00  0.00    -0.288 OA
ATOM     10  C   UNL     1       9.470 -32.785  14.078  1.00  0.00     0.076 A 
ATOM     11  C   UNL     1      10.050 -31.499  14.054  1.00  0.00     0.041 A 
ATOM     12  C   UNL     1       9.418 -30.390  14.805  1.00  0.00     0.194 C 
ATOM     13  O   UNL     1       9.861 -29.215  14.683  1.00  0.00    -0.289 OA
ATOM     14  C   UNL     1      11.225 -31.276  13.314  1.00  0.00     0.059 A 
ATOM     15  C   UNL     1      11.828 -32.321  12.607  1.00  0.00     0.120 A 
ATOM     16  C   UNL     1      11.261 -33.595  12.637  1.00  0.00     0.093 A 
ATOM     17  C   UNL     1      10.089 -33.838  13.365  1.00  0.00     0.131 A 
ENDROOT
BRANCH   6  18
ATOM     18  O   UNL     1       6.199 -33.496  16.998  1.00  0.00    -0.507 OA
ATOM     19  H   UNL     1       5.359 -33.863  16.573  1.00  0.00     0.293 HD
ENDBRANCH   6  18
BRANCH  17  20
ATOM     20  O   UNL     1       9.552 -35.125  13.386  1.00  0.00    -0.507 OA
ATOM     21  H   UNL     1       9.194 -35.567  12.548  1.00  0.00     0.293 HD
ENDBRANCH  17  20
BRANCH  15  22
ATOM     22  O   UNL     1      12.993 -32.104  11.875  1.00  0.00    -0.508 OA
ATOM     23  H   UNL     1      13.478 -32.864  11.413  1.00  0.00     0.293 HD
ENDBRANCH  15  22
TORSDOF 3
ENDMDL
