MODEL 1
REMARK VINA RESULT:    -3.509      0.000      0.000
REMARK INTER + INTRA:         -13.538
REMARK INTER:                  -8.843
REMARK INTRA:                  -4.696
REMARK UNBOUND:                -4.696
REMARK SMILES CCCCCCCCCCCCCCCCCCCCCCCCCCCC(=O)[O-]
REMARK SMILES IDX 15 1 16 2 17 3 18 4 19 5 20 6 21 7 22 8 23 9 24 10 25 11
REMARK SMILES IDX 26 12 27 13 28 14 29 15 30 16 14 17 13 18 12 19 11 20 10 21
REMARK SMILES IDX 9 22 8 23 7 24 6 25 5 26 4 27 3 28 2 29 1 30
REMARK H PARENT
REMARK Flexibility Score: inf
ROOT
ATOM      1  C   UNL     1       1.130  -1.850   8.750  1.00  0.00     0.000 C 
ENDROOT
BRANCH   1   2
ATOM      2  C   UNL     1      -0.251  -1.345   8.297  1.00  0.00     0.000 C 
BRANCH   2   3
ATOM      3  C   UNL     1      -0.195   0.061   7.675  1.00  0.00     0.000 C 
BRANCH   3   4
ATOM      4  C   UNL     1      -1.044   1.128   8.393  1.00  0.00     0.000 C 
BRANCH   4   5
ATOM      5  C   UNL     1      -0.642   1.410   9.855  1.00  0.00     0.000 C 
BRANCH   5   6
ATOM      6  C   UNL     1      -1.352   2.614  10.506  1.00  0.00     0.000 C 
BRANCH   6   7
ATOM      7  C   UNL     1      -2.085   3.546   9.526  1.00  0.00     0.000 C 
BRANCH   7   8
ATOM      8  C   UNL     1      -3.616   3.474   9.659  1.00  0.00     0.000 C 
BRANCH   8   9
ATOM      9  C   UNL     1      -4.053   2.595  10.851  1.00  0.00     0.000 C 
BRANCH   9  10
ATOM     10  C   UNL     1      -4.782   1.308  10.435  1.00  0.00     0.000 C 
BRANCH  10  11
ATOM     11  C   UNL     1      -4.944   1.174   8.912  1.00  0.00     0.000 C 
BRANCH  11  12
ATOM     12  C   UNL     1      -4.356  -0.142   8.376  1.00  0.00     0.006 C 
BRANCH  12  13
ATOM     13  C   UNL     1      -4.031  -1.137   9.498  1.00  0.00     0.053 C 
BRANCH  13  14
ATOM     14  C   UNL     1      -5.039  -2.243   9.528  1.00  0.00     0.041 C 
ATOM     15  O   UNL     1      -4.934  -3.219   8.738  1.00  0.00    -0.550 OA
ATOM     16  O   UNL     1      -6.104  -2.191  10.419  1.00  0.00    -0.550 OA
ENDBRANCH  13  14
ENDBRANCH  12  13
ENDBRANCH  11  12
ENDBRANCH  10  11
ENDBRANCH   9  10
ENDBRANCH   8   9
ENDBRANCH   7   8
ENDBRANCH   6   7
ENDBRANCH   5   6
ENDBRANCH   4   5
ENDBRANCH   3   4
ENDBRANCH   2   3
ENDBRANCH   1   2
BRANCH   1  17
ATOM     17  C   UNL     1       2.147  -0.714   8.966  1.00  0.00     0.000 C 
BRANCH  17  18
ATOM     18  C   UNL     1       3.343  -1.064   9.870  1.00  0.00     0.000 C 
BRANCH  18  19
ATOM     19  C   UNL     1       3.583  -0.035  10.984  1.00  0.00     0.000 C 
BRANCH  19  20
ATOM     20  C   UNL     1       5.059   0.385  11.036  1.00  0.00     0.000 C 
BRANCH  20  21
ATOM     21  C   UNL     1       5.981  -0.565  10.250  1.00  0.00     0.000 C 
BRANCH  21  22
ATOM     22  C   UNL     1       6.837   0.109   9.163  1.00  0.00    -0.000 C 
BRANCH  22  23
ATOM     23  C   UNL     1       6.468   1.586   8.940  1.00  0.00    -0.000 C 
BRANCH  23  24
ATOM     24  C   UNL     1       5.784   1.820   7.584  1.00  0.00    -0.000 C 
BRANCH  24  25
ATOM     25  C   UNL     1       4.834   3.030   7.609  1.00  0.00    -0.000 C 
BRANCH  25  26
ATOM     26  C   UNL     1       3.666   2.844   8.590  1.00  0.00    -0.000 C 
BRANCH  26  27
ATOM     27  C   UNL     1       2.299   2.797   7.888  1.00  0.00    -0.000 C 
BRANCH  27  28
ATOM     28  C   UNL     1       1.431   4.028   8.225  1.00  0.00    -0.000 C 
BRANCH  28  29
ATOM     29  C   UNL     1       0.536   4.485   7.060  1.00  0.00    -0.003 C 
ATOM     30  C   UNL     1       0.019   5.913   7.224  1.00  0.00     0.004 C 
ENDBRANCH  28  29
ENDBRANCH  27  28
ENDBRANCH  26  27
ENDBRANCH  25  26
ENDBRANCH  24  25
ENDBRANCH  23  24
ENDBRANCH  22  23
ENDBRANCH  21  22
ENDBRANCH  20  21
ENDBRANCH  19  20
ENDBRANCH  18  19
ENDBRANCH  17  18
ENDBRANCH   1  17
TORSDOF 26
ENDMDL
MODEL 2
REMARK VINA RESULT:    -3.503      4.236      7.566
REMARK INTER + INTRA:         -13.522
REMARK INTER:                  -9.358
REMARK INTRA:                  -4.164
REMARK UNBOUND:                -4.696
REMARK SMILES CCCCCCCCCCCCCCCCCCCCCCCCCCCC(=O)[O-]
REMARK SMILES IDX 15 1 16 2 17 3 18 4 19 5 20 6 21 7 22 8 23 9 24 10 25 11
REMARK SMILES IDX 26 12 27 13 28 14 29 15 30 16 14 17 13 18 12 19 11 20 10 21
REMARK SMILES IDX 9 22 8 23 7 24 6 25 5 26 4 27 3 28 2 29 1 30
REMARK H PARENT
REMARK Flexibility Score: inf
ROOT
ATOM      1  C   UNL     1       0.122  -1.111   7.970  1.00  0.00     0.000 C 
ENDROOT
BRANCH   1   2
ATOM      2  C   UNL     1      -0.276   0.342   7.662  1.00  0.00     0.000 C 
BRANCH   2   3
ATOM      3  C   UNL     1      -1.690   0.689   8.160  1.00  0.00     0.000 C 
BRANCH   3   4
ATOM      4  C   UNL     1      -2.352  -0.384   9.047  1.00  0.00     0.000 C 
BRANCH   4   5
ATOM      5  C   UNL     1      -3.893  -0.371   9.051  1.00  0.00     0.000 C 
BRANCH   5   6
ATOM      6  C   UNL     1      -4.548  -1.008  10.293  1.00  0.00     0.000 C 
BRANCH   6   7
ATOM      7  C   UNL     1      -4.839  -2.514  10.176  1.00  0.00     0.000 C 
BRANCH   7   8
ATOM      8  C   UNL     1      -5.108  -2.963   8.730  1.00  0.00     0.000 C 
BRANCH   8   9
ATOM      9  C   UNL     1      -5.867  -4.307   8.673  1.00  0.00     0.000 C 
BRANCH   9  10
ATOM     10  C   UNL     1      -5.201  -5.355   7.767  1.00  0.00     0.000 C 
BRANCH  10  11
ATOM     11  C   UNL     1      -6.173  -5.974   6.750  1.00  0.00     0.000 C 
BRANCH  11  12
ATOM     12  C   UNL     1      -5.991  -5.391   5.339  1.00  0.00     0.006 C 
BRANCH  12  13
ATOM     13  C   UNL     1      -7.312  -4.890   4.739  1.00  0.00     0.053 C 
BRANCH  13  14
ATOM     14  C   UNL     1      -7.924  -5.940   3.865  1.00  0.00     0.041 C 
ATOM     15  O   UNL     1      -9.133  -5.854   3.522  1.00  0.00    -0.550 OA
ATOM     16  O   UNL     1      -7.165  -7.023   3.441  1.00  0.00    -0.550 OA
ENDBRANCH  13  14
ENDBRANCH  12  13
ENDBRANCH  11  12
ENDBRANCH  10  11
ENDBRANCH   9  10
ENDBRANCH   8   9
ENDBRANCH   7   8
ENDBRANCH   6   7
ENDBRANCH   5   6
ENDBRANCH   4   5
ENDBRANCH   3   4
ENDBRANCH   2   3
ENDBRANCH   1   2
BRANCH   1  17
ATOM     17  C   UNL     1       1.399  -1.219   8.825  1.00  0.00     0.000 C 
BRANCH  17  18
ATOM     18  C   UNL     1       1.882  -2.653   9.108  1.00  0.00     0.000 C 
BRANCH  18  19
ATOM     19  C   UNL     1       1.761  -3.052  10.586  1.00  0.00     0.000 C 
BRANCH  19  20
ATOM     20  C   UNL     1       0.344  -2.780  11.114  1.00  0.00     0.000 C 
BRANCH  20  21
ATOM     21  C   UNL     1      -0.603  -3.980  10.936  1.00  0.00     0.000 C 
BRANCH  21  22
ATOM     22  C   UNL     1      -1.557  -3.884   9.732  1.00  0.00    -0.000 C 
BRANCH  22  23
ATOM     23  C   UNL     1      -1.614  -5.183   8.909  1.00  0.00    -0.000 C 
BRANCH  23  24
ATOM     24  C   UNL     1      -0.413  -6.103   9.184  1.00  0.00    -0.000 C 
BRANCH  24  25
ATOM     25  C   UNL     1       0.665  -5.998   8.091  1.00  0.00    -0.000 C 
BRANCH  25  26
ATOM     26  C   UNL     1       0.187  -5.207   6.864  1.00  0.00    -0.000 C 
BRANCH  26  27
ATOM     27  C   UNL     1       0.365  -5.984   5.548  1.00  0.00    -0.000 C 
BRANCH  27  28
ATOM     28  C   UNL     1      -0.631  -7.158   5.428  1.00  0.00    -0.000 C 
BRANCH  28  29
ATOM     29  C   UNL     1      -2.101  -6.735   5.595  1.00  0.00    -0.003 C 
ATOM     30  C   UNL     1      -3.088  -7.768   5.054  1.00  0.00     0.004 C 
ENDBRANCH  28  29
ENDBRANCH  27  28
ENDBRANCH  26  27
ENDBRANCH  25  26
ENDBRANCH  24  25
ENDBRANCH  23  24
ENDBRANCH  22  23
ENDBRANCH  21  22
ENDBRANCH  20  21
ENDBRANCH  19  20
ENDBRANCH  18  19
ENDBRANCH  17  18
ENDBRANCH   1  17
TORSDOF 26
ENDMDL
MODEL 3
REMARK VINA RESULT:    -3.460      2.176      3.689
REMARK INTER + INTRA:         -13.414
REMARK INTER:                  -9.178
REMARK INTRA:                  -4.236
REMARK UNBOUND:                -4.696
REMARK SMILES CCCCCCCCCCCCCCCCCCCCCCCCCCCC(=O)[O-]
REMARK SMILES IDX 15 1 16 2 17 3 18 4 19 5 20 6 21 7 22 8 23 9 24 10 25 11
REMARK SMILES IDX 26 12 27 13 28 14 29 15 30 16 14 17 13 18 12 19 11 20 10 21
REMARK SMILES IDX 9 22 8 23 7 24 6 25 5 26 4 27 3 28 2 29 1 30
REMARK H PARENT
REMARK Flexibility Score: inf
ROOT
ATOM      1  C   UNL     1      -0.243  -1.680   8.466  1.00  0.00     0.000 C 
ENDROOT
BRANCH   1   2
ATOM      2  C   UNL     1      -0.090  -0.417   7.601  1.00  0.00     0.000 C 
BRANCH   2   3
ATOM      3  C   UNL     1      -1.117   0.673   7.955  1.00  0.00     0.000 C 
BRANCH   3   4
ATOM      4  C   UNL     1      -1.611   0.656   9.415  1.00  0.00     0.000 C 
BRANCH   4   5
ATOM      5  C   UNL     1      -3.131   0.838   9.594  1.00  0.00     0.000 C 
BRANCH   5   6
ATOM      6  C   UNL     1      -3.998   0.244   8.466  1.00  0.00     0.000 C 
BRANCH   6   7
ATOM      7  C   UNL     1      -4.499  -1.189   8.715  1.00  0.00     0.000 C 
BRANCH   7   8
ATOM      8  C   UNL     1      -4.412  -1.608  10.192  1.00  0.00     0.000 C 
BRANCH   8   9
ATOM      9  C   UNL     1      -3.572  -2.890  10.382  1.00  0.00     0.000 C 
BRANCH   9  10
ATOM     10  C   UNL     1      -3.614  -3.840   9.175  1.00  0.00     0.000 C 
BRANCH  10  11
ATOM     11  C   UNL     1      -4.756  -4.866   9.257  1.00  0.00     0.000 C 
BRANCH  11  12
ATOM     12  C   UNL     1      -5.947  -4.487   8.361  1.00  0.00     0.006 C 
BRANCH  12  13
ATOM     13  C   UNL     1      -6.414  -5.657   7.484  1.00  0.00     0.053 C 
BRANCH  13  14
ATOM     14  C   UNL     1      -5.648  -5.690   6.199  1.00  0.00     0.041 C 
ATOM     15  O   UNL     1      -4.630  -6.423   6.085  1.00  0.00    -0.550 OA
ATOM     16  O   UNL     1      -6.049  -4.899   5.129  1.00  0.00    -0.550 OA
ENDBRANCH  13  14
ENDBRANCH  12  13
ENDBRANCH  11  12
ENDBRANCH  10  11
ENDBRANCH   9  10
ENDBRANCH   8   9
ENDBRANCH   7   8
ENDBRANCH   6   7
ENDBRANCH   5   6
ENDBRANCH   4   5
ENDBRANCH   3   4
ENDBRANCH   2   3
ENDBRANCH   1   2
BRANCH   1  17
ATOM     17  C   UNL     1       1.105  -2.331   8.828  1.00  0.00     0.000 C 
BRANCH  17  18
ATOM     18  C   UNL     1       2.238  -1.348   9.174  1.00  0.00     0.000 C 
BRANCH  18  19
ATOM     19  C   UNL     1       2.082  -0.707  10.561  1.00  0.00     0.000 C 
BRANCH  19  20
ATOM     20  C   UNL     1       2.068   0.825  10.460  1.00  0.00     0.000 C 
BRANCH  20  21
ATOM     21  C   UNL     1       2.587   1.342   9.107  1.00  0.00     0.000 C 
BRANCH  21  22
ATOM     22  C   UNL     1       3.712   2.389   9.196  1.00  0.00    -0.000 C 
BRANCH  22  23
ATOM     23  C   UNL     1       4.599   2.423   7.940  1.00  0.00    -0.000 C 
BRANCH  23  24
ATOM     24  C   UNL     1       4.638   3.815   7.289  1.00  0.00    -0.000 C 
BRANCH  24  25
ATOM     25  C   UNL     1       3.337   4.143   6.534  1.00  0.00    -0.000 C 
BRANCH  25  26
ATOM     26  C   UNL     1       2.788   5.535   6.884  1.00  0.00    -0.000 C 
BRANCH  26  27
ATOM     27  C   UNL     1       1.264   5.538   7.091  1.00  0.00    -0.000 C 
BRANCH  27  28
ATOM     28  C   UNL     1       0.711   4.122   7.357  1.00  0.00    -0.000 C 
BRANCH  28  29
ATOM     29  C   UNL     1      -0.135   4.023   8.639  1.00  0.00    -0.003 C 
ATOM     30  C   UNL     1       0.627   4.439   9.895  1.00  0.00     0.004 C 
ENDBRANCH  28  29
ENDBRANCH  27  28
ENDBRANCH  26  27
ENDBRANCH  25  26
ENDBRANCH  24  25
ENDBRANCH  23  24
ENDBRANCH  22  23
ENDBRANCH  21  22
ENDBRANCH  20  21
ENDBRANCH  19  20
ENDBRANCH  18  19
ENDBRANCH  17  18
ENDBRANCH   1  17
TORSDOF 26
ENDMDL
MODEL 4
REMARK VINA RESULT:    -3.448      3.518      8.414
REMARK INTER + INTRA:         -13.385
REMARK INTER:                  -8.680
REMARK INTRA:                  -4.705
REMARK UNBOUND:                -4.696
REMARK SMILES CCCCCCCCCCCCCCCCCCCCCCCCCCCC(=O)[O-]
REMARK SMILES IDX 15 1 16 2 17 3 18 4 19 5 20 6 21 7 22 8 23 9 24 10 25 11
REMARK SMILES IDX 26 12 27 13 28 14 29 15 30 16 14 17 13 18 12 19 11 20 10 21
REMARK SMILES IDX 9 22 8 23 7 24 6 25 5 26 4 27 3 28 2 29 1 30
REMARK H PARENT
REMARK Flexibility Score: inf
ROOT
ATOM      1  C   UNL     1       1.294  -2.184   9.040  1.00  0.00     0.000 C 
ENDROOT
BRANCH   1   2
ATOM      2  C   UNL     1       1.854  -1.630  10.361  1.00  0.00     0.000 C 
BRANCH   2   3
ATOM      3  C   UNL     1       3.146  -0.819  10.166  1.00  0.00     0.000 C 
BRANCH   3   4
ATOM      4  C   UNL     1       2.964   0.712  10.173  1.00  0.00     0.000 C 
BRANCH   4   5
ATOM      5  C   UNL     1       2.747   1.353   8.789  1.00  0.00     0.000 C 
BRANCH   5   6
ATOM      6  C   UNL     1       2.302   2.829   8.815  1.00  0.00     0.000 C 
BRANCH   6   7
ATOM      7  C   UNL     1       1.701   3.351   7.498  1.00  0.00     0.000 C 
BRANCH   7   8
ATOM      8  C   UNL     1       2.578   4.413   6.815  1.00  0.00     0.000 C 
BRANCH   8   9
ATOM      9  C   UNL     1       4.038   3.937   6.648  1.00  0.00     0.000 C 
BRANCH   9  10
ATOM     10  C   UNL     1       5.074   4.897   7.252  1.00  0.00     0.000 C 
BRANCH  10  11
ATOM     11  C   UNL     1       6.208   4.169   7.992  1.00  0.00     0.000 C 
BRANCH  11  12
ATOM     12  C   UNL     1       6.046   2.640   7.948  1.00  0.00     0.006 C 
BRANCH  12  13
ATOM     13  C   UNL     1       6.358   1.979   9.297  1.00  0.00     0.053 C 
BRANCH  13  14
ATOM     14  C   UNL     1       7.167   0.736   9.100  1.00  0.00     0.041 C 
ATOM     15  O   UNL     1       6.602  -0.348   8.798  1.00  0.00    -0.550 OA
ATOM     16  O   UNL     1       8.547   0.770   9.264  1.00  0.00    -0.550 OA
ENDBRANCH  13  14
ENDBRANCH  12  13
ENDBRANCH  11  12
ENDBRANCH  10  11
ENDBRANCH   9  10
ENDBRANCH   8   9
ENDBRANCH   7   8
ENDBRANCH   6   7
ENDBRANCH   5   6
ENDBRANCH   4   5
ENDBRANCH   3   4
ENDBRANCH   2   3
ENDBRANCH   1   2
BRANCH   1  17
ATOM     17  C   UNL     1      -0.101  -1.632   8.696  1.00  0.00     0.000 C 
BRANCH  17  18
ATOM     18  C   UNL     1      -0.121  -0.490   7.663  1.00  0.00     0.000 C 
BRANCH  18  19
ATOM     19  C   UNL     1      -0.891   0.748   8.143  1.00  0.00     0.000 C 
BRANCH  19  20
ATOM     20  C   UNL     1      -0.939   0.805   9.677  1.00  0.00     0.000 C 
BRANCH  20  21
ATOM     21  C   UNL     1      -1.028   2.241  10.223  1.00  0.00     0.000 C 
BRANCH  21  22
ATOM     22  C   UNL     1      -1.731   3.248   9.295  1.00  0.00    -0.000 C 
BRANCH  22  23
ATOM     23  C   UNL     1      -2.675   4.199  10.051  1.00  0.00    -0.000 C 
BRANCH  23  24
ATOM     24  C   UNL     1      -4.150   3.978   9.676  1.00  0.00    -0.000 C 
BRANCH  24  25
ATOM     25  C   UNL     1      -4.470   2.497   9.410  1.00  0.00    -0.000 C 
BRANCH  25  26
ATOM     26  C   UNL     1      -4.787   1.721  10.697  1.00  0.00    -0.000 C 
BRANCH  26  27
ATOM     27  C   UNL     1      -4.948   0.210  10.458  1.00  0.00    -0.000 C 
BRANCH  27  28
ATOM     28  C   UNL     1      -4.383  -0.224   9.089  1.00  0.00    -0.000 C 
BRANCH  28  29
ATOM     29  C   UNL     1      -4.170  -1.743   8.965  1.00  0.00    -0.003 C 
ATOM     30  C   UNL     1      -5.278  -2.561   9.626  1.00  0.00     0.004 C 
ENDBRANCH  28  29
ENDBRANCH  27  28
ENDBRANCH  26  27
ENDBRANCH  25  26
ENDBRANCH  24  25
ENDBRANCH  23  24
ENDBRANCH  22  23
ENDBRANCH  21  22
ENDBRANCH  20  21
ENDBRANCH  19  20
ENDBRANCH  18  19
ENDBRANCH  17  18
ENDBRANCH   1  17
TORSDOF 26
ENDMDL
MODEL 5
REMARK VINA RESULT:    -3.440     11.601     13.556
REMARK INTER + INTRA:         -13.366
REMARK INTER:                  -9.705
REMARK INTRA:                  -3.661
REMARK UNBOUND:                -4.696
REMARK SMILES CCCCCCCCCCCCCCCCCCCCCCCCCCCC(=O)[O-]
REMARK SMILES IDX 15 1 16 2 17 3 18 4 19 5 20 6 21 7 22 8 23 9 24 10 25 11
REMARK SMILES IDX 26 12 27 13 28 14 29 15 30 16 14 17 13 18 12 19 11 20 10 21
REMARK SMILES IDX 9 22 8 23 7 24 6 25 5 26 4 27 3 28 2 29 1 30
REMARK H PARENT
REMARK Flexibility Score: inf
ROOT
ATOM      1  C   UNL     1       4.920  -1.609  -2.877  1.00  0.00     0.000 C 
ENDROOT
BRANCH   1   2
ATOM      2  C   UNL     1       4.678  -3.117  -3.063  1.00  0.00     0.000 C 
BRANCH   2   3
ATOM      3  C   UNL     1       4.709  -3.546  -4.541  1.00  0.00     0.000 C 
BRANCH   3   4
ATOM      4  C   UNL     1       3.431  -4.243  -5.046  1.00  0.00     0.000 C 
BRANCH   4   5
ATOM      5  C   UNL     1       2.559  -3.404  -6.000  1.00  0.00     0.000 C 
BRANCH   5   6
ATOM      6  C   UNL     1       3.142  -2.027  -6.377  1.00  0.00     0.000 C 
BRANCH   6   7
ATOM      7  C   UNL     1       2.326  -0.818  -5.887  1.00  0.00     0.000 C 
BRANCH   7   8
ATOM      8  C   UNL     1       1.183  -1.210  -4.936  1.00  0.00     0.000 C 
BRANCH   8   9
ATOM      9  C   UNL     1       1.450  -0.748  -3.487  1.00  0.00     0.000 C 
BRANCH   9  10
ATOM     10  C   UNL     1       1.254  -1.854  -2.439  1.00  0.00     0.000 C 
BRANCH  10  11
ATOM     11  C   UNL     1       0.255  -2.934  -2.886  1.00  0.00     0.000 C 
BRANCH  11  12
ATOM     12  C   UNL     1       0.768  -4.356  -2.603  1.00  0.00     0.006 C 
BRANCH  12  13
ATOM     13  C   UNL     1       0.601  -4.757  -1.131  1.00  0.00     0.053 C 
BRANCH  13  14
ATOM     14  C   UNL     1      -0.570  -5.675  -0.966  1.00  0.00     0.041 C 
ATOM     15  O   UNL     1      -0.473  -6.704  -0.247  1.00  0.00    -0.550 OA
ATOM     16  O   UNL     1      -1.766  -5.403  -1.620  1.00  0.00    -0.550 OA
ENDBRANCH  13  14
ENDBRANCH  12  13
ENDBRANCH  11  12
ENDBRANCH  10  11
ENDBRANCH   9  10
ENDBRANCH   8   9
ENDBRANCH   7   8
ENDBRANCH   6   7
ENDBRANCH   5   6
ENDBRANCH   4   5
ENDBRANCH   3   4
ENDBRANCH   2   3
ENDBRANCH   1   2
BRANCH   1  17
ATOM     17  C   UNL     1       5.746  -0.985  -4.017  1.00  0.00     0.000 C 
BRANCH  17  18
ATOM     18  C   UNL     1       5.478   0.508  -4.282  1.00  0.00     0.000 C 
BRANCH  18  19
ATOM     19  C   UNL     1       5.758   0.926  -5.733  1.00  0.00     0.000 C 
BRANCH  19  20
ATOM     20  C   UNL     1       6.255   2.378  -5.801  1.00  0.00     0.000 C 
BRANCH  20  21
ATOM     21  C   UNL     1       7.756   2.514  -5.492  1.00  0.00     0.000 C 
BRANCH  21  22
ATOM     22  C   UNL     1       8.091   3.340  -4.237  1.00  0.00    -0.000 C 
BRANCH  22  23
ATOM     23  C   UNL     1       6.889   4.141  -3.709  1.00  0.00    -0.000 C 
BRANCH  23  24
ATOM     24  C   UNL     1       7.173   5.650  -3.647  1.00  0.00    -0.000 C 
BRANCH  24  25
ATOM     25  C   UNL     1       7.681   6.093  -2.264  1.00  0.00    -0.000 C 
BRANCH  25  26
ATOM     26  C   UNL     1       6.596   6.007  -1.180  1.00  0.00    -0.000 C 
BRANCH  26  27
ATOM     27  C   UNL     1       6.249   7.378  -0.575  1.00  0.00    -0.000 C 
BRANCH  27  28
ATOM     28  C   UNL     1       5.543   7.246   0.792  1.00  0.00    -0.000 C 
BRANCH  28  29
ATOM     29  C   UNL     1       4.520   6.098   0.847  1.00  0.00    -0.003 C 
ATOM     30  C   UNL     1       3.221   6.415   0.109  1.00  0.00     0.004 C 
ENDBRANCH  28  29
ENDBRANCH  27  28
ENDBRANCH  26  27
ENDBRANCH  25  26
ENDBRANCH  24  25
ENDBRANCH  23  24
ENDBRANCH  22  23
ENDBRANCH  21  22
ENDBRANCH  20  21
ENDBRANCH  19  20
ENDBRANCH  18  19
ENDBRANCH  17  18
ENDBRANCH   1  17
TORSDOF 26
ENDMDL
MODEL 6
REMARK VINA RESULT:    -3.436      3.347      5.710
REMARK INTER + INTRA:         -13.353
REMARK INTER:                 -10.615
REMARK INTRA:                  -2.739
REMARK UNBOUND:                -4.696
REMARK SMILES CCCCCCCCCCCCCCCCCCCCCCCCCCCC(=O)[O-]
REMARK SMILES IDX 15 1 16 2 17 3 18 4 19 5 20 6 21 7 22 8 23 9 24 10 25 11
REMARK SMILES IDX 26 12 27 13 28 14 29 15 30 16 14 17 13 18 12 19 11 20 10 21
REMARK SMILES IDX 9 22 8 23 7 24 6 25 5 26 4 27 3 28 2 29 1 30
REMARK H PARENT
REMARK Flexibility Score: inf
ROOT
ATOM      1  C   UNL     1      -0.144   0.729   8.424  1.00  0.00     0.000 C 
ENDROOT
BRANCH   1   2
ATOM      2  C   UNL     1      -1.622   0.733   7.995  1.00  0.00     0.000 C 
BRANCH   2   3
ATOM      3  C   UNL     1      -2.586   0.854   9.188  1.00  0.00     0.000 C 
BRANCH   3   4
ATOM      4  C   UNL     1      -4.057   0.517   8.876  1.00  0.00     0.000 C 
BRANCH   4   5
ATOM      5  C   UNL     1      -4.337  -0.964   8.553  1.00  0.00     0.000 C 
BRANCH   5   6
ATOM      6  C   UNL     1      -3.782  -1.972   9.580  1.00  0.00     0.000 C 
BRANCH   6   7
ATOM      7  C   UNL     1      -4.354  -3.396   9.468  1.00  0.00     0.000 C 
BRANCH   7   8
ATOM      8  C   UNL     1      -5.889  -3.435   9.553  1.00  0.00     0.000 C 
BRANCH   8   9
ATOM      9  C   UNL     1      -6.480  -4.646   8.798  1.00  0.00     0.000 C 
BRANCH   9  10
ATOM     10  C   UNL     1      -5.829  -4.898   7.429  1.00  0.00     0.000 C 
BRANCH  10  11
ATOM     11  C   UNL     1      -6.765  -5.616   6.443  1.00  0.00     0.000 C 
BRANCH  11  12
ATOM     12  C   UNL     1      -6.538  -5.167   4.990  1.00  0.00     0.006 C 
BRANCH  12  13
ATOM     13  C   UNL     1      -7.838  -4.723   4.305  1.00  0.00     0.053 C 
BRANCH  13  14
ATOM     14  C   UNL     1      -8.489  -5.879   3.613  1.00  0.00     0.041 C 
ATOM     15  O   UNL     1      -7.812  -6.633   2.863  1.00  0.00    -0.550 OA
ATOM     16  O   UNL     1      -9.847  -6.118   3.782  1.00  0.00    -0.550 OA
ENDBRANCH  13  14
ENDBRANCH  12  13
ENDBRANCH  11  12
ENDBRANCH  10  11
ENDBRANCH   9  10
ENDBRANCH   8   9
ENDBRANCH   7   8
ENDBRANCH   6   7
ENDBRANCH   5   6
ENDBRANCH   4   5
ENDBRANCH   3   4
ENDBRANCH   2   3
ENDBRANCH   1   2
BRANCH   1  17
ATOM     17  C   UNL     1       0.533  -0.643   8.247  1.00  0.00     0.000 C 
BRANCH  17  18
ATOM     18  C   UNL     1      -0.317  -1.855   8.671  1.00  0.00     0.000 C 
BRANCH  18  19
ATOM     19  C   UNL     1       0.182  -3.181   8.078  1.00  0.00     0.000 C 
BRANCH  19  20
ATOM     20  C   UNL     1       0.791  -4.075   9.168  1.00  0.00     0.000 C 
BRANCH  20  21
ATOM     21  C   UNL     1       2.264  -4.430   8.900  1.00  0.00     0.000 C 
BRANCH  21  22
ATOM     22  C   UNL     1       3.273  -3.816   9.887  1.00  0.00    -0.000 C 
BRANCH  22  23
ATOM     23  C   UNL     1       3.425  -2.294   9.717  1.00  0.00    -0.000 C 
BRANCH  23  24
ATOM     24  C   UNL     1       2.854  -1.512  10.911  1.00  0.00    -0.000 C 
BRANCH  24  25
ATOM     25  C   UNL     1       3.246  -0.024  10.876  1.00  0.00    -0.000 C 
BRANCH  25  26
ATOM     26  C   UNL     1       3.971   0.365   9.579  1.00  0.00    -0.000 C 
BRANCH  26  27
ATOM     27  C   UNL     1       3.489   1.709   9.007  1.00  0.00    -0.000 C 
BRANCH  27  28
ATOM     28  C   UNL     1       4.412   2.224   7.882  1.00  0.00    -0.000 C 
BRANCH  28  29
ATOM     29  C   UNL     1       5.633   3.006   8.398  1.00  0.00    -0.003 C 
ATOM     30  C   UNL     1       6.932   2.627   7.690  1.00  0.00     0.004 C 
ENDBRANCH  28  29
ENDBRANCH  27  28
ENDBRANCH  26  27
ENDBRANCH  25  26
ENDBRANCH  24  25
ENDBRANCH  23  24
ENDBRANCH  22  23
ENDBRANCH  21  22
ENDBRANCH  20  21
ENDBRANCH  19  20
ENDBRANCH  18  19
ENDBRANCH  17  18
ENDBRANCH   1  17
TORSDOF 26
ENDMDL
MODEL 7
REMARK VINA RESULT:    -3.407      3.478      5.171
REMARK INTER + INTRA:         -13.282
REMARK INTER:                  -8.987
REMARK INTRA:                  -4.294
REMARK UNBOUND:                -4.696
REMARK SMILES CCCCCCCCCCCCCCCCCCCCCCCCCCCC(=O)[O-]
REMARK SMILES IDX 15 1 16 2 17 3 18 4 19 5 20 6 21 7 22 8 23 9 24 10 25 11
REMARK SMILES IDX 26 12 27 13 28 14 29 15 30 16 14 17 13 18 12 19 11 20 10 21
REMARK SMILES IDX 9 22 8 23 7 24 6 25 5 26 4 27 3 28 2 29 1 30
REMARK H PARENT
REMARK Flexibility Score: inf
ROOT
ATOM      1  C   UNL     1      -0.114   0.325   7.636  1.00  0.00     0.000 C 
ENDROOT
BRANCH   1   2
ATOM      2  C   UNL     1      -1.598   0.460   8.017  1.00  0.00     0.000 C 
BRANCH   2   3
ATOM      3  C   UNL     1      -2.026  -0.540   9.105  1.00  0.00     0.000 C 
BRANCH   3   4
ATOM      4  C   UNL     1      -3.478  -0.388   9.599  1.00  0.00     0.000 C 
BRANCH   4   5
ATOM      5  C   UNL     1      -4.445   0.274   8.598  1.00  0.00     0.000 C 
BRANCH   5   6
ATOM      6  C   UNL     1      -5.204   1.503   9.136  1.00  0.00     0.000 C 
BRANCH   6   7
ATOM      7  C   UNL     1      -4.452   2.314  10.207  1.00  0.00     0.000 C 
BRANCH   7   8
ATOM      8  C   UNL     1      -3.545   3.402   9.608  1.00  0.00     0.000 C 
BRANCH   8   9
ATOM      9  C   UNL     1      -4.127   4.818   9.811  1.00  0.00     0.000 C 
BRANCH   9  10
ATOM     10  C   UNL     1      -4.933   5.333   8.608  1.00  0.00     0.000 C 
BRANCH  10  11
ATOM     11  C   UNL     1      -6.452   5.266   8.829  1.00  0.00     0.000 C 
BRANCH  11  12
ATOM     12  C   UNL     1      -7.225   5.059   7.516  1.00  0.00     0.006 C 
BRANCH  12  13
ATOM     13  C   UNL     1      -6.479   5.629   6.302  1.00  0.00     0.053 C 
BRANCH  13  14
ATOM     14  C   UNL     1      -7.402   5.762   5.132  1.00  0.00     0.041 C 
ATOM     15  O   UNL     1      -8.644   5.612   5.283  1.00  0.00    -0.550 OA
ATOM     16  O   UNL     1      -6.892   6.036   3.869  1.00  0.00    -0.550 OA
ENDBRANCH  13  14
ENDBRANCH  12  13
ENDBRANCH  11  12
ENDBRANCH  10  11
ENDBRANCH   9  10
ENDBRANCH   8   9
ENDBRANCH   7   8
ENDBRANCH   6   7
ENDBRANCH   5   6
ENDBRANCH   4   5
ENDBRANCH   3   4
ENDBRANCH   2   3
ENDBRANCH   1   2
BRANCH   1  17
ATOM     17  C   UNL     1       0.609  -0.791   8.412  1.00  0.00     0.000 C 
BRANCH  17  18
ATOM     18  C   UNL     1       1.869  -0.349   9.180  1.00  0.00     0.000 C 
BRANCH  18  19
ATOM     19  C   UNL     1       2.345   1.061   8.801  1.00  0.00     0.000 C 
BRANCH  19  20
ATOM     20  C   UNL     1       2.450   1.957  10.044  1.00  0.00     0.000 C 
BRANCH  20  21
ATOM     21  C   UNL     1       1.233   1.833  10.978  1.00  0.00     0.000 C 
BRANCH  21  22
ATOM     22  C   UNL     1      -0.011   2.625  10.536  1.00  0.00    -0.000 C 
BRANCH  22  23
ATOM     23  C   UNL     1       0.341   3.935   9.809  1.00  0.00    -0.000 C 
BRANCH  23  24
ATOM     24  C   UNL     1      -0.278   4.009   8.404  1.00  0.00    -0.000 C 
BRANCH  24  25
ATOM     25  C   UNL     1       0.790   4.057   7.297  1.00  0.00    -0.000 C 
BRANCH  25  26
ATOM     26  C   UNL     1       1.379   5.463   7.105  1.00  0.00    -0.000 C 
BRANCH  26  27
ATOM     27  C   UNL     1       0.313   6.510   6.740  1.00  0.00    -0.000 C 
BRANCH  27  28
ATOM     28  C   UNL     1      -0.411   6.166   5.421  1.00  0.00    -0.000 C 
BRANCH  28  29
ATOM     29  C   UNL     1      -1.644   7.045   5.149  1.00  0.00    -0.003 C 
ATOM     30  C   UNL     1      -2.737   6.890   6.205  1.00  0.00     0.004 C 
ENDBRANCH  28  29
ENDBRANCH  27  28
ENDBRANCH  26  27
ENDBRANCH  25  26
ENDBRANCH  24  25
ENDBRANCH  23  24
ENDBRANCH  22  23
ENDBRANCH  21  22
ENDBRANCH  20  21
ENDBRANCH  19  20
ENDBRANCH  18  19
ENDBRANCH  17  18
ENDBRANCH   1  17
TORSDOF 26
ENDMDL
MODEL 8
REMARK VINA RESULT:    -3.352     13.190     16.443
REMARK INTER + INTRA:         -13.143
REMARK INTER:                  -8.591
REMARK INTRA:                  -4.552
REMARK UNBOUND:                -4.696
REMARK SMILES CCCCCCCCCCCCCCCCCCCCCCCCCCCC(=O)[O-]
REMARK SMILES IDX 15 1 16 2 17 3 18 4 19 5 20 6 21 7 22 8 23 9 24 10 25 11
REMARK SMILES IDX 26 12 27 13 28 14 29 15 30 16 14 17 13 18 12 19 11 20 10 21
REMARK SMILES IDX 9 22 8 23 7 24 6 25 5 26 4 27 3 28 2 29 1 30
REMARK H PARENT
REMARK Flexibility Score: inf
ROOT
ATOM      1  C   UNL     1       4.000  -3.587  -4.275  1.00  0.00     0.000 C 
ENDROOT
BRANCH   1   2
ATOM      2  C   UNL     1       5.282  -2.952  -3.709  1.00  0.00     0.000 C 
BRANCH   2   3
ATOM      3  C   UNL     1       4.999  -1.709  -2.848  1.00  0.00     0.000 C 
BRANCH   3   4
ATOM      4  C   UNL     1       4.966  -0.374  -3.618  1.00  0.00     0.000 C 
BRANCH   4   5
ATOM      5  C   UNL     1       6.083  -0.194  -4.665  1.00  0.00     0.000 C 
BRANCH   5   6
ATOM      6  C   UNL     1       5.678   0.602  -5.922  1.00  0.00     0.000 C 
BRANCH   6   7
ATOM      7  C   UNL     1       5.018   1.964  -5.646  1.00  0.00     0.000 C 
BRANCH   7   8
ATOM      8  C   UNL     1       5.429   3.047  -6.657  1.00  0.00     0.000 C 
BRANCH   8   9
ATOM      9  C   UNL     1       6.833   2.788  -7.244  1.00  0.00     0.000 C 
BRANCH   9  10
ATOM     10  C   UNL     1       7.947   3.599  -6.564  1.00  0.00     0.000 C 
BRANCH  10  11
ATOM     11  C   UNL     1       8.753   2.777  -5.545  1.00  0.00     0.000 C 
BRANCH  11  12
ATOM     12  C   UNL     1       8.843   3.471  -4.176  1.00  0.00     0.006 C 
BRANCH  12  13
ATOM     13  C   UNL     1       7.462   3.816  -3.603  1.00  0.00     0.053 C 
BRANCH  13  14
ATOM     14  C   UNL     1       7.464   5.193  -3.018  1.00  0.00     0.041 C 
ATOM     15  O   UNL     1       8.393   5.998  -3.292  1.00  0.00    -0.550 OA
ATOM     16  O   UNL     1       6.447   5.586  -2.155  1.00  0.00    -0.550 OA
ENDBRANCH  13  14
ENDBRANCH  12  13
ENDBRANCH  11  12
ENDBRANCH  10  11
ENDBRANCH   9  10
ENDBRANCH   8   9
ENDBRANCH   7   8
ENDBRANCH   6   7
ENDBRANCH   5   6
ENDBRANCH   4   5
ENDBRANCH   3   4
ENDBRANCH   2   3
ENDBRANCH   1   2
BRANCH   1  17
ATOM     17  C   UNL     1       3.637  -3.066  -5.678  1.00  0.00     0.000 C 
BRANCH  17  18
ATOM     18  C   UNL     1       2.179  -3.305  -6.112  1.00  0.00     0.000 C 
BRANCH  18  19
ATOM     19  C   UNL     1       1.441  -2.014  -6.496  1.00  0.00     0.000 C 
BRANCH  19  20
ATOM     20  C   UNL     1       2.261  -0.776  -6.102  1.00  0.00     0.000 C 
BRANCH  20  21
ATOM     21  C   UNL     1       1.597   0.053  -4.987  1.00  0.00     0.000 C 
BRANCH  21  22
ATOM     22  C   UNL     1       0.685  -0.744  -4.037  1.00  0.00    -0.000 C 
BRANCH  22  23
ATOM     23  C   UNL     1       1.417  -1.234  -2.776  1.00  0.00    -0.000 C 
BRANCH  23  24
ATOM     24  C   UNL     1       0.975  -2.645  -2.354  1.00  0.00    -0.000 C 
BRANCH  24  25
ATOM     25  C   UNL     1      -0.146  -3.198  -3.250  1.00  0.00    -0.000 C 
BRANCH  25  26
ATOM     26  C   UNL     1      -0.222  -4.733  -3.221  1.00  0.00    -0.000 C 
BRANCH  26  27
ATOM     27  C   UNL     1      -1.664  -5.260  -3.306  1.00  0.00    -0.000 C 
BRANCH  27  28
ATOM     28  C   UNL     1      -2.458  -4.989  -2.011  1.00  0.00    -0.000 C 
BRANCH  28  29
ATOM     29  C   UNL     1      -3.846  -4.372  -2.259  1.00  0.00    -0.003 C 
ATOM     30  C   UNL     1      -3.969  -3.698  -3.623  1.00  0.00     0.004 C 
ENDBRANCH  28  29
ENDBRANCH  27  28
ENDBRANCH  26  27
ENDBRANCH  25  26
ENDBRANCH  24  25
ENDBRANCH  23  24
ENDBRANCH  22  23
ENDBRANCH  21  22
ENDBRANCH  20  21
ENDBRANCH  19  20
ENDBRANCH  18  19
ENDBRANCH  17  18
ENDBRANCH   1  17
TORSDOF 26
ENDMDL
MODEL 9
REMARK VINA RESULT:    -3.346      3.777      6.317
REMARK INTER + INTRA:         -13.126
REMARK INTER:                  -9.733
REMARK INTRA:                  -3.394
REMARK UNBOUND:                -4.696
REMARK SMILES CCCCCCCCCCCCCCCCCCCCCCCCCCCC(=O)[O-]
REMARK SMILES IDX 15 1 16 2 17 3 18 4 19 5 20 6 21 7 22 8 23 9 24 10 25 11
REMARK SMILES IDX 26 12 27 13 28 14 29 15 30 16 14 17 13 18 12 19 11 20 10 21
REMARK SMILES IDX 9 22 8 23 7 24 6 25 5 26 4 27 3 28 2 29 1 30
REMARK H PARENT
REMARK Flexibility Score: inf
ROOT
ATOM      1  C   UNL     1      -2.776   0.593   9.935  1.00  0.00     0.000 C 
ENDROOT
BRANCH   1   2
ATOM      2  C   UNL     1      -3.763   0.407   8.770  1.00  0.00     0.000 C 
BRANCH   2   3
ATOM      3  C   UNL     1      -4.340  -1.018   8.701  1.00  0.00     0.000 C 
BRANCH   3   4
ATOM      4  C   UNL     1      -3.612  -2.060   9.573  1.00  0.00     0.000 C 
BRANCH   4   5
ATOM      5  C   UNL     1      -4.159  -3.498   9.470  1.00  0.00     0.000 C 
BRANCH   5   6
ATOM      6  C   UNL     1      -5.476  -3.641   8.682  1.00  0.00     0.000 C 
BRANCH   6   7
ATOM      7  C   UNL     1      -5.702  -5.019   8.036  1.00  0.00     0.000 C 
BRANCH   7   8
ATOM      8  C   UNL     1      -6.881  -5.788   8.657  1.00  0.00     0.000 C 
BRANCH   8   9
ATOM      9  C   UNL     1      -8.188  -4.966   8.624  1.00  0.00     0.000 C 
BRANCH   9  10
ATOM     10  C   UNL     1      -9.029  -5.192   7.357  1.00  0.00     0.000 C 
BRANCH  10  11
ATOM     11  C   UNL     1      -8.999  -6.649   6.869  1.00  0.00     0.000 C 
BRANCH  11  12
ATOM     12  C   UNL     1      -9.659  -6.817   5.490  1.00  0.00     0.006 C 
BRANCH  12  13
ATOM     13  C   UNL     1      -8.741  -7.525   4.485  1.00  0.00     0.053 C 
BRANCH  13  14
ATOM     14  C   UNL     1      -7.970  -6.524   3.682  1.00  0.00     0.041 C 
ATOM     15  O   UNL     1      -8.352  -6.210   2.523  1.00  0.00    -0.550 OA
ATOM     16  O   UNL     1      -6.819  -5.949   4.206  1.00  0.00    -0.550 OA
ENDBRANCH  13  14
ENDBRANCH  12  13
ENDBRANCH  11  12
ENDBRANCH  10  11
ENDBRANCH   9  10
ENDBRANCH   8   9
ENDBRANCH   7   8
ENDBRANCH   6   7
ENDBRANCH   5   6
ENDBRANCH   4   5
ENDBRANCH   3   4
ENDBRANCH   2   3
ENDBRANCH   1   2
BRANCH   1  17
ATOM     17  C   UNL     1      -1.374   1.031   9.473  1.00  0.00     0.000 C 
BRANCH  17  18
ATOM     18  C   UNL     1      -1.063   0.782   7.986  1.00  0.00     0.000 C 
BRANCH  18  19
ATOM     19  C   UNL     1       0.125  -0.167   7.766  1.00  0.00     0.000 C 
BRANCH  19  20
ATOM     20  C   UNL     1      -0.232  -1.601   8.187  1.00  0.00     0.000 C 
BRANCH  20  21
ATOM     21  C   UNL     1       0.565  -2.082   9.412  1.00  0.00     0.000 C 
BRANCH  21  22
ATOM     22  C   UNL     1       1.715  -3.056   9.100  1.00  0.00    -0.000 C 
BRANCH  22  23
ATOM     23  C   UNL     1       3.082  -2.543   9.584  1.00  0.00    -0.000 C 
BRANCH  23  24
ATOM     24  C   UNL     1       2.974  -1.201  10.326  1.00  0.00    -0.000 C 
BRANCH  24  25
ATOM     25  C   UNL     1       3.936  -0.141   9.760  1.00  0.00    -0.000 C 
BRANCH  25  26
ATOM     26  C   UNL     1       3.197   1.039   9.110  1.00  0.00    -0.000 C 
BRANCH  26  27
ATOM     27  C   UNL     1       2.277   1.781  10.093  1.00  0.00    -0.000 C 
BRANCH  27  28
ATOM     28  C   UNL     1       1.873   3.176   9.570  1.00  0.00    -0.000 C 
BRANCH  28  29
ATOM     29  C   UNL     1       2.304   3.435   8.115  1.00  0.00    -0.003 C 
ATOM     30  C   UNL     1       1.130   3.739   7.186  1.00  0.00     0.004 C 
ENDBRANCH  28  29
ENDBRANCH  27  28
ENDBRANCH  26  27
ENDBRANCH  25  26
ENDBRANCH  24  25
ENDBRANCH  23  24
ENDBRANCH  22  23
ENDBRANCH  21  22
ENDBRANCH  20  21
ENDBRANCH  19  20
ENDBRANCH  18  19
ENDBRANCH  17  18
ENDBRANCH   1  17
TORSDOF 26
ENDMDL
