MODEL 1
REMARK VINA RESULT:    -7.430      0.000      0.000
REMARK INTER + INTRA:          -9.030
REMARK INTER:                  -8.733
REMARK INTRA:                  -0.297
REMARK UNBOUND:                -0.297
REMARK SMILES O=c1cc(-c2ccc(O)c(O)c2)oc2cc(O)cc(O)c12
REMARK SMILES IDX 4 1 3 2 2 3 1 4 21 5 19 6 18 7 16 8 15 9 14 10 13 11 5 12
REMARK SMILES IDX 6 13 7 14 8 15 12 16 10 17 9 18 11 20 20 22 17 24
REMARK H PARENT 9 19 11 21 20 23 17 25
REMARK Flexibility Score: inf
ROOT
ATOM      1  C   UNL     1      11.700   8.984  11.157  1.00  0.00     0.138 A 
ATOM      2  C   UNL     1      12.362   9.579  10.070  1.00  0.00     0.100 A 
ATOM      3  C   UNL     1      12.534  10.964  10.045  1.00  0.00     0.197 A 
ATOM      4  O   UNL     1      13.131  11.488   9.066  1.00  0.00    -0.289 OA
ATOM      5  C   UNL     1      12.045  11.744  11.111  1.00  0.00     0.107 A 
ATOM      6  C   UNL     1      12.175  13.153  11.163  1.00  0.00     0.134 A 
ATOM      7  C   UNL     1      11.664  13.857  12.264  1.00  0.00     0.093 A 
ATOM      8  C   UNL     1      11.028  13.183  13.309  1.00  0.00     0.123 A 
ATOM      9  C   UNL     1      10.896  11.791  13.262  1.00  0.00     0.094 A 
ATOM     10  C   UNL     1      11.397  11.071  12.174  1.00  0.00     0.146 A 
ATOM     11  O   UNL     1      11.258   9.749  12.152  1.00  0.00    -0.456 OA
ENDROOT
BRANCH   1  12
ATOM     12  C   UNL     1      11.490   7.516  11.237  1.00  0.00     0.021 A 
ATOM     13  C   UNL     1      10.726   6.984  12.291  1.00  0.00     0.016 A 
ATOM     14  C   UNL     1      10.506   5.607  12.384  1.00  0.00     0.051 A 
ATOM     15  C   UNL     1      11.038   4.741  11.423  1.00  0.00     0.157 A 
ATOM     16  C   UNL     1      12.010   6.639  10.266  1.00  0.00     0.062 A 
ATOM     17  C   UNL     1      11.788   5.257  10.360  1.00  0.00     0.158 A 
BRANCH  15  18
ATOM     18  O   UNL     1      10.823   3.367  11.515  1.00  0.00    -0.504 OA
ATOM     19  H   UNL     1      11.379   2.783  12.129  1.00  0.00     0.293 HD
ENDBRANCH  15  18
BRANCH  17  20
ATOM     20  O   UNL     1      12.307   4.392   9.398  1.00  0.00    -0.504 OA
ATOM     21  H   UNL     1      11.715   3.740   8.895  1.00  0.00     0.293 HD
ENDBRANCH  17  20
ENDBRANCH   1  12
BRANCH   6  22
ATOM     22  O   UNL     1      12.806  13.853  10.135  1.00  0.00    -0.507 OA
ATOM     23  H   UNL     1      13.296  14.723  10.306  1.00  0.00     0.293 HD
ENDBRANCH   6  22
BRANCH   8  24
ATOM     24  O   UNL     1      10.530  13.906  14.390  1.00  0.00    -0.508 OA
ATOM     25  H   UNL     1      11.121  14.525  14.932  1.00  0.00     0.293 HD
ENDBRANCH   8  24
TORSDOF 5
ENDMDL
MODEL 2
REMARK VINA RESULT:    -7.229      1.607      7.475
REMARK INTER + INTRA:          -8.793
REMARK INTER:                  -8.475
REMARK INTRA:                  -0.318
REMARK UNBOUND:                -0.297
REMARK SMILES O=c1cc(-c2ccc(O)c(O)c2)oc2cc(O)cc(O)c12
REMARK SMILES IDX 4 1 3 2 2 3 1 4 21 5 19 6 18 7 16 8 15 9 14 10 13 11 5 12
REMARK SMILES IDX 6 13 7 14 8 15 12 16 10 17 9 18 11 20 20 22 17 24
REMARK H PARENT 9 19 11 21 20 23 17 25
REMARK Flexibility Score: inf
ROOT
ATOM      1  C   UNL     1      11.330   7.982  11.707  1.00  0.00     0.138 A 
ATOM      2  C   UNL     1      10.556   7.607  12.818  1.00  0.00     0.100 A 
ATOM      3  C   UNL     1      10.351   6.253  13.088  1.00  0.00     0.197 A 
ATOM      4  O   UNL     1       9.655   5.927  14.087  1.00  0.00    -0.289 OA
ATOM      5  C   UNL     1      10.928   5.282  12.245  1.00  0.00     0.107 A 
ATOM      6  C   UNL     1      10.768   3.890  12.445  1.00  0.00     0.134 A 
ATOM      7  C   UNL     1      11.380   2.987  11.563  1.00  0.00     0.093 A 
ATOM      8  C   UNL     1      12.145   3.447  10.488  1.00  0.00     0.123 A 
ATOM      9  C   UNL     1      12.305   4.822  10.285  1.00  0.00     0.094 A 
ATOM     10  C   UNL     1      11.703   5.738  11.152  1.00  0.00     0.146 A 
ATOM     11  O   UNL     1      11.869   7.039  10.936  1.00  0.00    -0.456 OA
ENDROOT
BRANCH   1  12
ATOM     12  C   UNL     1      11.582   9.407  11.373  1.00  0.00     0.021 A 
ATOM     13  C   UNL     1      11.029  10.414  12.184  1.00  0.00     0.016 A 
ATOM     14  C   UNL     1      11.258  11.762  11.896  1.00  0.00     0.051 A 
ATOM     15  C   UNL     1      12.049  12.126  10.801  1.00  0.00     0.157 A 
ATOM     16  C   UNL     1      12.389   9.781  10.281  1.00  0.00     0.062 A 
ATOM     17  C   UNL     1      12.619  11.134   9.994  1.00  0.00     0.158 A 
BRANCH  15  18
ATOM     18  O   UNL     1      12.278  13.470  10.510  1.00  0.00    -0.504 OA
ATOM     19  H   UNL     1      12.179  13.832   9.569  1.00  0.00     0.293 HD
ENDBRANCH  15  18
BRANCH  17  20
ATOM     20  O   UNL     1      13.416  11.501   8.910  1.00  0.00    -0.504 OA
ATOM     21  H   UNL     1      13.014  11.723   8.007  1.00  0.00     0.293 HD
ENDBRANCH  17  20
ENDBRANCH   1  12
BRANCH   6  22
ATOM     22  O   UNL     1      10.012   3.401  13.510  1.00  0.00    -0.507 OA
ATOM     23  H   UNL     1      10.308   2.596  14.049  1.00  0.00     0.293 HD
ENDBRANCH   6  22
BRANCH   8  24
ATOM     24  O   UNL     1      12.741   2.529   9.627  1.00  0.00    -0.508 OA
ATOM     25  H   UNL     1      12.254   1.694   9.322  1.00  0.00     0.293 HD
ENDBRANCH   8  24
TORSDOF 5
ENDMDL
MODEL 3
REMARK VINA RESULT:    -7.141      2.446      8.240
REMARK INTER + INTRA:          -8.690
REMARK INTER:                  -8.426
REMARK INTRA:                  -0.264
REMARK UNBOUND:                -0.297
REMARK SMILES O=c1cc(-c2ccc(O)c(O)c2)oc2cc(O)cc(O)c12
REMARK SMILES IDX 4 1 3 2 2 3 1 4 21 5 19 6 18 7 16 8 15 9 14 10 13 11 5 12
REMARK SMILES IDX 6 13 7 14 8 15 12 16 10 17 9 18 11 20 20 22 17 24
REMARK H PARENT 9 19 11 21 20 23 17 25
REMARK Flexibility Score: inf
ROOT
ATOM      1  C   UNL     1      11.761   5.879  10.668  1.00  0.00     0.138 A 
ATOM      2  C   UNL     1      12.811   5.100  11.184  1.00  0.00     0.100 A 
ATOM      3  C   UNL     1      12.840   3.729  10.925  1.00  0.00     0.197 A 
ATOM      4  O   UNL     1      13.786   3.038  11.391  1.00  0.00    -0.289 OA
ATOM      5  C   UNL     1      11.819   3.147  10.147  1.00  0.00     0.107 A 
ATOM      6  C   UNL     1      11.771   1.766   9.840  1.00  0.00     0.134 A 
ATOM      7  C   UNL     1      10.723   1.265   9.054  1.00  0.00     0.093 A 
ATOM      8  C   UNL     1       9.724   2.115   8.572  1.00  0.00     0.123 A 
ATOM      9  C   UNL     1       9.765   3.481   8.874  1.00  0.00     0.094 A 
ATOM     10  C   UNL     1      10.801   4.000   9.655  1.00  0.00     0.146 A 
ATOM     11  O   UNL     1      10.818   5.300   9.929  1.00  0.00    -0.456 OA
ENDROOT
BRANCH   1  12
ATOM     12  C   UNL     1      11.681   7.342  10.910  1.00  0.00     0.021 A 
ATOM     13  C   UNL     1      12.241   8.229   9.974  1.00  0.00     0.016 A 
ATOM     14  C   UNL     1      12.171   9.611  10.175  1.00  0.00     0.051 A 
ATOM     15  C   UNL     1      11.533  10.128  11.307  1.00  0.00     0.157 A 
ATOM     16  C   UNL     1      11.029   7.871  12.041  1.00  0.00     0.062 A 
ATOM     17  C   UNL     1      10.958   9.258  12.240  1.00  0.00     0.158 A 
BRANCH  15  18
ATOM     18  O   UNL     1      11.464  11.505  11.511  1.00  0.00    -0.504 OA
ATOM     19  H   UNL     1      12.016  12.151  10.959  1.00  0.00     0.293 HD
ENDBRANCH  15  18
BRANCH  17  20
ATOM     20  O   UNL     1      10.314   9.778  13.363  1.00  0.00    -0.504 OA
ATOM     21  H   UNL     1      10.831  10.073  14.183  1.00  0.00     0.293 HD
ENDBRANCH  17  20
ENDBRANCH   1  12
BRANCH   6  22
ATOM     22  O   UNL     1      12.755   0.894  10.306  1.00  0.00    -0.507 OA
ATOM     23  H   UNL     1      13.737   1.045  10.112  1.00  0.00     0.293 HD
ENDBRANCH   6  22
BRANCH   8  24
ATOM     24  O   UNL     1       8.694   1.592   7.794  1.00  0.00    -0.508 OA
ATOM     25  H   UNL     1       8.469   0.604   7.807  1.00  0.00     0.293 HD
ENDBRANCH   8  24
TORSDOF 5
ENDMDL
MODEL 4
REMARK VINA RESULT:    -6.991      1.460      6.769
REMARK INTER + INTRA:          -8.514
REMARK INTER:                  -8.217
REMARK INTRA:                  -0.297
REMARK UNBOUND:                -0.297
REMARK SMILES O=c1cc(-c2ccc(O)c(O)c2)oc2cc(O)cc(O)c12
REMARK SMILES IDX 4 1 3 2 2 3 1 4 21 5 19 6 18 7 16 8 15 9 14 10 13 11 5 12
REMARK SMILES IDX 6 13 7 14 8 15 12 16 10 17 9 18 11 20 20 22 17 24
REMARK H PARENT 9 19 11 21 20 23 17 25
REMARK Flexibility Score: inf
ROOT
ATOM      1  C   UNL     1      11.613   8.512  11.327  1.00  0.00     0.138 A 
ATOM      2  C   UNL     1      12.041   7.526  10.422  1.00  0.00     0.100 A 
ATOM      3  C   UNL     1      11.829   6.180  10.722  1.00  0.00     0.197 A 
ATOM      4  O   UNL     1      12.215   5.303   9.903  1.00  0.00    -0.289 OA
ATOM      5  C   UNL     1      11.185   5.830  11.925  1.00  0.00     0.107 A 
ATOM      6  C   UNL     1      10.933   4.490  12.306  1.00  0.00     0.134 A 
ATOM      7  C   UNL     1      10.281   4.224  13.519  1.00  0.00     0.093 A 
ATOM      8  C   UNL     1       9.878   5.267  14.357  1.00  0.00     0.123 A 
ATOM      9  C   UNL     1      10.126   6.594  13.985  1.00  0.00     0.094 A 
ATOM     10  C   UNL     1      10.774   6.880  12.780  1.00  0.00     0.146 A 
ATOM     11  O   UNL     1      11.000   8.147  12.451  1.00  0.00    -0.456 OA
ENDROOT
BRANCH   1  12
ATOM     12  C   UNL     1      11.811   9.959  11.060  1.00  0.00     0.021 A 
ATOM     13  C   UNL     1      11.375  10.903  12.007  1.00  0.00     0.016 A 
ATOM     14  C   UNL     1      11.557  12.270  11.783  1.00  0.00     0.051 A 
ATOM     15  C   UNL     1      12.186  12.717  10.616  1.00  0.00     0.157 A 
ATOM     16  C   UNL     1      12.456  10.417   9.894  1.00  0.00     0.062 A 
ATOM     17  C   UNL     1      12.639  11.789   9.671  1.00  0.00     0.158 A 
BRANCH  15  18
ATOM     18  O   UNL     1      12.367  14.080  10.388  1.00  0.00    -0.504 OA
ATOM     19  H   UNL     1      11.726  14.610   9.809  1.00  0.00     0.293 HD
ENDBRANCH  15  18
BRANCH  17  20
ATOM     20  O   UNL     1      13.275  12.237   8.514  1.00  0.00    -0.504 OA
ATOM     21  H   UNL     1      14.010  11.699   8.069  1.00  0.00     0.293 HD
ENDBRANCH  17  20
ENDBRANCH   1  12
BRANCH   6  22
ATOM     22  O   UNL     1      11.322   3.427  11.491  1.00  0.00    -0.507 OA
ATOM     23  H   UNL     1      11.404   3.528  10.486  1.00  0.00     0.293 HD
ENDBRANCH   6  22
BRANCH   8  24
ATOM     24  O   UNL     1       9.234   4.976  15.556  1.00  0.00    -0.508 OA
ATOM     25  H   UNL     1       8.618   4.176  15.647  1.00  0.00     0.293 HD
ENDBRANCH   8  24
TORSDOF 5
ENDMDL
MODEL 5
REMARK VINA RESULT:    -6.960      1.777      3.680
REMARK INTER + INTRA:          -8.478
REMARK INTER:                  -8.214
REMARK INTRA:                  -0.264
REMARK UNBOUND:                -0.297
REMARK SMILES O=c1cc(-c2ccc(O)c(O)c2)oc2cc(O)cc(O)c12
REMARK SMILES IDX 4 1 3 2 2 3 1 4 21 5 19 6 18 7 16 8 15 9 14 10 13 11 5 12
REMARK SMILES IDX 6 13 7 14 8 15 12 16 10 17 9 18 11 20 20 22 17 24
REMARK H PARENT 9 19 11 21 20 23 17 25
REMARK Flexibility Score: inf
ROOT
ATOM      1  C   UNL     1      11.384   6.574  11.073  1.00  0.00     0.138 A 
ATOM      2  C   UNL     1      10.758   6.892  12.290  1.00  0.00     0.100 A 
ATOM      3  C   UNL     1      10.715   8.220  12.714  1.00  0.00     0.197 A 
ATOM      4  O   UNL     1      10.151   8.496  13.807  1.00  0.00    -0.289 OA
ATOM      5  C   UNL     1      11.295   9.224  11.913  1.00  0.00     0.107 A 
ATOM      6  C   UNL     1      11.297  10.594  12.269  1.00  0.00     0.134 A 
ATOM      7  C   UNL     1      11.891  11.533  11.413  1.00  0.00     0.093 A 
ATOM      8  C   UNL     1      12.482  11.131  10.213  1.00  0.00     0.123 A 
ATOM      9  C   UNL     1      12.484   9.778   9.856  1.00  0.00     0.094 A 
ATOM     10  C   UNL     1      11.897   8.826  10.695  1.00  0.00     0.146 A 
ATOM     11  O   UNL     1      11.913   7.547  10.335  1.00  0.00    -0.456 OA
ENDROOT
BRANCH   1  12
ATOM     12  C   UNL     1      11.458   5.178  10.572  1.00  0.00     0.021 A 
ATOM     13  C   UNL     1      10.552   4.748   9.586  1.00  0.00     0.016 A 
ATOM     14  C   UNL     1      10.606   3.442   9.092  1.00  0.00     0.051 A 
ATOM     15  C   UNL     1      11.570   2.547   9.567  1.00  0.00     0.157 A 
ATOM     16  C   UNL     1      12.434   4.275  11.036  1.00  0.00     0.062 A 
ATOM     17  C   UNL     1      12.488   2.965  10.538  1.00  0.00     0.158 A 
BRANCH  15  18
ATOM     18  O   UNL     1      11.626   1.243   9.079  1.00  0.00    -0.504 OA
ATOM     19  H   UNL     1      11.408   0.447   9.667  1.00  0.00     0.293 HD
ENDBRANCH  15  18
BRANCH  17  20
ATOM     20  O   UNL     1      13.455   2.073  11.002  1.00  0.00    -0.504 OA
ATOM     21  H   UNL     1      13.973   1.475  10.368  1.00  0.00     0.293 HD
ENDBRANCH  17  20
ENDBRANCH   1  12
BRANCH   6  22
ATOM     22  O   UNL     1      10.714  11.026  13.460  1.00  0.00    -0.507 OA
ATOM     23  H   UNL     1       9.827  10.659  13.784  1.00  0.00     0.293 HD
ENDBRANCH   6  22
BRANCH   8  24
ATOM     24  O   UNL     1      13.066  12.084   9.381  1.00  0.00    -0.508 OA
ATOM     25  H   UNL     1      12.692  13.022   9.305  1.00  0.00     0.293 HD
ENDBRANCH   8  24
TORSDOF 5
ENDMDL
MODEL 6
REMARK VINA RESULT:    -6.861      1.186      2.703
REMARK INTER + INTRA:          -8.361
REMARK INTER:                  -8.043
REMARK INTRA:                  -0.318
REMARK UNBOUND:                -0.297
REMARK SMILES O=c1cc(-c2ccc(O)c(O)c2)oc2cc(O)cc(O)c12
REMARK SMILES IDX 4 1 3 2 2 3 1 4 21 5 19 6 18 7 16 8 15 9 14 10 13 11 5 12
REMARK SMILES IDX 6 13 7 14 8 15 12 16 10 17 9 18 11 20 20 22 17 24
REMARK H PARENT 9 19 11 21 20 23 17 25
REMARK Flexibility Score: inf
ROOT
ATOM      1  C   UNL     1      11.333   8.476  11.561  1.00  0.00     0.138 A 
ATOM      2  C   UNL     1      10.646   9.139  12.592  1.00  0.00     0.100 A 
ATOM      3  C   UNL     1      10.626  10.534  12.617  1.00  0.00     0.197 A 
ATOM      4  O   UNL     1      10.007  11.120  13.546  1.00  0.00    -0.289 OA
ATOM      5  C   UNL     1      11.291  11.257  11.607  1.00  0.00     0.107 A 
ATOM      6  C   UNL     1      11.322  12.671  11.559  1.00  0.00     0.134 A 
ATOM      7  C   UNL     1      12.001  13.316  10.515  1.00  0.00     0.093 A 
ATOM      8  C   UNL     1      12.649  12.577   9.522  1.00  0.00     0.123 A 
ATOM      9  C   UNL     1      12.623  11.179   9.565  1.00  0.00     0.094 A 
ATOM     10  C   UNL     1      11.951  10.517  10.597  1.00  0.00     0.146 A 
ATOM     11  O   UNL     1      11.942   9.188  10.616  1.00  0.00    -0.456 OA
ENDROOT
BRANCH   1  12
ATOM     12  C   UNL     1      11.386   6.994  11.484  1.00  0.00     0.021 A 
ATOM     13  C   UNL     1      10.801   6.227  12.507  1.00  0.00     0.016 A 
ATOM     14  C   UNL     1      10.831   4.831  12.454  1.00  0.00     0.051 A 
ATOM     15  C   UNL     1      11.435   4.178  11.374  1.00  0.00     0.157 A 
ATOM     16  C   UNL     1      11.981   6.329  10.393  1.00  0.00     0.062 A 
ATOM     17  C   UNL     1      12.008   4.928  10.341  1.00  0.00     0.158 A 
BRANCH  15  18
ATOM     18  O   UNL     1      11.468   2.786  11.319  1.00  0.00    -0.504 OA
ATOM     19  H   UNL     1      10.693   2.252  10.943  1.00  0.00     0.293 HD
ENDBRANCH  15  18
BRANCH  17  20
ATOM     20  O   UNL     1      12.600   4.274   9.261  1.00  0.00    -0.504 OA
ATOM     21  H   UNL     1      12.426   4.562   8.305  1.00  0.00     0.293 HD
ENDBRANCH  17  20
ENDBRANCH   1  12
BRANCH   6  22
ATOM     22  O   UNL     1      10.683  13.436  12.535  1.00  0.00    -0.507 OA
ATOM     23  H   UNL     1      10.006  13.031  13.171  1.00  0.00     0.293 HD
ENDBRANCH   6  22
BRANCH   8  24
ATOM     24  O   UNL     1      13.318  13.242   8.496  1.00  0.00    -0.508 OA
ATOM     25  H   UNL     1      13.853  14.084   8.671  1.00  0.00     0.293 HD
ENDBRANCH   8  24
TORSDOF 5
ENDMDL
MODEL 7
REMARK VINA RESULT:    -6.663      2.803      8.445
REMARK INTER + INTRA:          -8.128
REMARK INTER:                  -7.823
REMARK INTRA:                  -0.305
REMARK UNBOUND:                -0.297
REMARK SMILES O=c1cc(-c2ccc(O)c(O)c2)oc2cc(O)cc(O)c12
REMARK SMILES IDX 4 1 3 2 2 3 1 4 21 5 19 6 18 7 16 8 15 9 14 10 13 11 5 12
REMARK SMILES IDX 6 13 7 14 8 15 12 16 10 17 9 18 11 20 20 22 17 24
REMARK H PARENT 9 19 11 21 20 23 17 25
REMARK Flexibility Score: inf
ROOT
ATOM      1  C   UNL     1      12.055   4.967  11.330  1.00  0.00     0.138 A 
ATOM      2  C   UNL     1      12.055   4.190  10.159  1.00  0.00     0.100 A 
ATOM      3  C   UNL     1      12.261   2.812  10.249  1.00  0.00     0.197 A 
ATOM      4  O   UNL     1      12.258   2.124   9.193  1.00  0.00    -0.289 OA
ATOM      5  C   UNL     1      12.462   2.221  11.511  1.00  0.00     0.107 A 
ATOM      6  C   UNL     1      12.680   0.833  11.690  1.00  0.00     0.134 A 
ATOM      7  C   UNL     1      12.866   0.321  12.983  1.00  0.00     0.093 A 
ATOM      8  C   UNL     1      12.840   1.165  14.096  1.00  0.00     0.123 A 
ATOM      9  C   UNL     1      12.626   2.537  13.924  1.00  0.00     0.094 A 
ATOM     10  C   UNL     1      12.438   3.068  12.645  1.00  0.00     0.146 A 
ATOM     11  O   UNL     1      12.238   4.375  12.508  1.00  0.00    -0.456 OA
ENDROOT
BRANCH   1  12
ATOM     12  C   UNL     1      11.840   6.435  11.295  1.00  0.00     0.021 A 
ATOM     13  C   UNL     1      12.265   7.169  10.173  1.00  0.00     0.016 A 
ATOM     14  C   UNL     1      12.067   8.551  10.112  1.00  0.00     0.051 A 
ATOM     15  C   UNL     1      11.433   9.221  11.164  1.00  0.00     0.157 A 
ATOM     16  C   UNL     1      11.191   7.115  12.344  1.00  0.00     0.062 A 
ATOM     17  C   UNL     1      10.991   8.501  12.281  1.00  0.00     0.158 A 
BRANCH  15  18
ATOM     18  O   UNL     1      11.236  10.599  11.107  1.00  0.00    -0.504 OA
ATOM     19  H   UNL     1      10.320  10.997  10.930  1.00  0.00     0.293 HD
ENDBRANCH  15  18
BRANCH  17  20
ATOM     20  O   UNL     1      10.351   9.171  13.323  1.00  0.00    -0.504 OA
ATOM     21  H   UNL     1      10.719  10.035  13.705  1.00  0.00     0.293 HD
ENDBRANCH  17  20
ENDBRANCH   1  12
BRANCH   6  22
ATOM     22  O   UNL     1      12.710  -0.035  10.599  1.00  0.00    -0.507 OA
ATOM     23  H   UNL     1      13.578  -0.426  10.253  1.00  0.00     0.293 HD
ENDBRANCH   6  22
BRANCH   8  24
ATOM     24  O   UNL     1      13.028   0.630  15.368  1.00  0.00    -0.508 OA
ATOM     25  H   UNL     1      12.618  -0.256  15.637  1.00  0.00     0.293 HD
ENDBRANCH   8  24
TORSDOF 5
ENDMDL
MODEL 8
REMARK VINA RESULT:    -6.568      2.707      8.493
REMARK INTER + INTRA:          -8.016
REMARK INTER:                  -7.750
REMARK INTRA:                  -0.266
REMARK UNBOUND:                -0.297
REMARK SMILES O=c1cc(-c2ccc(O)c(O)c2)oc2cc(O)cc(O)c12
REMARK SMILES IDX 4 1 3 2 2 3 1 4 21 5 19 6 18 7 16 8 15 9 14 10 13 11 5 12
REMARK SMILES IDX 6 13 7 14 8 15 12 16 10 17 9 18 11 20 20 22 17 24
REMARK H PARENT 9 19 11 21 20 23 17 25
REMARK Flexibility Score: inf
ROOT
ATOM      1  C   UNL     1      11.661   5.160  10.875  1.00  0.00     0.138 A 
ATOM      2  C   UNL     1      12.694   4.383  11.427  1.00  0.00     0.100 A 
ATOM      3  C   UNL     1      12.768   3.023  11.125  1.00  0.00     0.197 A 
ATOM      4  O   UNL     1      13.699   2.336  11.624  1.00  0.00    -0.289 OA
ATOM      5  C   UNL     1      11.809   2.449  10.267  1.00  0.00     0.107 A 
ATOM      6  C   UNL     1      11.810   1.079   9.911  1.00  0.00     0.134 A 
ATOM      7  C   UNL     1      10.822   0.586   9.046  1.00  0.00     0.093 A 
ATOM      8  C   UNL     1       9.836   1.432   8.532  1.00  0.00     0.123 A 
ATOM      9  C   UNL     1       9.830   2.787   8.882  1.00  0.00     0.094 A 
ATOM     10  C   UNL     1      10.805   3.298   9.743  1.00  0.00     0.146 A 
ATOM     11  O   UNL     1      10.776   4.588  10.061  1.00  0.00    -0.456 OA
ENDROOT
BRANCH   1  12
ATOM     12  C   UNL     1      11.534   6.611  11.161  1.00  0.00     0.021 A 
ATOM     13  C   UNL     1      10.878   7.030  12.333  1.00  0.00     0.016 A 
ATOM     14  C   UNL     1      10.753   8.390  12.629  1.00  0.00     0.051 A 
ATOM     15  C   UNL     1      11.287   9.353  11.766  1.00  0.00     0.157 A 
ATOM     16  C   UNL     1      12.081   7.586  10.304  1.00  0.00     0.062 A 
ATOM     17  C   UNL     1      11.955   8.951  10.604  1.00  0.00     0.158 A 
BRANCH  15  18
ATOM     18  O   UNL     1      11.162  10.709  12.057  1.00  0.00    -0.504 OA
ATOM     19  H   UNL     1      10.254  11.151  12.144  1.00  0.00     0.293 HD
ENDBRANCH  15  18
BRANCH  17  20
ATOM     20  O   UNL     1      12.496   9.913   9.751  1.00  0.00    -0.504 OA
ATOM     21  H   UNL     1      13.374   9.761   9.268  1.00  0.00     0.293 HD
ENDBRANCH  17  20
ENDBRANCH   1  12
BRANCH   6  22
ATOM     22  O   UNL     1      12.782   0.210  10.407  1.00  0.00    -0.507 OA
ATOM     23  H   UNL     1      13.752   0.275  10.120  1.00  0.00     0.293 HD
ENDBRANCH   6  22
BRANCH   8  24
ATOM     24  O   UNL     1       8.866   0.916   7.676  1.00  0.00    -0.508 OA
ATOM     25  H   UNL     1       8.900   1.079   6.677  1.00  0.00     0.293 HD
ENDBRANCH   8  24
TORSDOF 5
ENDMDL
