MODEL 1
REMARK VINA RESULT:    -4.859      0.000      0.000
REMARK INTER + INTRA:         -14.581
REMARK INTER:                 -11.108
REMARK INTRA:                  -3.473
REMARK UNBOUND:                -3.473
REMARK SMILES CCCCCCCCCCCCCCCCCCCCCCCC(=O)[O-]
REMARK SMILES IDX 13 1 14 2 15 3 16 4 17 5 18 6 19 7 20 8 21 9 22 10 23 11
REMARK SMILES IDX 24 12 25 13 26 14 12 15 11 16 10 17 9 18 8 19 7 20 6 21 5 22
REMARK SMILES IDX 4 23 3 24 2 25 1 26
REMARK H PARENT
REMARK Flexibility Score: inf
ROOT
ATOM      1  C   UNL     1      12.495 -19.864 -16.696  1.00  0.00     0.000 C 
ENDROOT
BRANCH   1   2
ATOM      2  C   UNL     1      11.444 -19.505 -15.634  1.00  0.00     0.000 C 
BRANCH   2   3
ATOM      3  C   UNL     1      11.441 -20.489 -14.448  1.00  0.00     0.000 C 
BRANCH   3   4
ATOM      4  C   UNL     1      11.548 -21.955 -14.902  1.00  0.00     0.000 C 
BRANCH   4   5
ATOM      5  C   UNL     1      11.502 -22.934 -13.717  1.00  0.00     0.000 C 
BRANCH   5   6
ATOM      6  C   UNL     1      11.337 -24.396 -14.161  1.00  0.00     0.000 C 
BRANCH   6   7
ATOM      7  C   UNL     1      12.621 -25.224 -13.973  1.00  0.00     0.000 C 
BRANCH   7   8
ATOM      8  C   UNL     1      12.463 -26.675 -14.457  1.00  0.00     0.000 C 
BRANCH   8   9
ATOM      9  C   UNL     1      13.815 -27.375 -14.678  1.00  0.00     0.000 C 
BRANCH   9  10
ATOM     10  C   UNL     1      15.009 -26.402 -14.638  1.00  0.00     0.006 C 
BRANCH  10  11
ATOM     11  C   UNL     1      16.229 -26.942 -13.871  1.00  0.00     0.053 C 
BRANCH  11  12
ATOM     12  C   UNL     1      16.241 -26.527 -12.432  1.00  0.00     0.041 C 
ATOM     13  O   UNL     1      16.926 -27.166 -11.590  1.00  0.00    -0.550 OA
ATOM     14  O   UNL     1      15.521 -25.410 -12.024  1.00  0.00    -0.550 OA
ENDBRANCH  11  12
ENDBRANCH  10  11
ENDBRANCH   9  10
ENDBRANCH   8   9
ENDBRANCH   7   8
ENDBRANCH   6   7
ENDBRANCH   5   6
ENDBRANCH   4   5
ENDBRANCH   3   4
ENDBRANCH   2   3
ENDBRANCH   1   2
BRANCH   1  15
ATOM     15  C   UNL     1      13.526 -18.746 -16.913  1.00  0.00     0.000 C 
BRANCH  15  16
ATOM     16  C   UNL     1      14.353 -18.444 -15.651  1.00  0.00     0.000 C 
BRANCH  16  17
ATOM     17  C   UNL     1      14.305 -16.963 -15.218  1.00  0.00     0.000 C 
BRANCH  17  18
ATOM     18  C   UNL     1      13.275 -16.719 -14.102  1.00  0.00    -0.000 C 
BRANCH  18  19
ATOM     19  C   UNL     1      13.917 -16.587 -12.711  1.00  0.00    -0.000 C 
BRANCH  19  20
ATOM     20  C   UNL     1      13.503 -17.702 -11.727  1.00  0.00    -0.000 C 
BRANCH  20  21
ATOM     21  C   UNL     1      13.991 -19.088 -12.183  1.00  0.00    -0.000 C 
BRANCH  21  22
ATOM     22  C   UNL     1      15.524 -19.186 -12.243  1.00  0.00    -0.000 C 
BRANCH  22  23
ATOM     23  C   UNL     1      16.009 -20.507 -12.861  1.00  0.00    -0.000 C 
BRANCH  23  24
ATOM     24  C   UNL     1      14.820 -21.408 -13.228  1.00  0.00    -0.000 C 
BRANCH  24  25
ATOM     25  C   UNL     1      15.224 -22.577 -14.139  1.00  0.00    -0.003 C 
ATOM     26  C   UNL     1      16.736 -22.787 -14.196  1.00  0.00     0.004 C 
ENDBRANCH  24  25
ENDBRANCH  23  24
ENDBRANCH  22  23
ENDBRANCH  21  22
ENDBRANCH  20  21
ENDBRANCH  19  20
ENDBRANCH  18  19
ENDBRANCH  17  18
ENDBRANCH  16  17
ENDBRANCH  15  16
ENDBRANCH   1  15
TORSDOF 22
ENDMDL
MODEL 2
REMARK VINA RESULT:    -4.853      4.261      7.663
REMARK INTER + INTRA:         -14.567
REMARK INTER:                 -11.055
REMARK INTRA:                  -3.512
REMARK UNBOUND:                -3.473
REMARK SMILES CCCCCCCCCCCCCCCCCCCCCCCC(=O)[O-]
REMARK SMILES IDX 13 1 14 2 15 3 16 4 17 5 18 6 19 7 20 8 21 9 22 10 23 11
REMARK SMILES IDX 24 12 25 13 26 14 12 15 11 16 10 17 9 18 8 19 7 20 6 21 5 22
REMARK SMILES IDX 4 23 3 24 2 25 1 26
REMARK H PARENT
REMARK Flexibility Score: inf
ROOT
ATOM      1  C   UNL     1      11.598 -19.329 -12.823  1.00  0.00     0.000 C 
ENDROOT
BRANCH   1   2
ATOM      2  C   UNL     1      11.024 -18.903 -14.184  1.00  0.00     0.000 C 
BRANCH   2   3
ATOM      3  C   UNL     1      11.999 -19.166 -15.346  1.00  0.00     0.000 C 
BRANCH   3   4
ATOM      4  C   UNL     1      13.385 -19.621 -14.858  1.00  0.00     0.000 C 
BRANCH   4   5
ATOM      5  C   UNL     1      14.479 -18.583 -15.165  1.00  0.00     0.000 C 
BRANCH   5   6
ATOM      6  C   UNL     1      13.932 -17.148 -15.233  1.00  0.00     0.000 C 
BRANCH   6   7
ATOM      7  C   UNL     1      13.809 -16.493 -13.845  1.00  0.00     0.000 C 
BRANCH   7   8
ATOM      8  C   UNL     1      15.064 -16.700 -12.983  1.00  0.00     0.000 C 
BRANCH   8   9
ATOM      9  C   UNL     1      14.729 -16.949 -11.501  1.00  0.00     0.000 C 
BRANCH   9  10
ATOM     10  C   UNL     1      15.425 -18.197 -10.928  1.00  0.00     0.006 C 
BRANCH  10  11
ATOM     11  C   UNL     1      14.845 -19.527 -11.441  1.00  0.00     0.053 C 
BRANCH  11  12
ATOM     12  C   UNL     1      15.870 -20.385 -12.118  1.00  0.00     0.041 C 
ATOM     13  O   UNL     1      15.660 -21.615 -12.285  1.00  0.00    -0.550 OA
ATOM     14  O   UNL     1      17.045 -19.817 -12.598  1.00  0.00    -0.550 OA
ENDBRANCH  11  12
ENDBRANCH  10  11
ENDBRANCH   9  10
ENDBRANCH   8   9
ENDBRANCH   7   8
ENDBRANCH   6   7
ENDBRANCH   5   6
ENDBRANCH   4   5
ENDBRANCH   3   4
ENDBRANCH   2   3
ENDBRANCH   1   2
BRANCH   1  15
ATOM     15  C   UNL     1      11.143 -18.415 -11.675  1.00  0.00     0.000 C 
BRANCH  15  16
ATOM     16  C   UNL     1      10.507 -19.193 -10.510  1.00  0.00     0.000 C 
BRANCH  16  17
ATOM     17  C   UNL     1      10.821 -18.596  -9.121  1.00  0.00     0.000 C 
BRANCH  17  18
ATOM     18  C   UNL     1      12.241 -18.009  -9.051  1.00  0.00    -0.000 C 
BRANCH  18  19
ATOM     19  C   UNL     1      12.274 -16.586  -8.469  1.00  0.00    -0.000 C 
BRANCH  19  20
ATOM     20  C   UNL     1      10.902 -15.877  -8.484  1.00  0.00    -0.000 C 
BRANCH  20  21
ATOM     21  C   UNL     1      10.626 -15.119  -7.174  1.00  0.00    -0.000 C 
BRANCH  21  22
ATOM     22  C   UNL     1       9.128 -15.033  -6.843  1.00  0.00    -0.000 C 
BRANCH  22  23
ATOM     23  C   UNL     1       8.705 -16.025  -5.748  1.00  0.00    -0.000 C 
BRANCH  23  24
ATOM     24  C   UNL     1       8.695 -17.464  -6.288  1.00  0.00    -0.000 C 
BRANCH  24  25
ATOM     25  C   UNL     1       9.713 -18.369  -5.577  1.00  0.00    -0.003 C 
ATOM     26  C   UNL     1       9.133 -19.050  -4.338  1.00  0.00     0.004 C 
ENDBRANCH  24  25
ENDBRANCH  23  24
ENDBRANCH  22  23
ENDBRANCH  21  22
ENDBRANCH  20  21
ENDBRANCH  19  20
ENDBRANCH  18  19
ENDBRANCH  17  18
ENDBRANCH  16  17
ENDBRANCH  15  16
ENDBRANCH   1  15
TORSDOF 22
ENDMDL
MODEL 3
REMARK VINA RESULT:    -4.810      3.331      6.569
REMARK INTER + INTRA:         -14.470
REMARK INTER:                 -10.520
REMARK INTRA:                  -3.950
REMARK UNBOUND:                -3.473
REMARK SMILES CCCCCCCCCCCCCCCCCCCCCCCC(=O)[O-]
REMARK SMILES IDX 13 1 14 2 15 3 16 4 17 5 18 6 19 7 20 8 21 9 22 10 23 11
REMARK SMILES IDX 24 12 25 13 26 14 12 15 11 16 10 17 9 18 8 19 7 20 6 21 5 22
REMARK SMILES IDX 4 23 3 24 2 25 1 26
REMARK H PARENT
REMARK Flexibility Score: inf
ROOT
ATOM      1  C   UNL     1      13.601 -16.469 -14.619  1.00  0.00     0.000 C 
ENDROOT
BRANCH   1   2
ATOM      2  C   UNL     1      14.792 -17.199 -15.260  1.00  0.00     0.000 C 
BRANCH   2   3
ATOM      3  C   UNL     1      14.352 -18.354 -16.179  1.00  0.00     0.000 C 
BRANCH   3   4
ATOM      4  C   UNL     1      12.908 -18.807 -15.902  1.00  0.00     0.000 C 
BRANCH   4   5
ATOM      5  C   UNL     1      12.853 -20.160 -15.171  1.00  0.00     0.000 C 
BRANCH   5   6
ATOM      6  C   UNL     1      11.604 -20.306 -14.288  1.00  0.00     0.000 C 
BRANCH   6   7
ATOM      7  C   UNL     1      11.289 -19.030 -13.487  1.00  0.00     0.000 C 
BRANCH   7   8
ATOM      8  C   UNL     1      11.057 -19.314 -11.994  1.00  0.00     0.000 C 
BRANCH   8   9
ATOM      9  C   UNL     1      11.224 -18.058 -11.120  1.00  0.00     0.000 C 
BRANCH   9  10
ATOM     10  C   UNL     1      11.356 -18.383  -9.621  1.00  0.00     0.006 C 
BRANCH  10  11
ATOM     11  C   UNL     1      11.200 -17.159  -8.701  1.00  0.00     0.053 C 
BRANCH  11  12
ATOM     12  C   UNL     1      12.515 -16.561  -8.303  1.00  0.00     0.041 C 
ATOM     13  O   UNL     1      13.366 -17.250  -7.682  1.00  0.00    -0.550 OA
ATOM     14  O   UNL     1      12.815 -15.248  -8.649  1.00  0.00    -0.550 OA
ENDBRANCH  11  12
ENDBRANCH  10  11
ENDBRANCH   9  10
ENDBRANCH   8   9
ENDBRANCH   7   8
ENDBRANCH   6   7
ENDBRANCH   5   6
ENDBRANCH   4   5
ENDBRANCH   3   4
ENDBRANCH   2   3
ENDBRANCH   1   2
BRANCH   1  15
ATOM     15  C   UNL     1      13.755 -16.304 -13.099  1.00  0.00     0.000 C 
BRANCH  15  16
ATOM     16  C   UNL     1      14.961 -17.075 -12.534  1.00  0.00     0.000 C 
BRANCH  16  17
ATOM     17  C   UNL     1      14.838 -17.404 -11.030  1.00  0.00     0.000 C 
BRANCH  17  18
ATOM     18  C   UNL     1      14.848 -18.919 -10.766  1.00  0.00    -0.000 C 
BRANCH  18  19
ATOM     19  C   UNL     1      14.794 -19.754 -12.057  1.00  0.00    -0.000 C 
BRANCH  19  20
ATOM     20  C   UNL     1      16.037 -20.644 -12.273  1.00  0.00    -0.000 C 
BRANCH  20  21
ATOM     21  C   UNL     1      15.707 -22.141 -12.149  1.00  0.00    -0.000 C 
BRANCH  21  22
ATOM     22  C   UNL     1      14.658 -22.603 -13.173  1.00  0.00    -0.000 C 
BRANCH  22  23
ATOM     23  C   UNL     1      14.980 -23.983 -13.768  1.00  0.00    -0.000 C 
BRANCH  23  24
ATOM     24  C   UNL     1      13.697 -24.806 -13.966  1.00  0.00    -0.000 C 
BRANCH  24  25
ATOM     25  C   UNL     1      12.442 -23.928 -14.078  1.00  0.00    -0.003 C 
ATOM     26  C   UNL     1      11.148 -24.737 -14.019  1.00  0.00     0.004 C 
ENDBRANCH  24  25
ENDBRANCH  23  24
ENDBRANCH  22  23
ENDBRANCH  21  22
ENDBRANCH  20  21
ENDBRANCH  19  20
ENDBRANCH  18  19
ENDBRANCH  17  18
ENDBRANCH  16  17
ENDBRANCH  15  16
ENDBRANCH   1  15
TORSDOF 22
ENDMDL
MODEL 4
REMARK VINA RESULT:    -4.806      1.971      6.118
REMARK INTER + INTRA:         -14.459
REMARK INTER:                 -11.573
REMARK INTRA:                  -2.886
REMARK UNBOUND:                -3.473
REMARK SMILES CCCCCCCCCCCCCCCCCCCCCCCC(=O)[O-]
REMARK SMILES IDX 13 1 14 2 15 3 16 4 17 5 18 6 19 7 20 8 21 9 22 10 23 11
REMARK SMILES IDX 24 12 25 13 26 14 12 15 11 16 10 17 9 18 8 19 7 20 6 21 5 22
REMARK SMILES IDX 4 23 3 24 2 25 1 26
REMARK H PARENT
REMARK Flexibility Score: inf
ROOT
ATOM      1  C   UNL     1      11.499 -19.297 -12.292  1.00  0.00     0.000 C 
ENDROOT
BRANCH   1   2
ATOM      2  C   UNL     1      10.632 -18.771 -11.136  1.00  0.00     0.000 C 
BRANCH   2   3
ATOM      3  C   UNL     1      11.398 -18.713  -9.802  1.00  0.00     0.000 C 
BRANCH   3   4
ATOM      4  C   UNL     1      11.701 -17.270  -9.361  1.00  0.00     0.000 C 
BRANCH   4   5
ATOM      5  C   UNL     1      13.195 -16.926  -9.482  1.00  0.00     0.000 C 
BRANCH   5   6
ATOM      6  C   UNL     1      13.618 -16.616 -10.928  1.00  0.00     0.000 C 
BRANCH   6   7
ATOM      7  C   UNL     1      14.968 -17.253 -11.302  1.00  0.00     0.000 C 
BRANCH   7   8
ATOM      8  C   UNL     1      14.975 -17.821 -12.731  1.00  0.00     0.000 C 
BRANCH   8   9
ATOM      9  C   UNL     1      15.841 -19.087 -12.859  1.00  0.00     0.000 C 
BRANCH   9  10
ATOM     10  C   UNL     1      15.258 -20.116 -13.845  1.00  0.00     0.006 C 
BRANCH  10  11
ATOM     11  C   UNL     1      15.436 -21.579 -13.399  1.00  0.00     0.053 C 
BRANCH  11  12
ATOM     12  C   UNL     1      16.757 -22.153 -13.809  1.00  0.00     0.041 C 
ATOM     13  O   UNL     1      16.849 -22.865 -14.844  1.00  0.00    -0.550 OA
ATOM     14  O   UNL     1      17.898 -21.872 -13.066  1.00  0.00    -0.550 OA
ENDBRANCH  11  12
ENDBRANCH  10  11
ENDBRANCH   9  10
ENDBRANCH   8   9
ENDBRANCH   7   8
ENDBRANCH   6   7
ENDBRANCH   5   6
ENDBRANCH   4   5
ENDBRANCH   3   4
ENDBRANCH   2   3
ENDBRANCH   1   2
BRANCH   1  15
ATOM     15  C   UNL     1      11.470 -18.375 -13.521  1.00  0.00     0.000 C 
BRANCH  15  16
ATOM     16  C   UNL     1      11.013 -19.099 -14.799  1.00  0.00     0.000 C 
BRANCH  16  17
ATOM     17  C   UNL     1      12.169 -19.449 -15.761  1.00  0.00     0.000 C 
BRANCH  17  18
ATOM     18  C   UNL     1      12.379 -20.967 -15.886  1.00  0.00    -0.000 C 
BRANCH  18  19
ATOM     19  C   UNL     1      11.377 -21.783 -15.051  1.00  0.00    -0.000 C 
BRANCH  19  20
ATOM     20  C   UNL     1      12.040 -22.850 -14.154  1.00  0.00    -0.000 C 
BRANCH  20  21
ATOM     21  C   UNL     1      11.168 -24.109 -14.010  1.00  0.00    -0.000 C 
BRANCH  21  22
ATOM     22  C   UNL     1      11.976 -25.409 -14.154  1.00  0.00    -0.000 C 
BRANCH  22  23
ATOM     23  C   UNL     1      13.487 -25.189 -13.979  1.00  0.00    -0.000 C 
BRANCH  23  24
ATOM     24  C   UNL     1      14.227 -26.532 -13.874  1.00  0.00    -0.000 C 
BRANCH  24  25
ATOM     25  C   UNL     1      14.110 -27.373 -15.154  1.00  0.00    -0.003 C 
ATOM     26  C   UNL     1      15.342 -28.241 -15.405  1.00  0.00     0.004 C 
ENDBRANCH  24  25
ENDBRANCH  23  24
ENDBRANCH  22  23
ENDBRANCH  21  22
ENDBRANCH  20  21
ENDBRANCH  19  20
ENDBRANCH  18  19
ENDBRANCH  17  18
ENDBRANCH  16  17
ENDBRANCH  15  16
ENDBRANCH   1  15
TORSDOF 22
ENDMDL
MODEL 5
REMARK VINA RESULT:    -4.777      3.018      7.756
REMARK INTER + INTRA:         -14.394
REMARK INTER:                 -11.641
REMARK INTRA:                  -2.753
REMARK UNBOUND:                -3.473
REMARK SMILES CCCCCCCCCCCCCCCCCCCCCCCC(=O)[O-]
REMARK SMILES IDX 13 1 14 2 15 3 16 4 17 5 18 6 19 7 20 8 21 9 22 10 23 11
REMARK SMILES IDX 24 12 25 13 26 14 12 15 11 16 10 17 9 18 8 19 7 20 6 21 5 22
REMARK SMILES IDX 4 23 3 24 2 25 1 26
REMARK H PARENT
REMARK Flexibility Score: inf
ROOT
ATOM      1  C   UNL     1      12.681 -22.936 -13.776  1.00  0.00     0.000 C 
ENDROOT
BRANCH   1   2
ATOM      2  C   UNL     1      12.585 -21.437 -14.103  1.00  0.00     0.000 C 
BRANCH   2   3
ATOM      3  C   UNL     1      11.639 -21.148 -15.283  1.00  0.00     0.000 C 
BRANCH   3   4
ATOM      4  C   UNL     1      11.677 -19.673 -15.718  1.00  0.00     0.000 C 
BRANCH   4   5
ATOM      5  C   UNL     1      12.442 -19.476 -17.039  1.00  0.00     0.000 C 
BRANCH   5   6
ATOM      6  C   UNL     1      13.758 -18.706 -16.852  1.00  0.00     0.000 C 
BRANCH   6   7
ATOM      7  C   UNL     1      14.046 -18.369 -15.378  1.00  0.00     0.000 C 
BRANCH   7   8
ATOM      8  C   UNL     1      13.988 -16.859 -15.097  1.00  0.00     0.000 C 
BRANCH   8   9
ATOM      9  C   UNL     1      13.628 -16.544 -13.634  1.00  0.00     0.000 C 
BRANCH   9  10
ATOM     10  C   UNL     1      12.437 -17.371 -13.116  1.00  0.00     0.006 C 
BRANCH  10  11
ATOM     11  C   UNL     1      12.789 -18.312 -11.950  1.00  0.00     0.053 C 
BRANCH  11  12
ATOM     12  C   UNL     1      12.493 -17.712 -10.610  1.00  0.00     0.041 C 
ATOM     13  O   UNL     1      13.183 -16.751 -10.177  1.00  0.00    -0.550 OA
ATOM     14  O   UNL     1      11.430 -18.191  -9.853  1.00  0.00    -0.550 OA
ENDBRANCH  11  12
ENDBRANCH  10  11
ENDBRANCH   9  10
ENDBRANCH   8   9
ENDBRANCH   7   8
ENDBRANCH   6   7
ENDBRANCH   5   6
ENDBRANCH   4   5
ENDBRANCH   3   4
ENDBRANCH   2   3
ENDBRANCH   1   2
BRANCH   1  15
ATOM     15  C   UNL     1      11.392 -23.700 -14.114  1.00  0.00     0.000 C 
BRANCH  15  16
ATOM     16  C   UNL     1      11.587 -25.227 -14.116  1.00  0.00     0.000 C 
BRANCH  16  17
ATOM     17  C   UNL     1      13.067 -25.663 -14.047  1.00  0.00     0.000 C 
BRANCH  17  18
ATOM     18  C   UNL     1      13.257 -27.134 -14.455  1.00  0.00    -0.000 C 
BRANCH  18  19
ATOM     19  C   UNL     1      14.608 -27.396 -15.141  1.00  0.00    -0.000 C 
BRANCH  19  20
ATOM     20  C   UNL     1      15.569 -26.189 -15.100  1.00  0.00    -0.000 C 
BRANCH  20  21
ATOM     21  C   UNL     1      16.996 -26.597 -14.692  1.00  0.00    -0.000 C 
BRANCH  21  22
ATOM     22  C   UNL     1      17.030 -27.403 -13.384  1.00  0.00    -0.000 C 
BRANCH  22  23
ATOM     23  C   UNL     1      17.276 -26.519 -12.151  1.00  0.00    -0.000 C 
BRANCH  23  24
ATOM     24  C   UNL     1      15.951 -26.173 -11.452  1.00  0.00    -0.000 C 
BRANCH  24  25
ATOM     25  C   UNL     1      15.899 -24.715 -10.973  1.00  0.00    -0.003 C 
ATOM     26  C   UNL     1      15.775 -23.718 -12.124  1.00  0.00     0.004 C 
ENDBRANCH  24  25
ENDBRANCH  23  24
ENDBRANCH  22  23
ENDBRANCH  21  22
ENDBRANCH  20  21
ENDBRANCH  19  20
ENDBRANCH  18  19
ENDBRANCH  17  18
ENDBRANCH  16  17
ENDBRANCH  15  16
ENDBRANCH   1  15
TORSDOF 22
ENDMDL
MODEL 6
REMARK VINA RESULT:    -4.774      3.791      6.842
REMARK INTER + INTRA:         -14.386
REMARK INTER:                 -11.202
REMARK INTRA:                  -3.184
REMARK UNBOUND:                -3.473
REMARK SMILES CCCCCCCCCCCCCCCCCCCCCCCC(=O)[O-]
REMARK SMILES IDX 13 1 14 2 15 3 16 4 17 5 18 6 19 7 20 8 21 9 22 10 23 11
REMARK SMILES IDX 24 12 25 13 26 14 12 15 11 16 10 17 9 18 8 19 7 20 6 21 5 22
REMARK SMILES IDX 4 23 3 24 2 25 1 26
REMARK H PARENT
REMARK Flexibility Score: inf
ROOT
ATOM      1  C   UNL     1      12.800 -18.644 -11.949  1.00  0.00     0.000 C 
ENDROOT
BRANCH   1   2
ATOM      2  C   UNL     1      13.300 -17.237 -12.314  1.00  0.00     0.000 C 
BRANCH   2   3
ATOM      3  C   UNL     1      14.815 -17.200 -12.587  1.00  0.00     0.000 C 
BRANCH   3   4
ATOM      4  C   UNL     1      15.147 -16.628 -13.975  1.00  0.00     0.000 C 
BRANCH   4   5
ATOM      5  C   UNL     1      14.004 -16.846 -14.982  1.00  0.00     0.000 C 
BRANCH   5   6
ATOM      6  C   UNL     1      14.184 -18.124 -15.816  1.00  0.00     0.000 C 
BRANCH   6   7
ATOM      7  C   UNL     1      12.901 -18.971 -15.889  1.00  0.00     0.000 C 
BRANCH   7   8
ATOM      8  C   UNL     1      13.043 -20.320 -15.165  1.00  0.00     0.000 C 
BRANCH   8   9
ATOM      9  C   UNL     1      11.692 -21.030 -14.967  1.00  0.00     0.000 C 
BRANCH   9  10
ATOM     10  C   UNL     1      11.802 -22.300 -14.103  1.00  0.00     0.006 C 
BRANCH  10  11
ATOM     11  C   UNL     1      13.216 -22.904 -14.056  1.00  0.00     0.053 C 
BRANCH  11  12
ATOM     12  C   UNL     1      13.215 -24.360 -13.706  1.00  0.00     0.041 C 
ATOM     13  O   UNL     1      12.278 -25.107 -14.094  1.00  0.00    -0.550 OA
ATOM     14  O   UNL     1      14.269 -24.902 -12.980  1.00  0.00    -0.550 OA
ENDBRANCH  11  12
ENDBRANCH  10  11
ENDBRANCH   9  10
ENDBRANCH   8   9
ENDBRANCH   7   8
ENDBRANCH   6   7
ENDBRANCH   5   6
ENDBRANCH   4   5
ENDBRANCH   3   4
ENDBRANCH   2   3
ENDBRANCH   1   2
BRANCH   1  15
ATOM     15  C   UNL     1      11.271 -18.770 -12.032  1.00  0.00     0.000 C 
BRANCH  15  16
ATOM     16  C   UNL     1      10.631 -19.169 -10.691  1.00  0.00     0.000 C 
BRANCH  16  17
ATOM     17  C   UNL     1      10.857 -18.137  -9.565  1.00  0.00     0.000 C 
BRANCH  17  18
ATOM     18  C   UNL     1      11.828 -18.655  -8.491  1.00  0.00    -0.000 C 
BRANCH  18  19
ATOM     19  C   UNL     1      13.072 -17.765  -8.327  1.00  0.00    -0.000 C 
BRANCH  19  20
ATOM     20  C   UNL     1      12.781 -16.257  -8.485  1.00  0.00    -0.000 C 
BRANCH  20  21
ATOM     21  C   UNL     1      12.130 -15.657  -7.227  1.00  0.00    -0.000 C 
BRANCH  21  22
ATOM     22  C   UNL     1      10.803 -14.942  -7.531  1.00  0.00    -0.000 C 
BRANCH  22  23
ATOM     23  C   UNL     1       9.590 -15.661  -6.921  1.00  0.00    -0.000 C 
BRANCH  23  24
ATOM     24  C   UNL     1      10.034 -16.675  -5.856  1.00  0.00    -0.000 C 
BRANCH  24  25
ATOM     25  C   UNL     1       9.300 -18.019  -5.976  1.00  0.00    -0.003 C 
ATOM     26  C   UNL     1       8.971 -18.636  -4.618  1.00  0.00     0.004 C 
ENDBRANCH  24  25
ENDBRANCH  23  24
ENDBRANCH  22  23
ENDBRANCH  21  22
ENDBRANCH  20  21
ENDBRANCH  19  20
ENDBRANCH  18  19
ENDBRANCH  17  18
ENDBRANCH  16  17
ENDBRANCH  15  16
ENDBRANCH   1  15
TORSDOF 22
ENDMDL
MODEL 7
REMARK VINA RESULT:    -4.764      2.621      5.829
REMARK INTER + INTRA:         -14.363
REMARK INTER:                 -10.736
REMARK INTRA:                  -3.627
REMARK UNBOUND:                -3.473
REMARK SMILES CCCCCCCCCCCCCCCCCCCCCCCC(=O)[O-]
REMARK SMILES IDX 13 1 14 2 15 3 16 4 17 5 18 6 19 7 20 8 21 9 22 10 23 11
REMARK SMILES IDX 24 12 25 13 26 14 12 15 11 16 10 17 9 18 8 19 7 20 6 21 5 22
REMARK SMILES IDX 4 23 3 24 2 25 1 26
REMARK H PARENT
REMARK Flexibility Score: inf
ROOT
ATOM      1  C   UNL     1      14.118 -18.448 -15.380  1.00  0.00     0.000 C 
ENDROOT
BRANCH   1   2
ATOM      2  C   UNL     1      14.383 -16.936 -15.307  1.00  0.00     0.000 C 
BRANCH   2   3
ATOM      3  C   UNL     1      14.946 -16.499 -13.941  1.00  0.00     0.000 C 
BRANCH   3   4
ATOM      4  C   UNL     1      14.009 -16.866 -12.777  1.00  0.00     0.000 C 
BRANCH   4   5
ATOM      5  C   UNL     1      14.765 -17.003 -11.444  1.00  0.00     0.000 C 
BRANCH   5   6
ATOM      6  C   UNL     1      15.005 -18.468 -11.045  1.00  0.00     0.000 C 
BRANCH   6   7
ATOM      7  C   UNL     1      15.393 -19.353 -12.243  1.00  0.00     0.000 C 
BRANCH   7   8
ATOM      8  C   UNL     1      14.523 -20.617 -12.346  1.00  0.00     0.000 C 
BRANCH   8   9
ATOM      9  C   UNL     1      15.106 -21.658 -13.319  1.00  0.00     0.000 C 
BRANCH   9  10
ATOM     10  C   UNL     1      14.073 -22.170 -14.340  1.00  0.00     0.006 C 
BRANCH  10  11
ATOM     11  C   UNL     1      12.758 -22.658 -13.708  1.00  0.00     0.053 C 
BRANCH  11  12
ATOM     12  C   UNL     1      12.494 -24.110 -13.965  1.00  0.00     0.041 C 
ATOM     13  O   UNL     1      11.393 -24.480 -14.451  1.00  0.00    -0.550 OA
ATOM     14  O   UNL     1      13.480 -25.054 -13.701  1.00  0.00    -0.550 OA
ENDBRANCH  11  12
ENDBRANCH  10  11
ENDBRANCH   9  10
ENDBRANCH   8   9
ENDBRANCH   7   8
ENDBRANCH   6   7
ENDBRANCH   5   6
ENDBRANCH   4   5
ENDBRANCH   3   4
ENDBRANCH   2   3
ENDBRANCH   1   2
BRANCH   1  15
ATOM     15  C   UNL     1      12.881 -18.793 -16.223  1.00  0.00     0.000 C 
BRANCH  15  16
ATOM     16  C   UNL     1      11.779 -19.493 -15.408  1.00  0.00     0.000 C 
BRANCH  16  17
ATOM     17  C   UNL     1      11.215 -18.629 -14.259  1.00  0.00     0.000 C 
BRANCH  17  18
ATOM     18  C   UNL     1      11.358 -19.320 -12.892  1.00  0.00    -0.000 C 
BRANCH  18  19
ATOM     19  C   UNL     1      11.019 -18.393 -11.712  1.00  0.00    -0.000 C 
BRANCH  19  20
ATOM     20  C   UNL     1      10.578 -19.146 -10.439  1.00  0.00    -0.000 C 
BRANCH  20  21
ATOM     21  C   UNL     1      11.519 -18.878  -9.251  1.00  0.00    -0.000 C 
BRANCH  21  22
ATOM     22  C   UNL     1      11.001 -17.766  -8.325  1.00  0.00    -0.000 C 
BRANCH  22  23
ATOM     23  C   UNL     1      12.053 -17.313  -7.300  1.00  0.00    -0.000 C 
BRANCH  23  24
ATOM     24  C   UNL     1      13.258 -16.669  -8.002  1.00  0.00    -0.000 C 
BRANCH  24  25
ATOM     25  C   UNL     1      12.879 -15.407  -8.792  1.00  0.00    -0.003 C 
ATOM     26  C   UNL     1      12.661 -14.191  -7.894  1.00  0.00     0.004 C 
ENDBRANCH  24  25
ENDBRANCH  23  24
ENDBRANCH  22  23
ENDBRANCH  21  22
ENDBRANCH  20  21
ENDBRANCH  19  20
ENDBRANCH  18  19
ENDBRANCH  17  18
ENDBRANCH  16  17
ENDBRANCH  15  16
ENDBRANCH   1  15
TORSDOF 22
ENDMDL
MODEL 8
REMARK VINA RESULT:    -4.745      1.671      4.186
REMARK INTER + INTRA:         -14.322
REMARK INTER:                 -11.860
REMARK INTRA:                  -2.461
REMARK UNBOUND:                -3.473
REMARK SMILES CCCCCCCCCCCCCCCCCCCCCCCC(=O)[O-]
REMARK SMILES IDX 13 1 14 2 15 3 16 4 17 5 18 6 19 7 20 8 21 9 22 10 23 11
REMARK SMILES IDX 24 12 25 13 26 14 12 15 11 16 10 17 9 18 8 19 7 20 6 21 5 22
REMARK SMILES IDX 4 23 3 24 2 25 1 26
REMARK H PARENT
REMARK Flexibility Score: inf
ROOT
ATOM      1  C   UNL     1      12.746 -22.861 -14.110  1.00  0.00     0.000 C 
ENDROOT
BRANCH   1   2
ATOM      2  C   UNL     1      11.340 -23.482 -14.104  1.00  0.00     0.000 C 
BRANCH   2   3
ATOM      3  C   UNL     1      11.373 -25.022 -14.115  1.00  0.00     0.000 C 
BRANCH   3   4
ATOM      4  C   UNL     1      12.808 -25.577 -14.118  1.00  0.00     0.000 C 
BRANCH   4   5
ATOM      5  C   UNL     1      12.852 -27.070 -14.485  1.00  0.00     0.000 C 
BRANCH   5   6
ATOM      6  C   UNL     1      14.180 -27.480 -15.143  1.00  0.00     0.000 C 
BRANCH   6   7
ATOM      7  C   UNL     1      15.148 -28.155 -14.156  1.00  0.00     0.000 C 
BRANCH   7   8
ATOM      8  C   UNL     1      16.602 -27.695 -14.350  1.00  0.00     0.000 C 
BRANCH   8   9
ATOM      9  C   UNL     1      16.894 -26.351 -13.660  1.00  0.00     0.000 C 
BRANCH   9  10
ATOM     10  C   UNL     1      16.048 -26.130 -12.392  1.00  0.00     0.006 C 
BRANCH  10  11
ATOM     11  C   UNL     1      16.877 -25.833 -11.131  1.00  0.00     0.053 C 
BRANCH  11  12
ATOM     12  C   UNL     1      18.268 -26.383 -11.208  1.00  0.00     0.041 C 
ATOM     13  O   UNL     1      19.254 -25.607 -11.319  1.00  0.00    -0.550 OA
ATOM     14  O   UNL     1      18.480 -27.754 -11.120  1.00  0.00    -0.550 OA
ENDBRANCH  11  12
ENDBRANCH  10  11
ENDBRANCH   9  10
ENDBRANCH   8   9
ENDBRANCH   7   8
ENDBRANCH   6   7
ENDBRANCH   5   6
ENDBRANCH   4   5
ENDBRANCH   3   4
ENDBRANCH   2   3
ENDBRANCH   1   2
BRANCH   1  15
ATOM     15  C   UNL     1      12.716 -21.325 -14.136  1.00  0.00     0.000 C 
BRANCH  15  16
ATOM     16  C   UNL     1      11.390 -20.763 -14.678  1.00  0.00     0.000 C 
BRANCH  16  17
ATOM     17  C   UNL     1      11.558 -19.482 -15.524  1.00  0.00     0.000 C 
BRANCH  17  18
ATOM     18  C   UNL     1      12.524 -19.690 -16.703  1.00  0.00    -0.000 C 
BRANCH  18  19
ATOM     19  C   UNL     1      13.611 -18.605 -16.787  1.00  0.00    -0.000 C 
BRANCH  19  20
ATOM     20  C   UNL     1      14.395 -18.410 -15.472  1.00  0.00    -0.000 C 
BRANCH  20  21
ATOM     21  C   UNL     1      14.454 -16.933 -15.045  1.00  0.00    -0.000 C 
BRANCH  21  22
ATOM     22  C   UNL     1      13.310 -16.545 -14.095  1.00  0.00    -0.000 C 
BRANCH  22  23
ATOM     23  C   UNL     1      13.631 -16.853 -12.625  1.00  0.00    -0.000 C 
BRANCH  23  24
ATOM     24  C   UNL     1      12.922 -18.138 -12.167  1.00  0.00    -0.000 C 
BRANCH  24  25
ATOM     25  C   UNL     1      11.392 -18.007 -12.187  1.00  0.00    -0.003 C 
ATOM     26  C   UNL     1      10.708 -18.927 -11.176  1.00  0.00     0.004 C 
ENDBRANCH  24  25
ENDBRANCH  23  24
ENDBRANCH  22  23
ENDBRANCH  21  22
ENDBRANCH  20  21
ENDBRANCH  19  20
ENDBRANCH  18  19
ENDBRANCH  17  18
ENDBRANCH  16  17
ENDBRANCH  15  16
ENDBRANCH   1  15
TORSDOF 22
ENDMDL
MODEL 9
REMARK VINA RESULT:    -4.710      5.491      8.875
REMARK INTER + INTRA:         -14.240
REMARK INTER:                 -10.000
REMARK INTRA:                  -4.240
REMARK UNBOUND:                -3.473
REMARK SMILES CCCCCCCCCCCCCCCCCCCCCCCC(=O)[O-]
REMARK SMILES IDX 13 1 14 2 15 3 16 4 17 5 18 6 19 7 20 8 21 9 22 10 23 11
REMARK SMILES IDX 24 12 25 13 26 14 12 15 11 16 10 17 9 18 8 19 7 20 6 21 5 22
REMARK SMILES IDX 4 23 3 24 2 25 1 26
REMARK H PARENT
REMARK Flexibility Score: inf
ROOT
ATOM      1  C   UNL     1      11.311 -16.990  -8.941  1.00  0.00     0.000 C 
ENDROOT
BRANCH   1   2
ATOM      2  C   UNL     1      12.485 -16.309  -8.219  1.00  0.00     0.000 C 
BRANCH   2   3
ATOM      3  C   UNL     1      12.019 -15.358  -7.100  1.00  0.00     0.000 C 
BRANCH   3   4
ATOM      4  C   UNL     1      10.520 -15.024  -7.200  1.00  0.00     0.000 C 
BRANCH   4   5
ATOM      5  C   UNL     1       9.783 -15.255  -5.870  1.00  0.00     0.000 C 
BRANCH   5   6
ATOM      6  C   UNL     1       8.470 -16.035  -6.046  1.00  0.00     0.000 C 
BRANCH   6   7
ATOM      7  C   UNL     1       8.700 -17.534  -6.306  1.00  0.00     0.000 C 
BRANCH   7   8
ATOM      8  C   UNL     1       9.262 -18.265  -5.075  1.00  0.00     0.000 C 
BRANCH   8   9
ATOM      9  C   UNL     1      10.554 -19.041  -5.388  1.00  0.00     0.000 C 
BRANCH   9  10
ATOM     10  C   UNL     1      11.822 -18.322  -4.889  1.00  0.00     0.006 C 
BRANCH  10  11
ATOM     11  C   UNL     1      13.105 -18.730  -5.633  1.00  0.00     0.053 C 
BRANCH  11  12
ATOM     12  C   UNL     1      14.311 -17.972  -5.170  1.00  0.00     0.041 C 
ATOM     13  O   UNL     1      15.466 -18.440  -5.352  1.00  0.00    -0.550 OA
ATOM     14  O   UNL     1      14.161 -16.728  -4.568  1.00  0.00    -0.550 OA
ENDBRANCH  11  12
ENDBRANCH  10  11
ENDBRANCH   9  10
ENDBRANCH   8   9
ENDBRANCH   7   8
ENDBRANCH   6   7
ENDBRANCH   5   6
ENDBRANCH   4   5
ENDBRANCH   3   4
ENDBRANCH   2   3
ENDBRANCH   1   2
BRANCH   1  15
ATOM     15  C   UNL     1      11.451 -18.519  -8.990  1.00  0.00     0.000 C 
BRANCH  15  16
ATOM     16  C   UNL     1      10.606 -19.161 -10.104  1.00  0.00     0.000 C 
BRANCH  16  17
ATOM     17  C   UNL     1      10.666 -18.398 -11.445  1.00  0.00     0.000 C 
BRANCH  17  18
ATOM     18  C   UNL     1      11.367 -19.214 -12.544  1.00  0.00    -0.000 C 
BRANCH  18  19
ATOM     19  C   UNL     1      11.470 -18.458 -13.880  1.00  0.00    -0.000 C 
BRANCH  19  20
ATOM     20  C   UNL     1      12.683 -18.875 -14.738  1.00  0.00    -0.000 C 
BRANCH  20  21
ATOM     21  C   UNL     1      13.526 -17.666 -15.178  1.00  0.00    -0.000 C 
BRANCH  21  22
ATOM     22  C   UNL     1      13.613 -16.579 -14.094  1.00  0.00    -0.000 C 
BRANCH  22  23
ATOM     23  C   UNL     1      14.722 -16.855 -13.067  1.00  0.00    -0.000 C 
BRANCH  23  24
ATOM     24  C   UNL     1      14.155 -16.866 -11.639  1.00  0.00    -0.000 C 
BRANCH  24  25
ATOM     25  C   UNL     1      14.460 -18.173 -10.891  1.00  0.00    -0.003 C 
ATOM     26  C   UNL     1      15.031 -19.256 -11.804  1.00  0.00     0.004 C 
ENDBRANCH  24  25
ENDBRANCH  23  24
ENDBRANCH  22  23
ENDBRANCH  21  22
ENDBRANCH  20  21
ENDBRANCH  19  20
ENDBRANCH  18  19
ENDBRANCH  17  18
ENDBRANCH  16  17
ENDBRANCH  15  16
ENDBRANCH   1  15
TORSDOF 22
ENDMDL
