MODEL 1
REMARK VINA RESULT:    -4.241      0.000      0.000
REMARK INTER + INTRA:         -12.050
REMARK INTER:                  -9.199
REMARK INTRA:                  -2.851
REMARK UNBOUND:                -2.851
REMARK SMILES CCCCCCCCCCCCCCCCCCCCCC(=O)[O-]
REMARK SMILES IDX 12 1 11 2 10 3 9 4 8 5 7 6 6 7 5 8 4 9 3 10 2 11 1 12 13 13
REMARK SMILES IDX 14 14 15 15 16 16 17 17 18 18 19 19 20 20 21 21 22 22 23 23
REMARK SMILES IDX 24 24
REMARK H PARENT
REMARK Flexibility Score: inf
ROOT
ATOM      1  C   UNL     1     182.974 189.927 197.424  1.00  0.00     0.000 C 
ENDROOT
BRANCH   1   2
ATOM      2  C   UNL     1     183.652 190.958 198.353  1.00  0.00     0.000 C 
BRANCH   2   3
ATOM      3  C   UNL     1     183.044 192.371 198.263  1.00  0.00     0.000 C 
BRANCH   3   4
ATOM      4  C   UNL     1     182.175 192.779 199.466  1.00  0.00    -0.000 C 
BRANCH   4   5
ATOM      5  C   UNL     1     181.222 193.966 199.214  1.00  0.00    -0.000 C 
BRANCH   5   6
ATOM      6  C   UNL     1     179.826 193.587 198.688  1.00  0.00    -0.000 C 
BRANCH   6   7
ATOM      7  C   UNL     1     179.472 194.291 197.366  1.00  0.00    -0.000 C 
BRANCH   7   8
ATOM      8  C   UNL     1     180.371 193.840 196.202  1.00  0.00    -0.000 C 
BRANCH   8   9
ATOM      9  C   UNL     1     181.104 195.018 195.538  1.00  0.00    -0.000 C 
BRANCH   9  10
ATOM     10  C   UNL     1     180.217 195.787 194.542  1.00  0.00    -0.000 C 
BRANCH  10  11
ATOM     11  C   UNL     1     180.919 196.944 193.806  1.00  0.00    -0.003 C 
ATOM     12  C   UNL     1     182.327 196.585 193.335  1.00  0.00     0.004 C 
ENDBRANCH  10  11
ENDBRANCH   9  10
ENDBRANCH   8   9
ENDBRANCH   7   8
ENDBRANCH   6   7
ENDBRANCH   5   6
ENDBRANCH   4   5
ENDBRANCH   3   4
ENDBRANCH   2   3
ENDBRANCH   1   2
BRANCH   1  13
ATOM     13  C   UNL     1     181.757 190.512 196.688  1.00  0.00     0.000 C 
BRANCH  13  14
ATOM     14  C   UNL     1     180.430 190.190 197.395  1.00  0.00     0.000 C 
BRANCH  14  15
ATOM     15  C   UNL     1     180.548 188.998 198.361  1.00  0.00     0.000 C 
BRANCH  15  16
ATOM     16  C   UNL     1     180.544 189.426 199.839  1.00  0.00     0.000 C 
BRANCH  16  17
ATOM     17  C   UNL     1     181.139 188.390 200.814  1.00  0.00     0.000 C 
BRANCH  17  18
ATOM     18  C   UNL     1     181.394 186.996 200.208  1.00  0.00     0.000 C 
BRANCH  18  19
ATOM     19  C   UNL     1     182.809 186.430 200.442  1.00  0.00     0.000 C 
BRANCH  19  20
ATOM     20  C   UNL     1     183.863 186.872 199.410  1.00  0.00     0.006 C 
BRANCH  20  21
ATOM     21  C   UNL     1     184.855 187.898 199.973  1.00  0.00     0.053 C 
BRANCH  21  22
ATOM     22  C   UNL     1     186.175 187.781 199.280  1.00  0.00     0.041 C 
ATOM     23  O   UNL     1     186.247 187.900 198.028  1.00  0.00    -0.550 OA
ATOM     24  O   UNL     1     187.318 187.484 200.009  1.00  0.00    -0.550 OA
ENDBRANCH  21  22
ENDBRANCH  20  21
ENDBRANCH  19  20
ENDBRANCH  18  19
ENDBRANCH  17  18
ENDBRANCH  16  17
ENDBRANCH  15  16
ENDBRANCH  14  15
ENDBRANCH  13  14
ENDBRANCH   1  13
TORSDOF 20
ENDMDL
MODEL 2
REMARK VINA RESULT:    -4.230      5.339      9.331
REMARK INTER + INTRA:         -12.028
REMARK INTER:                  -9.383
REMARK INTRA:                  -2.644
REMARK UNBOUND:                -2.851
REMARK SMILES CCCCCCCCCCCCCCCCCCCCCC(=O)[O-]
REMARK SMILES IDX 12 1 11 2 10 3 9 4 8 5 7 6 6 7 5 8 4 9 3 10 2 11 1 12 13 13
REMARK SMILES IDX 14 14 15 15 16 16 17 17 18 18 19 19 20 20 21 21 22 22 23 23
REMARK SMILES IDX 24 24
REMARK H PARENT
REMARK Flexibility Score: inf
ROOT
ATOM      1  C   UNL     1     184.322 188.376 197.435  1.00  0.00     0.000 C 
ENDROOT
BRANCH   1   2
ATOM      2  C   UNL     1     183.529 188.486 198.756  1.00  0.00     0.000 C 
BRANCH   2   3
ATOM      3  C   UNL     1     182.707 187.227 199.094  1.00  0.00     0.000 C 
BRANCH   3   4
ATOM      4  C   UNL     1     183.287 186.358 200.224  1.00  0.00    -0.000 C 
BRANCH   4   5
ATOM      5  C   UNL     1     183.943 185.039 199.766  1.00  0.00    -0.000 C 
BRANCH   5   6
ATOM      6  C   UNL     1     185.380 184.810 200.269  1.00  0.00    -0.000 C 
BRANCH   6   7
ATOM      7  C   UNL     1     185.535 183.503 201.066  1.00  0.00    -0.000 C 
BRANCH   7   8
ATOM      8  C   UNL     1     184.339 183.237 201.995  1.00  0.00    -0.000 C 
BRANCH   8   9
ATOM      9  C   UNL     1     183.701 181.858 201.748  1.00  0.00    -0.000 C 
BRANCH   9  10
ATOM     10  C   UNL     1     182.164 181.914 201.681  1.00  0.00    -0.000 C 
BRANCH  10  11
ATOM     11  C   UNL     1     181.554 183.305 201.931  1.00  0.00    -0.003 C 
ATOM     12  C   UNL     1     180.602 183.748 200.820  1.00  0.00     0.004 C 
ENDBRANCH  10  11
ENDBRANCH   9  10
ENDBRANCH   8   9
ENDBRANCH   7   8
ENDBRANCH   6   7
ENDBRANCH   5   6
ENDBRANCH   4   5
ENDBRANCH   3   4
ENDBRANCH   2   3
ENDBRANCH   1   2
BRANCH   1  13
ATOM     13  C   UNL     1     185.643 187.606 197.606  1.00  0.00     0.000 C 
BRANCH  13  14
ATOM     14  C   UNL     1     186.725 188.441 198.309  1.00  0.00     0.000 C 
BRANCH  14  15
ATOM     15  C   UNL     1     187.118 187.866 199.681  1.00  0.00     0.000 C 
BRANCH  15  16
ATOM     16  C   UNL     1     186.437 188.597 200.851  1.00  0.00     0.000 C 
BRANCH  16  17
ATOM     17  C   UNL     1     187.405 189.264 201.849  1.00  0.00     0.000 C 
BRANCH  17  18
ATOM     18  C   UNL     1     188.575 190.034 201.206  1.00  0.00     0.000 C 
BRANCH  18  19
ATOM     19  C   UNL     1     189.954 189.357 201.336  1.00  0.00     0.000 C 
BRANCH  19  20
ATOM     20  C   UNL     1     191.024 189.869 200.355  1.00  0.00     0.006 C 
BRANCH  20  21
ATOM     21  C   UNL     1     190.850 189.310 198.937  1.00  0.00     0.053 C 
BRANCH  21  22
ATOM     22  C   UNL     1     192.133 189.411 198.177  1.00  0.00     0.041 C 
ATOM     23  O   UNL     1     192.887 188.408 198.068  1.00  0.00    -0.550 OA
ATOM     24  O   UNL     1     192.526 190.627 197.635  1.00  0.00    -0.550 OA
ENDBRANCH  21  22
ENDBRANCH  20  21
ENDBRANCH  19  20
ENDBRANCH  18  19
ENDBRANCH  17  18
ENDBRANCH  16  17
ENDBRANCH  15  16
ENDBRANCH  14  15
ENDBRANCH  13  14
ENDBRANCH   1  13
TORSDOF 20
ENDMDL
MODEL 3
REMARK VINA RESULT:    -4.088     11.162     15.456
REMARK INTER + INTRA:         -11.720
REMARK INTER:                  -8.909
REMARK INTRA:                  -2.810
REMARK UNBOUND:                -2.851
REMARK SMILES CCCCCCCCCCCCCCCCCCCCCC(=O)[O-]
REMARK SMILES IDX 12 1 11 2 10 3 9 4 8 5 7 6 6 7 5 8 4 9 3 10 2 11 1 12 13 13
REMARK SMILES IDX 14 14 15 15 16 16 17 17 18 18 19 19 20 20 21 21 22 22 23 23
REMARK SMILES IDX 24 24
REMARK H PARENT
REMARK Flexibility Score: inf
ROOT
ATOM      1  C   UNL     1     192.008 190.462 200.115  1.00  0.00     0.000 C 
ENDROOT
BRANCH   1   2
ATOM      2  C   UNL     1     192.032 190.283 198.581  1.00  0.00     0.000 C 
BRANCH   2   3
ATOM      3  C   UNL     1     193.236 190.958 197.895  1.00  0.00     0.000 C 
BRANCH   3   4
ATOM      4  C   UNL     1     194.246 189.987 197.257  1.00  0.00    -0.000 C 
BRANCH   4   5
ATOM      5  C   UNL     1     194.187 188.538 197.785  1.00  0.00    -0.000 C 
BRANCH   5   6
ATOM      6  C   UNL     1     195.474 187.716 197.593  1.00  0.00    -0.000 C 
BRANCH   6   7
ATOM      7  C   UNL     1     195.802 186.824 198.803  1.00  0.00    -0.000 C 
BRANCH   7   8
ATOM      8  C   UNL     1     197.315 186.627 198.995  1.00  0.00    -0.000 C 
BRANCH   8   9
ATOM      9  C   UNL     1     197.732 185.152 198.874  1.00  0.00    -0.000 C 
BRANCH   9  10
ATOM     10  C   UNL     1     197.663 184.400 200.216  1.00  0.00    -0.000 C 
BRANCH  10  11
ATOM     11  C   UNL     1     196.344 183.648 200.472  1.00  0.00    -0.003 C 
ATOM     12  C   UNL     1     196.308 182.950 201.831  1.00  0.00     0.004 C 
ENDBRANCH  10  11
ENDBRANCH   9  10
ENDBRANCH   8   9
ENDBRANCH   7   8
ENDBRANCH   6   7
ENDBRANCH   5   6
ENDBRANCH   4   5
ENDBRANCH   3   4
ENDBRANCH   2   3
ENDBRANCH   1   2
BRANCH   1  13
ATOM     13  C   UNL     1     193.398 190.781 200.690  1.00  0.00     0.000 C 
BRANCH  13  14
ATOM     14  C   UNL     1     194.110 189.534 201.239  1.00  0.00     0.000 C 
BRANCH  14  15
ATOM     15  C   UNL     1     195.600 189.784 201.532  1.00  0.00     0.000 C 
BRANCH  15  16
ATOM     16  C   UNL     1     196.389 190.215 200.283  1.00  0.00     0.000 C 
BRANCH  16  17
ATOM     17  C   UNL     1     197.225 191.499 200.457  1.00  0.00     0.000 C 
BRANCH  17  18
ATOM     18  C   UNL     1     196.820 192.385 201.652  1.00  0.00     0.000 C 
BRANCH  18  19
ATOM     19  C   UNL     1     196.053 193.670 201.283  1.00  0.00     0.000 C 
BRANCH  19  20
ATOM     20  C   UNL     1     195.391 193.655 199.893  1.00  0.00     0.006 C 
BRANCH  20  21
ATOM     21  C   UNL     1     194.430 194.831 199.677  1.00  0.00     0.053 C 
BRANCH  21  22
ATOM     22  C   UNL     1     195.091 196.118 200.055  1.00  0.00     0.041 C 
ATOM     23  O   UNL     1     196.135 196.494 199.460  1.00  0.00    -0.550 OA
ATOM     24  O   UNL     1     194.587 196.877 201.103  1.00  0.00    -0.550 OA
ENDBRANCH  21  22
ENDBRANCH  20  21
ENDBRANCH  19  20
ENDBRANCH  18  19
ENDBRANCH  17  18
ENDBRANCH  16  17
ENDBRANCH  15  16
ENDBRANCH  14  15
ENDBRANCH  13  14
ENDBRANCH   1  13
TORSDOF 20
ENDMDL
MODEL 4
REMARK VINA RESULT:    -4.028      3.037      5.295
REMARK INTER + INTRA:         -11.589
REMARK INTER:                  -8.527
REMARK INTRA:                  -3.063
REMARK UNBOUND:                -2.851
REMARK SMILES CCCCCCCCCCCCCCCCCCCCCC(=O)[O-]
REMARK SMILES IDX 12 1 11 2 10 3 9 4 8 5 7 6 6 7 5 8 4 9 3 10 2 11 1 12 13 13
REMARK SMILES IDX 14 14 15 15 16 16 17 17 18 18 19 19 20 20 21 21 22 22 23 23
REMARK SMILES IDX 24 24
REMARK H PARENT
REMARK Flexibility Score: inf
ROOT
ATOM      1  C   UNL     1     184.083 188.486 197.631  1.00  0.00     0.000 C 
ENDROOT
BRANCH   1   2
ATOM      2  C   UNL     1     184.316 189.649 198.620  1.00  0.00     0.000 C 
BRANCH   2   3
ATOM      3  C   UNL     1     183.507 189.526 199.925  1.00  0.00     0.000 C 
BRANCH   3   4
ATOM      4  C   UNL     1     182.292 188.584 199.848  1.00  0.00    -0.000 C 
BRANCH   4   5
ATOM      5  C   UNL     1     181.012 189.107 200.534  1.00  0.00    -0.000 C 
BRANCH   5   6
ATOM      6  C   UNL     1     179.968 189.730 199.589  1.00  0.00    -0.000 C 
BRANCH   6   7
ATOM      7  C   UNL     1     180.252 189.436 198.105  1.00  0.00    -0.000 C 
BRANCH   7   8
ATOM      8  C   UNL     1     180.175 190.699 197.232  1.00  0.00    -0.000 C 
BRANCH   8   9
ATOM      9  C   UNL     1     181.526 191.044 196.581  1.00  0.00    -0.000 C 
BRANCH   9  10
ATOM     10  C   UNL     1     182.305 192.121 197.357  1.00  0.00    -0.000 C 
BRANCH  10  11
ATOM     11  C   UNL     1     181.446 193.006 198.279  1.00  0.00    -0.003 C 
ATOM     12  C   UNL     1     181.854 192.912 199.748  1.00  0.00     0.004 C 
ENDBRANCH  10  11
ENDBRANCH   9  10
ENDBRANCH   8   9
ENDBRANCH   7   8
ENDBRANCH   6   7
ENDBRANCH   5   6
ENDBRANCH   4   5
ENDBRANCH   3   4
ENDBRANCH   2   3
ENDBRANCH   1   2
BRANCH   1  13
ATOM     13  C   UNL     1     185.274 187.514 197.577  1.00  0.00     0.000 C 
BRANCH  13  14
ATOM     14  C   UNL     1     185.710 187.038 198.972  1.00  0.00     0.000 C 
BRANCH  14  15
ATOM     15  C   UNL     1     184.952 185.779 199.431  1.00  0.00     0.000 C 
BRANCH  15  16
ATOM     16  C   UNL     1     184.628 184.822 198.271  1.00  0.00     0.000 C 
BRANCH  16  17
ATOM     17  C   UNL     1     184.673 183.324 198.636  1.00  0.00     0.000 C 
BRANCH  17  18
ATOM     18  C   UNL     1     184.589 183.017 200.144  1.00  0.00     0.000 C 
BRANCH  18  19
ATOM     19  C   UNL     1     183.758 181.772 200.513  1.00  0.00     0.000 C 
BRANCH  19  20
ATOM     20  C   UNL     1     182.456 182.065 201.281  1.00  0.00     0.006 C 
BRANCH  20  21
ATOM     21  C   UNL     1     181.581 183.119 200.592  1.00  0.00     0.053 C 
BRANCH  21  22
ATOM     22  C   UNL     1     181.309 184.258 201.521  1.00  0.00     0.041 C 
ATOM     23  O   UNL     1     180.207 184.335 202.125  1.00  0.00    -0.550 OA
ATOM     24  O   UNL     1     182.250 185.266 201.678  1.00  0.00    -0.550 OA
ENDBRANCH  21  22
ENDBRANCH  20  21
ENDBRANCH  19  20
ENDBRANCH  18  19
ENDBRANCH  17  18
ENDBRANCH  16  17
ENDBRANCH  15  16
ENDBRANCH  14  15
ENDBRANCH  13  14
ENDBRANCH   1  13
TORSDOF 20
ENDMDL
MODEL 5
REMARK VINA RESULT:    -4.002      3.756      8.747
REMARK INTER + INTRA:         -11.531
REMARK INTER:                  -8.553
REMARK INTRA:                  -2.978
REMARK UNBOUND:                -2.851
REMARK SMILES CCCCCCCCCCCCCCCCCCCCCC(=O)[O-]
REMARK SMILES IDX 12 1 11 2 10 3 9 4 8 5 7 6 6 7 5 8 4 9 3 10 2 11 1 12 13 13
REMARK SMILES IDX 14 14 15 15 16 16 17 17 18 18 19 19 20 20 21 21 22 22 23 23
REMARK SMILES IDX 24 24
REMARK H PARENT
REMARK Flexibility Score: inf
ROOT
ATOM      1  C   UNL     1     184.739 186.549 198.871  1.00  0.00     0.000 C 
ENDROOT
BRANCH   1   2
ATOM      2  C   UNL     1     183.477 186.298 199.725  1.00  0.00     0.000 C 
BRANCH   2   3
ATOM      3  C   UNL     1     182.296 187.222 199.376  1.00  0.00     0.000 C 
BRANCH   3   4
ATOM      4  C   UNL     1     181.679 187.966 200.574  1.00  0.00    -0.000 C 
BRANCH   4   5
ATOM      5  C   UNL     1     181.351 187.082 201.796  1.00  0.00    -0.000 C 
BRANCH   5   6
ATOM      6  C   UNL     1     180.132 186.157 201.630  1.00  0.00    -0.000 C 
BRANCH   6   7
ATOM      7  C   UNL     1     180.394 184.724 202.125  1.00  0.00    -0.000 C 
BRANCH   7   8
ATOM      8  C   UNL     1     180.541 183.721 200.969  1.00  0.00    -0.000 C 
BRANCH   8   9
ATOM      9  C   UNL     1     182.012 183.386 200.669  1.00  0.00    -0.000 C 
BRANCH   9  10
ATOM     10  C   UNL     1     182.831 183.100 201.941  1.00  0.00    -0.000 C 
BRANCH  10  11
ATOM     11  C   UNL     1     184.344 183.350 201.809  1.00  0.00    -0.003 C 
ATOM     12  C   UNL     1     184.894 182.974 200.434  1.00  0.00     0.004 C 
ENDBRANCH  10  11
ENDBRANCH   9  10
ENDBRANCH   8   9
ENDBRANCH   7   8
ENDBRANCH   6   7
ENDBRANCH   5   6
ENDBRANCH   4   5
ENDBRANCH   3   4
ENDBRANCH   2   3
ENDBRANCH   1   2
BRANCH   1  13
ATOM     13  C   UNL     1     185.962 186.923 199.726  1.00  0.00     0.000 C 
BRANCH  13  14
ATOM     14  C   UNL     1     185.702 188.140 200.627  1.00  0.00     0.000 C 
BRANCH  14  15
ATOM     15  C   UNL     1     186.594 189.342 200.271  1.00  0.00     0.000 C 
BRANCH  15  16
ATOM     16  C   UNL     1     186.856 189.462 198.759  1.00  0.00     0.000 C 
BRANCH  16  17
ATOM     17  C   UNL     1     185.988 190.510 198.033  1.00  0.00     0.000 C 
BRANCH  17  18
ATOM     18  C   UNL     1     184.501 190.133 197.882  1.00  0.00     0.000 C 
BRANCH  18  19
ATOM     19  C   UNL     1     183.503 191.263 198.203  1.00  0.00     0.000 C 
BRANCH  19  20
ATOM     20  C   UNL     1     182.840 191.169 199.590  1.00  0.00     0.006 C 
BRANCH  20  21
ATOM     21  C   UNL     1     181.404 191.707 199.602  1.00  0.00     0.053 C 
BRANCH  21  22
ATOM     22  C   UNL     1     181.409 193.203 199.563  1.00  0.00     0.041 C 
ATOM     23  O   UNL     1     182.153 193.855 200.341  1.00  0.00    -0.550 OA
ATOM     24  O   UNL     1     180.551 193.877 198.705  1.00  0.00    -0.550 OA
ENDBRANCH  21  22
ENDBRANCH  20  21
ENDBRANCH  19  20
ENDBRANCH  18  19
ENDBRANCH  17  18
ENDBRANCH  16  17
ENDBRANCH  15  16
ENDBRANCH  14  15
ENDBRANCH  13  14
ENDBRANCH   1  13
TORSDOF 20
ENDMDL
MODEL 6
REMARK VINA RESULT:    -3.970     11.785     15.877
REMARK INTER + INTRA:         -11.463
REMARK INTER:                  -8.764
REMARK INTRA:                  -2.699
REMARK UNBOUND:                -2.851
REMARK SMILES CCCCCCCCCCCCCCCCCCCCCC(=O)[O-]
REMARK SMILES IDX 12 1 11 2 10 3 9 4 8 5 7 6 6 7 5 8 4 9 3 10 2 11 1 12 13 13
REMARK SMILES IDX 14 14 15 15 16 16 17 17 18 18 19 19 20 20 21 21 22 22 23 23
REMARK SMILES IDX 24 24
REMARK H PARENT
REMARK Flexibility Score: inf
ROOT
ATOM      1  C   UNL     1     192.840 189.194 199.345  1.00  0.00     0.000 C 
ENDROOT
BRANCH   1   2
ATOM      2  C   UNL     1     193.339 188.630 197.996  1.00  0.00     0.000 C 
BRANCH   2   3
ATOM      3  C   UNL     1     194.717 189.170 197.568  1.00  0.00     0.000 C 
BRANCH   3   4
ATOM      4  C   UNL     1     195.874 188.162 197.691  1.00  0.00    -0.000 C 
BRANCH   4   5
ATOM      5  C   UNL     1     195.542 186.875 198.475  1.00  0.00    -0.000 C 
BRANCH   5   6
ATOM      6  C   UNL     1     196.497 186.549 199.637  1.00  0.00    -0.000 C 
BRANCH   6   7
ATOM      7  C   UNL     1     197.334 185.283 199.388  1.00  0.00    -0.000 C 
BRANCH   7   8
ATOM      8  C   UNL     1     198.793 185.606 199.024  1.00  0.00    -0.000 C 
BRANCH   8   9
ATOM      9  C   UNL     1     198.986 185.816 197.512  1.00  0.00    -0.000 C 
BRANCH   9  10
ATOM     10  C   UNL     1     198.644 184.563 196.687  1.00  0.00    -0.000 C 
BRANCH  10  11
ATOM     11  C   UNL     1     197.390 184.690 195.802  1.00  0.00    -0.003 C 
ATOM     12  C   UNL     1     197.146 183.459 194.931  1.00  0.00     0.004 C 
ENDBRANCH  10  11
ENDBRANCH   9  10
ENDBRANCH   8   9
ENDBRANCH   7   8
ENDBRANCH   6   7
ENDBRANCH   5   6
ENDBRANCH   4   5
ENDBRANCH   3   4
ENDBRANCH   2   3
ENDBRANCH   1   2
BRANCH   1  13
ATOM     13  C   UNL     1     193.848 190.165 199.983  1.00  0.00     0.000 C 
BRANCH  13  14
ATOM     14  C   UNL     1     194.245 189.750 201.409  1.00  0.00     0.000 C 
BRANCH  14  15
ATOM     15  C   UNL     1     195.517 190.463 201.900  1.00  0.00     0.000 C 
BRANCH  15  16
ATOM     16  C   UNL     1     196.773 190.050 201.113  1.00  0.00     0.000 C 
BRANCH  16  17
ATOM     17  C   UNL     1     198.057 190.814 201.496  1.00  0.00     0.000 C 
BRANCH  17  18
ATOM     18  C   UNL     1     197.831 192.240 202.035  1.00  0.00     0.000 C 
BRANCH  18  19
ATOM     19  C   UNL     1     197.726 193.338 200.958  1.00  0.00     0.000 C 
BRANCH  19  20
ATOM     20  C   UNL     1     196.435 194.177 201.011  1.00  0.00     0.006 C 
BRANCH  20  21
ATOM     21  C   UNL     1     195.450 193.827 199.889  1.00  0.00     0.053 C 
BRANCH  21  22
ATOM     22  C   UNL     1     194.054 194.173 200.295  1.00  0.00     0.041 C 
ATOM     23  O   UNL     1     193.391 193.388 201.023  1.00  0.00    -0.550 OA
ATOM     24  O   UNL     1     193.462 195.338 199.825  1.00  0.00    -0.550 OA
ENDBRANCH  21  22
ENDBRANCH  20  21
ENDBRANCH  19  20
ENDBRANCH  18  19
ENDBRANCH  17  18
ENDBRANCH  16  17
ENDBRANCH  15  16
ENDBRANCH  14  15
ENDBRANCH  13  14
ENDBRANCH   1  13
TORSDOF 20
ENDMDL
MODEL 7
REMARK VINA RESULT:    -3.955      7.589     11.377
REMARK INTER + INTRA:         -11.430
REMARK INTER:                  -8.609
REMARK INTRA:                  -2.821
REMARK UNBOUND:                -2.851
REMARK SMILES CCCCCCCCCCCCCCCCCCCCCC(=O)[O-]
REMARK SMILES IDX 12 1 11 2 10 3 9 4 8 5 7 6 6 7 5 8 4 9 3 10 2 11 1 12 13 13
REMARK SMILES IDX 14 14 15 15 16 16 17 17 18 18 19 19 20 20 21 21 22 22 23 23
REMARK SMILES IDX 24 24
REMARK H PARENT
REMARK Flexibility Score: inf
ROOT
ATOM      1  C   UNL     1     192.358 190.266 198.018  1.00  0.00     0.000 C 
ENDROOT
BRANCH   1   2
ATOM      2  C   UNL     1     192.289 189.078 199.003  1.00  0.00     0.000 C 
BRANCH   2   3
ATOM      3  C   UNL     1     191.799 189.466 200.411  1.00  0.00     0.000 C 
BRANCH   3   4
ATOM      4  C   UNL     1     190.703 190.547 200.441  1.00  0.00    -0.000 C 
BRANCH   4   5
ATOM      5  C   UNL     1     189.485 190.221 201.331  1.00  0.00    -0.000 C 
BRANCH   5   6
ATOM      6  C   UNL     1     188.674 188.984 200.905  1.00  0.00    -0.000 C 
BRANCH   6   7
ATOM      7  C   UNL     1     188.244 189.027 199.429  1.00  0.00    -0.000 C 
BRANCH   7   8
ATOM      8  C   UNL     1     187.152 190.078 199.166  1.00  0.00    -0.000 C 
BRANCH   8   9
ATOM      9  C   UNL     1     185.735 189.495 199.298  1.00  0.00    -0.000 C 
BRANCH   9  10
ATOM     10  C   UNL     1     184.898 189.663 198.017  1.00  0.00    -0.000 C 
BRANCH  10  11
ATOM     11  C   UNL     1     184.510 188.348 197.317  1.00  0.00    -0.003 C 
ATOM     12  C   UNL     1     185.627 187.306 197.344  1.00  0.00     0.004 C 
ENDBRANCH  10  11
ENDBRANCH   9  10
ENDBRANCH   8   9
ENDBRANCH   7   8
ENDBRANCH   6   7
ENDBRANCH   5   6
ENDBRANCH   4   5
ENDBRANCH   3   4
ENDBRANCH   2   3
ENDBRANCH   1   2
BRANCH   1  13
ATOM     13  C   UNL     1     193.792 190.546 197.537  1.00  0.00     0.000 C 
BRANCH  13  14
ATOM     14  C   UNL     1     194.640 189.268 197.435  1.00  0.00     0.000 C 
BRANCH  14  15
ATOM     15  C   UNL     1     195.917 189.335 198.291  1.00  0.00     0.000 C 
BRANCH  15  16
ATOM     16  C   UNL     1     195.847 188.436 199.538  1.00  0.00     0.000 C 
BRANCH  16  17
ATOM     17  C   UNL     1     195.643 189.189 200.868  1.00  0.00     0.000 C 
BRANCH  17  18
ATOM     18  C   UNL     1     196.023 190.682 200.837  1.00  0.00     0.000 C 
BRANCH  18  19
ATOM     19  C   UNL     1     194.835 191.662 200.900  1.00  0.00     0.000 C 
BRANCH  19  20
ATOM     20  C   UNL     1     195.017 192.957 200.086  1.00  0.00     0.006 C 
BRANCH  20  21
ATOM     21  C   UNL     1     193.687 193.649 199.763  1.00  0.00     0.053 C 
BRANCH  21  22
ATOM     22  C   UNL     1     193.929 195.053 199.308  1.00  0.00     0.041 C 
ATOM     23  O   UNL     1     193.841 195.348 198.087  1.00  0.00    -0.550 OA
ATOM     24  O   UNL     1     194.307 196.025 200.224  1.00  0.00    -0.550 OA
ENDBRANCH  21  22
ENDBRANCH  20  21
ENDBRANCH  19  20
ENDBRANCH  18  19
ENDBRANCH  17  18
ENDBRANCH  16  17
ENDBRANCH  15  16
ENDBRANCH  14  15
ENDBRANCH  13  14
ENDBRANCH   1  13
TORSDOF 20
ENDMDL
MODEL 8
REMARK VINA RESULT:    -3.874      3.527      8.790
REMARK INTER + INTRA:         -11.255
REMARK INTER:                  -8.456
REMARK INTRA:                  -2.799
REMARK UNBOUND:                -2.851
REMARK SMILES CCCCCCCCCCCCCCCCCCCCCC(=O)[O-]
REMARK SMILES IDX 12 1 11 2 10 3 9 4 8 5 7 6 6 7 5 8 4 9 3 10 2 11 1 12 13 13
REMARK SMILES IDX 14 14 15 15 16 16 17 17 18 18 19 19 20 20 21 21 22 22 23 23
REMARK SMILES IDX 24 24
REMARK H PARENT
REMARK Flexibility Score: inf
ROOT
ATOM      1  C   UNL     1     184.621 190.230 198.044  1.00  0.00     0.000 C 
ENDROOT
BRANCH   1   2
ATOM      2  C   UNL     1     186.062 189.780 198.370  1.00  0.00     0.000 C 
BRANCH   2   3
ATOM      3  C   UNL     1     186.301 188.271 198.174  1.00  0.00     0.000 C 
BRANCH   3   4
ATOM      4  C   UNL     1     186.605 187.490 199.466  1.00  0.00    -0.000 C 
BRANCH   4   5
ATOM      5  C   UNL     1     185.605 186.365 199.803  1.00  0.00    -0.000 C 
BRANCH   5   6
ATOM      6  C   UNL     1     184.829 185.795 198.603  1.00  0.00    -0.000 C 
BRANCH   6   7
ATOM      7  C   UNL     1     184.484 184.304 198.765  1.00  0.00    -0.000 C 
BRANCH   7   8
ATOM      8  C   UNL     1     185.096 183.695 200.037  1.00  0.00    -0.000 C 
BRANCH   8   9
ATOM      9  C   UNL     1     184.030 183.336 201.086  1.00  0.00    -0.000 C 
BRANCH   9  10
ATOM     10  C   UNL     1     184.048 181.846 201.470  1.00  0.00    -0.000 C 
BRANCH  10  11
ATOM     11  C   UNL     1     182.766 181.068 201.119  1.00  0.00    -0.003 C 
ATOM     12  C   UNL     1     181.624 181.975 200.665  1.00  0.00     0.004 C 
ENDBRANCH  10  11
ENDBRANCH   9  10
ENDBRANCH   8   9
ENDBRANCH   7   8
ENDBRANCH   6   7
ENDBRANCH   5   6
ENDBRANCH   4   5
ENDBRANCH   3   4
ENDBRANCH   2   3
ENDBRANCH   1   2
BRANCH   1  13
ATOM     13  C   UNL     1     183.563 189.264 198.605  1.00  0.00     0.000 C 
BRANCH  13  14
ATOM     14  C   UNL     1     183.398 189.390 200.128  1.00  0.00     0.000 C 
BRANCH  14  15
ATOM     15  C   UNL     1     182.592 188.228 200.734  1.00  0.00     0.000 C 
BRANCH  15  16
ATOM     16  C   UNL     1     181.714 187.506 199.696  1.00  0.00     0.000 C 
BRANCH  16  17
ATOM     17  C   UNL     1     180.196 187.638 199.929  1.00  0.00     0.000 C 
BRANCH  17  18
ATOM     18  C   UNL     1     179.426 188.374 198.815  1.00  0.00     0.000 C 
BRANCH  18  19
ATOM     19  C   UNL     1     179.987 189.759 198.436  1.00  0.00     0.000 C 
BRANCH  19  20
ATOM     20  C   UNL     1     179.993 190.791 199.579  1.00  0.00     0.006 C 
BRANCH  20  21
ATOM     21  C   UNL     1     179.808 192.230 199.084  1.00  0.00     0.053 C 
BRANCH  21  22
ATOM     22  C   UNL     1     180.997 193.062 199.447  1.00  0.00     0.041 C 
ATOM     23  O   UNL     1     180.847 194.140 200.080  1.00  0.00    -0.550 OA
ATOM     24  O   UNL     1     182.266 192.676 199.037  1.00  0.00    -0.550 OA
ENDBRANCH  21  22
ENDBRANCH  20  21
ENDBRANCH  19  20
ENDBRANCH  18  19
ENDBRANCH  17  18
ENDBRANCH  16  17
ENDBRANCH  15  16
ENDBRANCH  14  15
ENDBRANCH  13  14
ENDBRANCH   1  13
TORSDOF 20
ENDMDL
MODEL 9
REMARK VINA RESULT:    -3.853      5.625      9.527
REMARK INTER + INTRA:         -11.208
REMARK INTER:                  -9.195
REMARK INTRA:                  -2.014
REMARK UNBOUND:                -2.851
REMARK SMILES CCCCCCCCCCCCCCCCCCCCCC(=O)[O-]
REMARK SMILES IDX 12 1 11 2 10 3 9 4 8 5 7 6 6 7 5 8 4 9 3 10 2 11 1 12 13 13
REMARK SMILES IDX 14 14 15 15 16 16 17 17 18 18 19 19 20 20 21 21 22 22 23 23
REMARK SMILES IDX 24 24
REMARK H PARENT
REMARK Flexibility Score: inf
ROOT
ATOM      1  C   UNL     1     183.696 187.540 199.076  1.00  0.00     0.000 C 
ENDROOT
BRANCH   1   2
ATOM      2  C   UNL     1     184.478 186.424 198.349  1.00  0.00     0.000 C 
BRANCH   2   3
ATOM      3  C   UNL     1     184.639 185.136 199.179  1.00  0.00     0.000 C 
BRANCH   3   4
ATOM      4  C   UNL     1     184.813 183.849 198.351  1.00  0.00    -0.000 C 
BRANCH   4   5
ATOM      5  C   UNL     1     184.282 182.563 199.018  1.00  0.00    -0.000 C 
BRANCH   5   6
ATOM      6  C   UNL     1     184.120 182.635 200.547  1.00  0.00    -0.000 C 
BRANCH   6   7
ATOM      7  C   UNL     1     183.278 181.481 201.116  1.00  0.00    -0.000 C 
BRANCH   7   8
ATOM      8  C   UNL     1     181.951 181.965 201.723  1.00  0.00    -0.000 C 
BRANCH   8   9
ATOM      9  C   UNL     1     180.937 182.393 200.648  1.00  0.00    -0.000 C 
BRANCH   9  10
ATOM     10  C   UNL     1     180.361 183.799 200.896  1.00  0.00    -0.000 C 
BRANCH  10  11
ATOM     11  C   UNL     1     180.937 184.529 202.123  1.00  0.00    -0.003 C 
ATOM     12  C   UNL     1     181.823 185.717 201.750  1.00  0.00     0.004 C 
ENDBRANCH  10  11
ENDBRANCH   9  10
ENDBRANCH   8   9
ENDBRANCH   7   8
ENDBRANCH   6   7
ENDBRANCH   5   6
ENDBRANCH   4   5
ENDBRANCH   3   4
ENDBRANCH   2   3
ENDBRANCH   1   2
BRANCH   1  13
ATOM     13  C   UNL     1     184.374 188.914 198.942  1.00  0.00     0.000 C 
BRANCH  13  14
ATOM     14  C   UNL     1     185.690 188.848 198.151  1.00  0.00     0.000 C 
BRANCH  14  15
ATOM     15  C   UNL     1     186.760 189.808 198.700  1.00  0.00     0.000 C 
BRANCH  15  16
ATOM     16  C   UNL     1     187.226 189.432 200.118  1.00  0.00     0.000 C 
BRANCH  16  17
ATOM     17  C   UNL     1     187.752 187.990 200.265  1.00  0.00     0.000 C 
BRANCH  17  18
ATOM     18  C   UNL     1     188.945 187.825 201.227  1.00  0.00     0.000 C 
BRANCH  18  19
ATOM     19  C   UNL     1     189.947 188.996 201.234  1.00  0.00     0.000 C 
BRANCH  19  20
ATOM     20  C   UNL     1     190.890 189.051 200.017  1.00  0.00     0.006 C 
BRANCH  20  21
ATOM     21  C   UNL     1     191.862 190.236 200.069  1.00  0.00     0.053 C 
BRANCH  21  22
ATOM     22  C   UNL     1     193.266 189.751 200.239  1.00  0.00     0.041 C 
ATOM     23  O   UNL     1     193.831 189.825 201.362  1.00  0.00    -0.550 OA
ATOM     24  O   UNL     1     193.971 189.267 199.145  1.00  0.00    -0.550 OA
ENDBRANCH  21  22
ENDBRANCH  20  21
ENDBRANCH  19  20
ENDBRANCH  18  19
ENDBRANCH  17  18
ENDBRANCH  16  17
ENDBRANCH  15  16
ENDBRANCH  14  15
ENDBRANCH  13  14
ENDBRANCH   1  13
TORSDOF 20
ENDMDL
