MODEL 1
REMARK VINA RESULT:    -2.442      0.000      0.000
REMARK INTER + INTRA:          -2.808
REMARK INTER:                  -2.585
REMARK INTRA:                  -0.223
REMARK UNBOUND:                -0.223
REMARK SMILES C=C(C)[C@@H]1CC=C(C)C(=O)C1
REMARK SMILES IDX 8 1 7 2 6 3 5 4 4 5 11 6 9 7 10 8 2 9 1 10 3 11
REMARK H PARENT
REMARK Flexibility Score: inf
ROOT
ATOM      1  C   UNL     1     122.924  87.102  55.805  1.00  0.00     0.048 C 
ATOM      2  C   UNL     1     121.864  87.400  56.830  1.00  0.00    -0.012 C 
ATOM      3  C   UNL     1     121.003  88.408  56.622  1.00  0.00    -0.019 C 
ATOM      4  C   UNL     1     119.939  88.782  57.618  1.00  0.00     0.036 C 
ATOM      5  C   UNL     1     119.444  87.592  58.468  1.00  0.00     0.025 C 
ATOM      6  C   UNL     1     120.618  86.752  59.014  1.00  0.00     0.089 C 
ATOM      7  C   UNL     1     121.678  86.488  57.982  1.00  0.00     0.158 C 
ATOM      8  O   UNL     1     122.438  85.494  58.130  1.00  0.00    -0.295 OA
ENDROOT
BRANCH   5   9
ATOM      9  C   UNL     1     118.387  86.751  57.752  1.00  0.00    -0.077 C 
ATOM     10  C   UNL     1     118.223  85.439  58.000  1.00  0.00     0.008 C 
ATOM     11  C   UNL     1     117.485  87.395  56.728  1.00  0.00     0.039 C 
ENDBRANCH   5   9
TORSDOF 1
ENDMDL
MODEL 2
REMARK VINA RESULT:    -2.421      1.884      3.086
REMARK INTER + INTRA:          -2.785
REMARK INTER:                  -2.567
REMARK INTRA:                  -0.218
REMARK UNBOUND:                -0.223
REMARK SMILES C=C(C)[C@@H]1CC=C(C)C(=O)C1
REMARK SMILES IDX 8 1 7 2 6 3 5 4 4 5 11 6 9 7 10 8 2 9 1 10 3 11
REMARK H PARENT
REMARK Flexibility Score: inf
ROOT
ATOM      1  C   UNL     1     121.458  85.819  58.920  1.00  0.00     0.048 C 
ATOM      2  C   UNL     1     121.275  87.005  58.013  1.00  0.00    -0.012 C 
ATOM      3  C   UNL     1     122.098  87.175  56.966  1.00  0.00    -0.019 C 
ATOM      4  C   UNL     1     121.993  88.355  56.038  1.00  0.00     0.036 C 
ATOM      5  C   UNL     1     120.560  88.915  55.911  1.00  0.00     0.025 C 
ATOM      6  C   UNL     1     119.884  89.075  57.289  1.00  0.00     0.089 C 
ATOM      7  C   UNL     1     120.101  87.891  58.188  1.00  0.00     0.158 C 
ATOM      8  O   UNL     1     119.284  87.679  59.125  1.00  0.00    -0.295 OA
ENDROOT
BRANCH   5   9
ATOM      9  C   UNL     1     119.705  88.134  54.912  1.00  0.00    -0.077 C 
ATOM     10  C   UNL     1     120.232  87.532  53.831  1.00  0.00     0.008 C 
ATOM     11  C   UNL     1     118.215  88.022  55.127  1.00  0.00     0.039 C 
ENDBRANCH   5   9
TORSDOF 1
ENDMDL
MODEL 3
REMARK VINA RESULT:    -2.367     10.636     12.590
REMARK INTER + INTRA:          -2.728
REMARK INTER:                  -2.518
REMARK INTRA:                  -0.210
REMARK UNBOUND:                -0.223
REMARK SMILES C=C(C)[C@@H]1CC=C(C)C(=O)C1
REMARK SMILES IDX 8 1 7 2 6 3 5 4 4 5 11 6 9 7 10 8 2 9 1 10 3 11
REMARK H PARENT
REMARK Flexibility Score: inf
ROOT
ATOM      1  C   UNL     1     107.797  83.847  55.215  1.00  0.00     0.048 C 
ATOM      2  C   UNL     1     107.682  85.094  56.048  1.00  0.00    -0.012 C 
ATOM      3  C   UNL     1     107.823  85.018  57.381  1.00  0.00    -0.019 C 
ATOM      4  C   UNL     1     107.689  86.218  58.278  1.00  0.00     0.036 C 
ATOM      5  C   UNL     1     108.090  87.545  57.598  1.00  0.00     0.025 C 
ATOM      6  C   UNL     1     107.468  87.678  56.192  1.00  0.00     0.089 C 
ATOM      7  C   UNL     1     107.570  86.414  55.386  1.00  0.00     0.158 C 
ATOM      8  O   UNL     1     107.521  86.487  54.129  1.00  0.00    -0.295 OA
ENDROOT
BRANCH   5   9
ATOM      9  C   UNL     1     109.601  87.784  57.611  1.00  0.00    -0.077 C 
ATOM     10  C   UNL     1     110.410  87.222  58.526  1.00  0.00     0.008 C 
ATOM     11  C   UNL     1     110.226  88.678  56.568  1.00  0.00     0.039 C 
ENDBRANCH   5   9
TORSDOF 1
ENDMDL
MODEL 4
REMARK VINA RESULT:    -2.354      8.231     10.274
REMARK INTER + INTRA:          -2.714
REMARK INTER:                  -2.493
REMARK INTRA:                  -0.222
REMARK UNBOUND:                -0.223
REMARK SMILES C=C(C)[C@@H]1CC=C(C)C(=O)C1
REMARK SMILES IDX 8 1 7 2 6 3 5 4 4 5 11 6 9 7 10 8 2 9 1 10 3 11
REMARK H PARENT
REMARK Flexibility Score: inf
ROOT
ATOM      1  C   UNL     1     112.738  85.974  56.083  1.00  0.00     0.048 C 
ATOM      2  C   UNL     1     111.706  86.834  56.759  1.00  0.00    -0.012 C 
ATOM      3  C   UNL     1     111.117  87.827  56.076  1.00  0.00    -0.019 C 
ATOM      4  C   UNL     1     110.100  88.746  56.698  1.00  0.00     0.036 C 
ATOM      5  C   UNL     1     109.287  88.087  57.832  1.00  0.00     0.025 C 
ATOM      6  C   UNL     1     110.194  87.317  58.815  1.00  0.00     0.089 C 
ATOM      7  C   UNL     1     111.234  86.485  58.120  1.00  0.00     0.158 C 
ATOM      8  O   UNL     1     111.733  85.501  58.728  1.00  0.00    -0.295 OA
ENDROOT
BRANCH   5   9
ATOM      9  C   UNL     1     108.117  87.249  57.314  1.00  0.00    -0.077 C 
ATOM     10  C   UNL     1     107.627  86.199  57.997  1.00  0.00     0.008 C 
ATOM     11  C   UNL     1     107.474  87.595  55.994  1.00  0.00     0.039 C 
ENDBRANCH   5   9
TORSDOF 1
ENDMDL
MODEL 5
REMARK VINA RESULT:    -2.337      9.846     11.090
REMARK INTER + INTRA:          -2.697
REMARK INTER:                  -2.477
REMARK INTRA:                  -0.220
REMARK UNBOUND:                -0.223
REMARK SMILES C=C(C)[C@@H]1CC=C(C)C(=O)C1
REMARK SMILES IDX 8 1 7 2 6 3 5 4 4 5 11 6 9 7 10 8 2 9 1 10 3 11
REMARK H PARENT
REMARK Flexibility Score: inf
ROOT
ATOM      1  C   UNL     1     110.064  89.107  56.478  1.00  0.00     0.048 C 
ATOM      2  C   UNL     1     109.644  88.004  57.412  1.00  0.00    -0.012 C 
ATOM      3  C   UNL     1     108.364  87.600  57.430  1.00  0.00    -0.019 C 
ATOM      4  C   UNL     1     107.868  86.526  58.360  1.00  0.00     0.036 C 
ATOM      5  C   UNL     1     108.946  85.484  58.730  1.00  0.00     0.025 C 
ATOM      6  C   UNL     1     110.280  86.154  59.119  1.00  0.00     0.089 C 
ATOM      7  C   UNL     1     110.668  87.269  58.189  1.00  0.00     0.158 C 
ATOM      8  O   UNL     1     111.881  87.599  58.107  1.00  0.00    -0.295 OA
ENDROOT
BRANCH   5   9
ATOM      9  C   UNL     1     109.109  84.398  57.666  1.00  0.00    -0.077 C 
ATOM     10  C   UNL     1     110.286  83.790  57.433  1.00  0.00     0.008 C 
ATOM     11  C   UNL     1     107.920  83.976  56.837  1.00  0.00     0.039 C 
ENDBRANCH   5   9
TORSDOF 1
ENDMDL
MODEL 6
REMARK VINA RESULT:    -2.305      1.874      3.958
REMARK INTER + INTRA:          -2.663
REMARK INTER:                  -2.445
REMARK INTRA:                  -0.218
REMARK UNBOUND:                -0.223
REMARK SMILES C=C(C)[C@@H]1CC=C(C)C(=O)C1
REMARK SMILES IDX 8 1 7 2 6 3 5 4 4 5 11 6 9 7 10 8 2 9 1 10 3 11
REMARK H PARENT
REMARK Flexibility Score: inf
ROOT
ATOM      1  C   UNL     1     118.273  85.102  56.986  1.00  0.00     0.048 C 
ATOM      2  C   UNL     1     119.399  86.015  57.389  1.00  0.00    -0.012 C 
ATOM      3  C   UNL     1     120.625  85.508  57.594  1.00  0.00    -0.019 C 
ATOM      4  C   UNL     1     121.789  86.356  58.030  1.00  0.00     0.036 C 
ATOM      5  C   UNL     1     121.699  87.821  57.550  1.00  0.00     0.025 C 
ATOM      6  C   UNL     1     120.298  88.418  57.793  1.00  0.00     0.089 C 
ATOM      7  C   UNL     1     119.188  87.481  57.408  1.00  0.00     0.158 C 
ATOM      8  O   UNL     1     118.054  87.959  57.135  1.00  0.00    -0.295 OA
ENDROOT
BRANCH   5   9
ATOM      9  C   UNL     1     122.187  88.004  56.112  1.00  0.00    -0.077 C 
ATOM     10  C   UNL     1     123.137  87.221  55.570  1.00  0.00     0.008 C 
ATOM     11  C   UNL     1     121.595  89.094  55.253  1.00  0.00     0.039 C 
ENDBRANCH   5   9
TORSDOF 1
ENDMDL
MODEL 7
REMARK VINA RESULT:    -2.235      9.917     11.667
REMARK INTER + INTRA:          -2.588
REMARK INTER:                  -2.367
REMARK INTRA:                  -0.221
REMARK UNBOUND:                -0.223
REMARK SMILES C=C(C)[C@@H]1CC=C(C)C(=O)C1
REMARK SMILES IDX 8 1 7 2 6 3 5 4 4 5 11 6 9 7 10 8 2 9 1 10 3 11
REMARK H PARENT
REMARK Flexibility Score: inf
ROOT
ATOM      1  C   UNL     1     109.363  83.590  57.640  1.00  0.00     0.048 C 
ATOM      2  C   UNL     1     109.225  85.062  57.916  1.00  0.00    -0.012 C 
ATOM      3  C   UNL     1     110.244  85.730  58.481  1.00  0.00    -0.019 C 
ATOM      4  C   UNL     1     110.163  87.195  58.815  1.00  0.00     0.036 C 
ATOM      5  C   UNL     1     109.224  87.990  57.883  1.00  0.00     0.025 C 
ATOM      6  C   UNL     1     107.876  87.268  57.677  1.00  0.00     0.089 C 
ATOM      7  C   UNL     1     108.035  85.795  57.428  1.00  0.00     0.158 C 
ATOM      8  O   UNL     1     107.116  85.176  56.825  1.00  0.00    -0.295 OA
ENDROOT
BRANCH   5   9
ATOM      9  C   UNL     1     109.895  88.393  56.568  1.00  0.00    -0.077 C 
ATOM     10  C   UNL     1     109.207  88.523  55.421  1.00  0.00     0.008 C 
ATOM     11  C   UNL     1     111.380  88.659  56.536  1.00  0.00     0.039 C 
ENDBRANCH   5   9
TORSDOF 1
ENDMDL
MODEL 8
REMARK VINA RESULT:    -1.693      2.070      4.209
REMARK INTER + INTRA:          -2.015
REMARK INTER:                  -1.813
REMARK INTRA:                  -0.202
REMARK UNBOUND:                -0.223
REMARK SMILES C=C(C)[C@@H]1CC=C(C)C(=O)C1
REMARK SMILES IDX 8 1 7 2 6 3 5 4 4 5 11 6 9 7 10 8 2 9 1 10 3 11
REMARK H PARENT
REMARK Flexibility Score: inf
ROOT
ATOM      1  C   UNL     1     116.757  86.365  56.254  1.00  0.00     0.048 C 
ATOM      2  C   UNL     1     117.825  87.158  56.958  1.00  0.00    -0.012 C 
ATOM      3  C   UNL     1     118.310  86.723  58.131  1.00  0.00    -0.019 C 
ATOM      4  C   UNL     1     119.355  87.480  58.905  1.00  0.00     0.036 C 
ATOM      5  C   UNL     1     120.299  88.315  58.014  1.00  0.00     0.025 C 
ATOM      6  C   UNL     1     119.520  89.125  56.956  1.00  0.00     0.089 C 
ATOM      7  C   UNL     1     118.441  88.323  56.284  1.00  0.00     0.158 C 
ATOM      8  O   UNL     1     118.038  88.680  55.144  1.00  0.00    -0.295 OA
ENDROOT
BRANCH   5   9
ATOM      9  C   UNL     1     121.436  87.486  57.415  1.00  0.00    -0.077 C 
ATOM     10  C   UNL     1     122.118  87.882  56.326  1.00  0.00     0.008 C 
ATOM     11  C   UNL     1     121.824  86.175  58.054  1.00  0.00     0.039 C 
ENDBRANCH   5   9
TORSDOF 1
ENDMDL
