MODEL 1
REMARK VINA RESULT:    -2.862      0.000      0.000
REMARK INTER + INTRA:          -3.505
REMARK INTER:                  -3.364
REMARK INTRA:                  -0.141
REMARK UNBOUND:                -0.141
REMARK SMILES CCCCC(=O)[O-]
REMARK SMILES IDX 4 1 5 2 6 3 7 4 3 5 2 6 1 7
REMARK H PARENT
REMARK Flexibility Score: inf
ROOT
ATOM      1  C   UNL     1     207.681 206.774 156.742  1.00  0.00     0.053 C 
ENDROOT
BRANCH   1   2
ATOM      2  C   UNL     1     207.717 205.350 156.278  1.00  0.00     0.041 C 
ATOM      3  O   UNL     1     206.944 204.962 155.363  1.00  0.00    -0.550 OA
ATOM      4  O   UNL     1     208.627 204.459 156.834  1.00  0.00    -0.550 OA
ENDBRANCH   1   2
BRANCH   1   5
ATOM      5  C   UNL     1     209.040 207.465 156.567  1.00  0.00     0.006 C 
BRANCH   5   6
ATOM      6  C   UNL     1     209.513 207.455 155.107  1.00  0.00    -0.003 C 
ATOM      7  C   UNL     1     210.924 206.886 154.989  1.00  0.00     0.004 C 
ENDBRANCH   5   6
ENDBRANCH   1   5
TORSDOF 3
ENDMDL
MODEL 2
REMARK VINA RESULT:    -2.861      4.237      5.072
REMARK INTER + INTRA:          -3.503
REMARK INTER:                  -3.429
REMARK INTRA:                  -0.075
REMARK UNBOUND:                -0.141
REMARK SMILES CCCCC(=O)[O-]
REMARK SMILES IDX 4 1 5 2 6 3 7 4 3 5 2 6 1 7
REMARK H PARENT
REMARK Flexibility Score: inf
ROOT
ATOM      1  C   UNL     1     205.431 204.217 157.547  1.00  0.00     0.053 C 
ENDROOT
BRANCH   1   2
ATOM      2  C   UNL     1     205.911 203.435 158.732  1.00  0.00     0.041 C 
ATOM      3  O   UNL     1     206.327 204.033 159.759  1.00  0.00    -0.550 OA
ATOM      4  O   UNL     1     205.870 202.047 158.714  1.00  0.00    -0.550 OA
ENDBRANCH   1   2
BRANCH   1   5
ATOM      5  C   UNL     1     205.626 205.726 157.744  1.00  0.00     0.006 C 
BRANCH   5   6
ATOM      6  C   UNL     1     204.313 206.506 157.589  1.00  0.00    -0.003 C 
ATOM      7  C   UNL     1     203.155 205.573 157.247  1.00  0.00     0.004 C 
ENDBRANCH   5   6
ENDBRANCH   1   5
TORSDOF 3
ENDMDL
MODEL 3
REMARK VINA RESULT:    -2.846      4.039      4.724
REMARK INTER + INTRA:          -3.486
REMARK INTER:                  -3.380
REMARK INTRA:                  -0.105
REMARK UNBOUND:                -0.141
REMARK SMILES CCCCC(=O)[O-]
REMARK SMILES IDX 4 1 5 2 6 3 7 4 3 5 2 6 1 7
REMARK H PARENT
REMARK Flexibility Score: inf
ROOT
ATOM      1  C   UNL     1     206.726 204.521 157.629  1.00  0.00     0.053 C 
ENDROOT
BRANCH   1   2
ATOM      2  C   UNL     1     206.445 204.281 159.081  1.00  0.00     0.041 C 
ATOM      3  O   UNL     1     206.102 203.137 159.478  1.00  0.00    -0.550 OA
ATOM      4  O   UNL     1     206.593 205.313 159.999  1.00  0.00    -0.550 OA
ENDBRANCH   1   2
BRANCH   1   5
ATOM      5  C   UNL     1     205.609 203.967 156.734  1.00  0.00     0.006 C 
BRANCH   5   6
ATOM      6  C   UNL     1     206.147 203.010 155.660  1.00  0.00    -0.003 C 
ATOM      7  C   UNL     1     206.586 201.684 156.274  1.00  0.00     0.004 C 
ENDBRANCH   5   6
ENDBRANCH   1   5
TORSDOF 3
ENDMDL
MODEL 4
REMARK VINA RESULT:    -2.841      2.766      3.091
REMARK INTER + INTRA:          -3.480
REMARK INTER:                  -3.420
REMARK INTRA:                  -0.060
REMARK UNBOUND:                -0.141
REMARK SMILES CCCCC(=O)[O-]
REMARK SMILES IDX 4 1 5 2 6 3 7 4 3 5 2 6 1 7
REMARK H PARENT
REMARK Flexibility Score: inf
ROOT
ATOM      1  C   UNL     1     208.418 208.062 157.527  1.00  0.00     0.053 C 
ENDROOT
BRANCH   1   2
ATOM      2  C   UNL     1     207.164 208.848 157.293  1.00  0.00     0.041 C 
ATOM      3  O   UNL     1     206.114 208.268 156.912  1.00  0.00    -0.550 OA
ATOM      4  O   UNL     1     207.148 210.218 157.526  1.00  0.00    -0.550 OA
ENDBRANCH   1   2
BRANCH   1   5
ATOM      5  C   UNL     1     208.607 206.965 156.471  1.00  0.00     0.006 C 
BRANCH   5   6
ATOM      6  C   UNL     1     209.234 207.505 155.178  1.00  0.00    -0.003 C 
ATOM      7  C   UNL     1     210.712 207.135 155.085  1.00  0.00     0.004 C 
ENDBRANCH   5   6
ENDBRANCH   1   5
TORSDOF 3
ENDMDL
MODEL 5
REMARK VINA RESULT:    -2.838      1.978      2.428
REMARK INTER + INTRA:          -3.476
REMARK INTER:                  -3.363
REMARK INTRA:                  -0.113
REMARK UNBOUND:                -0.141
REMARK SMILES CCCCC(=O)[O-]
REMARK SMILES IDX 4 1 5 2 6 3 7 4 3 5 2 6 1 7
REMARK H PARENT
REMARK Flexibility Score: inf
ROOT
ATOM      1  C   UNL     1     208.491 206.530 156.212  1.00  0.00     0.053 C 
ENDROOT
BRANCH   1   2
ATOM      2  C   UNL     1     208.505 207.032 157.623  1.00  0.00     0.041 C 
ATOM      3  O   UNL     1     208.168 206.272 158.569  1.00  0.00    -0.550 OA
ATOM      4  O   UNL     1     208.920 208.329 157.897  1.00  0.00    -0.550 OA
ENDBRANCH   1   2
BRANCH   1   5
ATOM      5  C   UNL     1     209.250 207.471 155.266  1.00  0.00     0.006 C 
BRANCH   5   6
ATOM      6  C   UNL     1     210.673 206.975 154.973  1.00  0.00    -0.003 C 
ATOM      7  C   UNL     1     211.710 207.805 155.724  1.00  0.00     0.004 C 
ENDBRANCH   5   6
ENDBRANCH   1   5
TORSDOF 3
ENDMDL
MODEL 6
REMARK VINA RESULT:    -2.803      3.742      4.660
REMARK INTER + INTRA:          -3.435
REMARK INTER:                  -3.325
REMARK INTRA:                  -0.110
REMARK UNBOUND:                -0.141
REMARK SMILES CCCCC(=O)[O-]
REMARK SMILES IDX 4 1 5 2 6 3 7 4 3 5 2 6 1 7
REMARK H PARENT
REMARK Flexibility Score: inf
ROOT
ATOM      1  C   UNL     1     206.416 204.231 156.364  1.00  0.00     0.053 C 
ENDROOT
BRANCH   1   2
ATOM      2  C   UNL     1     206.240 202.896 157.020  1.00  0.00     0.041 C 
ATOM      3  O   UNL     1     205.779 202.821 158.189  1.00  0.00    -0.550 OA
ATOM      4  O   UNL     1     206.555 201.733 156.328  1.00  0.00    -0.550 OA
ENDBRANCH   1   2
BRANCH   1   5
ATOM      5  C   UNL     1     205.830 205.366 157.216  1.00  0.00     0.006 C 
BRANCH   5   6
ATOM      6  C   UNL     1     204.564 205.967 156.590  1.00  0.00    -0.003 C 
ATOM      7  C   UNL     1     203.309 205.272 157.111  1.00  0.00     0.004 C 
ENDBRANCH   5   6
ENDBRANCH   1   5
TORSDOF 3
ENDMDL
MODEL 7
REMARK VINA RESULT:    -2.786      3.854      4.588
REMARK INTER + INTRA:          -3.416
REMARK INTER:                  -3.298
REMARK INTRA:                  -0.118
REMARK UNBOUND:                -0.141
REMARK SMILES CCCCC(=O)[O-]
REMARK SMILES IDX 4 1 5 2 6 3 7 4 3 5 2 6 1 7
REMARK H PARENT
REMARK Flexibility Score: inf
ROOT
ATOM      1  C   UNL     1     205.557 205.218 156.348  1.00  0.00     0.053 C 
ENDROOT
BRANCH   1   2
ATOM      2  C   UNL     1     204.504 204.782 157.321  1.00  0.00     0.041 C 
ATOM      3  O   UNL     1     203.293 205.048 157.104  1.00  0.00    -0.550 OA
ATOM      4  O   UNL     1     204.857 204.056 158.451  1.00  0.00    -0.550 OA
ENDBRANCH   1   2
BRANCH   1   5
ATOM      5  C   UNL     1     206.698 204.197 156.249  1.00  0.00     0.006 C 
BRANCH   5   6
ATOM      6  C   UNL     1     206.287 202.941 155.467  1.00  0.00    -0.003 C 
ATOM      7  C   UNL     1     206.545 201.676 156.281  1.00  0.00     0.004 C 
ENDBRANCH   5   6
ENDBRANCH   1   5
TORSDOF 3
ENDMDL
MODEL 8
REMARK VINA RESULT:    -2.783      3.742      4.540
REMARK INTER + INTRA:          -3.412
REMARK INTER:                  -3.313
REMARK INTRA:                  -0.099
REMARK UNBOUND:                -0.141
REMARK SMILES CCCCC(=O)[O-]
REMARK SMILES IDX 4 1 5 2 6 3 7 4 3 5 2 6 1 7
REMARK H PARENT
REMARK Flexibility Score: inf
ROOT
ATOM      1  C   UNL     1     205.744 203.707 157.522  1.00  0.00     0.053 C 
ENDROOT
BRANCH   1   2
ATOM      2  C   UNL     1     206.706 202.943 156.665  1.00  0.00     0.041 C 
ATOM      3  O   UNL     1     207.738 203.505 156.215  1.00  0.00    -0.550 OA
ATOM      4  O   UNL     1     206.478 201.600 156.390  1.00  0.00    -0.550 OA
ENDBRANCH   1   2
BRANCH   1   5
ATOM      5  C   UNL     1     205.934 203.392 159.012  1.00  0.00     0.006 C 
BRANCH   5   6
ATOM      6  C   UNL     1     206.705 204.498 159.746  1.00  0.00    -0.003 C 
ATOM      7  C   UNL     1     206.543 205.842 159.041  1.00  0.00     0.004 C 
ENDBRANCH   5   6
ENDBRANCH   1   5
TORSDOF 3
ENDMDL
MODEL 9
REMARK VINA RESULT:    -2.716      1.136      1.456
REMARK INTER + INTRA:          -3.333
REMARK INTER:                  -3.246
REMARK INTRA:                  -0.087
REMARK UNBOUND:                -0.141
REMARK SMILES CCCCC(=O)[O-]
REMARK SMILES IDX 4 1 5 2 6 3 7 4 3 5 2 6 1 7
REMARK H PARENT
REMARK Flexibility Score: inf
ROOT
ATOM      1  C   UNL     1     208.005 206.198 156.980  1.00  0.00     0.053 C 
ENDROOT
BRANCH   1   2
ATOM      2  C   UNL     1     206.746 206.030 156.187  1.00  0.00     0.041 C 
ATOM      3  O   UNL     1     205.764 206.792 156.388  1.00  0.00    -0.550 OA
ATOM      4  O   UNL     1     206.668 205.053 155.202  1.00  0.00    -0.550 OA
ENDBRANCH   1   2
BRANCH   1   5
ATOM      5  C   UNL     1     208.735 207.500 156.622  1.00  0.00     0.006 C 
BRANCH   5   6
ATOM      6  C   UNL     1     209.279 207.484 155.186  1.00  0.00    -0.003 C 
ATOM      7  C   UNL     1     210.764 207.132 155.164  1.00  0.00     0.004 C 
ENDBRANCH   5   6
ENDBRANCH   1   5
TORSDOF 3
ENDMDL
