MODEL 1
REMARK VINA RESULT:    -4.418      0.000      0.000
REMARK INTER + INTRA:          -6.971
REMARK INTER:                  -6.742
REMARK INTRA:                  -0.229
REMARK UNBOUND:                -0.229
REMARK SMILES O=C([O-])CCCCCCCCC(=O)[O-]
REMARK SMILES IDX 7 1 6 2 5 3 4 4 2 5 1 6 3 7 8 8 9 9 10 10 11 11 12 12 13 13
REMARK SMILES IDX 14 14
REMARK H PARENT
REMARK Flexibility Score: inf
ROOT
ATOM      1  C   UNL     1       9.822  14.762  22.445  1.00  0.00     0.000 C 
ENDROOT
BRANCH   1   2
ATOM      2  C   UNL     1       9.118  13.423  22.186  1.00  0.00     0.000 C 
BRANCH   2   3
ATOM      3  C   UNL     1       7.613  13.624  21.978  1.00  0.00     0.006 C 
BRANCH   3   4
ATOM      4  C   UNL     1       6.818  13.103  23.178  1.00  0.00     0.053 C 
BRANCH   4   5
ATOM      5  C   UNL     1       6.413  11.679  22.959  1.00  0.00     0.041 C 
ATOM      6  O   UNL     1       5.215  11.394  22.697  1.00  0.00    -0.550 OA
ATOM      7  O   UNL     1       7.349  10.661  23.094  1.00  0.00    -0.550 OA
ENDBRANCH   4   5
ENDBRANCH   3   4
ENDBRANCH   2   3
ENDBRANCH   1   2
BRANCH   1   8
ATOM      8  C   UNL     1      11.138  14.551  23.209  1.00  0.00     0.000 C 
BRANCH   8   9
ATOM      9  C   UNL     1      11.212  15.379  24.502  1.00  0.00     0.000 C 
BRANCH   9  10
ATOM     10  C   UNL     1      12.659  15.677  24.932  1.00  0.00     0.006 C 
BRANCH  10  11
ATOM     11  C   UNL     1      12.778  17.013  25.677  1.00  0.00     0.053 C 
BRANCH  11  12
ATOM     12  C   UNL     1      13.339  18.091  24.800  1.00  0.00     0.041 C 
ATOM     13  O   UNL     1      12.751  19.200  24.703  1.00  0.00    -0.550 OA
ATOM     14  O   UNL     1      14.528  17.880  24.113  1.00  0.00    -0.550 OA
ENDBRANCH  11  12
ENDBRANCH  10  11
ENDBRANCH   9  10
ENDBRANCH   8   9
ENDBRANCH   1   8
TORSDOF 9
ENDMDL
MODEL 2
REMARK VINA RESULT:    -4.408      0.994      8.025
REMARK INTER + INTRA:          -6.957
REMARK INTER:                  -6.718
REMARK INTRA:                  -0.239
REMARK UNBOUND:                -0.229
REMARK SMILES O=C([O-])CCCCCCCCC(=O)[O-]
REMARK SMILES IDX 7 1 6 2 5 3 4 4 2 5 1 6 3 7 8 8 9 9 10 10 11 11 12 12 13 13
REMARK SMILES IDX 14 14
REMARK H PARENT
REMARK Flexibility Score: inf
ROOT
ATOM      1  C   UNL     1      10.830  15.108  22.631  1.00  0.00     0.000 C 
ENDROOT
BRANCH   1   2
ATOM      2  C   UNL     1      11.265  14.760  24.061  1.00  0.00     0.000 C 
BRANCH   2   3
ATOM      3  C   UNL     1      11.477  16.028  24.896  1.00  0.00     0.006 C 
BRANCH   3   4
ATOM      4  C   UNL     1      12.942  16.473  24.855  1.00  0.00     0.053 C 
BRANCH   4   5
ATOM      5  C   UNL     1      13.072  17.887  25.326  1.00  0.00     0.041 C 
ATOM      6  O   UNL     1      13.769  18.710  24.676  1.00  0.00    -0.550 OA
ATOM      7  O   UNL     1      12.464  18.285  26.510  1.00  0.00    -0.550 OA
ENDBRANCH   4   5
ENDBRANCH   3   4
ENDBRANCH   2   3
ENDBRANCH   1   2
BRANCH   1   8
ATOM      8  C   UNL     1       9.983  13.980  22.025  1.00  0.00     0.000 C 
BRANCH   8   9
ATOM      9  C   UNL     1       8.543  13.965  22.563  1.00  0.00     0.000 C 
BRANCH   9  10
ATOM     10  C   UNL     1       7.750  12.730  22.098  1.00  0.00     0.006 C 
BRANCH  10  11
ATOM     11  C   UNL     1       6.518  12.470  22.975  1.00  0.00     0.053 C 
BRANCH  11  12
ATOM     12  C   UNL     1       5.896  11.139  22.679  1.00  0.00     0.041 C 
ATOM     13  O   UNL     1       4.645  11.021  22.627  1.00  0.00    -0.550 OA
ATOM     14  O   UNL     1       6.702  10.035  22.432  1.00  0.00    -0.550 OA
ENDBRANCH  11  12
ENDBRANCH  10  11
ENDBRANCH   9  10
ENDBRANCH   8   9
ENDBRANCH   1   8
TORSDOF 9
ENDMDL
MODEL 3
REMARK VINA RESULT:    -4.365      1.315      1.620
REMARK INTER + INTRA:          -6.891
REMARK INTER:                  -6.498
REMARK INTRA:                  -0.393
REMARK UNBOUND:                -0.229
REMARK SMILES O=C([O-])CCCCCCCCC(=O)[O-]
REMARK SMILES IDX 7 1 6 2 5 3 4 4 2 5 1 6 3 7 8 8 9 9 10 10 11 11 12 12 13 13
REMARK SMILES IDX 14 14
REMARK H PARENT
REMARK Flexibility Score: inf
ROOT
ATOM      1  C   UNL     1      10.090  15.078  22.734  1.00  0.00     0.000 C 
ENDROOT
BRANCH   1   2
ATOM      2  C   UNL     1       9.273  13.877  22.242  1.00  0.00     0.000 C 
BRANCH   2   3
ATOM      3  C   UNL     1       7.774  14.196  22.232  1.00  0.00     0.006 C 
BRANCH   3   4
ATOM      4  C   UNL     1       6.995  13.203  23.099  1.00  0.00     0.053 C 
BRANCH   4   5
ATOM      5  C   UNL     1       7.111  11.819  22.543  1.00  0.00     0.041 C 
ATOM      6  O   UNL     1       7.581  10.890  23.250  1.00  0.00    -0.550 OA
ATOM      7  O   UNL     1       6.747  11.565  21.227  1.00  0.00    -0.550 OA
ENDBRANCH   4   5
ENDBRANCH   3   4
ENDBRANCH   2   3
ENDBRANCH   1   2
BRANCH   1   8
ATOM      8  C   UNL     1      11.176  14.634  23.725  1.00  0.00     0.000 C 
BRANCH   8   9
ATOM      9  C   UNL     1      11.401  15.654  24.853  1.00  0.00     0.000 C 
BRANCH   9  10
ATOM     10  C   UNL     1      12.867  16.112  24.954  1.00  0.00     0.006 C 
BRANCH  10  11
ATOM     11  C   UNL     1      13.019  17.621  24.723  1.00  0.00     0.053 C 
BRANCH  11  12
ATOM     12  C   UNL     1      12.154  18.416  25.655  1.00  0.00     0.041 C 
ATOM     13  O   UNL     1      12.358  18.379  26.896  1.00  0.00    -0.550 OA
ATOM     14  O   UNL     1      11.143  19.221  25.147  1.00  0.00    -0.550 OA
ENDBRANCH  11  12
ENDBRANCH  10  11
ENDBRANCH   9  10
ENDBRANCH   8   9
ENDBRANCH   1   8
TORSDOF 9
ENDMDL
MODEL 4
REMARK VINA RESULT:    -4.236      1.177      1.527
REMARK INTER + INTRA:          -6.694
REMARK INTER:                  -6.416
REMARK INTRA:                  -0.278
REMARK UNBOUND:                -0.229
REMARK SMILES O=C([O-])CCCCCCCCC(=O)[O-]
REMARK SMILES IDX 7 1 6 2 5 3 4 4 2 5 1 6 3 7 8 8 9 9 10 10 11 11 12 12 13 13
REMARK SMILES IDX 14 14
REMARK H PARENT
REMARK Flexibility Score: inf
ROOT
ATOM      1  C   UNL     1      11.110  14.544  22.664  1.00  0.00     0.000 C 
ENDROOT
BRANCH   1   2
ATOM      2  C   UNL     1       9.624  14.508  22.284  1.00  0.00     0.000 C 
BRANCH   2   3
ATOM      3  C   UNL     1       9.126  13.064  22.148  1.00  0.00     0.006 C 
BRANCH   3   4
ATOM      4  C   UNL     1       7.654  13.030  21.725  1.00  0.00     0.053 C 
BRANCH   4   5
ATOM      5  C   UNL     1       6.776  12.771  22.908  1.00  0.00     0.041 C 
ATOM      6  O   UNL     1       6.491  13.705  23.702  1.00  0.00    -0.550 OA
ATOM      7  O   UNL     1       6.311  11.487  23.161  1.00  0.00    -0.550 OA
ENDBRANCH   4   5
ENDBRANCH   3   4
ENDBRANCH   2   3
ENDBRANCH   1   2
BRANCH   1   8
ATOM      8  C   UNL     1      11.286  14.734  24.178  1.00  0.00     0.000 C 
BRANCH   8   9
ATOM      9  C   UNL     1      11.488  16.206  24.571  1.00  0.00     0.000 C 
BRANCH   9  10
ATOM     10  C   UNL     1      12.951  16.530  24.919  1.00  0.00     0.006 C 
BRANCH  10  11
ATOM     11  C   UNL     1      13.202  18.041  25.014  1.00  0.00     0.053 C 
BRANCH  11  12
ATOM     12  C   UNL     1      14.078  18.531  23.901  1.00  0.00     0.041 C 
ATOM     13  O   UNL     1      13.651  18.546  22.717  1.00  0.00    -0.550 OA
ATOM     14  O   UNL     1      15.356  18.998  24.177  1.00  0.00    -0.550 OA
ENDBRANCH  11  12
ENDBRANCH  10  11
ENDBRANCH   9  10
ENDBRANCH   8   9
ENDBRANCH   1   8
TORSDOF 9
ENDMDL
MODEL 5
REMARK VINA RESULT:    -4.226      5.253      6.651
REMARK INTER + INTRA:          -6.679
REMARK INTER:                  -5.838
REMARK INTRA:                  -0.841
REMARK UNBOUND:                -0.229
REMARK SMILES O=C([O-])CCCCCCCCC(=O)[O-]
REMARK SMILES IDX 7 1 6 2 5 3 4 4 2 5 1 6 3 7 8 8 9 9 10 10 11 11 12 12 13 13
REMARK SMILES IDX 14 14
REMARK H PARENT
REMARK Flexibility Score: inf
ROOT
ATOM      1  C   UNL     1      15.124  19.610  22.871  1.00  0.00     0.000 C 
ENDROOT
BRANCH   1   2
ATOM      2  C   UNL     1      13.946  20.515  22.489  1.00  0.00     0.000 C 
BRANCH   2   3
ATOM      3  C   UNL     1      13.642  20.419  20.989  1.00  0.00     0.006 C 
BRANCH   3   4
ATOM      4  C   UNL     1      12.179  20.038  20.749  1.00  0.00     0.053 C 
BRANCH   4   5
ATOM      5  C   UNL     1      12.023  18.550  20.720  1.00  0.00     0.041 C 
ATOM      6  O   UNL     1      10.984  18.013  21.187  1.00  0.00    -0.550 OA
ATOM      7  O   UNL     1      13.047  17.754  20.223  1.00  0.00    -0.550 OA
ENDBRANCH   4   5
ENDBRANCH   3   4
ENDBRANCH   2   3
ENDBRANCH   1   2
BRANCH   1   8
ATOM      8  C   UNL     1      14.775  18.739  24.087  1.00  0.00     0.000 C 
BRANCH   8   9
ATOM      9  C   UNL     1      14.006  17.465  23.701  1.00  0.00     0.000 C 
BRANCH   9  10
ATOM     10  C   UNL     1      12.948  17.072  24.748  1.00  0.00     0.006 C 
BRANCH  10  11
ATOM     11  C   UNL     1      11.594  17.742  24.482  1.00  0.00     0.053 C 
BRANCH  11  12
ATOM     12  C   UNL     1      11.364  18.911  25.391  1.00  0.00     0.041 C 
ATOM     13  O   UNL     1      10.468  19.754  25.127  1.00  0.00    -0.550 OA
ATOM     14  O   UNL     1      12.122  19.052  26.547  1.00  0.00    -0.550 OA
ENDBRANCH  11  12
ENDBRANCH  10  11
ENDBRANCH   9  10
ENDBRANCH   8   9
ENDBRANCH   1   8
TORSDOF 9
ENDMDL
MODEL 6
REMARK VINA RESULT:    -4.223      3.766      5.320
REMARK INTER + INTRA:          -6.674
REMARK INTER:                  -5.818
REMARK INTRA:                  -0.855
REMARK UNBOUND:                -0.229
REMARK SMILES O=C([O-])CCCCCCCCC(=O)[O-]
REMARK SMILES IDX 7 1 6 2 5 3 4 4 2 5 1 6 3 7 8 8 9 9 10 10 11 11 12 12 13 13
REMARK SMILES IDX 14 14
REMARK H PARENT
REMARK Flexibility Score: inf
ROOT
ATOM      1  C   UNL     1      12.415  18.210  25.856  1.00  0.00     0.000 C 
ENDROOT
BRANCH   1   2
ATOM      2  C   UNL     1      13.111  17.307  24.829  1.00  0.00     0.000 C 
BRANCH   2   3
ATOM      3  C   UNL     1      12.768  15.832  25.071  1.00  0.00     0.006 C 
BRANCH   3   4
ATOM      4  C   UNL     1      11.334  15.523  24.632  1.00  0.00     0.053 C 
BRANCH   4   5
ATOM      5  C   UNL     1      11.249  15.442  23.140  1.00  0.00     0.041 C 
ATOM      6  O   UNL     1      11.935  14.593  22.512  1.00  0.00    -0.550 OA
ATOM      7  O   UNL     1      10.451  16.337  22.439  1.00  0.00    -0.550 OA
ENDBRANCH   4   5
ENDBRANCH   3   4
ENDBRANCH   2   3
ENDBRANCH   1   2
BRANCH   1   8
ATOM      8  C   UNL     1      11.501  19.229  25.160  1.00  0.00     0.000 C 
BRANCH   8   9
ATOM      9  C   UNL     1      11.788  19.352  23.655  1.00  0.00     0.000 C 
BRANCH   9  10
ATOM     10  C   UNL     1      12.435  20.698  23.283  1.00  0.00     0.006 C 
BRANCH  10  11
ATOM     11  C   UNL     1      13.340  20.584  22.050  1.00  0.00     0.053 C 
BRANCH  11  12
ATOM     12  C   UNL     1      14.419  19.561  22.244  1.00  0.00     0.041 C 
ATOM     13  O   UNL     1      15.296  19.725  23.131  1.00  0.00    -0.550 OA
ATOM     14  O   UNL     1      14.436  18.412  21.463  1.00  0.00    -0.550 OA
ENDBRANCH  11  12
ENDBRANCH  10  11
ENDBRANCH   9  10
ENDBRANCH   8   9
ENDBRANCH   1   8
TORSDOF 9
ENDMDL
MODEL 7
REMARK VINA RESULT:    -4.206      2.710      4.120
REMARK INTER + INTRA:          -6.648
REMARK INTER:                  -5.836
REMARK INTRA:                  -0.812
REMARK UNBOUND:                -0.229
REMARK SMILES O=C([O-])CCCCCCCCC(=O)[O-]
REMARK SMILES IDX 7 1 6 2 5 3 4 4 2 5 1 6 3 7 8 8 9 9 10 10 11 11 12 12 13 13
REMARK SMILES IDX 14 14
REMARK H PARENT
REMARK Flexibility Score: inf
ROOT
ATOM      1  C   UNL     1      13.405  16.844  24.608  1.00  0.00     0.000 C 
ENDROOT
BRANCH   1   2
ATOM      2  C   UNL     1      13.002  15.401  24.279  1.00  0.00     0.000 C 
BRANCH   2   3
ATOM      3  C   UNL     1      11.489  15.204  24.426  1.00  0.00     0.006 C 
BRANCH   3   4
ATOM      4  C   UNL     1      10.764  15.532  23.118  1.00  0.00     0.053 C 
BRANCH   4   5
ATOM      5  C   UNL     1      10.029  14.331  22.611  1.00  0.00     0.041 C 
ATOM      6  O   UNL     1       8.901  14.461  22.067  1.00  0.00    -0.550 OA
ATOM      7  O   UNL     1      10.568  13.062  22.784  1.00  0.00    -0.550 OA
ENDBRANCH   4   5
ENDBRANCH   3   4
ENDBRANCH   2   3
ENDBRANCH   1   2
BRANCH   1   8
ATOM      8  C   UNL     1      12.748  17.314  25.915  1.00  0.00     0.000 C 
BRANCH   8   9
ATOM      9  C   UNL     1      12.197  18.745  25.820  1.00  0.00     0.000 C 
BRANCH   9  10
ATOM     10  C   UNL     1      11.388  18.985  24.534  1.00  0.00     0.006 C 
BRANCH  10  11
ATOM     11  C   UNL     1      11.861  20.233  23.777  1.00  0.00     0.053 C 
BRANCH  11  12
ATOM     12  C   UNL     1      12.708  19.877  22.592  1.00  0.00     0.041 C 
ATOM     13  O   UNL     1      12.429  18.869  21.892  1.00  0.00    -0.550 OA
ATOM     14  O   UNL     1      13.789  20.677  22.246  1.00  0.00    -0.550 OA
ENDBRANCH  11  12
ENDBRANCH  10  11
ENDBRANCH   9  10
ENDBRANCH   8   9
ENDBRANCH   1   8
TORSDOF 9
ENDMDL
MODEL 8
REMARK VINA RESULT:    -4.200      2.172      3.211
REMARK INTER + INTRA:          -6.640
REMARK INTER:                  -5.956
REMARK INTRA:                  -0.684
REMARK UNBOUND:                -0.229
REMARK SMILES O=C([O-])CCCCCCCCC(=O)[O-]
REMARK SMILES IDX 7 1 6 2 5 3 4 4 2 5 1 6 3 7 8 8 9 9 10 10 11 11 12 12 13 13
REMARK SMILES IDX 14 14
REMARK H PARENT
REMARK Flexibility Score: inf
ROOT
ATOM      1  C   UNL     1      11.725  15.549  24.589  1.00  0.00     0.000 C 
ENDROOT
BRANCH   1   2
ATOM      2  C   UNL     1      10.966  16.461  23.617  1.00  0.00     0.000 C 
BRANCH   2   3
ATOM      3  C   UNL     1      10.577  15.704  22.342  1.00  0.00     0.006 C 
BRANCH   3   4
ATOM      4  C   UNL     1      10.309  14.226  22.640  1.00  0.00     0.053 C 
BRANCH   4   5
ATOM      5  C   UNL     1       9.021  13.792  22.015  1.00  0.00     0.041 C 
ATOM      6  O   UNL     1       7.955  14.414  22.264  1.00  0.00    -0.550 OA
ATOM      7  O   UNL     1       8.988  12.669  21.198  1.00  0.00    -0.550 OA
ENDBRANCH   4   5
ENDBRANCH   3   4
ENDBRANCH   2   3
ENDBRANCH   1   2
BRANCH   1   8
ATOM      8  C   UNL     1      12.755  16.348  25.401  1.00  0.00     0.000 C 
BRANCH   8   9
ATOM      9  C   UNL     1      12.309  17.796  25.663  1.00  0.00     0.000 C 
BRANCH   9  10
ATOM     10  C   UNL     1      13.239  18.831  25.006  1.00  0.00     0.006 C 
BRANCH  10  11
ATOM     11  C   UNL     1      14.354  18.169  24.186  1.00  0.00     0.053 C 
BRANCH  11  12
ATOM     12  C   UNL     1      14.169  18.389  22.715  1.00  0.00     0.041 C 
ATOM     13  O   UNL     1      14.236  19.550  22.234  1.00  0.00    -0.550 OA
ATOM     14  O   UNL     1      13.953  17.306  21.873  1.00  0.00    -0.550 OA
ENDBRANCH  11  12
ENDBRANCH  10  11
ENDBRANCH   9  10
ENDBRANCH   8   9
ENDBRANCH   1   8
TORSDOF 9
ENDMDL
MODEL 9
REMARK VINA RESULT:    -4.154      1.659      7.786
REMARK INTER + INTRA:          -6.569
REMARK INTER:                  -6.200
REMARK INTRA:                  -0.369
REMARK UNBOUND:                -0.229
REMARK SMILES O=C([O-])CCCCCCCCC(=O)[O-]
REMARK SMILES IDX 7 1 6 2 5 3 4 4 2 5 1 6 3 7 8 8 9 9 10 10 11 11 12 12 13 13
REMARK SMILES IDX 14 14
REMARK H PARENT
REMARK Flexibility Score: inf
ROOT
ATOM      1  C   UNL     1      11.675  16.493  24.844  1.00  0.00     0.000 C 
ENDROOT
BRANCH   1   2
ATOM      2  C   UNL     1      13.197  16.434  25.030  1.00  0.00     0.000 C 
BRANCH   2   3
ATOM      3  C   UNL     1      13.922  17.096  23.853  1.00  0.00     0.006 C 
BRANCH   3   4
ATOM      4  C   UNL     1      14.169  18.582  24.126  1.00  0.00     0.053 C 
BRANCH   4   5
ATOM      5  C   UNL     1      13.570  19.420  23.041  1.00  0.00     0.041 C 
ATOM      6  O   UNL     1      12.409  19.176  22.620  1.00  0.00    -0.550 OA
ATOM      7  O   UNL     1      14.312  20.441  22.461  1.00  0.00    -0.550 OA
ENDBRANCH   4   5
ENDBRANCH   3   4
ENDBRANCH   2   3
ENDBRANCH   1   2
BRANCH   1   8
ATOM      8  C   UNL     1      11.127  15.139  24.369  1.00  0.00     0.000 C 
BRANCH   8   9
ATOM      9  C   UNL     1      10.634  15.177  22.913  1.00  0.00     0.000 C 
BRANCH   9  10
ATOM     10  C   UNL     1       9.753  13.968  22.555  1.00  0.00     0.006 C 
BRANCH  10  11
ATOM     11  C   UNL     1       8.312  14.380  22.225  1.00  0.00     0.053 C 
BRANCH  11  12
ATOM     12  C   UNL     1       7.367  13.219  22.318  1.00  0.00     0.041 C 
ATOM     13  O   UNL     1       6.614  13.092  23.318  1.00  0.00    -0.550 OA
ATOM     14  O   UNL     1       7.299  12.295  21.283  1.00  0.00    -0.550 OA
ENDBRANCH  11  12
ENDBRANCH  10  11
ENDBRANCH   9  10
ENDBRANCH   8   9
ENDBRANCH   1   8
TORSDOF 9
ENDMDL
