MODEL 1
REMARK VINA RESULT:    -4.466      0.000      0.000
REMARK INTER + INTRA:          -4.749
REMARK INTER:                  -4.727
REMARK INTRA:                  -0.023
REMARK UNBOUND:                -0.023
REMARK SMILES O=C([O-])c1cccnc1
REMARK SMILES IDX 4 1 5 2 9 3 6 4 8 5 7 6 2 7 1 8 3 9
REMARK H PARENT
REMARK Flexibility Score: inf
ROOT
ATOM      1  C   UNL     1     -14.127  -4.481  29.464  1.00  0.00     0.016 A 
ATOM      2  C   UNL     1     -14.258  -4.465  28.065  1.00  0.00     0.013 A 
ATOM      3  C   UNL     1     -14.657  -5.572  30.173  1.00  0.00     0.120 A 
ATOM      4  C   UNL     1     -14.903  -5.517  27.410  1.00  0.00     0.021 A 
ATOM      5  N   UNL     1     -15.279  -6.583  29.510  1.00  0.00    -0.264 NA
ATOM      6  C   UNL     1     -15.412  -6.578  28.158  1.00  0.00     0.111 A 
ENDROOT
BRANCH   1   7
ATOM      7  C   UNL     1     -13.447  -3.377  30.176  1.00  0.00     0.073 C 
ATOM      8  O   UNL     1     -13.356  -2.235  29.651  1.00  0.00    -0.545 OA
ATOM      9  O   UNL     1     -12.899  -3.585  31.437  1.00  0.00    -0.545 OA
ENDBRANCH   1   7
TORSDOF 1
ENDMDL
MODEL 2
REMARK VINA RESULT:    -4.211      1.491      1.989
REMARK INTER + INTRA:          -4.480
REMARK INTER:                  -4.456
REMARK INTRA:                  -0.024
REMARK UNBOUND:                -0.023
REMARK SMILES O=C([O-])c1cccnc1
REMARK SMILES IDX 4 1 5 2 9 3 6 4 8 5 7 6 2 7 1 8 3 9
REMARK H PARENT
REMARK Flexibility Score: inf
ROOT
ATOM      1  C   UNL     1     -14.896  -5.589  29.142  1.00  0.00     0.016 A 
ATOM      2  C   UNL     1     -15.342  -6.436  28.113  1.00  0.00     0.013 A 
ATOM      3  C   UNL     1     -14.910  -6.074  30.460  1.00  0.00     0.120 A 
ATOM      4  C   UNL     1     -15.786  -7.725  28.411  1.00  0.00     0.021 A 
ATOM      5  N   UNL     1     -15.347  -7.334  30.722  1.00  0.00    -0.264 NA
ATOM      6  C   UNL     1     -15.781  -8.161  29.736  1.00  0.00     0.111 A 
ENDROOT
BRANCH   1   7
ATOM      7  C   UNL     1     -14.421  -4.219  28.847  1.00  0.00     0.073 C 
ATOM      8  O   UNL     1     -14.496  -3.752  27.679  1.00  0.00    -0.545 OA
ATOM      9  O   UNL     1     -13.885  -3.427  29.857  1.00  0.00    -0.545 OA
ENDBRANCH   1   7
TORSDOF 1
ENDMDL
MODEL 3
REMARK VINA RESULT:    -4.200      2.416      3.487
REMARK INTER + INTRA:          -4.469
REMARK INTER:                  -4.447
REMARK INTRA:                  -0.022
REMARK UNBOUND:                -0.023
REMARK SMILES O=C([O-])c1cccnc1
REMARK SMILES IDX 4 1 5 2 9 3 6 4 8 5 7 6 2 7 1 8 3 9
REMARK H PARENT
REMARK Flexibility Score: inf
ROOT
ATOM      1  C   UNL     1     -14.510  -4.941  29.090  1.00  0.00     0.016 A 
ATOM      2  C   UNL     1     -13.843  -3.739  29.382  1.00  0.00     0.013 A 
ATOM      3  C   UNL     1     -14.768  -5.835  30.143  1.00  0.00     0.120 A 
ATOM      4  C   UNL     1     -13.451  -3.456  30.692  1.00  0.00     0.021 A 
ATOM      5  N   UNL     1     -14.376  -5.534  31.410  1.00  0.00    -0.264 NA
ATOM      6  C   UNL     1     -13.729  -4.376  31.703  1.00  0.00     0.111 A 
ENDROOT
BRANCH   1   7
ATOM      7  C   UNL     1     -14.934  -5.260  27.710  1.00  0.00     0.073 C 
ATOM      8  O   UNL     1     -15.942  -5.986  27.499  1.00  0.00    -0.545 OA
ATOM      9  O   UNL     1     -14.224  -4.759  26.623  1.00  0.00    -0.545 OA
ENDBRANCH   1   7
TORSDOF 1
ENDMDL
MODEL 4
REMARK VINA RESULT:    -4.190      1.150      2.098
REMARK INTER + INTRA:          -4.457
REMARK INTER:                  -4.435
REMARK INTRA:                  -0.022
REMARK UNBOUND:                -0.023
REMARK SMILES O=C([O-])c1cccnc1
REMARK SMILES IDX 4 1 5 2 9 3 6 4 8 5 7 6 2 7 1 8 3 9
REMARK H PARENT
REMARK Flexibility Score: inf
ROOT
ATOM      1  C   UNL     1     -13.744  -3.888  29.853  1.00  0.00     0.016 A 
ATOM      2  C   UNL     1     -14.094  -4.992  30.649  1.00  0.00     0.013 A 
ATOM      3  C   UNL     1     -14.197  -3.852  28.524  1.00  0.00     0.120 A 
ATOM      4  C   UNL     1     -14.872  -6.021  30.115  1.00  0.00     0.021 A 
ATOM      5  N   UNL     1     -14.954  -4.867  28.030  1.00  0.00    -0.264 NA
ATOM      6  C   UNL     1     -15.297  -5.940  28.790  1.00  0.00     0.111 A 
ENDROOT
BRANCH   1   7
ATOM      7  C   UNL     1     -12.921  -2.787  30.400  1.00  0.00     0.073 C 
ATOM      8  O   UNL     1     -12.116  -2.997  31.346  1.00  0.00    -0.545 OA
ATOM      9  O   UNL     1     -13.024  -1.503  29.875  1.00  0.00    -0.545 OA
ENDBRANCH   1   7
TORSDOF 1
ENDMDL
MODEL 5
REMARK VINA RESULT:    -4.158      2.278      2.973
REMARK INTER + INTRA:          -4.423
REMARK INTER:                  -4.403
REMARK INTRA:                  -0.020
REMARK UNBOUND:                -0.023
REMARK SMILES O=C([O-])c1cccnc1
REMARK SMILES IDX 4 1 5 2 9 3 6 4 8 5 7 6 2 7 1 8 3 9
REMARK H PARENT
REMARK Flexibility Score: inf
ROOT
ATOM      1  C   UNL     1     -14.750  -5.700  30.042  1.00  0.00     0.016 A 
ATOM      2  C   UNL     1     -15.253  -6.288  28.869  1.00  0.00     0.013 A 
ATOM      3  C   UNL     1     -14.112  -4.452  29.945  1.00  0.00     0.120 A 
ATOM      4  C   UNL     1     -15.113  -5.634  27.643  1.00  0.00     0.021 A 
ATOM      5  N   UNL     1     -13.991  -3.837  28.738  1.00  0.00    -0.264 NA
ATOM      6  C   UNL     1     -14.472  -4.396  27.597  1.00  0.00     0.111 A 
ENDROOT
BRANCH   1   7
ATOM      7  C   UNL     1     -14.888  -6.377  31.350  1.00  0.00     0.073 C 
ATOM      8  O   UNL     1     -15.977  -6.917  31.682  1.00  0.00    -0.545 OA
ATOM      9  O   UNL     1     -13.815  -6.427  32.234  1.00  0.00    -0.545 OA
ENDBRANCH   1   7
TORSDOF 1
ENDMDL
MODEL 6
REMARK VINA RESULT:    -4.112      2.810      3.822
REMARK INTER + INTRA:          -4.375
REMARK INTER:                  -4.357
REMARK INTRA:                  -0.017
REMARK UNBOUND:                -0.023
REMARK SMILES O=C([O-])c1cccnc1
REMARK SMILES IDX 4 1 5 2 9 3 6 4 8 5 7 6 2 7 1 8 3 9
REMARK H PARENT
REMARK Flexibility Score: inf
ROOT
ATOM      1  C   UNL     1     -13.581  -4.703  31.073  1.00  0.00     0.016 A 
ATOM      2  C   UNL     1     -12.662  -3.748  31.540  1.00  0.00     0.013 A 
ATOM      3  C   UNL     1     -14.203  -4.482  29.833  1.00  0.00     0.120 A 
ATOM      4  C   UNL     1     -12.384  -2.613  30.777  1.00  0.00     0.021 A 
ATOM      5  N   UNL     1     -13.913  -3.368  29.110  1.00  0.00    -0.264 NA
ATOM      6  C   UNL     1     -13.026  -2.438  29.552  1.00  0.00     0.111 A 
ENDROOT
BRANCH   1   7
ATOM      7  C   UNL     1     -13.889  -5.913  31.867  1.00  0.00     0.073 C 
ATOM      8  O   UNL     1     -13.001  -6.781  32.084  1.00  0.00    -0.545 OA
ATOM      9  O   UNL     1     -15.165  -6.110  32.385  1.00  0.00    -0.545 OA
ENDBRANCH   1   7
TORSDOF 1
ENDMDL
MODEL 7
REMARK VINA RESULT:    -4.097      2.743      3.473
REMARK INTER + INTRA:          -4.360
REMARK INTER:                  -4.339
REMARK INTRA:                  -0.021
REMARK UNBOUND:                -0.023
REMARK SMILES O=C([O-])c1cccnc1
REMARK SMILES IDX 4 1 5 2 9 3 6 4 8 5 7 6 2 7 1 8 3 9
REMARK H PARENT
REMARK Flexibility Score: inf
ROOT
ATOM      1  C   UNL     1     -15.104  -6.222  29.576  1.00  0.00     0.016 A 
ATOM      2  C   UNL     1     -15.304  -6.369  28.193  1.00  0.00     0.013 A 
ATOM      3  C   UNL     1     -14.459  -5.063  30.039  1.00  0.00     0.120 A 
ATOM      4  C   UNL     1     -14.867  -5.378  27.313  1.00  0.00     0.021 A 
ATOM      5  N   UNL     1     -14.044  -4.113  29.160  1.00  0.00    -0.264 NA
ATOM      6  C   UNL     1     -14.232  -4.245  27.821  1.00  0.00     0.111 A 
ENDROOT
BRANCH   1   7
ATOM      7  C   UNL     1     -15.560  -7.261  30.525  1.00  0.00     0.073 C 
ATOM      8  O   UNL     1     -15.494  -8.482  30.220  1.00  0.00    -0.545 OA
ATOM      9  O   UNL     1     -16.068  -6.904  31.770  1.00  0.00    -0.545 OA
ENDBRANCH   1   7
TORSDOF 1
ENDMDL
MODEL 8
REMARK VINA RESULT:    -4.019      2.483      3.585
REMARK INTER + INTRA:          -4.277
REMARK INTER:                  -4.254
REMARK INTRA:                  -0.023
REMARK UNBOUND:                -0.023
REMARK SMILES O=C([O-])c1cccnc1
REMARK SMILES IDX 4 1 5 2 9 3 6 4 8 5 7 6 2 7 1 8 3 9
REMARK H PARENT
REMARK Flexibility Score: inf
ROOT
ATOM      1  C   UNL     1     -13.904  -4.169  29.308  1.00  0.00     0.016 A 
ATOM      2  C   UNL     1     -13.352  -2.876  29.293  1.00  0.00     0.013 A 
ATOM      3  C   UNL     1     -13.717  -4.962  30.452  1.00  0.00     0.120 A 
ATOM      4  C   UNL     1     -12.637  -2.408  30.397  1.00  0.00     0.021 A 
ATOM      5  N   UNL     1     -13.017  -4.481  31.513  1.00  0.00    -0.264 NA
ATOM      6  C   UNL     1     -12.478  -3.233  31.510  1.00  0.00     0.111 A 
ENDROOT
BRANCH   1   7
ATOM      7  C   UNL     1     -14.665  -4.683  28.149  1.00  0.00     0.073 C 
ATOM      8  O   UNL     1     -14.467  -4.219  26.994  1.00  0.00    -0.545 OA
ATOM      9  O   UNL     1     -15.611  -5.689  28.318  1.00  0.00    -0.545 OA
ENDBRANCH   1   7
TORSDOF 1
ENDMDL
MODEL 9
REMARK VINA RESULT:    -3.904      1.692      2.187
REMARK INTER + INTRA:          -4.155
REMARK INTER:                  -4.139
REMARK INTRA:                  -0.016
REMARK UNBOUND:                -0.023
REMARK SMILES O=C([O-])c1cccnc1
REMARK SMILES IDX 4 1 5 2 9 3 6 4 8 5 7 6 2 7 1 8 3 9
REMARK H PARENT
REMARK Flexibility Score: inf
ROOT
ATOM      1  C   UNL     1     -13.780  -4.414  30.458  1.00  0.00     0.016 A 
ATOM      2  C   UNL     1     -14.434  -5.238  29.525  1.00  0.00     0.013 A 
ATOM      3  C   UNL     1     -13.975  -4.668  31.826  1.00  0.00     0.120 A 
ATOM      4  C   UNL     1     -15.255  -6.278  29.964  1.00  0.00     0.021 A 
ATOM      5  N   UNL     1     -14.779  -5.689  32.226  1.00  0.00    -0.264 NA
ATOM      6  C   UNL     1     -15.417  -6.490  31.333  1.00  0.00     0.111 A 
ENDROOT
BRANCH   1   7
ATOM      7  C   UNL     1     -12.906  -3.307  30.013  1.00  0.00     0.073 C 
ATOM      8  O   UNL     1     -11.730  -3.534  29.623  1.00  0.00    -0.545 OA
ATOM      9  O   UNL     1     -13.373  -1.996  30.018  1.00  0.00    -0.545 OA
ENDBRANCH   1   7
TORSDOF 1
ENDMDL
