MODEL 1
REMARK VINA RESULT:    -6.999      0.000      0.000
REMARK INTER + INTRA:         -10.192
REMARK INTER:                  -9.454
REMARK INTRA:                  -0.738
REMARK UNBOUND:                -0.738
REMARK SMILES O=c1c(-c2ccc(O)cc2)coc2c([C@H]3O[C@@H](CO)[C@H](O)[C@@H](O)[C@@H]3O)c(O)ccc12
REMARK SMILES IDX 3 1 11 2 12 3 13 4 30 5 2 6 1 7 29 8 28 9 26 10 14 11 4 12
REMARK SMILES IDX 5 13 6 14 7 15 10 16 9 17 8 18 15 20 24 21 16 22 22 23 17 24
REMARK SMILES IDX 20 25 25 26 23 28 18 30 19 31 21 33 27 35
REMARK H PARENT 8 19 25 27 23 29 19 32 21 34 27 36
REMARK Flexibility Score: inf
ROOT
ATOM      1  C   UNL     1      -4.652  -3.818   8.469  1.00  0.00     0.065 A 
ATOM      2  C   UNL     1      -3.586  -4.061   7.592  1.00  0.00     0.208 A 
ATOM      3  O   UNL     1      -3.267  -5.298   7.224  1.00  0.00    -0.463 OA
ATOM      4  C   UNL     1      -3.888  -6.380   7.667  1.00  0.00     0.147 A 
ATOM      5  C   UNL     1      -4.861  -6.232   8.689  1.00  0.00     0.066 A 
ATOM      6  C   UNL     1      -5.293  -4.936   9.038  1.00  0.00     0.200 A 
ATOM      7  O   UNL     1      -6.258  -4.782   9.840  1.00  0.00    -0.288 OA
ATOM      8  C   UNL     1      -5.343  -7.367   9.346  1.00  0.00     0.020 A 
ATOM      9  C   UNL     1      -4.801  -8.619   9.065  1.00  0.00     0.047 A 
ATOM     10  C   UNL     1      -3.883  -8.776   8.018  1.00  0.00     0.125 A 
ATOM     11  C   UNL     1      -3.552  -7.676   7.169  1.00  0.00     0.069 A 
ENDROOT
BRANCH   1  12
ATOM     12  C   UNL     1      -5.088  -2.417   8.746  1.00  0.00    -0.011 A 
ATOM     13  C   UNL     1      -4.446  -1.625   9.720  1.00  0.00     0.013 A 
ATOM     14  C   UNL     1      -4.894  -0.324   9.987  1.00  0.00     0.047 A 
ATOM     15  C   UNL     1      -5.963   0.212   9.259  1.00  0.00     0.115 A 
ATOM     16  C   UNL     1      -6.159  -1.864   8.019  1.00  0.00     0.013 A 
ATOM     17  C   UNL     1      -6.588  -0.558   8.272  1.00  0.00     0.047 A 
BRANCH  15  18
ATOM     18  O   UNL     1      -6.405   1.514   9.500  1.00  0.00    -0.508 OA
ATOM     19  H   UNL     1      -5.872   2.326   9.206  1.00  0.00     0.293 HD
ENDBRANCH  15  18
ENDBRANCH   1  12
BRANCH  11  20
ATOM     20  C   UNL     1      -2.953  -7.972   5.757  1.00  0.00     0.188 C 
ATOM     21  C   UNL     1      -1.926  -6.935   5.190  1.00  0.00     0.179 C 
ATOM     22  O   UNL     1      -4.071  -8.006   4.876  1.00  0.00    -0.362 OA
ATOM     23  C   UNL     1      -1.385  -7.390   3.820  1.00  0.00     0.177 C 
ATOM     24  C   UNL     1      -3.833  -8.136   3.479  1.00  0.00     0.176 C 
ATOM     25  C   UNL     1      -2.358  -8.300   3.038  1.00  0.00     0.177 C 
BRANCH  21  26
ATOM     26  O   UNL     1      -0.810  -6.760   6.014  1.00  0.00    -0.387 OA
ATOM     27  H   UNL     1      -0.014  -6.804   5.426  1.00  0.00     0.211 HD
ENDBRANCH  21  26
BRANCH  23  28
ATOM     28  O   UNL     1      -1.051  -6.252   3.049  1.00  0.00    -0.387 OA
ATOM     29  H   UNL     1      -1.480  -5.457   3.477  1.00  0.00     0.211 HD
ENDBRANCH  23  28
BRANCH  24  30
ATOM     30  C   UNL     1      -4.543  -6.991   2.739  1.00  0.00     0.191 C 
BRANCH  30  31
ATOM     31  O   UNL     1      -4.318  -7.078   1.362  1.00  0.00    -0.394 OA
ATOM     32  H   UNL     1      -4.785  -7.905   1.053  1.00  0.00     0.210 HD
ENDBRANCH  30  31
ENDBRANCH  24  30
BRANCH  25  33
ATOM     33  O   UNL     1      -1.974  -9.650   3.208  1.00  0.00    -0.388 OA
ATOM     34  H   UNL     1      -2.113 -10.106   2.344  1.00  0.00     0.211 HD
ENDBRANCH  25  33
ENDBRANCH  11  20
BRANCH  10  35
ATOM     35  O   UNL     1      -3.320 -10.047   7.868  1.00  0.00    -0.507 OA
ATOM     36  H   UNL     1      -2.407 -10.206   7.460  1.00  0.00     0.293 HD
ENDBRANCH  10  35
TORSDOF 9
ENDMDL
MODEL 2
REMARK VINA RESULT:    -5.923     11.098     14.194
REMARK INTER + INTRA:          -8.739
REMARK INTER:                  -7.835
REMARK INTRA:                  -0.904
REMARK UNBOUND:                -0.738
REMARK SMILES O=c1c(-c2ccc(O)cc2)coc2c([C@H]3O[C@@H](CO)[C@H](O)[C@@H](O)[C@@H]3O)c(O)ccc12
REMARK SMILES IDX 3 1 11 2 12 3 13 4 30 5 2 6 1 7 29 8 28 9 26 10 14 11 4 12
REMARK SMILES IDX 5 13 6 14 7 15 10 16 9 17 8 18 15 20 24 21 16 22 22 23 17 24
REMARK SMILES IDX 20 25 25 26 23 28 18 30 19 31 21 33 27 35
REMARK H PARENT 8 19 25 27 23 29 19 32 21 34 27 36
REMARK Flexibility Score: inf
ROOT
ATOM      1  C   UNL     1      -1.481   5.712   7.528  1.00  0.00     0.065 A 
ATOM      2  C   UNL     1      -2.351   6.513   8.280  1.00  0.00     0.208 A 
ATOM      3  O   UNL     1      -3.424   7.068   7.728  1.00  0.00    -0.463 OA
ATOM      4  C   UNL     1      -3.740   6.945   6.448  1.00  0.00     0.147 A 
ATOM      5  C   UNL     1      -2.821   6.297   5.583  1.00  0.00     0.066 A 
ATOM      6  C   UNL     1      -1.720   5.615   6.143  1.00  0.00     0.200 A 
ATOM      7  O   UNL     1      -0.969   4.912   5.410  1.00  0.00    -0.288 OA
ATOM      8  C   UNL     1      -3.008   6.375   4.201  1.00  0.00     0.020 A 
ATOM      9  C   UNL     1      -4.031   7.164   3.679  1.00  0.00     0.047 A 
ATOM     10  C   UNL     1      -4.974   7.757   4.530  1.00  0.00     0.125 A 
ATOM     11  C   UNL     1      -4.953   7.497   5.933  1.00  0.00     0.069 A 
ENDROOT
BRANCH   1  12
ATOM     12  C   UNL     1      -0.371   4.975   8.202  1.00  0.00    -0.011 A 
ATOM     13  C   UNL     1       0.973   5.156   7.816  1.00  0.00     0.013 A 
ATOM     14  C   UNL     1       1.996   4.429   8.440  1.00  0.00     0.047 A 
ATOM     15  C   UNL     1       1.692   3.543   9.480  1.00  0.00     0.115 A 
ATOM     16  C   UNL     1      -0.662   4.083   9.252  1.00  0.00     0.013 A 
ATOM     17  C   UNL     1       0.364   3.377   9.887  1.00  0.00     0.047 A 
BRANCH  15  18
ATOM     18  O   UNL     1       2.703   2.828  10.124  1.00  0.00    -0.508 OA
ATOM     19  H   UNL     1       3.685   2.971   9.907  1.00  0.00     0.293 HD
ENDBRANCH  15  18
ENDBRANCH   1  12
BRANCH  11  20
ATOM     20  C   UNL     1      -6.256   7.738   6.761  1.00  0.00     0.188 C 
ATOM     21  C   UNL     1      -6.199   8.844   7.869  1.00  0.00     0.179 C 
ATOM     22  O   UNL     1      -6.531   6.495   7.397  1.00  0.00    -0.362 OA
ATOM     23  C   UNL     1      -7.569   9.002   8.558  1.00  0.00     0.177 C 
ATOM     24  C   UNL     1      -7.604   6.431   8.330  1.00  0.00     0.176 C 
ATOM     25  C   UNL     1      -8.433   7.724   8.524  1.00  0.00     0.177 C 
BRANCH  21  26
ATOM     26  O   UNL     1      -5.862  10.106   7.369  1.00  0.00    -0.387 OA
ATOM     27  H   UNL     1      -5.992  10.747   8.112  1.00  0.00     0.211 HD
ENDBRANCH  21  26
BRANCH  23  28
ATOM     28  O   UNL     1      -7.373   9.428   9.892  1.00  0.00    -0.387 OA
ATOM     29  H   UNL     1      -7.535   8.643  10.490  1.00  0.00     0.211 HD
ENDBRANCH  23  28
BRANCH  24  30
ATOM     30  C   UNL     1      -7.080   5.865   9.660  1.00  0.00     0.191 C 
BRANCH  30  31
ATOM     31  O   UNL     1      -5.689   5.984   9.734  1.00  0.00    -0.394 OA
ATOM     32  H   UNL     1      -5.316   5.112   9.418  1.00  0.00     0.210 HD
ENDBRANCH  30  31
ENDBRANCH  24  30
BRANCH  25  33
ATOM     33  O   UNL     1      -9.379   7.824   7.478  1.00  0.00    -0.388 OA
ATOM     34  H   UNL     1     -10.118   7.205   7.687  1.00  0.00     0.211 HD
ENDBRANCH  25  33
ENDBRANCH  11  20
BRANCH  10  35
ATOM     35  O   UNL     1      -5.909   8.606   3.928  1.00  0.00    -0.507 OA
ATOM     36  H   UNL     1      -5.700   9.559   3.657  1.00  0.00     0.293 HD
ENDBRANCH  10  35
TORSDOF 9
ENDMDL
MODEL 3
REMARK VINA RESULT:    -5.656     13.799     15.371
REMARK INTER + INTRA:          -8.378
REMARK INTER:                  -7.871
REMARK INTRA:                  -0.507
REMARK UNBOUND:                -0.738
REMARK SMILES O=c1c(-c2ccc(O)cc2)coc2c([C@H]3O[C@@H](CO)[C@H](O)[C@@H](O)[C@@H]3O)c(O)ccc12
REMARK SMILES IDX 3 1 11 2 12 3 13 4 30 5 2 6 1 7 29 8 28 9 26 10 14 11 4 12
REMARK SMILES IDX 5 13 6 14 7 15 10 16 9 17 8 18 15 20 24 21 16 22 22 23 17 24
REMARK SMILES IDX 20 25 25 26 23 28 18 30 19 31 21 33 27 35
REMARK H PARENT 8 19 25 27 23 29 19 32 21 34 27 36
REMARK Flexibility Score: inf
ROOT
ATOM      1  C   UNL     1      -8.618   0.410  -5.991  1.00  0.00     0.065 A 
ATOM      2  C   UNL     1      -7.832  -0.641  -5.500  1.00  0.00     0.208 A 
ATOM      3  O   UNL     1      -7.587  -1.719  -6.236  1.00  0.00    -0.463 OA
ATOM      4  C   UNL     1      -8.078  -1.907  -7.452  1.00  0.00     0.147 A 
ATOM      5  C   UNL     1      -9.022  -0.973  -7.953  1.00  0.00     0.066 A 
ATOM      6  C   UNL     1      -9.236   0.228  -7.244  1.00  0.00     0.200 A 
ATOM      7  O   UNL     1      -9.961   1.138  -7.740  1.00  0.00    -0.288 OA
ATOM      8  C   UNL     1      -9.738  -1.277  -9.113  1.00  0.00     0.020 A 
ATOM      9  C   UNL     1      -9.596  -2.526  -9.713  1.00  0.00     0.047 A 
ATOM     10  C   UNL     1      -8.624  -3.426  -9.256  1.00  0.00     0.125 A 
ATOM     11  C   UNL     1      -7.710  -3.049  -8.225  1.00  0.00     0.069 A 
ENDROOT
BRANCH   1  12
ATOM     12  C   UNL     1      -8.751   1.674  -5.209  1.00  0.00    -0.011 A 
ATOM     13  C   UNL     1      -9.978   2.364  -5.129  1.00  0.00     0.013 A 
ATOM     14  C   UNL     1     -10.072   3.568  -4.416  1.00  0.00     0.047 A 
ATOM     15  C   UNL     1      -8.952   4.074  -3.745  1.00  0.00     0.115 A 
ATOM     16  C   UNL     1      -7.634   2.193  -4.526  1.00  0.00     0.013 A 
ATOM     17  C   UNL     1      -7.737   3.382  -3.798  1.00  0.00     0.047 A 
BRANCH  15  18
ATOM     18  O   UNL     1      -9.037   5.260  -3.015  1.00  0.00    -0.508 OA
ATOM     19  H   UNL     1      -9.812   5.907  -3.127  1.00  0.00     0.293 HD
ENDBRANCH  15  18
ENDBRANCH   1  12
BRANCH  11  20
ATOM     20  C   UNL     1      -6.367  -3.836  -8.090  1.00  0.00     0.188 C 
ATOM     21  C   UNL     1      -5.292  -3.605  -9.206  1.00  0.00     0.179 C 
ATOM     22  O   UNL     1      -6.734  -5.210  -8.114  1.00  0.00    -0.362 OA
ATOM     23  C   UNL     1      -4.009  -4.403  -8.906  1.00  0.00     0.177 C 
ATOM     24  C   UNL     1      -5.703  -6.191  -8.133  1.00  0.00     0.176 C 
ATOM     25  C   UNL     1      -4.247  -5.668  -8.054  1.00  0.00     0.177 C 
BRANCH  21  26
ATOM     26  O   UNL     1      -4.904  -2.267  -9.326  1.00  0.00    -0.387 OA
ATOM     27  H   UNL     1      -4.698  -2.118 -10.283  1.00  0.00     0.211 HD
ENDBRANCH  21  26
BRANCH  23  28
ATOM     28  O   UNL     1      -3.377  -4.744 -10.125  1.00  0.00    -0.387 OA
ATOM     29  H   UNL     1      -2.427  -4.435 -10.073  1.00  0.00     0.211 HD
ENDBRANCH  23  28
BRANCH  24  30
ATOM     30  C   UNL     1      -5.924  -7.132  -9.327  1.00  0.00     0.191 C 
BRANCH  30  31
ATOM     31  O   UNL     1      -6.711  -8.226  -8.955  1.00  0.00    -0.394 OA
ATOM     32  H   UNL     1      -6.294  -8.603  -8.129  1.00  0.00     0.210 HD
ENDBRANCH  30  31
ENDBRANCH  24  30
BRANCH  25  33
ATOM     33  O   UNL     1      -3.931  -5.391  -6.705  1.00  0.00    -0.388 OA
ATOM     34  H   UNL     1      -3.315  -6.097  -6.395  1.00  0.00     0.211 HD
ENDBRANCH  25  33
ENDBRANCH  11  20
BRANCH  10  35
ATOM     35  O   UNL     1      -8.614  -4.689  -9.856  1.00  0.00    -0.507 OA
ATOM     36  H   UNL     1      -8.244  -5.516  -9.403  1.00  0.00     0.293 HD
ENDBRANCH  10  35
TORSDOF 9
ENDMDL
MODEL 4
REMARK VINA RESULT:    -5.379     10.980     13.625
REMARK INTER + INTRA:          -8.004
REMARK INTER:                  -6.825
REMARK INTRA:                  -1.179
REMARK UNBOUND:                -0.738
REMARK SMILES O=c1c(-c2ccc(O)cc2)coc2c([C@H]3O[C@@H](CO)[C@H](O)[C@@H](O)[C@@H]3O)c(O)ccc12
REMARK SMILES IDX 3 1 11 2 12 3 13 4 30 5 2 6 1 7 29 8 28 9 26 10 14 11 4 12
REMARK SMILES IDX 5 13 6 14 7 15 10 16 9 17 8 18 15 20 24 21 16 22 22 23 17 24
REMARK SMILES IDX 20 25 25 26 23 28 18 30 19 31 21 33 27 35
REMARK H PARENT 8 19 25 27 23 29 19 32 21 34 27 36
REMARK Flexibility Score: inf
ROOT
ATOM      1  C   UNL     1      -4.826   7.913   7.487  1.00  0.00     0.065 A 
ATOM      2  C   UNL     1      -4.181   6.672   7.579  1.00  0.00     0.208 A 
ATOM      3  O   UNL     1      -2.906   6.533   7.233  1.00  0.00    -0.463 OA
ATOM      4  C   UNL     1      -2.163   7.517   6.751  1.00  0.00     0.147 A 
ATOM      5  C   UNL     1      -2.787   8.759   6.463  1.00  0.00     0.066 A 
ATOM      6  C   UNL     1      -4.110   8.975   6.902  1.00  0.00     0.200 A 
ATOM      7  O   UNL     1      -4.639  10.118   6.786  1.00  0.00    -0.288 OA
ATOM      8  C   UNL     1      -2.092   9.721   5.727  1.00  0.00     0.020 A 
ATOM      9  C   UNL     1      -0.838   9.424   5.200  1.00  0.00     0.047 A 
ATOM     10  C   UNL     1      -0.195   8.223   5.530  1.00  0.00     0.125 A 
ATOM     11  C   UNL     1      -0.775   7.324   6.476  1.00  0.00     0.069 A 
ENDROOT
BRANCH   1  12
ATOM     12  C   UNL     1      -6.209   8.080   8.025  1.00  0.00    -0.011 A 
ATOM     13  C   UNL     1      -7.340   7.682   7.284  1.00  0.00     0.013 A 
ATOM     14  C   UNL     1      -8.631   7.879   7.795  1.00  0.00     0.047 A 
ATOM     15  C   UNL     1      -8.803   8.439   9.067  1.00  0.00     0.115 A 
ATOM     16  C   UNL     1      -6.396   8.639   9.304  1.00  0.00     0.013 A 
ATOM     17  C   UNL     1      -7.684   8.812   9.820  1.00  0.00     0.047 A 
BRANCH  15  18
ATOM     18  O   UNL     1     -10.081   8.622   9.596  1.00  0.00    -0.508 OA
ATOM     19  H   UNL     1     -10.524   7.923  10.185  1.00  0.00     0.293 HD
ENDBRANCH  15  18
ENDBRANCH   1  12
BRANCH  11  20
ATOM     20  C   UNL     1       0.150   6.287   7.190  1.00  0.00     0.188 C 
ATOM     21  C   UNL     1       0.100   4.812   6.668  1.00  0.00     0.179 C 
ATOM     22  O   UNL     1      -0.271   6.284   8.550  1.00  0.00    -0.362 OA
ATOM     23  C   UNL     1       1.102   3.924   7.431  1.00  0.00     0.177 C 
ATOM     24  C   UNL     1       0.309   5.337   9.441  1.00  0.00     0.176 C 
ATOM     25  C   UNL     1       1.415   4.424   8.858  1.00  0.00     0.177 C 
BRANCH  21  26
ATOM     26  O   UNL     1       0.426   4.697   5.313  1.00  0.00    -0.387 OA
ATOM     27  H   UNL     1       1.394   4.489   5.272  1.00  0.00     0.211 HD
ENDBRANCH  21  26
BRANCH  23  28
ATOM     28  O   UNL     1       0.613   2.597   7.472  1.00  0.00    -0.387 OA
ATOM     29  H   UNL     1      -0.105   2.558   8.167  1.00  0.00     0.211 HD
ENDBRANCH  23  28
BRANCH  24  30
ATOM     30  C   UNL     1      -0.812   4.538  10.125  1.00  0.00     0.191 C 
BRANCH  30  31
ATOM     31  O   UNL     1      -2.043   4.790   9.513  1.00  0.00    -0.394 OA
ATOM     32  H   UNL     1      -1.837   5.228   8.638  1.00  0.00     0.210 HD
ENDBRANCH  30  31
ENDBRANCH  24  30
BRANCH  25  33
ATOM     33  O   UNL     1       2.638   5.132   8.848  1.00  0.00    -0.388 OA
ATOM     34  H   UNL     1       2.520   5.931   9.415  1.00  0.00     0.211 HD
ENDBRANCH  25  33
ENDBRANCH  11  20
BRANCH  10  35
ATOM     35  O   UNL     1       1.018   7.966   4.883  1.00  0.00    -0.507 OA
ATOM     36  H   UNL     1       1.239   7.078   4.450  1.00  0.00     0.293 HD
ENDBRANCH  10  35
TORSDOF 9
ENDMDL
MODEL 5
REMARK VINA RESULT:    -5.359     11.151     14.580
REMARK INTER + INTRA:          -7.978
REMARK INTER:                  -7.113
REMARK INTRA:                  -0.864
REMARK UNBOUND:                -0.738
REMARK SMILES O=c1c(-c2ccc(O)cc2)coc2c([C@H]3O[C@@H](CO)[C@H](O)[C@@H](O)[C@@H]3O)c(O)ccc12
REMARK SMILES IDX 3 1 11 2 12 3 13 4 30 5 2 6 1 7 29 8 28 9 26 10 14 11 4 12
REMARK SMILES IDX 5 13 6 14 7 15 10 16 9 17 8 18 15 20 24 21 16 22 22 23 17 24
REMARK SMILES IDX 20 25 25 26 23 28 18 30 19 31 21 33 27 35
REMARK H PARENT 8 19 25 27 23 29 19 32 21 34 27 36
REMARK Flexibility Score: inf
ROOT
ATOM      1  C   UNL     1      -1.402   5.817   7.627  1.00  0.00     0.065 A 
ATOM      2  C   UNL     1      -2.103   6.762   8.388  1.00  0.00     0.208 A 
ATOM      3  O   UNL     1      -3.190   7.359   7.912  1.00  0.00    -0.463 OA
ATOM      4  C   UNL     1      -3.674   7.146   6.698  1.00  0.00     0.147 A 
ATOM      5  C   UNL     1      -2.927   6.336   5.803  1.00  0.00     0.066 A 
ATOM      6  C   UNL     1      -1.822   5.612   6.298  1.00  0.00     0.200 A 
ATOM      7  O   UNL     1      -1.228   4.776   5.559  1.00  0.00    -0.288 OA
ATOM      8  C   UNL     1      -3.281   6.301   4.452  1.00  0.00     0.020 A 
ATOM      9  C   UNL     1      -4.295   7.128   3.975  1.00  0.00     0.047 A 
ATOM     10  C   UNL     1      -5.072   7.883   4.864  1.00  0.00     0.125 A 
ATOM     11  C   UNL     1      -4.894   7.756   6.275  1.00  0.00     0.069 A 
ENDROOT
BRANCH   1  12
ATOM     12  C   UNL     1      -0.278   5.048   8.239  1.00  0.00    -0.011 A 
ATOM     13  C   UNL     1       1.056   5.241   7.826  1.00  0.00     0.013 A 
ATOM     14  C   UNL     1       2.092   4.484   8.390  1.00  0.00     0.047 A 
ATOM     15  C   UNL     1       1.811   3.554   9.399  1.00  0.00     0.115 A 
ATOM     16  C   UNL     1      -0.545   4.112   9.257  1.00  0.00     0.013 A 
ATOM     17  C   UNL     1       0.493   3.376   9.833  1.00  0.00     0.047 A 
BRANCH  15  18
ATOM     18  O   UNL     1       2.836   2.809   9.984  1.00  0.00    -0.508 OA
ATOM     19  H   UNL     1       2.833   1.793   9.978  1.00  0.00     0.293 HD
ENDBRANCH  15  18
ENDBRANCH   1  12
BRANCH  11  20
ATOM     20  C   UNL     1      -6.058   8.193   7.221  1.00  0.00     0.188 C 
ATOM     21  C   UNL     1      -7.236   7.179   7.414  1.00  0.00     0.179 C 
ATOM     22  O   UNL     1      -6.591   9.376   6.635  1.00  0.00    -0.362 OA
ATOM     23  C   UNL     1      -8.276   7.727   8.410  1.00  0.00     0.177 C 
ATOM     24  C   UNL     1      -7.760   9.953   7.207  1.00  0.00     0.176 C 
ATOM     25  C   UNL     1      -8.319   9.269   8.479  1.00  0.00     0.177 C 
BRANCH  21  26
ATOM     26  O   UNL     1      -6.820   5.944   7.919  1.00  0.00    -0.387 OA
ATOM     27  H   UNL     1      -5.912   6.082   8.290  1.00  0.00     0.211 HD
ENDBRANCH  21  26
BRANCH  23  28
ATOM     28  O   UNL     1      -9.552   7.215   8.082  1.00  0.00    -0.387 OA
ATOM     29  H   UNL     1     -10.016   6.978   8.936  1.00  0.00     0.211 HD
ENDBRANCH  23  28
BRANCH  24  30
ATOM     30  C   UNL     1      -8.827  10.118   6.113  1.00  0.00     0.191 C 
BRANCH  30  31
ATOM     31  O   UNL     1     -10.111  10.070   6.664  1.00  0.00    -0.394 OA
ATOM     32  H   UNL     1     -10.517  10.970   6.506  1.00  0.00     0.210 HD
ENDBRANCH  30  31
ENDBRANCH  24  30
BRANCH  25  33
ATOM     33  O   UNL     1      -7.579   9.709   9.600  1.00  0.00    -0.388 OA
ATOM     34  H   UNL     1      -8.128   9.538  10.402  1.00  0.00     0.211 HD
ENDBRANCH  25  33
ENDBRANCH  11  20
BRANCH  10  35
ATOM     35  O   UNL     1      -6.005   8.754   4.291  1.00  0.00    -0.507 OA
ATOM     36  H   UNL     1      -6.498   9.464   4.819  1.00  0.00     0.293 HD
ENDBRANCH  10  35
TORSDOF 9
ENDMDL
MODEL 6
REMARK VINA RESULT:    -5.058     13.615     16.268
REMARK INTER + INTRA:          -7.571
REMARK INTER:                  -6.467
REMARK INTRA:                  -1.103
REMARK UNBOUND:                -0.738
REMARK SMILES O=c1c(-c2ccc(O)cc2)coc2c([C@H]3O[C@@H](CO)[C@H](O)[C@@H](O)[C@@H]3O)c(O)ccc12
REMARK SMILES IDX 3 1 11 2 12 3 13 4 30 5 2 6 1 7 29 8 28 9 26 10 14 11 4 12
REMARK SMILES IDX 5 13 6 14 7 15 10 16 9 17 8 18 15 20 24 21 16 22 22 23 17 24
REMARK SMILES IDX 20 25 25 26 23 28 18 30 19 31 21 33 27 35
REMARK H PARENT 8 19 25 27 23 29 19 32 21 34 27 36
REMARK Flexibility Score: inf
ROOT
ATOM      1  C   UNL     1      -3.824  -3.405  -8.321  1.00  0.00     0.065 A 
ATOM      2  C   UNL     1      -4.642  -2.273  -8.205  1.00  0.00     0.208 A 
ATOM      3  O   UNL     1      -5.912  -2.379  -7.829  1.00  0.00    -0.463 OA
ATOM      4  C   UNL     1      -6.510  -3.533  -7.571  1.00  0.00     0.147 A 
ATOM      5  C   UNL     1      -5.802  -4.735  -7.833  1.00  0.00     0.066 A 
ATOM      6  C   UNL     1      -4.428  -4.665  -8.142  1.00  0.00     0.200 A 
ATOM      7  O   UNL     1      -3.744  -5.724  -8.238  1.00  0.00    -0.288 OA
ATOM      8  C   UNL     1      -6.488  -5.952  -7.811  1.00  0.00     0.020 A 
ATOM      9  C   UNL     1      -7.869  -5.972  -7.631  1.00  0.00     0.047 A 
ATOM     10  C   UNL     1      -8.560  -4.794  -7.314  1.00  0.00     0.125 A 
ATOM     11  C   UNL     1      -7.853  -3.574  -7.090  1.00  0.00     0.069 A 
ENDROOT
BRANCH   1  12
ATOM     12  C   UNL     1      -2.364  -3.248  -8.594  1.00  0.00    -0.011 A 
ATOM     13  C   UNL     1      -1.396  -3.553  -7.615  1.00  0.00     0.013 A 
ATOM     14  C   UNL     1      -0.033  -3.366  -7.882  1.00  0.00     0.047 A 
ATOM     15  C   UNL     1       0.380  -2.910  -9.139  1.00  0.00     0.115 A 
ATOM     16  C   UNL     1      -1.935  -2.793  -9.856  1.00  0.00     0.013 A 
ATOM     17  C   UNL     1      -0.573  -2.630 -10.125  1.00  0.00     0.047 A 
BRANCH  15  18
ATOM     18  O   UNL     1       1.735  -2.739  -9.425  1.00  0.00    -0.508 OA
ATOM     19  H   UNL     1       2.316  -2.086  -8.908  1.00  0.00     0.293 HD
ENDBRANCH  15  18
ENDBRANCH   1  12
BRANCH  11  20
ATOM     20  C   UNL     1      -8.553  -2.442  -6.271  1.00  0.00     0.188 C 
ATOM     21  C   UNL     1      -9.162  -1.250  -7.085  1.00  0.00     0.179 C 
ATOM     22  O   UNL     1      -7.542  -1.917  -5.418  1.00  0.00    -0.362 OA
ATOM     23  C   UNL     1      -9.862  -0.246  -6.148  1.00  0.00     0.177 C 
ATOM     24  C   UNL     1      -7.845  -0.774  -4.625  1.00  0.00     0.176 C 
ATOM     25  C   UNL     1      -9.294  -0.234  -4.713  1.00  0.00     0.177 C 
BRANCH  21  26
ATOM     26  O   UNL     1     -10.123  -1.655  -8.016  1.00  0.00    -0.387 OA
ATOM     27  H   UNL     1      -9.979  -1.106  -8.828  1.00  0.00     0.211 HD
ENDBRANCH  21  26
BRANCH  23  28
ATOM     28  O   UNL     1      -9.791   1.048  -6.715  1.00  0.00    -0.387 OA
ATOM     29  H   UNL     1      -8.941   1.107  -7.236  1.00  0.00     0.211 HD
ENDBRANCH  23  28
BRANCH  24  30
ATOM     30  C   UNL     1      -6.795   0.316  -4.893  1.00  0.00     0.191 C 
BRANCH  30  31
ATOM     31  O   UNL     1      -6.141   0.085  -6.107  1.00  0.00    -0.394 OA
ATOM     32  H   UNL     1      -5.232  -0.260  -5.874  1.00  0.00     0.210 HD
ENDBRANCH  30  31
ENDBRANCH  24  30
BRANCH  25  33
ATOM     33  O   UNL     1     -10.125  -1.010  -3.873  1.00  0.00    -0.388 OA
ATOM     34  H   UNL     1      -9.683  -1.883  -3.746  1.00  0.00     0.211 HD
ENDBRANCH  25  33
ENDBRANCH  11  20
BRANCH  10  35
ATOM     35  O   UNL     1      -9.953  -4.890  -7.243  1.00  0.00    -0.507 OA
ATOM     36  H   UNL     1     -10.548  -4.125  -6.947  1.00  0.00     0.293 HD
ENDBRANCH  10  35
TORSDOF 9
ENDMDL
MODEL 7
REMARK VINA RESULT:    -4.392     13.329     15.428
REMARK INTER + INTRA:          -6.671
REMARK INTER:                  -6.096
REMARK INTRA:                  -0.575
REMARK UNBOUND:                -0.738
REMARK SMILES O=c1c(-c2ccc(O)cc2)coc2c([C@H]3O[C@@H](CO)[C@H](O)[C@@H](O)[C@@H]3O)c(O)ccc12
REMARK SMILES IDX 3 1 11 2 12 3 13 4 30 5 2 6 1 7 29 8 28 9 26 10 14 11 4 12
REMARK SMILES IDX 5 13 6 14 7 15 10 16 9 17 8 18 15 20 24 21 16 22 22 23 17 24
REMARK SMILES IDX 20 25 25 26 23 28 18 30 19 31 21 33 27 35
REMARK H PARENT 8 19 25 27 23 29 19 32 21 34 27 36
REMARK Flexibility Score: inf
ROOT
ATOM      1  C   UNL     1      -9.713   0.136  -5.905  1.00  0.00     0.065 A 
ATOM      2  C   UNL     1      -9.809  -1.120  -5.290  1.00  0.00     0.208 A 
ATOM      3  O   UNL     1      -9.749  -2.240  -6.002  1.00  0.00    -0.463 OA
ATOM      4  C   UNL     1      -9.629  -2.269  -7.320  1.00  0.00     0.147 A 
ATOM      5  C   UNL     1      -9.700  -1.043  -8.033  1.00  0.00     0.066 A 
ATOM      6  C   UNL     1      -9.670   0.169  -7.312  1.00  0.00     0.200 A 
ATOM      7  O   UNL     1      -9.587   1.271  -7.926  1.00  0.00    -0.288 OA
ATOM      8  C   UNL     1      -9.831  -1.066  -9.424  1.00  0.00     0.020 A 
ATOM      9  C   UNL     1      -9.988  -2.279 -10.090  1.00  0.00     0.047 A 
ATOM     10  C   UNL     1      -9.860  -3.491  -9.397  1.00  0.00     0.125 A 
ATOM     11  C   UNL     1      -9.485  -3.506  -8.019  1.00  0.00     0.069 A 
ENDROOT
BRANCH   1  12
ATOM     12  C   UNL     1      -9.628   1.372  -5.072  1.00  0.00    -0.011 A 
ATOM     13  C   UNL     1      -9.064   1.351  -3.780  1.00  0.00     0.013 A 
ATOM     14  C   UNL     1      -9.026   2.517  -3.002  1.00  0.00     0.047 A 
ATOM     15  C   UNL     1      -9.515   3.722  -3.521  1.00  0.00     0.115 A 
ATOM     16  C   UNL     1     -10.113   2.592  -5.582  1.00  0.00     0.013 A 
ATOM     17  C   UNL     1     -10.051   3.757  -4.812  1.00  0.00     0.047 A 
BRANCH  15  18
ATOM     18  O   UNL     1      -9.463   4.894  -2.765  1.00  0.00    -0.508 OA
ATOM     19  H   UNL     1      -9.541   4.886  -1.753  1.00  0.00     0.293 HD
ENDBRANCH  15  18
ENDBRANCH   1  12
BRANCH  11  20
ATOM     20  C   UNL     1      -8.872  -4.813  -7.422  1.00  0.00     0.188 C 
ATOM     21  C   UNL     1      -7.441  -5.216  -7.916  1.00  0.00     0.179 C 
ATOM     22  O   UNL     1      -9.771  -5.851  -7.794  1.00  0.00    -0.362 OA
ATOM     23  C   UNL     1      -6.952  -6.490  -7.201  1.00  0.00     0.177 C 
ATOM     24  C   UNL     1      -9.417  -7.198  -7.496  1.00  0.00     0.176 C 
ATOM     25  C   UNL     1      -8.094  -7.412  -6.721  1.00  0.00     0.177 C 
BRANCH  21  26
ATOM     26  O   UNL     1      -6.478  -4.232  -7.670  1.00  0.00    -0.387 OA
ATOM     27  H   UNL     1      -6.842  -3.385  -8.030  1.00  0.00     0.211 HD
ENDBRANCH  21  26
BRANCH  23  28
ATOM     28  O   UNL     1      -6.077  -7.198  -8.057  1.00  0.00    -0.387 OA
ATOM     29  H   UNL     1      -5.444  -7.718  -7.484  1.00  0.00     0.211 HD
ENDBRANCH  23  28
BRANCH  24  30
ATOM     30  C   UNL     1      -9.484  -8.032  -8.786  1.00  0.00     0.191 C 
BRANCH  30  31
ATOM     31  O   UNL     1      -9.476  -7.203  -9.912  1.00  0.00    -0.394 OA
ATOM     32  H   UNL     1      -9.572  -7.806 -10.704  1.00  0.00     0.210 HD
ENDBRANCH  30  31
ENDBRANCH  24  30
BRANCH  25  33
ATOM     33  O   UNL     1      -8.328  -7.191  -5.344  1.00  0.00    -0.388 OA
ATOM     34  H   UNL     1      -7.849  -7.897  -4.848  1.00  0.00     0.211 HD
ENDBRANCH  25  33
ENDBRANCH  11  20
BRANCH  10  35
ATOM     35  O   UNL     1     -10.124  -4.656 -10.125  1.00  0.00    -0.507 OA
ATOM     36  H   UNL     1     -10.847  -4.717 -10.832  1.00  0.00     0.293 HD
ENDBRANCH  10  35
TORSDOF 9
ENDMDL
MODEL 8
REMARK VINA RESULT:    -4.336      8.273     12.811
REMARK INTER + INTRA:          -6.595
REMARK INTER:                  -6.244
REMARK INTRA:                  -0.351
REMARK UNBOUND:                -0.738
REMARK SMILES O=c1c(-c2ccc(O)cc2)coc2c([C@H]3O[C@@H](CO)[C@H](O)[C@@H](O)[C@@H]3O)c(O)ccc12
REMARK SMILES IDX 3 1 11 2 12 3 13 4 30 5 2 6 1 7 29 8 28 9 26 10 14 11 4 12
REMARK SMILES IDX 5 13 6 14 7 15 10 16 9 17 8 18 15 20 24 21 16 22 22 23 17 24
REMARK SMILES IDX 20 25 25 26 23 28 18 30 19 31 21 33 27 35
REMARK H PARENT 8 19 25 27 23 29 19 32 21 34 27 36
REMARK Flexibility Score: inf
ROOT
ATOM      1  C   UNL     1      -4.182   3.912   9.236  1.00  0.00     0.065 A 
ATOM      2  C   UNL     1      -4.529   5.130   8.636  1.00  0.00     0.208 A 
ATOM      3  O   UNL     1      -3.601   6.019   8.300  1.00  0.00    -0.463 OA
ATOM      4  C   UNL     1      -2.307   5.853   8.526  1.00  0.00     0.147 A 
ATOM      5  C   UNL     1      -1.890   4.727   9.284  1.00  0.00     0.066 A 
ATOM      6  C   UNL     1      -2.830   3.717   9.577  1.00  0.00     0.200 A 
ATOM      7  O   UNL     1      -2.455   2.641  10.125  1.00  0.00    -0.288 OA
ATOM      8  C   UNL     1      -0.574   4.662   9.748  1.00  0.00     0.020 A 
ATOM      9  C   UNL     1       0.289   5.737   9.550  1.00  0.00     0.047 A 
ATOM     10  C   UNL     1      -0.100   6.823   8.754  1.00  0.00     0.125 A 
ATOM     11  C   UNL     1      -1.351   6.808   8.064  1.00  0.00     0.069 A 
ENDROOT
BRANCH   1  12
ATOM     12  C   UNL     1      -5.224   2.866   9.463  1.00  0.00    -0.011 A 
ATOM     13  C   UNL     1      -6.530   3.206   9.871  1.00  0.00     0.013 A 
ATOM     14  C   UNL     1      -7.483   2.206  10.111  1.00  0.00     0.047 A 
ATOM     15  C   UNL     1      -7.152   0.860   9.910  1.00  0.00     0.115 A 
ATOM     16  C   UNL     1      -4.906   1.509   9.262  1.00  0.00     0.013 A 
ATOM     17  C   UNL     1      -5.866   0.517   9.480  1.00  0.00     0.047 A 
BRANCH  15  18
ATOM     18  O   UNL     1      -8.097  -0.144  10.125  1.00  0.00    -0.508 OA
ATOM     19  H   UNL     1      -8.398  -0.409  11.058  1.00  0.00     0.293 HD
ENDBRANCH  15  18
ENDBRANCH   1  12
BRANCH  11  20
ATOM     20  C   UNL     1      -1.538   7.747   6.830  1.00  0.00     0.188 C 
ATOM     21  C   UNL     1      -2.722   8.770   6.888  1.00  0.00     0.179 C 
ATOM     22  O   UNL     1      -1.767   6.875   5.728  1.00  0.00    -0.362 OA
ATOM     23  C   UNL     1      -2.744   9.658   5.629  1.00  0.00     0.177 C 
ATOM     24  C   UNL     1      -2.099   7.445   4.467  1.00  0.00     0.176 C 
ATOM     25  C   UNL     1      -2.116   8.991   4.386  1.00  0.00     0.177 C 
BRANCH  21  26
ATOM     26  O   UNL     1      -2.644   9.639   7.981  1.00  0.00    -0.387 OA
ATOM     27  H   UNL     1      -3.336   9.344   8.626  1.00  0.00     0.211 HD
ENDBRANCH  21  26
BRANCH  23  28
ATOM     28  O   UNL     1      -4.076  10.047   5.356  1.00  0.00    -0.387 OA
ATOM     29  H   UNL     1      -4.317   9.699   4.450  1.00  0.00     0.211 HD
ENDBRANCH  23  28
BRANCH  24  30
ATOM     30  C   UNL     1      -3.407   6.817   3.960  1.00  0.00     0.191 C 
BRANCH  30  31
ATOM     31  O   UNL     1      -3.962   7.590   2.936  1.00  0.00    -0.394 OA
ATOM     32  H   UNL     1      -4.472   6.958   2.352  1.00  0.00     0.210 HD
ENDBRANCH  30  31
ENDBRANCH  24  30
BRANCH  25  33
ATOM     33  O   UNL     1      -0.791   9.457   4.224  1.00  0.00    -0.388 OA
ATOM     34  H   UNL     1      -0.243   9.040   4.931  1.00  0.00     0.211 HD
ENDBRANCH  25  33
ENDBRANCH  11  20
BRANCH  10  35
ATOM     35  O   UNL     1       0.792   7.897   8.686  1.00  0.00    -0.507 OA
ATOM     36  H   UNL     1       1.335   8.220   9.478  1.00  0.00     0.293 HD
ENDBRANCH  10  35
TORSDOF 9
ENDMDL
