MODEL 1
REMARK VINA RESULT:    -3.426      0.000      0.000
REMARK INTER + INTRA:          -5.452
REMARK INTER:                  -4.828
REMARK INTRA:                  -0.625
REMARK UNBOUND:                -0.625
REMARK SMILES C=CCCCCCCC(=O)[O-]
REMARK SMILES IDX 6 1 7 2 8 3 9 4 10 5 11 6 5 7 4 8 3 9 2 10 1 11
REMARK H PARENT
REMARK Flexibility Score: inf
ROOT
ATOM      1  C   UNL     1     203.987 195.484 223.678  1.00  0.00     0.000 C 
ENDROOT
BRANCH   1   2
ATOM      2  C   UNL     1     203.195 194.890 224.854  1.00  0.00     0.006 C 
BRANCH   2   3
ATOM      3  C   UNL     1     202.377 193.660 224.441  1.00  0.00     0.053 C 
BRANCH   3   4
ATOM      4  C   UNL     1     200.934 193.998 224.222  1.00  0.00     0.041 C 
ATOM      5  O   UNL     1     200.205 194.319 225.196  1.00  0.00    -0.550 OA
ATOM      6  O   UNL     1     200.386 193.923 222.948  1.00  0.00    -0.550 OA
ENDBRANCH   3   4
ENDBRANCH   2   3
ENDBRANCH   1   2
BRANCH   1   7
ATOM      7  C   UNL     1     204.816 196.695 224.132  1.00  0.00     0.000 C 
BRANCH   7   8
ATOM      8  C   UNL     1     205.149 196.655 225.632  1.00  0.00     0.004 C 
BRANCH   8   9
ATOM      9  C   UNL     1     206.584 196.179 225.905  1.00  0.00     0.027 C 
BRANCH   9  10
ATOM     10  C   UNL     1     206.588 194.842 226.594  1.00  0.00    -0.035 C 
ATOM     11  C   UNL     1     206.539 193.696 225.908  1.00  0.00     0.004 C 
ENDBRANCH   9  10
ENDBRANCH   8   9
ENDBRANCH   7   8
ENDBRANCH   1   7
TORSDOF 7
ENDMDL
MODEL 2
REMARK VINA RESULT:    -3.393      0.605      1.525
REMARK INTER + INTRA:          -5.406
REMARK INTER:                  -4.683
REMARK INTRA:                  -0.723
REMARK UNBOUND:                -0.625
REMARK SMILES C=CCCCCCCC(=O)[O-]
REMARK SMILES IDX 6 1 7 2 8 3 9 4 10 5 11 6 5 7 4 8 3 9 2 10 1 11
REMARK H PARENT
REMARK Flexibility Score: inf
ROOT
ATOM      1  C   UNL     1     204.714 196.534 224.019  1.00  0.00     0.000 C 
ENDROOT
BRANCH   1   2
ATOM      2  C   UNL     1     203.876 195.324 223.577  1.00  0.00     0.006 C 
BRANCH   2   3
ATOM      3  C   UNL     1     203.131 194.673 224.749  1.00  0.00     0.053 C 
BRANCH   3   4
ATOM      4  C   UNL     1     201.761 194.213 224.354  1.00  0.00     0.041 C 
ATOM      5  O   UNL     1     201.556 193.757 223.199  1.00  0.00    -0.550 OA
ATOM      6  O   UNL     1     200.704 194.321 225.249  1.00  0.00    -0.550 OA
ENDBRANCH   3   4
ENDBRANCH   2   3
ENDBRANCH   1   2
BRANCH   1   7
ATOM      7  C   UNL     1     204.854 196.575 225.549  1.00  0.00     0.000 C 
BRANCH   7   8
ATOM      8  C   UNL     1     206.315 196.462 226.012  1.00  0.00     0.004 C 
BRANCH   8   9
ATOM      9  C   UNL     1     206.593 195.157 226.774  1.00  0.00     0.027 C 
BRANCH   9  10
ATOM     10  C   UNL     1     206.967 194.048 225.829  1.00  0.00    -0.035 C 
ATOM     11  C   UNL     1     206.217 192.949 225.702  1.00  0.00     0.004 C 
ENDBRANCH   9  10
ENDBRANCH   8   9
ENDBRANCH   7   8
ENDBRANCH   1   7
TORSDOF 7
ENDMDL
MODEL 3
REMARK VINA RESULT:    -3.367      2.866      4.807
REMARK INTER + INTRA:          -5.369
REMARK INTER:                  -4.779
REMARK INTRA:                  -0.590
REMARK UNBOUND:                -0.625
REMARK SMILES C=CCCCCCCC(=O)[O-]
REMARK SMILES IDX 6 1 7 2 8 3 9 4 10 5 11 6 5 7 4 8 3 9 2 10 1 11
REMARK H PARENT
REMARK Flexibility Score: inf
ROOT
ATOM      1  C   UNL     1     204.882 196.575 225.718  1.00  0.00     0.000 C 
ENDROOT
BRANCH   1   2
ATOM      2  C   UNL     1     206.368 196.430 226.082  1.00  0.00     0.006 C 
BRANCH   2   3
ATOM      3  C   UNL     1     206.685 195.062 226.697  1.00  0.00     0.053 C 
BRANCH   3   4
ATOM      4  C   UNL     1     206.682 193.973 225.669  1.00  0.00     0.041 C 
ATOM      5  O   UNL     1     206.066 192.897 225.889  1.00  0.00    -0.550 OA
ATOM      6  O   UNL     1     207.387 194.132 224.483  1.00  0.00    -0.550 OA
ENDBRANCH   3   4
ENDBRANCH   2   3
ENDBRANCH   1   2
BRANCH   1   7
ATOM      7  C   UNL     1     204.694 196.637 224.194  1.00  0.00     0.000 C 
BRANCH   7   8
ATOM      8  C   UNL     1     203.910 195.433 223.647  1.00  0.00     0.004 C 
BRANCH   8   9
ATOM      9  C   UNL     1     203.140 194.682 224.744  1.00  0.00     0.027 C 
BRANCH   9  10
ATOM     10  C   UNL     1     201.788 194.245 224.253  1.00  0.00    -0.035 C 
ATOM     11  C   UNL     1     200.797 193.939 225.097  1.00  0.00     0.004 C 
ENDBRANCH   9  10
ENDBRANCH   8   9
ENDBRANCH   7   8
ENDBRANCH   1   7
TORSDOF 7
ENDMDL
MODEL 4
REMARK VINA RESULT:    -3.330      3.922      5.655
REMARK INTER + INTRA:          -5.317
REMARK INTER:                  -4.724
REMARK INTRA:                  -0.593
REMARK UNBOUND:                -0.625
REMARK SMILES C=CCCCCCCC(=O)[O-]
REMARK SMILES IDX 6 1 7 2 8 3 9 4 10 5 11 6 5 7 4 8 3 9 2 10 1 11
REMARK H PARENT
REMARK Flexibility Score: inf
ROOT
ATOM      1  C   UNL     1     205.144 196.613 225.791  1.00  0.00     0.000 C 
ENDROOT
BRANCH   1   2
ATOM      2  C   UNL     1     206.032 195.378 226.016  1.00  0.00     0.006 C 
BRANCH   2   3
ATOM      3  C   UNL     1     207.389 195.742 226.629  1.00  0.00     0.053 C 
BRANCH   3   4
ATOM      4  C   UNL     1     208.387 196.135 225.583  1.00  0.00     0.041 C 
ATOM      5  O   UNL     1     208.280 195.693 224.409  1.00  0.00    -0.550 OA
ATOM      6  O   UNL     1     209.455 196.960 225.913  1.00  0.00    -0.550 OA
ENDBRANCH   3   4
ENDBRANCH   2   3
ENDBRANCH   1   2
BRANCH   1   7
ATOM      7  C   UNL     1     204.764 196.753 224.309  1.00  0.00     0.000 C 
BRANCH   7   8
ATOM      8  C   UNL     1     204.761 195.406 223.570  1.00  0.00     0.004 C 
BRANCH   8   9
ATOM      9  C   UNL     1     203.341 194.886 223.296  1.00  0.00     0.027 C 
BRANCH   9  10
ATOM     10  C   UNL     1     202.800 194.138 224.483  1.00  0.00    -0.035 C 
ATOM     11  C   UNL     1     201.529 194.267 224.878  1.00  0.00     0.004 C 
ENDBRANCH   9  10
ENDBRANCH   8   9
ENDBRANCH   7   8
ENDBRANCH   1   7
TORSDOF 7
ENDMDL
MODEL 5
REMARK VINA RESULT:    -3.326     16.517     17.947
REMARK INTER + INTRA:          -5.312
REMARK INTER:                  -4.695
REMARK INTRA:                  -0.617
REMARK UNBOUND:                -0.625
REMARK SMILES C=CCCCCCCC(=O)[O-]
REMARK SMILES IDX 6 1 7 2 8 3 9 4 10 5 11 6 5 7 4 8 3 9 2 10 1 11
REMARK H PARENT
REMARK Flexibility Score: inf
ROOT
ATOM      1  C   UNL     1     217.252 204.728 222.975  1.00  0.00     0.000 C 
ENDROOT
BRANCH   1   2
ATOM      2  C   UNL     1     216.889 204.546 221.493  1.00  0.00     0.006 C 
BRANCH   2   3
ATOM      3  C   UNL     1     217.354 205.726 220.631  1.00  0.00     0.053 C 
BRANCH   3   4
ATOM      4  C   UNL     1     218.244 205.281 219.511  1.00  0.00     0.041 C 
ATOM      5  O   UNL     1     219.038 206.096 218.972  1.00  0.00    -0.550 OA
ATOM      6  O   UNL     1     218.171 203.977 219.038  1.00  0.00    -0.550 OA
ENDBRANCH   3   4
ENDBRANCH   2   3
ENDBRANCH   1   2
BRANCH   1   7
ATOM      7  C   UNL     1     217.962 206.072 223.205  1.00  0.00     0.000 C 
BRANCH   7   8
ATOM      8  C   UNL     1     217.185 206.994 224.158  1.00  0.00     0.004 C 
BRANCH   8   9
ATOM      9  C   UNL     1     215.957 207.633 223.491  1.00  0.00     0.027 C 
BRANCH   9  10
ATOM     10  C   UNL     1     214.689 207.232 224.195  1.00  0.00    -0.035 C 
ATOM     11  C   UNL     1     214.679 206.291 225.145  1.00  0.00     0.004 C 
ENDBRANCH   9  10
ENDBRANCH   8   9
ENDBRANCH   7   8
ENDBRANCH   1   7
TORSDOF 7
ENDMDL
MODEL 6
REMARK VINA RESULT:    -3.305      3.229      5.277
REMARK INTER + INTRA:          -5.282
REMARK INTER:                  -4.717
REMARK INTRA:                  -0.565
REMARK UNBOUND:                -0.625
REMARK SMILES C=CCCCCCCC(=O)[O-]
REMARK SMILES IDX 6 1 7 2 8 3 9 4 10 5 11 6 5 7 4 8 3 9 2 10 1 11
REMARK H PARENT
REMARK Flexibility Score: inf
ROOT
ATOM      1  C   UNL     1     204.400 196.142 223.826  1.00  0.00     0.000 C 
ENDROOT
BRANCH   1   2
ATOM      2  C   UNL     1     204.328 196.160 225.361  1.00  0.00     0.006 C 
BRANCH   2   3
ATOM      3  C   UNL     1     205.562 196.817 225.993  1.00  0.00     0.053 C 
BRANCH   3   4
ATOM      4  C   UNL     1     206.745 195.898 225.993  1.00  0.00     0.041 C 
ATOM      5  O   UNL     1     207.683 196.075 225.174  1.00  0.00    -0.550 OA
ATOM      6  O   UNL     1     206.794 194.825 226.875  1.00  0.00    -0.550 OA
ENDBRANCH   3   4
ENDBRANCH   2   3
ENDBRANCH   1   2
BRANCH   1   7
ATOM      7  C   UNL     1     203.909 194.797 223.270  1.00  0.00     0.000 C 
BRANCH   7   8
ATOM      8  C   UNL     1     203.644 193.762 224.375  1.00  0.00     0.004 C 
BRANCH   8   9
ATOM      9  C   UNL     1     202.230 193.166 224.300  1.00  0.00     0.027 C 
BRANCH   9  10
ATOM     10  C   UNL     1     201.255 193.984 225.103  1.00  0.00    -0.035 C 
ATOM     11  C   UNL     1     200.100 194.411 224.583  1.00  0.00     0.004 C 
ENDBRANCH   9  10
ENDBRANCH   8   9
ENDBRANCH   7   8
ENDBRANCH   1   7
TORSDOF 7
ENDMDL
MODEL 7
REMARK VINA RESULT:    -3.299     17.525     18.822
REMARK INTER + INTRA:          -5.273
REMARK INTER:                  -4.805
REMARK INTRA:                  -0.468
REMARK UNBOUND:                -0.625
REMARK SMILES C=CCCCCCCC(=O)[O-]
REMARK SMILES IDX 6 1 7 2 8 3 9 4 10 5 11 6 5 7 4 8 3 9 2 10 1 11
REMARK H PARENT
REMARK Flexibility Score: inf
ROOT
ATOM      1  C   UNL     1     216.395 205.941 222.585  1.00  0.00     0.000 C 
ENDROOT
BRANCH   1   2
ATOM      2  C   UNL     1     216.797 205.390 223.963  1.00  0.00     0.006 C 
BRANCH   2   3
ATOM      3  C   UNL     1     217.521 206.437 224.819  1.00  0.00     0.053 C 
BRANCH   3   4
ATOM      4  C   UNL     1     218.924 206.022 225.139  1.00  0.00     0.041 C 
ATOM      5  O   UNL     1     219.799 206.000 224.234  1.00  0.00    -0.550 OA
ATOM      6  O   UNL     1     219.257 205.626 226.428  1.00  0.00    -0.550 OA
ENDBRANCH   3   4
ENDBRANCH   2   3
ENDBRANCH   1   2
BRANCH   1   7
ATOM      7  C   UNL     1     217.117 207.265 222.292  1.00  0.00     0.000 C 
BRANCH   7   8
ATOM      8  C   UNL     1     218.196 207.121 221.208  1.00  0.00     0.004 C 
BRANCH   8   9
ATOM      9  C   UNL     1     217.622 206.659 219.860  1.00  0.00     0.027 C 
BRANCH   9  10
ATOM     10  C   UNL     1     218.550 205.691 219.179  1.00  0.00    -0.035 C 
ATOM     11  C   UNL     1     218.275 204.384 219.109  1.00  0.00     0.004 C 
ENDBRANCH   9  10
ENDBRANCH   8   9
ENDBRANCH   7   8
ENDBRANCH   1   7
TORSDOF 7
ENDMDL
MODEL 8
REMARK VINA RESULT:    -3.284      5.097      6.671
REMARK INTER + INTRA:          -5.252
REMARK INTER:                  -4.876
REMARK INTRA:                  -0.376
REMARK UNBOUND:                -0.625
REMARK SMILES C=CCCCCCCC(=O)[O-]
REMARK SMILES IDX 6 1 7 2 8 3 9 4 10 5 11 6 5 7 4 8 3 9 2 10 1 11
REMARK H PARENT
REMARK Flexibility Score: inf
ROOT
ATOM      1  C   UNL     1     207.349 195.577 224.982  1.00  0.00     0.000 C 
ENDROOT
BRANCH   1   2
ATOM      2  C   UNL     1     208.761 196.173 225.089  1.00  0.00     0.006 C 
BRANCH   2   3
ATOM      3  C   UNL     1     209.502 196.158 223.746  1.00  0.00     0.053 C 
BRANCH   3   4
ATOM      4  C   UNL     1     210.291 197.413 223.530  1.00  0.00     0.041 C 
ATOM      5  O   UNL     1     210.457 198.227 224.476  1.00  0.00    -0.550 OA
ATOM      6  O   UNL     1     210.814 197.700 222.275  1.00  0.00    -0.550 OA
ENDBRANCH   3   4
ENDBRANCH   2   3
ENDBRANCH   1   2
BRANCH   1   7
ATOM      7  C   UNL     1     206.463 196.052 226.143  1.00  0.00     0.000 C 
BRANCH   7   8
ATOM      8  C   UNL     1     205.139 196.666 225.663  1.00  0.00     0.004 C 
BRANCH   8   9
ATOM      9  C   UNL     1     204.950 196.547 224.142  1.00  0.00     0.027 C 
BRANCH   9  10
ATOM     10  C   UNL     1     203.925 195.498 223.805  1.00  0.00    -0.035 C 
ATOM     11  C   UNL     1     203.204 194.889 224.752  1.00  0.00     0.004 C 
ENDBRANCH   9  10
ENDBRANCH   8   9
ENDBRANCH   7   8
ENDBRANCH   1   7
TORSDOF 7
ENDMDL
