MODEL 1
REMARK VINA RESULT:     2.304      0.000      0.000
REMARK INTER + INTRA:           2.083
REMARK INTER:                   2.573
REMARK INTRA:                  -0.490
REMARK UNBOUND:                -0.490
REMARK SMILES CC1(C)CC[C@]2(C(=O)[O-])[C@@H](O)C[C@@]3(C)C(=CC[C@@H]4[C@]5(C)CC[C@H](O)C(C)(C)[C@H]5CC[C@]43C)[C@@H]2C1
REMARK SMILES IDX 6 1 5 2 33 3 10 4 4 5 34 6 15 7 12 8 2 9 16 10 13 11 1 12
REMARK SMILES IDX 3 13 17 14 31 15 14 16 18 17 30 18 32 19 19 20 29 21 21 22
REMARK SMILES IDX 20 23 28 24 22 25 25 26 23 27 26 28 27 29 7 30 8 31 9 32
REMARK SMILES IDX 11 33 24 35
REMARK H PARENT 11 34 24 36
REMARK Flexibility Score: inf
ROOT
ATOM      1  C   UNL     1      98.409 112.348 107.858  1.00  0.00     0.042 C 
ATOM      2  C   UNL     1      97.700 112.855 109.275  1.00  0.00     0.017 C 
ATOM      3  C   UNL     1      98.939 110.875 108.006  1.00  0.00     0.030 C 
ATOM      4  C   UNL     1      97.294 112.356 106.735  1.00  0.00     0.127 C 
ATOM      5  C   UNL     1      98.685 112.810 110.509  1.00  0.00     0.007 C 
ATOM      6  C   UNL     1     100.062 110.981 109.223  1.00  0.00     0.015 C 
ATOM      7  C   UNL     1      97.534 110.004 108.117  1.00  0.00    -0.063 C 
ATOM      8  C   UNL     1      97.112 111.056 105.882  1.00  0.00     0.044 C 
ATOM      9  C   UNL     1      99.771 111.612 110.656  1.00  0.00    -0.035 C 
ATOM     10  C   UNL     1      96.993 109.648 109.399  1.00  0.00    -0.027 C 
ATOM     11  C   UNL     1      96.758 109.747 106.689  1.00  0.00    -0.003 C 
ATOM     12  C   UNL     1     101.057 112.513 111.036  1.00  0.00     0.011 C 
ATOM     13  C   UNL     1      99.532 110.435 111.771  1.00  0.00     0.011 C 
ATOM     14  C   UNL     1      95.187 109.588 109.366  1.00  0.00     0.032 C 
ATOM     15  C   UNL     1      95.039 109.297 106.787  1.00  0.00    -0.020 C 
ATOM     16  C   UNL     1      97.717 108.634 106.021  1.00  0.00     0.017 C 
ATOM     17  C   UNL     1      94.630 110.271 107.989  1.00  0.00     0.006 C 
ATOM     18  C   UNL     1      93.438 109.293 105.875  1.00  0.00     0.008 C 
ATOM     19  C   UNL     1      95.278 107.799 107.347  1.00  0.00     0.012 C 
ATOM     20  C   UNL     1      93.615 111.631 107.631  1.00  0.00    -0.025 C 
ATOM     21  C   UNL     1      91.985 110.267 106.275  1.00  0.00     0.005 C 
ATOM     22  C   UNL     1      93.769 112.607 108.838  1.00  0.00     0.010 C 
ATOM     23  C   UNL     1      94.011 112.338 106.283  1.00  0.00     0.012 C 
ATOM     24  C   UNL     1      92.156 111.286 107.495  1.00  0.00     0.003 C 
ATOM     25  C   UNL     1      93.187 113.970 108.506  1.00  0.00     0.033 C 
ATOM     26  C   UNL     1      91.092 112.591 107.606  1.00  0.00    -0.006 C 
ATOM     27  C   UNL     1      91.661 113.879 108.331  1.00  0.00     0.120 C 
ATOM     28  C   UNL     1      89.798 112.092 108.353  1.00  0.00     0.014 C 
ATOM     29  C   UNL     1      90.551 112.996 106.178  1.00  0.00     0.014 C 
ENDROOT
BRANCH   1  30
ATOM     30  C   UNL     1      99.494 113.361 107.433  1.00  0.00     0.051 C 
ATOM     31  O   UNL     1      99.436 114.588 107.731  1.00  0.00    -0.549 OA
ATOM     32  O   UNL     1     100.479 112.931 106.542  1.00  0.00    -0.549 OA
ENDBRANCH   1  30
BRANCH   4  33
ATOM     33  O   UNL     1      97.288 113.485 105.875  1.00  0.00    -0.392 OA
ATOM     34  H   UNL     1      97.373 114.283 106.482  1.00  0.00     0.210 HD
ENDBRANCH   4  33
BRANCH  27  35
ATOM     35  O   UNL     1      91.130 114.099 109.644  1.00  0.00    -0.393 OA
ATOM     36  H   UNL     1      91.318 113.287 110.205  1.00  0.00     0.210 HD
ENDBRANCH  27  35
TORSDOF 3
ENDMDL
MODEL 2
REMARK VINA RESULT:     4.325      0.468      0.468
REMARK INTER + INTRA:           4.340
REMARK INTER:                   4.828
REMARK INTRA:                  -0.488
REMARK UNBOUND:                -0.490
REMARK SMILES CC1(C)CC[C@]2(C(=O)[O-])[C@@H](O)C[C@@]3(C)C(=CC[C@@H]4[C@]5(C)CC[C@H](O)C(C)(C)[C@H]5CC[C@]43C)[C@@H]2C1
REMARK SMILES IDX 6 1 5 2 33 3 10 4 4 5 34 6 15 7 12 8 2 9 16 10 13 11 1 12
REMARK SMILES IDX 3 13 17 14 31 15 14 16 18 17 30 18 32 19 19 20 29 21 21 22
REMARK SMILES IDX 20 23 28 24 22 25 25 26 23 27 26 28 27 29 7 30 8 31 9 32
REMARK SMILES IDX 11 33 24 35
REMARK H PARENT 11 34 24 36
REMARK Flexibility Score: inf
ROOT
ATOM      1  C   UNL     1      98.336 112.478 108.209  1.00  0.00     0.042 C 
ATOM      2  C   UNL     1      97.481 112.940 109.559  1.00  0.00     0.017 C 
ATOM      3  C   UNL     1      98.976 111.059 108.425  1.00  0.00     0.030 C 
ATOM      4  C   UNL     1      97.312 112.374 107.006  1.00  0.00     0.127 C 
ATOM      5  C   UNL     1      98.370 112.998 110.863  1.00  0.00     0.007 C 
ATOM      6  C   UNL     1      99.991 111.278 109.720  1.00  0.00     0.015 C 
ATOM      7  C   UNL     1      97.647 110.071 108.449  1.00  0.00    -0.063 C 
ATOM      8  C   UNL     1      97.307 111.052 106.169  1.00  0.00     0.044 C 
ATOM      9  C   UNL     1      99.539 111.901 111.114  1.00  0.00    -0.035 C 
ATOM     10  C   UNL     1      97.043 109.687 109.695  1.00  0.00    -0.027 C 
ATOM     11  C   UNL     1      97.006 109.728 106.973  1.00  0.00    -0.003 C 
ATOM     12  C   UNL     1     100.712 112.916 111.571  1.00  0.00     0.011 C 
ATOM     13  C   UNL     1      99.318 110.723 112.232  1.00  0.00     0.011 C 
ATOM     14  C   UNL     1      95.257 109.470 109.529  1.00  0.00     0.032 C 
ATOM     15  C   UNL     1      95.329 109.132 106.952  1.00  0.00    -0.020 C 
ATOM     16  C   UNL     1      98.104 108.693 106.401  1.00  0.00     0.017 C 
ATOM     17  C   UNL     1      94.749 110.083 108.101  1.00  0.00     0.006 C 
ATOM     18  C   UNL     1      93.808 108.977 105.924  1.00  0.00     0.008 C 
ATOM     19  C   UNL     1      95.652 107.668 107.558  1.00  0.00     0.012 C 
ATOM     20  C   UNL     1      93.651 111.345 107.641  1.00  0.00    -0.025 C 
ATOM     21  C   UNL     1      92.252 109.826 106.195  1.00  0.00     0.005 C 
ATOM     22  C   UNL     1      93.630 112.348 108.836  1.00  0.00     0.010 C 
ATOM     23  C   UNL     1      94.086 112.066 106.311  1.00  0.00     0.012 C 
ATOM     24  C   UNL     1      92.242 110.873 107.403  1.00  0.00     0.003 C 
ATOM     25  C   UNL     1      92.960 113.650 108.435  1.00  0.00     0.033 C 
ATOM     26  C   UNL     1      91.065 112.082 107.409  1.00  0.00    -0.006 C 
ATOM     27  C   UNL     1      91.465 113.425 108.148  1.00  0.00     0.120 C 
ATOM     28  C   UNL     1      89.765 111.483 108.068  1.00  0.00     0.014 C 
ATOM     29  C   UNL     1      90.601 112.420 105.937  1.00  0.00     0.014 C 
ENDROOT
BRANCH   1  30
ATOM     30  C   UNL     1      99.359 113.575 107.845  1.00  0.00     0.051 C 
ATOM     31  O   UNL     1      99.175 114.797 108.115  1.00  0.00    -0.549 OA
ATOM     32  O   UNL     1     100.441 113.221 107.037  1.00  0.00    -0.549 OA
ENDBRANCH   1  30
BRANCH   4  33
ATOM     33  O   UNL     1      97.275 113.487 106.125  1.00  0.00    -0.392 OA
ATOM     34  H   UNL     1      98.238 113.702 105.928  1.00  0.00     0.210 HD
ENDBRANCH   4  33
BRANCH  27  35
ATOM     35  O   UNL     1      90.819 113.616 109.414  1.00  0.00    -0.393 OA
ATOM     36  H   UNL     1      89.985 114.156 109.268  1.00  0.00     0.210 HD
ENDBRANCH  27  35
TORSDOF 3
ENDMDL
