MODEL 1
REMARK VINA RESULT:    -6.798      0.000      0.000
REMARK INTER + INTRA:         -20.068
REMARK INTER:                 -17.129
REMARK INTRA:                  -2.938
REMARK UNBOUND:                -2.938
REMARK SMILES CCCCCCCCCCCCCCCCCCCCCCCCCCCC(=O)[O-]
REMARK SMILES IDX 15 1 16 2 17 3 18 4 19 5 20 6 21 7 22 8 23 9 24 10 25 11
REMARK SMILES IDX 26 12 27 13 28 14 29 15 30 16 14 17 13 18 12 19 11 20 10 21
REMARK SMILES IDX 9 22 8 23 7 24 6 25 5 26 4 27 3 28 2 29 1 30
REMARK H PARENT
REMARK Flexibility Score: inf
ROOT
ATOM      1  C   UNL     1      36.049  -6.485  23.778  1.00  0.00     0.000 C 
ENDROOT
BRANCH   1   2
ATOM      2  C   UNL     1      35.912  -7.990  23.503  1.00  0.00     0.000 C 
BRANCH   2   3
ATOM      3  C   UNL     1      36.539  -8.412  22.157  1.00  0.00     0.000 C 
BRANCH   3   4
ATOM      4  C   UNL     1      36.134  -9.823  21.687  1.00  0.00     0.000 C 
BRANCH   4   5
ATOM      5  C   UNL     1      37.260 -10.653  21.042  1.00  0.00     0.000 C 
BRANCH   5   6
ATOM      6  C   UNL     1      37.875 -11.739  21.945  1.00  0.00     0.000 C 
BRANCH   6   7
ATOM      7  C   UNL     1      39.063 -12.462  21.292  1.00  0.00     0.000 C 
BRANCH   7   8
ATOM      8  C   UNL     1      40.323 -11.587  21.332  1.00  0.00     0.000 C 
BRANCH   8   9
ATOM      9  C   UNL     1      40.902 -11.445  22.749  1.00  0.00     0.000 C 
BRANCH   9  10
ATOM     10  C   UNL     1      41.602 -10.091  22.969  1.00  0.00     0.000 C 
BRANCH  10  11
ATOM     11  C   UNL     1      40.633  -8.902  22.884  1.00  0.00     0.000 C 
BRANCH  11  12
ATOM     12  C   UNL     1      39.515  -8.973  23.939  1.00  0.00     0.006 C 
BRANCH  12  13
ATOM     13  C   UNL     1      39.845  -8.149  25.190  1.00  0.00     0.053 C 
BRANCH  13  14
ATOM     14  C   UNL     1      40.378  -6.795  24.838  1.00  0.00     0.041 C 
ATOM     15  O   UNL     1      41.497  -6.419  25.278  1.00  0.00    -0.550 OA
ATOM     16  O   UNL     1      39.623  -5.934  24.051  1.00  0.00    -0.550 OA
ENDBRANCH  13  14
ENDBRANCH  12  13
ENDBRANCH  11  12
ENDBRANCH  10  11
ENDBRANCH   9  10
ENDBRANCH   8   9
ENDBRANCH   7   8
ENDBRANCH   6   7
ENDBRANCH   5   6
ENDBRANCH   4   5
ENDBRANCH   3   4
ENDBRANCH   2   3
ENDBRANCH   1   2
BRANCH   1  17
ATOM     17  C   UNL     1      34.689  -5.780  23.676  1.00  0.00     0.000 C 
BRANCH  17  18
ATOM     18  C   UNL     1      34.526  -4.975  22.372  1.00  0.00     0.000 C 
BRANCH  18  19
ATOM     19  C   UNL     1      33.689  -5.667  21.280  1.00  0.00     0.000 C 
BRANCH  19  20
ATOM     20  C   UNL     1      32.831  -6.849  21.768  1.00  0.00     0.000 C 
BRANCH  20  21
ATOM     21  C   UNL     1      33.019  -8.139  20.941  1.00  0.00     0.000 C 
BRANCH  21  22
ATOM     22  C   UNL     1      31.876  -9.144  21.149  1.00  0.00    -0.000 C 
BRANCH  22  23
ATOM     23  C   UNL     1      30.616  -8.443  21.672  1.00  0.00    -0.000 C 
BRANCH  23  24
ATOM     24  C   UNL     1      29.352  -9.029  21.027  1.00  0.00    -0.000 C 
BRANCH  24  25
ATOM     25  C   UNL     1      28.981 -10.413  21.588  1.00  0.00    -0.000 C 
BRANCH  25  26
ATOM     26  C   UNL     1      27.475 -10.750  21.551  1.00  0.00    -0.000 C 
BRANCH  26  27
ATOM     27  C   UNL     1      26.999 -11.462  20.272  1.00  0.00    -0.000 C 
BRANCH  27  28
ATOM     28  C   UNL     1      27.871 -12.675  19.906  1.00  0.00    -0.000 C 
BRANCH  28  29
ATOM     29  C   UNL     1      27.260 -13.520  18.779  1.00  0.00    -0.003 C 
ATOM     30  C   UNL     1      26.310 -12.719  17.889  1.00  0.00     0.004 C 
ENDBRANCH  28  29
ENDBRANCH  27  28
ENDBRANCH  26  27
ENDBRANCH  25  26
ENDBRANCH  24  25
ENDBRANCH  23  24
ENDBRANCH  22  23
ENDBRANCH  21  22
ENDBRANCH  20  21
ENDBRANCH  19  20
ENDBRANCH  18  19
ENDBRANCH  17  18
ENDBRANCH   1  17
TORSDOF 26
ENDMDL
MODEL 2
REMARK VINA RESULT:    -6.773      4.359     10.085
REMARK INTER + INTRA:         -20.006
REMARK INTER:                 -16.087
REMARK INTRA:                  -3.919
REMARK UNBOUND:                -2.938
REMARK SMILES CCCCCCCCCCCCCCCCCCCCCCCCCCCC(=O)[O-]
REMARK SMILES IDX 15 1 16 2 17 3 18 4 19 5 20 6 21 7 22 8 23 9 24 10 25 11
REMARK SMILES IDX 26 12 27 13 28 14 29 15 30 16 14 17 13 18 12 19 11 20 10 21
REMARK SMILES IDX 9 22 8 23 7 24 6 25 5 26 4 27 3 28 2 29 1 30
REMARK H PARENT
REMARK Flexibility Score: inf
ROOT
ATOM      1  C   UNL     1      33.735  -9.002  19.977  1.00  0.00     0.000 C 
ENDROOT
BRANCH   1   2
ATOM      2  C   UNL     1      32.267  -9.278  20.333  1.00  0.00     0.000 C 
BRANCH   2   3
ATOM      3  C   UNL     1      31.931  -8.930  21.799  1.00  0.00     0.000 C 
BRANCH   3   4
ATOM      4  C   UNL     1      30.457  -8.548  22.035  1.00  0.00     0.000 C 
BRANCH   4   5
ATOM      5  C   UNL     1      29.477  -9.730  22.148  1.00  0.00     0.000 C 
BRANCH   5   6
ATOM      6  C   UNL     1      28.683 -10.051  20.868  1.00  0.00     0.000 C 
BRANCH   6   7
ATOM      7  C   UNL     1      27.430 -10.899  21.133  1.00  0.00     0.000 C 
BRANCH   7   8
ATOM      8  C   UNL     1      26.328 -10.580  20.114  1.00  0.00     0.000 C 
BRANCH   8   9
ATOM      9  C   UNL     1      26.429  -9.151  19.559  1.00  0.00     0.000 C 
BRANCH   9  10
ATOM     10  C   UNL     1      25.192  -8.297  19.892  1.00  0.00     0.000 C 
BRANCH  10  11
ATOM     11  C   UNL     1      25.555  -6.975  20.587  1.00  0.00     0.000 C 
BRANCH  11  12
ATOM     12  C   UNL     1      27.035  -6.911  21.002  1.00  0.00     0.006 C 
BRANCH  12  13
ATOM     13  C   UNL     1      27.716  -5.623  20.523  1.00  0.00     0.053 C 
BRANCH  13  14
ATOM     14  C   UNL     1      27.316  -5.271  19.125  1.00  0.00     0.041 C 
ATOM     15  O   UNL     1      27.711  -5.973  18.156  1.00  0.00    -0.550 OA
ATOM     16  O   UNL     1      26.536  -4.146  18.887  1.00  0.00    -0.550 OA
ENDBRANCH  13  14
ENDBRANCH  12  13
ENDBRANCH  11  12
ENDBRANCH  10  11
ENDBRANCH   9  10
ENDBRANCH   8   9
ENDBRANCH   7   8
ENDBRANCH   6   7
ENDBRANCH   5   6
ENDBRANCH   4   5
ENDBRANCH   3   4
ENDBRANCH   2   3
ENDBRANCH   1   2
BRANCH   1  17
ATOM     17  C   UNL     1      34.508 -10.312  19.769  1.00  0.00     0.000 C 
BRANCH  17  18
ATOM     18  C   UNL     1      35.827 -10.364  20.564  1.00  0.00     0.000 C 
BRANCH  18  19
ATOM     19  C   UNL     1      35.963  -9.300  21.671  1.00  0.00     0.000 C 
BRANCH  19  20
ATOM     20  C   UNL     1      37.379  -9.147  22.255  1.00  0.00     0.000 C 
BRANCH  20  21
ATOM     21  C   UNL     1      37.538  -7.927  23.189  1.00  0.00     0.000 C 
BRANCH  21  22
ATOM     22  C   UNL     1      36.254  -7.614  23.972  1.00  0.00    -0.000 C 
BRANCH  22  23
ATOM     23  C   UNL     1      36.033  -6.100  24.084  1.00  0.00    -0.000 C 
BRANCH  23  24
ATOM     24  C   UNL     1      34.668  -5.699  23.507  1.00  0.00    -0.000 C 
BRANCH  24  25
ATOM     25  C   UNL     1      34.556  -5.963  21.996  1.00  0.00    -0.000 C 
BRANCH  25  26
ATOM     26  C   UNL     1      33.212  -5.552  21.359  1.00  0.00    -0.000 C 
BRANCH  26  27
ATOM     27  C   UNL     1      32.387  -4.541  22.177  1.00  0.00    -0.000 C 
BRANCH  27  28
ATOM     28  C   UNL     1      30.929  -4.987  22.377  1.00  0.00    -0.000 C 
BRANCH  28  29
ATOM     29  C   UNL     1      30.597  -5.265  23.851  1.00  0.00    -0.003 C 
ATOM     30  C   UNL     1      29.148  -5.710  24.055  1.00  0.00     0.004 C 
ENDBRANCH  28  29
ENDBRANCH  27  28
ENDBRANCH  26  27
ENDBRANCH  25  26
ENDBRANCH  24  25
ENDBRANCH  23  24
ENDBRANCH  22  23
ENDBRANCH  21  22
ENDBRANCH  20  21
ENDBRANCH  19  20
ENDBRANCH  18  19
ENDBRANCH  17  18
ENDBRANCH   1  17
TORSDOF 26
ENDMDL
MODEL 3
REMARK VINA RESULT:    -6.717      4.938     10.160
REMARK INTER + INTRA:         -19.866
REMARK INTER:                 -15.867
REMARK INTRA:                  -3.999
REMARK UNBOUND:                -2.938
REMARK SMILES CCCCCCCCCCCCCCCCCCCCCCCCCCCC(=O)[O-]
REMARK SMILES IDX 15 1 16 2 17 3 18 4 19 5 20 6 21 7 22 8 23 9 24 10 25 11
REMARK SMILES IDX 26 12 27 13 28 14 29 15 30 16 14 17 13 18 12 19 11 20 10 21
REMARK SMILES IDX 9 22 8 23 7 24 6 25 5 26 4 27 3 28 2 29 1 30
REMARK H PARENT
REMARK Flexibility Score: inf
ROOT
ATOM      1  C   UNL     1      31.616  -9.090  21.228  1.00  0.00     0.000 C 
ENDROOT
BRANCH   1   2
ATOM      2  C   UNL     1      30.093  -9.116  21.030  1.00  0.00     0.000 C 
BRANCH   2   3
ATOM      3  C   UNL     1      29.327  -9.448  22.329  1.00  0.00     0.000 C 
BRANCH   3   4
ATOM      4  C   UNL     1      28.164 -10.440  22.140  1.00  0.00     0.000 C 
BRANCH   4   5
ATOM      5  C   UNL     1      27.839 -10.808  20.680  1.00  0.00     0.000 C 
BRANCH   5   6
ATOM      6  C   UNL     1      26.409 -10.468  20.219  1.00  0.00     0.000 C 
BRANCH   6   7
ATOM      7  C   UNL     1      26.353  -9.255  19.278  1.00  0.00     0.000 C 
BRANCH   7   8
ATOM      8  C   UNL     1      25.395  -8.186  19.821  1.00  0.00     0.000 C 
BRANCH   8   9
ATOM      9  C   UNL     1      26.124  -7.064  20.577  1.00  0.00     0.000 C 
BRANCH   9  10
ATOM     10  C   UNL     1      27.572  -6.867  20.092  1.00  0.00     0.000 C 
BRANCH  10  11
ATOM     11  C   UNL     1      27.647  -6.239  18.692  1.00  0.00     0.000 C 
BRANCH  11  12
ATOM     12  C   UNL     1      26.967  -4.860  18.625  1.00  0.00     0.006 C 
BRANCH  12  13
ATOM     13  C   UNL     1      27.881  -3.737  19.132  1.00  0.00     0.053 C 
BRANCH  13  14
ATOM     14  C   UNL     1      27.096  -2.562  19.624  1.00  0.00     0.041 C 
ATOM     15  O   UNL     1      27.283  -1.420  19.125  1.00  0.00    -0.550 OA
ATOM     16  O   UNL     1      26.181  -2.720  20.658  1.00  0.00    -0.550 OA
ENDBRANCH  13  14
ENDBRANCH  12  13
ENDBRANCH  11  12
ENDBRANCH  10  11
ENDBRANCH   9  10
ENDBRANCH   8   9
ENDBRANCH   7   8
ENDBRANCH   6   7
ENDBRANCH   5   6
ENDBRANCH   4   5
ENDBRANCH   3   4
ENDBRANCH   2   3
ENDBRANCH   1   2
BRANCH   1  17
ATOM     17  C   UNL     1      32.344  -9.561  19.960  1.00  0.00     0.000 C 
BRANCH  17  18
ATOM     18  C   UNL     1      33.784  -9.023  19.860  1.00  0.00     0.000 C 
BRANCH  18  19
ATOM     19  C   UNL     1      34.875  -9.980  20.378  1.00  0.00     0.000 C 
BRANCH  19  20
ATOM     20  C   UNL     1      35.946  -9.324  21.269  1.00  0.00     0.000 C 
BRANCH  20  21
ATOM     21  C   UNL     1      35.377  -8.666  22.544  1.00  0.00     0.000 C 
BRANCH  21  22
ATOM     22  C   UNL     1      35.492  -7.134  22.517  1.00  0.00    -0.000 C 
BRANCH  22  23
ATOM     23  C   UNL     1      34.123  -6.476  22.737  1.00  0.00    -0.000 C 
BRANCH  23  24
ATOM     24  C   UNL     1      33.658  -5.737  21.474  1.00  0.00    -0.000 C 
BRANCH  24  25
ATOM     25  C   UNL     1      32.206  -5.238  21.574  1.00  0.00    -0.000 C 
BRANCH  25  26
ATOM     26  C   UNL     1      31.403  -5.804  22.764  1.00  0.00    -0.000 C 
BRANCH  26  27
ATOM     27  C   UNL     1      29.900  -5.469  22.752  1.00  0.00    -0.000 C 
BRANCH  27  28
ATOM     28  C   UNL     1      29.207  -5.796  24.084  1.00  0.00    -0.000 C 
BRANCH  28  29
ATOM     29  C   UNL     1      27.935  -6.636  23.895  1.00  0.00    -0.003 C 
ATOM     30  C   UNL     1      26.669  -5.899  24.335  1.00  0.00     0.004 C 
ENDBRANCH  28  29
ENDBRANCH  27  28
ENDBRANCH  26  27
ENDBRANCH  25  26
ENDBRANCH  24  25
ENDBRANCH  23  24
ENDBRANCH  22  23
ENDBRANCH  21  22
ENDBRANCH  20  21
ENDBRANCH  19  20
ENDBRANCH  18  19
ENDBRANCH  17  18
ENDBRANCH   1  17
TORSDOF 26
ENDMDL
MODEL 4
REMARK VINA RESULT:    -6.695      4.227     10.540
REMARK INTER + INTRA:         -19.808
REMARK INTER:                 -16.591
REMARK INTRA:                  -3.218
REMARK UNBOUND:                -2.938
REMARK SMILES CCCCCCCCCCCCCCCCCCCCCCCCCCCC(=O)[O-]
REMARK SMILES IDX 15 1 16 2 17 3 18 4 19 5 20 6 21 7 22 8 23 9 24 10 25 11
REMARK SMILES IDX 26 12 27 13 28 14 29 15 30 16 14 17 13 18 12 19 11 20 10 21
REMARK SMILES IDX 9 22 8 23 7 24 6 25 5 26 4 27 3 28 2 29 1 30
REMARK H PARENT
REMARK Flexibility Score: inf
ROOT
ATOM      1  C   UNL     1      35.160 -10.134  20.334  1.00  0.00     0.000 C 
ENDROOT
BRANCH   1   2
ATOM      2  C   UNL     1      34.216  -8.979  20.699  1.00  0.00     0.000 C 
BRANCH   2   3
ATOM      3  C   UNL     1      32.749  -9.259  20.306  1.00  0.00     0.000 C 
BRANCH   3   4
ATOM      4  C   UNL     1      31.720  -8.844  21.375  1.00  0.00     0.000 C 
BRANCH   4   5
ATOM      5  C   UNL     1      30.243  -8.991  20.963  1.00  0.00     0.000 C 
BRANCH   5   6
ATOM      6  C   UNL     1      29.234  -8.999  22.128  1.00  0.00     0.000 C 
BRANCH   6   7
ATOM      7  C   UNL     1      28.482 -10.331  22.262  1.00  0.00     0.000 C 
BRANCH   7   8
ATOM      8  C   UNL     1      28.196 -10.939  20.882  1.00  0.00     0.000 C 
BRANCH   8   9
ATOM      9  C   UNL     1      26.709 -10.867  20.499  1.00  0.00     0.000 C 
BRANCH   9  10
ATOM     10  C   UNL     1      26.427  -9.802  19.423  1.00  0.00     0.000 C 
BRANCH  10  11
ATOM     11  C   UNL     1      25.547  -8.655  19.942  1.00  0.00     0.000 C 
BRANCH  11  12
ATOM     12  C   UNL     1      26.370  -7.514  20.566  1.00  0.00     0.006 C 
BRANCH  12  13
ATOM     13  C   UNL     1      25.939  -6.137  20.046  1.00  0.00     0.053 C 
BRANCH  13  14
ATOM     14  C   UNL     1      26.923  -5.582  19.064  1.00  0.00     0.041 C 
ATOM     15  O   UNL     1      27.037  -4.337  18.913  1.00  0.00    -0.550 OA
ATOM     16  O   UNL     1      27.691  -6.442  18.288  1.00  0.00    -0.550 OA
ENDBRANCH  13  14
ENDBRANCH  12  13
ENDBRANCH  11  12
ENDBRANCH  10  11
ENDBRANCH   9  10
ENDBRANCH   8   9
ENDBRANCH   7   8
ENDBRANCH   6   7
ENDBRANCH   5   6
ENDBRANCH   4   5
ENDBRANCH   3   4
ENDBRANCH   2   3
ENDBRANCH   1   2
BRANCH   1  17
ATOM     17  C   UNL     1      36.350 -10.200  21.303  1.00  0.00     0.000 C 
BRANCH  17  18
ATOM     18  C   UNL     1      36.645  -8.850  21.985  1.00  0.00     0.000 C 
BRANCH  18  19
ATOM     19  C   UNL     1      37.814  -8.869  22.989  1.00  0.00     0.000 C 
BRANCH  19  20
ATOM     20  C   UNL     1      37.413  -9.155  24.448  1.00  0.00     0.000 C 
BRANCH  20  21
ATOM     21  C   UNL     1      38.014  -8.160  25.465  1.00  0.00     0.000 C 
BRANCH  21  22
ATOM     22  C   UNL     1      39.385  -7.625  25.025  1.00  0.00    -0.000 C 
BRANCH  22  23
ATOM     23  C   UNL     1      39.454  -6.100  25.172  1.00  0.00    -0.000 C 
BRANCH  23  24
ATOM     24  C   UNL     1      38.506  -5.408  24.182  1.00  0.00    -0.000 C 
BRANCH  24  25
ATOM     25  C   UNL     1      37.524  -4.443  24.869  1.00  0.00    -0.000 C 
BRANCH  25  26
ATOM     26  C   UNL     1      36.093  -4.449  24.293  1.00  0.00    -0.000 C 
BRANCH  26  27
ATOM     27  C   UNL     1      35.474  -5.845  24.103  1.00  0.00    -0.000 C 
BRANCH  27  28
ATOM     28  C   UNL     1      34.775  -6.007  22.743  1.00  0.00    -0.000 C 
BRANCH  28  29
ATOM     29  C   UNL     1      33.248  -5.879  22.847  1.00  0.00    -0.003 C 
ATOM     30  C   UNL     1      32.637  -5.125  21.665  1.00  0.00     0.004 C 
ENDBRANCH  28  29
ENDBRANCH  27  28
ENDBRANCH  26  27
ENDBRANCH  25  26
ENDBRANCH  24  25
ENDBRANCH  23  24
ENDBRANCH  22  23
ENDBRANCH  21  22
ENDBRANCH  20  21
ENDBRANCH  19  20
ENDBRANCH  18  19
ENDBRANCH  17  18
ENDBRANCH   1  17
TORSDOF 26
ENDMDL
MODEL 5
REMARK VINA RESULT:    -6.675      3.929     11.108
REMARK INTER + INTRA:         -19.760
REMARK INTER:                 -16.546
REMARK INTRA:                  -3.213
REMARK UNBOUND:                -2.938
REMARK SMILES CCCCCCCCCCCCCCCCCCCCCCCCCCCC(=O)[O-]
REMARK SMILES IDX 15 1 16 2 17 3 18 4 19 5 20 6 21 7 22 8 23 9 24 10 25 11
REMARK SMILES IDX 26 12 27 13 28 14 29 15 30 16 14 17 13 18 12 19 11 20 10 21
REMARK SMILES IDX 9 22 8 23 7 24 6 25 5 26 4 27 3 28 2 29 1 30
REMARK H PARENT
REMARK Flexibility Score: inf
ROOT
ATOM      1  C   UNL     1      35.506  -8.630  21.580  1.00  0.00     0.000 C 
ENDROOT
BRANCH   1   2
ATOM      2  C   UNL     1      34.096  -8.506  22.178  1.00  0.00     0.000 C 
BRANCH   2   3
ATOM      3  C   UNL     1      32.992  -8.986  21.212  1.00  0.00     0.000 C 
BRANCH   3   4
ATOM      4  C   UNL     1      31.653  -8.239  21.363  1.00  0.00     0.000 C 
BRANCH   4   5
ATOM      5  C   UNL     1      30.393  -9.075  21.070  1.00  0.00     0.000 C 
BRANCH   5   6
ATOM      6  C   UNL     1      29.694  -9.668  22.309  1.00  0.00     0.000 C 
BRANCH   6   7
ATOM      7  C   UNL     1      28.237 -10.074  22.040  1.00  0.00     0.000 C 
BRANCH   7   8
ATOM      8  C   UNL     1      28.160 -11.115  20.914  1.00  0.00     0.000 C 
BRANCH   8   9
ATOM      9  C   UNL     1      26.907 -10.950  20.039  1.00  0.00     0.000 C 
BRANCH   9  10
ATOM     10  C   UNL     1      26.238  -9.575  20.217  1.00  0.00     0.000 C 
BRANCH  10  11
ATOM     11  C   UNL     1      26.325  -8.705  18.953  1.00  0.00     0.000 C 
BRANCH  11  12
ATOM     12  C   UNL     1      27.577  -7.810  18.936  1.00  0.00     0.006 C 
BRANCH  12  13
ATOM     13  C   UNL     1      27.542  -6.744  20.038  1.00  0.00     0.053 C 
BRANCH  13  14
ATOM     14  C   UNL     1      27.631  -5.360  19.475  1.00  0.00     0.041 C 
ATOM     15  O   UNL     1      27.732  -5.186  18.231  1.00  0.00    -0.550 OA
ATOM     16  O   UNL     1      27.638  -4.262  20.326  1.00  0.00    -0.550 OA
ENDBRANCH  13  14
ENDBRANCH  12  13
ENDBRANCH  11  12
ENDBRANCH  10  11
ENDBRANCH   9  10
ENDBRANCH   8   9
ENDBRANCH   7   8
ENDBRANCH   6   7
ENDBRANCH   5   6
ENDBRANCH   4   5
ENDBRANCH   3   4
ENDBRANCH   2   3
ENDBRANCH   1   2
BRANCH   1  17
ATOM     17  C   UNL     1      35.707 -10.002  20.921  1.00  0.00     0.000 C 
BRANCH  17  18
ATOM     18  C   UNL     1      36.779 -10.855  21.626  1.00  0.00     0.000 C 
BRANCH  18  19
ATOM     19  C   UNL     1      37.977 -11.254  20.744  1.00  0.00     0.000 C 
BRANCH  19  20
ATOM     20  C   UNL     1      38.673 -12.568  21.146  1.00  0.00     0.000 C 
BRANCH  20  21
ATOM     21  C   UNL     1      39.873 -12.371  22.097  1.00  0.00     0.000 C 
BRANCH  21  22
ATOM     22  C   UNL     1      40.923 -11.404  21.528  1.00  0.00    -0.000 C 
BRANCH  22  23
ATOM     23  C   UNL     1      42.198 -11.411  22.382  1.00  0.00    -0.000 C 
BRANCH  23  24
ATOM     24  C   UNL     1      42.441 -10.035  23.018  1.00  0.00    -0.000 C 
BRANCH  24  25
ATOM     25  C   UNL     1      41.304  -9.604  23.961  1.00  0.00    -0.000 C 
BRANCH  25  26
ATOM     26  C   UNL     1      40.522  -8.351  23.511  1.00  0.00    -0.000 C 
BRANCH  26  27
ATOM     27  C   UNL     1      39.022  -8.580  23.251  1.00  0.00    -0.000 C 
BRANCH  27  28
ATOM     28  C   UNL     1      38.354  -9.441  24.336  1.00  0.00    -0.000 C 
BRANCH  28  29
ATOM     29  C   UNL     1      37.166  -8.731  25.002  1.00  0.00    -0.003 C 
ATOM     30  C   UNL     1      37.059  -7.259  24.603  1.00  0.00     0.004 C 
ENDBRANCH  28  29
ENDBRANCH  27  28
ENDBRANCH  26  27
ENDBRANCH  25  26
ENDBRANCH  24  25
ENDBRANCH  23  24
ENDBRANCH  22  23
ENDBRANCH  21  22
ENDBRANCH  20  21
ENDBRANCH  19  20
ENDBRANCH  18  19
ENDBRANCH  17  18
ENDBRANCH   1  17
TORSDOF 26
ENDMDL
MODEL 6
REMARK VINA RESULT:    -6.672      2.068      3.940
REMARK INTER + INTRA:         -19.752
REMARK INTER:                 -16.795
REMARK INTRA:                  -2.957
REMARK UNBOUND:                -2.938
REMARK SMILES CCCCCCCCCCCCCCCCCCCCCCCCCCCC(=O)[O-]
REMARK SMILES IDX 15 1 16 2 17 3 18 4 19 5 20 6 21 7 22 8 23 9 24 10 25 11
REMARK SMILES IDX 26 12 27 13 28 14 29 15 30 16 14 17 13 18 12 19 11 20 10 21
REMARK SMILES IDX 9 22 8 23 7 24 6 25 5 26 4 27 3 28 2 29 1 30
REMARK H PARENT
REMARK Flexibility Score: inf
ROOT
ATOM      1  C   UNL     1      34.913  -4.744  25.005  1.00  0.00     0.000 C 
ENDROOT
BRANCH   1   2
ATOM      2  C   UNL     1      36.086  -3.954  24.408  1.00  0.00     0.000 C 
BRANCH   2   3
ATOM      3  C   UNL     1      37.447  -4.348  25.022  1.00  0.00     0.000 C 
BRANCH   3   4
ATOM      4  C   UNL     1      38.433  -4.977  24.020  1.00  0.00     0.000 C 
BRANCH   4   5
ATOM      5  C   UNL     1      38.992  -6.356  24.420  1.00  0.00     0.000 C 
BRANCH   5   6
ATOM      6  C   UNL     1      38.282  -7.564  23.779  1.00  0.00     0.000 C 
BRANCH   6   7
ATOM      7  C   UNL     1      37.002  -7.973  24.523  1.00  0.00     0.000 C 
BRANCH   7   8
ATOM      8  C   UNL     1      36.085  -8.804  23.616  1.00  0.00     0.000 C 
BRANCH   8   9
ATOM      9  C   UNL     1      36.498  -8.741  22.137  1.00  0.00     0.000 C 
BRANCH   9  10
ATOM     10  C   UNL     1      36.112 -10.013  21.360  1.00  0.00     0.000 C 
BRANCH  10  11
ATOM     11  C   UNL     1      37.335 -10.774  20.825  1.00  0.00     0.000 C 
BRANCH  11  12
ATOM     12  C   UNL     1      37.964 -11.699  21.882  1.00  0.00     0.006 C 
BRANCH  12  13
ATOM     13  C   UNL     1      39.086 -12.567  21.298  1.00  0.00     0.053 C 
BRANCH  13  14
ATOM     14  C   UNL     1      40.294 -11.754  20.952  1.00  0.00     0.041 C 
ATOM     15  O   UNL     1      40.810 -10.988  21.808  1.00  0.00    -0.550 OA
ATOM     16  O   UNL     1      40.831 -11.817  19.672  1.00  0.00    -0.550 OA
ENDBRANCH  13  14
ENDBRANCH  12  13
ENDBRANCH  11  12
ENDBRANCH  10  11
ENDBRANCH   9  10
ENDBRANCH   8   9
ENDBRANCH   7   8
ENDBRANCH   6   7
ENDBRANCH   5   6
ENDBRANCH   4   5
ENDBRANCH   3   4
ENDBRANCH   2   3
ENDBRANCH   1   2
BRANCH   1  17
ATOM     17  C   UNL     1      34.227  -5.606  23.935  1.00  0.00     0.000 C 
BRANCH  17  18
ATOM     18  C   UNL     1      34.520  -5.128  22.500  1.00  0.00     0.000 C 
BRANCH  18  19
ATOM     19  C   UNL     1      33.756  -5.881  21.394  1.00  0.00     0.000 C 
BRANCH  19  20
ATOM     20  C   UNL     1      32.643  -6.819  21.895  1.00  0.00     0.000 C 
BRANCH  20  21
ATOM     21  C   UNL     1      32.928  -8.315  21.641  1.00  0.00     0.000 C 
BRANCH  21  22
ATOM     22  C   UNL     1      31.756  -9.030  20.951  1.00  0.00    -0.000 C 
BRANCH  22  23
ATOM     23  C   UNL     1      30.530  -9.090  21.872  1.00  0.00    -0.000 C 
BRANCH  23  24
ATOM     24  C   UNL     1      29.247  -8.742  21.102  1.00  0.00    -0.000 C 
BRANCH  24  25
ATOM     25  C   UNL     1      28.068  -9.664  21.460  1.00  0.00    -0.000 C 
BRANCH  25  26
ATOM     26  C   UNL     1      26.955  -9.743  20.395  1.00  0.00    -0.000 C 
BRANCH  26  27
ATOM     27  C   UNL     1      26.486 -11.168  20.049  1.00  0.00    -0.000 C 
BRANCH  27  28
ATOM     28  C   UNL     1      27.630 -12.195  20.079  1.00  0.00    -0.000 C 
BRANCH  28  29
ATOM     29  C   UNL     1      27.547 -13.202  18.921  1.00  0.00    -0.003 C 
ATOM     30  C   UNL     1      26.132 -13.342  18.361  1.00  0.00     0.004 C 
ENDBRANCH  28  29
ENDBRANCH  27  28
ENDBRANCH  26  27
ENDBRANCH  25  26
ENDBRANCH  24  25
ENDBRANCH  23  24
ENDBRANCH  22  23
ENDBRANCH  21  22
ENDBRANCH  20  21
ENDBRANCH  19  20
ENDBRANCH  18  19
ENDBRANCH  17  18
ENDBRANCH   1  17
TORSDOF 26
ENDMDL
MODEL 7
REMARK VINA RESULT:    -6.658      3.300      6.761
REMARK INTER + INTRA:         -19.715
REMARK INTER:                 -16.245
REMARK INTRA:                  -3.470
REMARK UNBOUND:                -2.938
REMARK SMILES CCCCCCCCCCCCCCCCCCCCCCCCCCCC(=O)[O-]
REMARK SMILES IDX 15 1 16 2 17 3 18 4 19 5 20 6 21 7 22 8 23 9 24 10 25 11
REMARK SMILES IDX 26 12 27 13 28 14 29 15 30 16 14 17 13 18 12 19 11 20 10 21
REMARK SMILES IDX 9 22 8 23 7 24 6 25 5 26 4 27 3 28 2 29 1 30
REMARK H PARENT
REMARK Flexibility Score: inf
ROOT
ATOM      1  C   UNL     1      29.252  -7.708  22.533  1.00  0.00     0.000 C 
ENDROOT
BRANCH   1   2
ATOM      2  C   UNL     1      29.901  -6.379  22.944  1.00  0.00     0.000 C 
BRANCH   2   3
ATOM      3  C   UNL     1      30.154  -5.440  21.745  1.00  0.00     0.000 C 
BRANCH   3   4
ATOM      4  C   UNL     1      31.497  -4.688  21.804  1.00  0.00     0.000 C 
BRANCH   4   5
ATOM      5  C   UNL     1      32.537  -5.267  22.782  1.00  0.00     0.000 C 
BRANCH   5   6
ATOM      6  C   UNL     1      33.986  -5.295  22.260  1.00  0.00     0.000 C 
BRANCH   6   7
ATOM      7  C   UNL     1      34.518  -6.719  22.038  1.00  0.00     0.000 C 
BRANCH   7   8
ATOM      8  C   UNL     1      33.655  -7.471  21.015  1.00  0.00     0.000 C 
BRANCH   8   9
ATOM      9  C   UNL     1      33.670  -8.993  21.231  1.00  0.00     0.000 C 
BRANCH   9  10
ATOM     10  C   UNL     1      34.842  -9.682  20.509  1.00  0.00     0.000 C 
BRANCH  10  11
ATOM     11  C   UNL     1      35.910 -10.207  21.482  1.00  0.00     0.000 C 
BRANCH  11  12
ATOM     12  C   UNL     1      37.086 -10.887  20.760  1.00  0.00     0.006 C 
BRANCH  12  13
ATOM     13  C   UNL     1      38.151 -11.397  21.739  1.00  0.00     0.053 C 
BRANCH  13  14
ATOM     14  C   UNL     1      39.485 -11.548  21.078  1.00  0.00     0.041 C 
ATOM     15  O   UNL     1      39.640 -11.208  19.875  1.00  0.00    -0.550 OA
ATOM     16  O   UNL     1      40.551 -12.096  21.781  1.00  0.00    -0.550 OA
ENDBRANCH  13  14
ENDBRANCH  12  13
ENDBRANCH  11  12
ENDBRANCH  10  11
ENDBRANCH   9  10
ENDBRANCH   8   9
ENDBRANCH   7   8
ENDBRANCH   6   7
ENDBRANCH   5   6
ENDBRANCH   4   5
ENDBRANCH   3   4
ENDBRANCH   2   3
ENDBRANCH   1   2
BRANCH   1  17
ATOM     17  C   UNL     1      30.047  -8.385  21.407  1.00  0.00     0.000 C 
BRANCH  17  18
ATOM     18  C   UNL     1      29.766  -9.896  21.297  1.00  0.00     0.000 C 
BRANCH  18  19
ATOM     19  C   UNL     1      28.373 -10.337  21.789  1.00  0.00     0.000 C 
BRANCH  19  20
ATOM     20  C   UNL     1      27.605 -11.259  20.824  1.00  0.00     0.000 C 
BRANCH  20  21
ATOM     21  C   UNL     1      26.601 -10.514  19.918  1.00  0.00     0.000 C 
BRANCH  21  22
ATOM     22  C   UNL     1      26.514  -9.015  20.244  1.00  0.00    -0.000 C 
BRANCH  22  23
ATOM     23  C   UNL     1      26.495  -8.173  18.961  1.00  0.00    -0.000 C 
BRANCH  23  24
ATOM     24  C   UNL     1      27.776  -7.335  18.835  1.00  0.00    -0.000 C 
BRANCH  24  25
ATOM     25  C   UNL     1      27.498  -5.880  18.417  1.00  0.00    -0.000 C 
BRANCH  25  26
ATOM     26  C   UNL     1      26.424  -5.155  19.254  1.00  0.00    -0.000 C 
BRANCH  26  27
ATOM     27  C   UNL     1      26.944  -4.484  20.539  1.00  0.00    -0.000 C 
BRANCH  27  28
ATOM     28  C   UNL     1      25.897  -4.465  21.666  1.00  0.00    -0.000 C 
BRANCH  28  29
ATOM     29  C   UNL     1      25.491  -5.877  22.114  1.00  0.00    -0.003 C 
ATOM     30  C   UNL     1      24.732  -5.879  23.441  1.00  0.00     0.004 C 
ENDBRANCH  28  29
ENDBRANCH  27  28
ENDBRANCH  26  27
ENDBRANCH  25  26
ENDBRANCH  24  25
ENDBRANCH  23  24
ENDBRANCH  22  23
ENDBRANCH  21  22
ENDBRANCH  20  21
ENDBRANCH  19  20
ENDBRANCH  18  19
ENDBRANCH  17  18
ENDBRANCH   1  17
TORSDOF 26
ENDMDL
MODEL 8
REMARK VINA RESULT:    -6.607      2.836      5.032
REMARK INTER + INTRA:         -19.589
REMARK INTER:                 -16.710
REMARK INTRA:                  -2.879
REMARK UNBOUND:                -2.938
REMARK SMILES CCCCCCCCCCCCCCCCCCCCCCCCCCCC(=O)[O-]
REMARK SMILES IDX 15 1 16 2 17 3 18 4 19 5 20 6 21 7 22 8 23 9 24 10 25 11
REMARK SMILES IDX 26 12 27 13 28 14 29 15 30 16 14 17 13 18 12 19 11 20 10 21
REMARK SMILES IDX 9 22 8 23 7 24 6 25 5 26 4 27 3 28 2 29 1 30
REMARK H PARENT
REMARK Flexibility Score: inf
ROOT
ATOM      1  C   UNL     1      30.350  -9.217  22.142  1.00  0.00     0.000 C 
ENDROOT
BRANCH   1   2
ATOM      2  C   UNL     1      31.044  -9.241  20.772  1.00  0.00     0.000 C 
BRANCH   2   3
ATOM      3  C   UNL     1      32.400  -8.503  20.775  1.00  0.00     0.000 C 
BRANCH   3   4
ATOM      4  C   UNL     1      33.560  -9.311  20.163  1.00  0.00     0.000 C 
BRANCH   4   5
ATOM      5  C   UNL     1      34.932  -9.111  20.834  1.00  0.00     0.000 C 
BRANCH   5   6
ATOM      6  C   UNL     1      35.652 -10.406  21.257  1.00  0.00     0.000 C 
BRANCH   6   7
ATOM      7  C   UNL     1      37.176 -10.243  21.351  1.00  0.00     0.000 C 
BRANCH   7   8
ATOM      8  C   UNL     1      37.601  -9.901  22.786  1.00  0.00     0.000 C 
BRANCH   8   9
ATOM      9  C   UNL     1      37.753  -8.388  23.015  1.00  0.00     0.000 C 
BRANCH   9  10
ATOM     10  C   UNL     1      36.487  -7.751  23.615  1.00  0.00     0.000 C 
BRANCH  10  11
ATOM     11  C   UNL     1      36.681  -6.267  23.967  1.00  0.00     0.000 C 
BRANCH  11  12
ATOM     12  C   UNL     1      35.363  -5.474  23.935  1.00  0.00     0.006 C 
BRANCH  12  13
ATOM     13  C   UNL     1      34.567  -5.724  22.647  1.00  0.00     0.053 C 
BRANCH  13  14
ATOM     14  C   UNL     1      33.846  -4.493  22.194  1.00  0.00     0.041 C 
ATOM     15  O   UNL     1      32.920  -4.577  21.343  1.00  0.00    -0.550 OA
ATOM     16  O   UNL     1      34.219  -3.248  22.684  1.00  0.00    -0.550 OA
ENDBRANCH  13  14
ENDBRANCH  12  13
ENDBRANCH  11  12
ENDBRANCH  10  11
ENDBRANCH   9  10
ENDBRANCH   8   9
ENDBRANCH   7   8
ENDBRANCH   6   7
ENDBRANCH   5   6
ENDBRANCH   4   5
ENDBRANCH   3   4
ENDBRANCH   2   3
ENDBRANCH   1   2
BRANCH   1  17
ATOM     17  C   UNL     1      29.891  -7.796  22.503  1.00  0.00     0.000 C 
BRANCH  17  18
ATOM     18  C   UNL     1      28.365  -7.686  22.685  1.00  0.00     0.000 C 
BRANCH  18  19
ATOM     19  C   UNL     1      27.726  -6.421  22.081  1.00  0.00     0.000 C 
BRANCH  19  20
ATOM     20  C   UNL     1      28.553  -5.739  20.975  1.00  0.00     0.000 C 
BRANCH  20  21
ATOM     21  C   UNL     1      27.757  -4.703  20.152  1.00  0.00     0.000 C 
BRANCH  21  22
ATOM     22  C   UNL     1      27.621  -5.104  18.675  1.00  0.00    -0.000 C 
BRANCH  22  23
ATOM     23  C   UNL     1      27.404  -6.616  18.533  1.00  0.00    -0.000 C 
BRANCH  23  24
ATOM     24  C   UNL     1      25.932  -6.985  18.763  1.00  0.00    -0.000 C 
BRANCH  24  25
ATOM     25  C   UNL     1      25.748  -8.430  19.260  1.00  0.00    -0.000 C 
BRANCH  25  26
ATOM     26  C   UNL     1      27.059  -9.207  19.502  1.00  0.00    -0.000 C 
BRANCH  26  27
ATOM     27  C   UNL     1      26.965 -10.328  20.554  1.00  0.00    -0.000 C 
BRANCH  27  28
ATOM     28  C   UNL     1      26.324 -11.611  20.001  1.00  0.00    -0.000 C 
BRANCH  28  29
ATOM     29  C   UNL     1      27.369 -12.631  19.524  1.00  0.00    -0.003 C 
ATOM     30  C   UNL     1      26.997 -13.277  18.189  1.00  0.00     0.004 C 
ENDBRANCH  28  29
ENDBRANCH  27  28
ENDBRANCH  26  27
ENDBRANCH  25  26
ENDBRANCH  24  25
ENDBRANCH  23  24
ENDBRANCH  22  23
ENDBRANCH  21  22
ENDBRANCH  20  21
ENDBRANCH  19  20
ENDBRANCH  18  19
ENDBRANCH  17  18
ENDBRANCH   1  17
TORSDOF 26
ENDMDL
MODEL 9
REMARK VINA RESULT:    -6.583      2.767      5.466
REMARK INTER + INTRA:         -19.527
REMARK INTER:                 -16.299
REMARK INTRA:                  -3.228
REMARK UNBOUND:                -2.938
REMARK SMILES CCCCCCCCCCCCCCCCCCCCCCCCCCCC(=O)[O-]
REMARK SMILES IDX 15 1 16 2 17 3 18 4 19 5 20 6 21 7 22 8 23 9 24 10 25 11
REMARK SMILES IDX 26 12 27 13 28 14 29 15 30 16 14 17 13 18 12 19 11 20 10 21
REMARK SMILES IDX 9 22 8 23 7 24 6 25 5 26 4 27 3 28 2 29 1 30
REMARK H PARENT
REMARK Flexibility Score: inf
ROOT
ATOM      1  C   UNL     1      32.514  -9.253  19.874  1.00  0.00     0.000 C 
ENDROOT
BRANCH   1   2
ATOM      2  C   UNL     1      33.855  -9.935  19.564  1.00  0.00     0.000 C 
BRANCH   2   3
ATOM      3  C   UNL     1      34.930  -9.655  20.636  1.00  0.00     0.000 C 
BRANCH   3   4
ATOM      4  C   UNL     1      36.148 -10.597  20.570  1.00  0.00     0.000 C 
BRANCH   4   5
ATOM      5  C   UNL     1      36.967 -10.711  21.869  1.00  0.00     0.000 C 
BRANCH   5   6
ATOM      6  C   UNL     1      38.399 -10.148  21.796  1.00  0.00     0.000 C 
BRANCH   6   7
ATOM      7  C   UNL     1      38.735  -9.207  22.962  1.00  0.00     0.000 C 
BRANCH   7   8
ATOM      8  C   UNL     1      37.842  -9.500  24.176  1.00  0.00     0.000 C 
BRANCH   8   9
ATOM      9  C   UNL     1      37.105  -8.252  24.685  1.00  0.00     0.000 C 
BRANCH   9  10
ATOM     10  C   UNL     1      35.756  -8.031  23.978  1.00  0.00     0.000 C 
BRANCH  10  11
ATOM     11  C   UNL     1      35.842  -6.991  22.850  1.00  0.00     0.000 C 
BRANCH  11  12
ATOM     12  C   UNL     1      34.560  -6.150  22.720  1.00  0.00     0.006 C 
BRANCH  12  13
ATOM     13  C   UNL     1      34.760  -4.710  23.209  1.00  0.00     0.053 C 
BRANCH  13  14
ATOM     14  C   UNL     1      33.749  -4.330  24.245  1.00  0.00     0.041 C 
ATOM     15  O   UNL     1      33.428  -5.148  25.148  1.00  0.00    -0.550 OA
ATOM     16  O   UNL     1      33.135  -3.085  24.195  1.00  0.00    -0.550 OA
ENDBRANCH  13  14
ENDBRANCH  12  13
ENDBRANCH  11  12
ENDBRANCH  10  11
ENDBRANCH   9  10
ENDBRANCH   8   9
ENDBRANCH   7   8
ENDBRANCH   6   7
ENDBRANCH   5   6
ENDBRANCH   4   5
ENDBRANCH   3   4
ENDBRANCH   2   3
ENDBRANCH   1   2
BRANCH   1  17
ATOM     17  C   UNL     1      32.464  -8.771  21.331  1.00  0.00     0.000 C 
BRANCH  17  18
ATOM     18  C   UNL     1      31.154  -9.154  22.046  1.00  0.00     0.000 C 
BRANCH  18  19
ATOM     19  C   UNL     1      29.938  -9.347  21.119  1.00  0.00     0.000 C 
BRANCH  19  20
ATOM     20  C   UNL     1      28.711 -10.000  21.782  1.00  0.00     0.000 C 
BRANCH  20  21
ATOM     21  C   UNL     1      28.121 -11.178  20.976  1.00  0.00     0.000 C 
BRANCH  21  22
ATOM     22  C   UNL     1      26.848 -10.787  20.209  1.00  0.00    -0.000 C 
BRANCH  22  23
ATOM     23  C   UNL     1      26.666  -9.264  20.185  1.00  0.00    -0.000 C 
BRANCH  23  24
ATOM     24  C   UNL     1      25.954  -8.815  18.900  1.00  0.00    -0.000 C 
BRANCH  24  25
ATOM     25  C   UNL     1      26.070  -7.302  18.650  1.00  0.00    -0.000 C 
BRANCH  25  26
ATOM     26  C   UNL     1      27.487  -6.718  18.829  1.00  0.00    -0.000 C 
BRANCH  26  27
ATOM     27  C   UNL     1      27.621  -5.665  19.945  1.00  0.00    -0.000 C 
BRANCH  27  28
ATOM     28  C   UNL     1      28.359  -6.202  21.183  1.00  0.00    -0.000 C 
BRANCH  28  29
ATOM     29  C   UNL     1      27.472  -6.208  22.438  1.00  0.00    -0.003 C 
ATOM     30  C   UNL     1      25.981  -6.144  22.108  1.00  0.00     0.004 C 
ENDBRANCH  28  29
ENDBRANCH  27  28
ENDBRANCH  26  27
ENDBRANCH  25  26
ENDBRANCH  24  25
ENDBRANCH  23  24
ENDBRANCH  22  23
ENDBRANCH  21  22
ENDBRANCH  20  21
ENDBRANCH  19  20
ENDBRANCH  18  19
ENDBRANCH  17  18
ENDBRANCH   1  17
TORSDOF 26
ENDMDL
