MODEL 1
REMARK VINA RESULT:    -5.713      0.000      0.000
REMARK INTER + INTRA:         -10.147
REMARK INTER:                  -8.718
REMARK INTRA:                  -1.428
REMARK UNBOUND:                -1.428
REMARK SMILES OC[C@H]1O[C@@](CO)(O[C@@H]2O[C@H](CO)[C@@H](O)[C@@H](O)[C@@H]2O)[C@@H](O)[C@@H]1O
REMARK SMILES IDX 8 1 9 2 11 3 14 4 10 5 16 6 18 7 12 8 13 9 15 11 17 13 19 15
REMARK SMILES IDX 5 17 20 18 4 19 22 20 3 21 6 22 7 23 21 25 23 27 2 29 1 30
REMARK H PARENT 13 10 15 12 17 14 19 16 7 24 21 26 23 28 1 31
REMARK Flexibility Score: inf
ROOT
ATOM      1  O   UNL     1       7.261  -9.948 -29.388  1.00  0.00    -0.313 OA
ENDROOT
BRANCH   1   2
ATOM      2  C   UNL     1       7.315  -9.302 -30.655  1.00  0.00     0.285 C 
ATOM      3  C   UNL     1       8.133  -7.197 -29.845  1.00  0.00     0.178 C 
ATOM      4  C   UNL     1       6.774  -6.503 -30.115  1.00  0.00     0.177 C 
ATOM      5  O   UNL     1       8.360  -8.337 -30.673  1.00  0.00    -0.341 OA
ATOM      6  C   UNL     1       5.625  -7.514 -30.074  1.00  0.00     0.179 C 
ATOM      7  C   UNL     1       5.943  -8.691 -31.006  1.00  0.00     0.202 C 
BRANCH   3   8
ATOM      8  C   UNL     1       8.382  -7.473 -28.349  1.00  0.00     0.191 C 
BRANCH   8   9
ATOM      9  O   UNL     1       9.575  -8.188 -28.192  1.00  0.00    -0.394 OA
ATOM     10  H   UNL     1       9.403  -8.861 -27.485  1.00  0.00     0.210 HD
ENDBRANCH   8   9
ENDBRANCH   3   8
BRANCH   4  11
ATOM     11  O   UNL     1       6.803  -5.878 -31.375  1.00  0.00    -0.387 OA
ATOM     12  H   UNL     1       6.504  -6.553 -32.040  1.00  0.00     0.211 HD
ENDBRANCH   4  11
BRANCH   6  13
ATOM     13  O   UNL     1       4.434  -6.882 -30.472  1.00  0.00    -0.387 OA
ATOM     14  H   UNL     1       4.242  -7.180 -31.400  1.00  0.00     0.211 HD
ENDBRANCH   6  13
BRANCH   7  15
ATOM     15  O   UNL     1       4.939  -9.665 -30.882  1.00  0.00    -0.385 OA
ATOM     16  H   UNL     1       4.945 -10.196 -31.719  1.00  0.00     0.211 HD
ENDBRANCH   7  15
ENDBRANCH   1   2
BRANCH   1  17
ATOM     17  C   UNL     1       7.541 -11.345 -29.425  1.00  0.00     0.224 C 
ATOM     18  C   UNL     1       6.421 -12.087 -28.673  1.00  0.00     0.208 C 
ATOM     19  O   UNL     1       7.529 -11.832 -30.753  1.00  0.00    -0.337 OA
ATOM     20  C   UNL     1       6.326 -13.413 -29.391  1.00  0.00     0.180 C 
ATOM     21  C   UNL     1       7.027 -13.151 -30.733  1.00  0.00     0.179 C 
BRANCH  17  22
ATOM     22  C   UNL     1       8.919 -11.633 -28.776  1.00  0.00     0.225 C 
BRANCH  22  23
ATOM     23  O   UNL     1       9.609 -12.610 -29.506  1.00  0.00    -0.391 OA
ATOM     24  H   UNL     1       8.962 -13.345 -29.667  1.00  0.00     0.210 HD
ENDBRANCH  22  23
ENDBRANCH  17  22
BRANCH  18  25
ATOM     25  O   UNL     1       5.197 -11.406 -28.807  1.00  0.00    -0.385 OA
ATOM     26  H   UNL     1       5.390 -10.439 -28.691  1.00  0.00     0.211 HD
ENDBRANCH  18  25
BRANCH  20  27
ATOM     27  O   UNL     1       7.009 -14.398 -28.661  1.00  0.00    -0.387 OA
ATOM     28  H   UNL     1       6.322 -15.024 -28.314  1.00  0.00     0.211 HD
ENDBRANCH  20  27
BRANCH  21  29
ATOM     29  C   UNL     1       6.092 -13.358 -31.929  1.00  0.00     0.191 C 
BRANCH  29  30
ATOM     30  O   UNL     1       5.294 -12.223 -32.125  1.00  0.00    -0.394 OA
ATOM     31  H   UNL     1       4.745 -12.131 -31.305  1.00  0.00     0.210 HD
ENDBRANCH  29  30
ENDBRANCH  21  29
ENDBRANCH   1  17
TORSDOF 13
ENDMDL
MODEL 2
REMARK VINA RESULT:    -5.634      1.655      3.688
REMARK INTER + INTRA:         -10.027
REMARK INTER:                  -8.551
REMARK INTRA:                  -1.477
REMARK UNBOUND:                -1.428
REMARK SMILES OC[C@H]1O[C@@](CO)(O[C@@H]2O[C@H](CO)[C@@H](O)[C@@H](O)[C@@H]2O)[C@@H](O)[C@@H]1O
REMARK SMILES IDX 8 1 9 2 11 3 14 4 10 5 16 6 18 7 12 8 13 9 15 11 17 13 19 15
REMARK SMILES IDX 5 17 20 18 4 19 22 20 3 21 6 22 7 23 21 25 23 27 2 29 1 30
REMARK H PARENT 13 10 15 12 17 14 19 16 7 24 21 26 23 28 1 31
REMARK Flexibility Score: inf
ROOT
ATOM      1  O   UNL     1       7.336 -10.088 -29.973  1.00  0.00    -0.313 OA
ENDROOT
BRANCH   1   2
ATOM      2  C   UNL     1       7.513  -9.278 -28.816  1.00  0.00     0.285 C 
ATOM      3  C   UNL     1       6.820  -7.216 -29.828  1.00  0.00     0.178 C 
ATOM      4  C   UNL     1       8.266  -6.661 -29.817  1.00  0.00     0.177 C 
ATOM      5  O   UNL     1       6.585  -8.200 -28.821  1.00  0.00    -0.341 OA
ATOM      6  C   UNL     1       9.290  -7.800 -29.840  1.00  0.00     0.179 C 
ATOM      7  C   UNL     1       8.975  -8.796 -28.716  1.00  0.00     0.202 C 
BRANCH   3   8
ATOM      8  C   UNL     1       6.353  -7.656 -31.229  1.00  0.00     0.191 C 
BRANCH   8   9
ATOM      9  O   UNL     1       5.068  -8.204 -31.149  1.00  0.00    -0.394 OA
ATOM     10  H   UNL     1       5.075  -9.011 -31.724  1.00  0.00     0.210 HD
ENDBRANCH   8   9
ENDBRANCH   3   8
BRANCH   4  11
ATOM     11  O   UNL     1       8.465  -5.876 -28.666  1.00  0.00    -0.387 OA
ATOM     12  H   UNL     1       8.524  -4.931 -28.967  1.00  0.00     0.211 HD
ENDBRANCH   4  11
BRANCH   6  13
ATOM     13  O   UNL     1      10.581  -7.269 -29.674  1.00  0.00    -0.387 OA
ATOM     14  H   UNL     1      10.488  -6.436 -29.143  1.00  0.00     0.211 HD
ENDBRANCH   6  13
BRANCH   7  15
ATOM     15  O   UNL     1       9.848  -9.891 -28.808  1.00  0.00    -0.385 OA
ATOM     16  H   UNL     1      10.100 -10.142 -27.883  1.00  0.00     0.211 HD
ENDBRANCH   7  15
ENDBRANCH   1   2
BRANCH   1  17
ATOM     17  C   UNL     1       6.656 -11.318 -29.735  1.00  0.00     0.224 C 
ATOM     18  C   UNL     1       7.320 -12.415 -30.587  1.00  0.00     0.208 C 
ATOM     19  O   UNL     1       6.787 -11.719 -28.384  1.00  0.00    -0.337 OA
ATOM     20  C   UNL     1       7.148 -13.665 -29.758  1.00  0.00     0.180 C 
ATOM     21  C   UNL     1       6.847 -13.129 -28.349  1.00  0.00     0.179 C 
BRANCH  17  22
ATOM     22  C   UNL     1       5.155 -11.179 -30.094  1.00  0.00     0.225 C 
BRANCH  22  23
ATOM     23  O   UNL     1       4.478 -10.460 -29.101  1.00  0.00    -0.391 OA
ATOM     24  H   UNL     1       3.933 -11.122 -28.601  1.00  0.00     0.210 HD
ENDBRANCH  22  23
ENDBRANCH  17  22
BRANCH  18  25
ATOM     25  O   UNL     1       8.694 -12.157 -30.747  1.00  0.00    -0.385 OA
ATOM     26  H   UNL     1       9.134 -13.032 -30.914  1.00  0.00     0.211 HD
ENDBRANCH  18  25
BRANCH  20  27
ATOM     27  O   UNL     1       6.063 -14.413 -30.243  1.00  0.00    -0.387 OA
ATOM     28  H   UNL     1       5.669 -14.882 -29.462  1.00  0.00     0.211 HD
ENDBRANCH  20  27
BRANCH  21  29
ATOM     29  C   UNL     1       7.896 -13.567 -27.322  1.00  0.00     0.191 C 
BRANCH  29  30
ATOM     30  O   UNL     1       7.355 -14.522 -26.451  1.00  0.00    -0.394 OA
ATOM     31  H   UNL     1       8.063 -15.201 -26.316  1.00  0.00     0.210 HD
ENDBRANCH  29  30
ENDBRANCH  21  29
ENDBRANCH   1  17
TORSDOF 13
ENDMDL
MODEL 3
REMARK VINA RESULT:    -5.621      1.344      5.520
REMARK INTER + INTRA:         -10.006
REMARK INTER:                  -9.095
REMARK INTRA:                  -0.911
REMARK UNBOUND:                -1.428
REMARK SMILES OC[C@H]1O[C@@](CO)(O[C@@H]2O[C@H](CO)[C@@H](O)[C@@H](O)[C@@H]2O)[C@@H](O)[C@@H]1O
REMARK SMILES IDX 8 1 9 2 11 3 14 4 10 5 16 6 18 7 12 8 13 9 15 11 17 13 19 15
REMARK SMILES IDX 5 17 20 18 4 19 22 20 3 21 6 22 7 23 21 25 23 27 2 29 1 30
REMARK H PARENT 13 10 15 12 17 14 19 16 7 24 21 26 23 28 1 31
REMARK Flexibility Score: inf
ROOT
ATOM      1  O   UNL     1       7.279 -10.454 -30.042  1.00  0.00    -0.313 OA
ENDROOT
BRANCH   1   2
ATOM      2  C   UNL     1       7.510 -11.324 -28.940  1.00  0.00     0.285 C 
ATOM      3  C   UNL     1       8.599 -13.056 -30.194  1.00  0.00     0.178 C 
ATOM      4  C   UNL     1       7.386 -14.007 -30.040  1.00  0.00     0.177 C 
ATOM      5  O   UNL     1       8.693 -12.085 -29.152  1.00  0.00    -0.341 OA
ATOM      6  C   UNL     1       6.091 -13.214 -29.838  1.00  0.00     0.179 C 
ATOM      7  C   UNL     1       6.275 -12.213 -28.689  1.00  0.00     0.202 C 
BRANCH   3   8
ATOM      8  C   UNL     1       8.711 -12.445 -31.605  1.00  0.00     0.191 C 
BRANCH   8   9
ATOM      9  O   UNL     1       7.431 -12.218 -32.125  1.00  0.00    -0.394 OA
ATOM     10  H   UNL     1       6.818 -12.185 -31.346  1.00  0.00     0.210 HD
ENDBRANCH   8   9
ENDBRANCH   3   8
BRANCH   4  11
ATOM     11  O   UNL     1       7.589 -14.860 -28.938  1.00  0.00    -0.387 OA
ATOM     12  H   UNL     1       8.474 -15.293 -29.066  1.00  0.00     0.211 HD
ENDBRANCH   4  11
BRANCH   6  13
ATOM     13  O   UNL     1       5.041 -14.103 -29.549  1.00  0.00    -0.387 OA
ATOM     14  H   UNL     1       5.454 -14.974 -29.311  1.00  0.00     0.211 HD
ENDBRANCH   6  13
BRANCH   7  15
ATOM     15  O   UNL     1       5.125 -11.416 -28.579  1.00  0.00    -0.385 OA
ATOM     16  H   UNL     1       4.641 -11.714 -27.767  1.00  0.00     0.211 HD
ENDBRANCH   7  15
ENDBRANCH   1   2
BRANCH   1  17
ATOM     17  C   UNL     1       7.487  -9.073 -29.758  1.00  0.00     0.224 C 
ATOM     18  C   UNL     1       8.317  -8.459 -30.900  1.00  0.00     0.208 C 
ATOM     19  O   UNL     1       6.261  -8.368 -29.724  1.00  0.00    -0.337 OA
ATOM     20  C   UNL     1       7.832  -7.031 -30.968  1.00  0.00     0.180 C 
ATOM     21  C   UNL     1       6.488  -7.068 -30.223  1.00  0.00     0.179 C 
BRANCH  17  22
ATOM     22  C   UNL     1       8.219  -8.909 -28.401  1.00  0.00     0.225 C 
BRANCH  22  23
ATOM     23  O   UNL     1       9.559  -8.556 -28.607  1.00  0.00    -0.391 OA
ATOM     24  H   UNL     1       9.681  -8.494 -29.590  1.00  0.00     0.210 HD
ENDBRANCH  22  23
ENDBRANCH  17  22
BRANCH  18  25
ATOM     25  O   UNL     1       8.031  -9.098 -32.121  1.00  0.00    -0.385 OA
ATOM     26  H   UNL     1       8.122 -10.075 -31.964  1.00  0.00     0.211 HD
ENDBRANCH  18  25
BRANCH  20  27
ATOM     27  O   UNL     1       8.739  -6.188 -30.306  1.00  0.00    -0.387 OA
ATOM     28  H   UNL     1       9.127  -6.716 -29.562  1.00  0.00     0.211 HD
ENDBRANCH  20  27
BRANCH  21  29
ATOM     29  C   UNL     1       5.314  -6.655 -31.118  1.00  0.00     0.191 C 
BRANCH  29  30
ATOM     30  O   UNL     1       4.706  -7.786 -31.677  1.00  0.00    -0.394 OA
ATOM     31  H   UNL     1       5.313  -8.094 -32.397  1.00  0.00     0.210 HD
ENDBRANCH  29  30
ENDBRANCH  21  29
ENDBRANCH   1  17
TORSDOF 13
ENDMDL
MODEL 4
REMARK VINA RESULT:    -5.598     17.063     19.098
REMARK INTER + INTRA:          -9.972
REMARK INTER:                  -9.621
REMARK INTRA:                  -0.351
REMARK UNBOUND:                -1.428
REMARK SMILES OC[C@H]1O[C@@](CO)(O[C@@H]2O[C@H](CO)[C@@H](O)[C@@H](O)[C@@H]2O)[C@@H](O)[C@@H]1O
REMARK SMILES IDX 8 1 9 2 11 3 14 4 10 5 16 6 18 7 12 8 13 9 15 11 17 13 19 15
REMARK SMILES IDX 5 17 20 18 4 19 22 20 3 21 6 22 7 23 21 25 23 27 2 29 1 30
REMARK H PARENT 13 10 15 12 17 14 19 16 7 24 21 26 23 28 1 31
REMARK Flexibility Score: inf
ROOT
ATOM      1  O   UNL     1      -0.106 -16.878 -13.014  1.00  0.00    -0.313 OA
ENDROOT
BRANCH   1   2
ATOM      2  C   UNL     1       0.946 -15.921 -12.967  1.00  0.00     0.285 C 
ATOM      3  C   UNL     1      -0.463 -13.979 -12.958  1.00  0.00     0.178 C 
ATOM      4  C   UNL     1      -0.053 -13.607 -14.405  1.00  0.00     0.177 C 
ATOM      5  O   UNL     1       0.521 -14.754 -12.273  1.00  0.00    -0.341 OA
ATOM      6  C   UNL     1       0.384 -14.850 -15.186  1.00  0.00     0.179 C 
ATOM      7  C   UNL     1       1.454 -15.608 -14.389  1.00  0.00     0.202 C 
BRANCH   3   8
ATOM      8  C   UNL     1      -1.880 -14.578 -12.867  1.00  0.00     0.191 C 
BRANCH   8   9
ATOM      9  O   UNL     1      -2.685 -14.044 -13.880  1.00  0.00    -0.394 OA
ATOM     10  H   UNL     1      -2.910 -13.121 -13.597  1.00  0.00     0.210 HD
ENDBRANCH   8   9
ENDBRANCH   3   8
BRANCH   4  11
ATOM     11  O   UNL     1       1.003 -12.678 -14.376  1.00  0.00    -0.387 OA
ATOM     12  H   UNL     1       0.713 -11.893 -14.913  1.00  0.00     0.211 HD
ENDBRANCH   4  11
BRANCH   6  13
ATOM     13  O   UNL     1       0.892 -14.459 -16.438  1.00  0.00    -0.387 OA
ATOM     14  H   UNL     1       0.126 -14.438 -17.070  1.00  0.00     0.211 HD
ENDBRANCH   6  13
BRANCH   7  15
ATOM     15  O   UNL     1       1.772 -16.801 -15.057  1.00  0.00    -0.385 OA
ATOM     16  H   UNL     1       2.080 -16.553 -15.966  1.00  0.00     0.211 HD
ENDBRANCH   7  15
ENDBRANCH   1   2
BRANCH   1  17
ATOM     17  C   UNL     1       0.321 -18.231 -12.873  1.00  0.00     0.224 C 
ATOM     18  C   UNL     1      -0.825 -19.040 -12.237  1.00  0.00     0.208 C 
ATOM     19  O   UNL     1       0.580 -18.818 -14.134  1.00  0.00    -0.337 OA
ATOM     20  C   UNL     1      -0.662 -20.419 -12.830  1.00  0.00     0.180 C 
ATOM     21  C   UNL     1       0.221 -20.182 -14.065  1.00  0.00     0.179 C 
BRANCH  17  22
ATOM     22  C   UNL     1       1.595 -18.303 -11.993  1.00  0.00     0.225 C 
BRANCH  22  23
ATOM     23  O   UNL     1       2.699 -18.693 -12.762  1.00  0.00    -0.391 OA
ATOM     24  H   UNL     1       3.307 -17.909 -12.792  1.00  0.00     0.210 HD
ENDBRANCH  22  23
ENDBRANCH  17  22
BRANCH  18  25
ATOM     25  O   UNL     1      -2.074 -18.521 -12.624  1.00  0.00    -0.385 OA
ATOM     26  H   UNL     1      -2.462 -18.075 -11.825  1.00  0.00     0.211 HD
ENDBRANCH  18  25
BRANCH  20  27
ATOM     27  O   UNL     1      -0.009 -21.257 -11.912  1.00  0.00    -0.387 OA
ATOM     28  H   UNL     1      -0.707 -21.833 -11.505  1.00  0.00     0.211 HD
ENDBRANCH  20  27
BRANCH  21  29
ATOM     29  C   UNL     1      -0.477 -20.590 -15.367  1.00  0.00     0.191 C 
BRANCH  29  30
ATOM     30  O   UNL     1       0.038 -19.859 -16.446  1.00  0.00    -0.394 OA
ATOM     31  H   UNL     1       0.860 -20.334 -16.730  1.00  0.00     0.210 HD
ENDBRANCH  29  30
ENDBRANCH  21  29
ENDBRANCH   1  17
TORSDOF 13
ENDMDL
MODEL 5
REMARK VINA RESULT:    -5.582      1.635      5.823
REMARK INTER + INTRA:          -9.947
REMARK INTER:                  -8.442
REMARK INTRA:                  -1.506
REMARK UNBOUND:                -1.428
REMARK SMILES OC[C@H]1O[C@@](CO)(O[C@@H]2O[C@H](CO)[C@@H](O)[C@@H](O)[C@@H]2O)[C@@H](O)[C@@H]1O
REMARK SMILES IDX 8 1 9 2 11 3 14 4 10 5 16 6 18 7 12 8 13 9 15 11 17 13 19 15
REMARK SMILES IDX 5 17 20 18 4 19 22 20 3 21 6 22 7 23 21 25 23 27 2 29 1 30
REMARK H PARENT 13 10 15 12 17 14 19 16 7 24 21 26 23 28 1 31
REMARK Flexibility Score: inf
ROOT
ATOM      1  O   UNL     1       7.245 -10.377 -29.777  1.00  0.00    -0.313 OA
ENDROOT
BRANCH   1   2
ATOM      2  C   UNL     1       6.499 -11.096 -30.752  1.00  0.00     0.285 C 
ATOM      3  C   UNL     1       5.934 -12.950 -29.338  1.00  0.00     0.178 C 
ATOM      4  C   UNL     1       6.889 -13.898 -30.106  1.00  0.00     0.177 C 
ATOM      5  O   UNL     1       5.470 -11.854 -30.126  1.00  0.00    -0.341 OA
ATOM      6  C   UNL     1       8.024 -13.112 -30.768  1.00  0.00     0.179 C 
ATOM      7  C   UNL     1       7.437 -11.971 -31.609  1.00  0.00     0.202 C 
BRANCH   3   8
ATOM      8  C   UNL     1       6.486 -12.521 -27.965  1.00  0.00     0.191 C 
BRANCH   8   9
ATOM      9  O   UNL     1       5.772 -11.413 -27.493  1.00  0.00    -0.394 OA
ATOM     10  H   UNL     1       6.245 -10.612 -27.837  1.00  0.00     0.210 HD
ENDBRANCH   8   9
ENDBRANCH   3   8
BRANCH   4  11
ATOM     11  O   UNL     1       6.170 -14.601 -31.091  1.00  0.00    -0.387 OA
ATOM     12  H   UNL     1       5.556 -15.220 -30.614  1.00  0.00     0.211 HD
ENDBRANCH   4  11
BRANCH   6  13
ATOM     13  O   UNL     1       8.780 -13.978 -31.578  1.00  0.00    -0.387 OA
ATOM     14  H   UNL     1       9.597 -14.215 -31.068  1.00  0.00     0.211 HD
ENDBRANCH   6  13
BRANCH   7  15
ATOM     15  O   UNL     1       8.482 -11.189 -32.125  1.00  0.00    -0.385 OA
ATOM     16  H   UNL     1       8.542 -11.386 -33.095  1.00  0.00     0.211 HD
ENDBRANCH   7  15
ENDBRANCH   1   2
BRANCH   1  17
ATOM     17  C   UNL     1       7.234  -8.962 -29.950  1.00  0.00     0.224 C 
ATOM     18  C   UNL     1       7.251  -8.300 -28.560  1.00  0.00     0.208 C 
ATOM     19  O   UNL     1       8.398  -8.522 -30.623  1.00  0.00    -0.337 OA
ATOM     20  C   UNL     1       8.007  -7.013 -28.786  1.00  0.00     0.180 C 
ATOM     21  C   UNL     1       8.747  -7.253 -30.111  1.00  0.00     0.179 C 
BRANCH  17  22
ATOM     22  C   UNL     1       5.976  -8.529 -30.747  1.00  0.00     0.225 C 
BRANCH  22  23
ATOM     23  O   UNL     1       5.052  -7.903 -29.901  1.00  0.00    -0.391 OA
ATOM     24  H   UNL     1       5.161  -8.326 -29.010  1.00  0.00     0.210 HD
ENDBRANCH  22  23
ENDBRANCH  17  22
BRANCH  18  25
ATOM     25  O   UNL     1       7.962  -9.093 -27.641  1.00  0.00    -0.385 OA
ATOM     26  H   UNL     1       8.470  -8.471 -27.056  1.00  0.00     0.211 HD
ENDBRANCH  18  25
BRANCH  20  27
ATOM     27  O   UNL     1       7.103  -5.946 -28.914  1.00  0.00    -0.387 OA
ATOM     28  H   UNL     1       7.532  -5.278 -29.509  1.00  0.00     0.211 HD
ENDBRANCH  20  27
BRANCH  21  29
ATOM     29  C   UNL     1      10.269  -7.171 -29.952  1.00  0.00     0.191 C 
BRANCH  29  30
ATOM     30  O   UNL     1      10.813  -6.305 -30.909  1.00  0.00    -0.394 OA
ATOM     31  H   UNL     1      11.220  -6.885 -31.602  1.00  0.00     0.210 HD
ENDBRANCH  29  30
ENDBRANCH  21  29
ENDBRANCH   1  17
TORSDOF 13
ENDMDL
MODEL 6
REMARK VINA RESULT:    -5.575      1.292      2.529
REMARK INTER + INTRA:          -9.937
REMARK INTER:                  -8.921
REMARK INTRA:                  -1.015
REMARK UNBOUND:                -1.428
REMARK SMILES OC[C@H]1O[C@@](CO)(O[C@@H]2O[C@H](CO)[C@@H](O)[C@@H](O)[C@@H]2O)[C@@H](O)[C@@H]1O
REMARK SMILES IDX 8 1 9 2 11 3 14 4 10 5 16 6 18 7 12 8 13 9 15 11 17 13 19 15
REMARK SMILES IDX 5 17 20 18 4 19 22 20 3 21 6 22 7 23 21 25 23 27 2 29 1 30
REMARK H PARENT 13 10 15 12 17 14 19 16 7 24 21 26 23 28 1 31
REMARK Flexibility Score: inf
ROOT
ATOM      1  O   UNL     1       7.108  -9.912 -29.879  1.00  0.00    -0.313 OA
ENDROOT
BRANCH   1   2
ATOM      2  C   UNL     1       7.439  -9.250 -31.094  1.00  0.00     0.285 C 
ATOM      3  C   UNL     1       9.045  -7.741 -30.146  1.00  0.00     0.178 C 
ATOM      4  C   UNL     1       8.100  -6.528 -30.333  1.00  0.00     0.177 C 
ATOM      5  O   UNL     1       8.790  -8.805 -31.063  1.00  0.00    -0.341 OA
ATOM      6  C   UNL     1       6.634  -6.974 -30.343  1.00  0.00     0.179 C 
ATOM      7  C   UNL     1       6.447  -8.101 -31.368  1.00  0.00     0.202 C 
BRANCH   3   8
ATOM      8  C   UNL     1       9.140  -8.211 -28.681  1.00  0.00     0.191 C 
BRANCH   8   9
ATOM      9  O   UNL     1      10.462  -8.563 -28.382  1.00  0.00    -0.394 OA
ATOM     10  H   UNL     1      11.031  -8.082 -29.036  1.00  0.00     0.210 HD
ENDBRANCH   8   9
ENDBRANCH   3   8
BRANCH   4  11
ATOM     11  O   UNL     1       8.399  -5.876 -31.544  1.00  0.00    -0.387 OA
ATOM     12  H   UNL     1       8.504  -6.582 -32.235  1.00  0.00     0.211 HD
ENDBRANCH   4  11
BRANCH   6  13
ATOM     13  O   UNL     1       5.817  -5.877 -30.668  1.00  0.00    -0.387 OA
ATOM     14  H   UNL     1       6.150  -5.509 -31.527  1.00  0.00     0.211 HD
ENDBRANCH   6  13
BRANCH   7  15
ATOM     15  O   UNL     1       5.129  -8.578 -31.297  1.00  0.00    -0.385 OA
ATOM     16  H   UNL     1       4.698  -8.375 -32.166  1.00  0.00     0.211 HD
ENDBRANCH   7  15
ENDBRANCH   1   2
BRANCH   1  17
ATOM     17  C   UNL     1       6.961 -11.324 -29.997  1.00  0.00     0.224 C 
ATOM     18  C   UNL     1       8.343 -11.976 -29.810  1.00  0.00     0.208 C 
ATOM     19  O   UNL     1       6.129 -11.838 -28.974  1.00  0.00    -0.337 OA
ATOM     20  C   UNL     1       8.027 -13.307 -29.171  1.00  0.00     0.180 C 
ATOM     21  C   UNL     1       6.603 -13.121 -28.626  1.00  0.00     0.179 C 
BRANCH  17  22
ATOM     22  C   UNL     1       6.368 -11.688 -31.383  1.00  0.00     0.225 C 
BRANCH  22  23
ATOM     23  O   UNL     1       4.986 -11.460 -31.398  1.00  0.00    -0.391 OA
ATOM     24  H   UNL     1       4.782 -11.047 -32.277  1.00  0.00     0.210 HD
ENDBRANCH  22  23
ENDBRANCH  17  22
BRANCH  18  25
ATOM     25  O   UNL     1       9.133 -11.220 -28.925  1.00  0.00    -0.385 OA
ATOM     26  H   UNL     1       8.576 -10.455 -28.622  1.00  0.00     0.211 HD
ENDBRANCH  18  25
BRANCH  20  27
ATOM     27  O   UNL     1       8.054 -14.320 -30.144  1.00  0.00    -0.387 OA
ATOM     28  H   UNL     1       7.335 -14.961 -29.907  1.00  0.00     0.211 HD
ENDBRANCH  20  27
BRANCH  21  29
ATOM     29  C   UNL     1       6.535 -13.291 -27.104  1.00  0.00     0.191 C 
BRANCH  29  30
ATOM     30  O   UNL     1       5.794 -12.250 -26.530  1.00  0.00    -0.394 OA
ATOM     31  H   UNL     1       4.843 -12.519 -26.603  1.00  0.00     0.210 HD
ENDBRANCH  29  30
ENDBRANCH  21  29
ENDBRANCH   1  17
TORSDOF 13
ENDMDL
MODEL 7
REMARK VINA RESULT:    -5.458      1.821      5.926
REMARK INTER + INTRA:          -9.758
REMARK INTER:                  -8.346
REMARK INTRA:                  -1.412
REMARK UNBOUND:                -1.428
REMARK SMILES OC[C@H]1O[C@@](CO)(O[C@@H]2O[C@H](CO)[C@@H](O)[C@@H](O)[C@@H]2O)[C@@H](O)[C@@H]1O
REMARK SMILES IDX 8 1 9 2 11 3 14 4 10 5 16 6 18 7 12 8 13 9 15 11 17 13 19 15
REMARK SMILES IDX 5 17 20 18 4 19 22 20 3 21 6 22 7 23 21 25 23 27 2 29 1 30
REMARK H PARENT 13 10 15 12 17 14 19 16 7 24 21 26 23 28 1 31
REMARK Flexibility Score: inf
ROOT
ATOM      1  O   UNL     1       7.218 -11.511 -29.908  1.00  0.00    -0.313 OA
ENDROOT
BRANCH   1   2
ATOM      2  C   UNL     1       6.465 -12.452 -30.664  1.00  0.00     0.285 C 
ATOM      3  C   UNL     1       6.102 -14.003 -28.871  1.00  0.00     0.178 C 
ATOM      4  C   UNL     1       7.070 -15.038 -29.496  1.00  0.00     0.177 C 
ATOM      5  O   UNL     1       5.525 -13.118 -29.830  1.00  0.00    -0.341 OA
ATOM      6  C   UNL     1       8.113 -14.347 -30.380  1.00  0.00     0.179 C 
ATOM      7  C   UNL     1       7.406 -13.434 -31.391  1.00  0.00     0.202 C 
BRANCH   3   8
ATOM      8  C   UNL     1       6.703 -13.274 -27.653  1.00  0.00     0.191 C 
BRANCH   8   9
ATOM      9  O   UNL     1       5.917 -12.160 -27.334  1.00  0.00    -0.394 OA
ATOM     10  H   UNL     1       4.983 -12.409 -27.554  1.00  0.00     0.210 HD
ENDBRANCH   8   9
ENDBRANCH   3   8
BRANCH   4  11
ATOM     11  O   UNL     1       6.343 -15.964 -30.267  1.00  0.00    -0.387 OA
ATOM     12  H   UNL     1       5.399 -15.656 -30.275  1.00  0.00     0.211 HD
ENDBRANCH   4  11
BRANCH   6  13
ATOM     13  O   UNL     1       8.875 -15.321 -31.049  1.00  0.00    -0.387 OA
ATOM     14  H   UNL     1       8.553 -16.207 -30.740  1.00  0.00     0.211 HD
ENDBRANCH   6  13
BRANCH   7  15
ATOM     15  O   UNL     1       8.368 -12.722 -32.125  1.00  0.00    -0.385 OA
ATOM     16  H   UNL     1       8.208 -12.920 -33.083  1.00  0.00     0.211 HD
ENDBRANCH   7  15
ENDBRANCH   1   2
BRANCH   1  17
ATOM     17  C   UNL     1       6.880 -10.148 -30.157  1.00  0.00     0.224 C 
ATOM     18  C   UNL     1       7.372  -9.299 -28.970  1.00  0.00     0.208 C 
ATOM     19  O   UNL     1       7.545  -9.660 -31.306  1.00  0.00    -0.337 OA
ATOM     20  C   UNL     1       7.714  -7.970 -29.598  1.00  0.00     0.180 C 
ATOM     21  C   UNL     1       7.846  -8.298 -31.093  1.00  0.00     0.179 C 
BRANCH  17  22
ATOM     22  C   UNL     1       5.348 -10.000 -30.338  1.00  0.00     0.225 C 
BRANCH  22  23
ATOM     23  O   UNL     1       4.679 -10.362 -29.161  1.00  0.00    -0.391 OA
ATOM     24  H   UNL     1       3.954 -10.983 -29.434  1.00  0.00     0.210 HD
ENDBRANCH  22  23
ENDBRANCH  17  22
BRANCH  18  25
ATOM     25  O   UNL     1       8.537  -9.855 -28.410  1.00  0.00    -0.385 OA
ATOM     26  H   UNL     1       8.772 -10.648 -28.961  1.00  0.00     0.211 HD
ENDBRANCH  18  25
BRANCH  20  27
ATOM     27  O   UNL     1       6.668  -7.059 -29.383  1.00  0.00    -0.387 OA
ATOM     28  H   UNL     1       7.014  -6.370 -28.758  1.00  0.00     0.211 HD
ENDBRANCH  20  27
BRANCH  21  29
ATOM     29  C   UNL     1       9.248  -7.997 -31.635  1.00  0.00     0.191 C 
BRANCH  29  30
ATOM     30  O   UNL     1       9.860  -6.995 -30.871  1.00  0.00    -0.394 OA
ATOM     31  H   UNL     1      10.348  -6.421 -31.515  1.00  0.00     0.210 HD
ENDBRANCH  29  30
ENDBRANCH  21  29
ENDBRANCH   1  17
TORSDOF 13
ENDMDL
MODEL 8
REMARK VINA RESULT:    -5.243     17.331     19.446
REMARK INTER + INTRA:          -9.430
REMARK INTER:                  -8.309
REMARK INTRA:                  -1.121
REMARK UNBOUND:                -1.428
REMARK SMILES OC[C@H]1O[C@@](CO)(O[C@@H]2O[C@H](CO)[C@@H](O)[C@@H](O)[C@@H]2O)[C@@H](O)[C@@H]1O
REMARK SMILES IDX 8 1 9 2 11 3 14 4 10 5 16 6 18 7 12 8 13 9 15 11 17 13 19 15
REMARK SMILES IDX 5 17 20 18 4 19 22 20 3 21 6 22 7 23 21 25 23 27 2 29 1 30
REMARK H PARENT 13 10 15 12 17 14 19 16 7 24 21 26 23 28 1 31
REMARK Flexibility Score: inf
ROOT
ATOM      1  O   UNL     1      -0.086 -16.737 -13.274  1.00  0.00    -0.313 OA
ENDROOT
BRANCH   1   2
ATOM      2  C   UNL     1       0.765 -15.621 -13.040  1.00  0.00     0.285 C 
ATOM      3  C   UNL     1      -0.897 -14.233 -12.006  1.00  0.00     0.178 C 
ATOM      4  C   UNL     1      -0.953 -13.290 -13.234  1.00  0.00     0.177 C 
ATOM      5  O   UNL     1       0.349 -14.917 -11.875  1.00  0.00    -0.341 OA
ATOM      6  C   UNL     1      -0.535 -14.028 -14.510  1.00  0.00     0.179 C 
ATOM      7  C   UNL     1       0.819 -14.715 -14.287  1.00  0.00     0.202 C 
BRANCH   3   8
ATOM      8  C   UNL     1      -2.118 -15.167 -11.908  1.00  0.00     0.191 C 
BRANCH   8   9
ATOM      9  O   UNL     1      -3.091 -14.774 -12.834  1.00  0.00    -0.394 OA
ATOM     10  H   UNL     1      -2.716 -14.973 -13.730  1.00  0.00     0.210 HD
ENDBRANCH   8   9
ENDBRANCH   3   8
BRANCH   4  11
ATOM     11  O   UNL     1      -0.097 -12.191 -13.029  1.00  0.00    -0.387 OA
ATOM     12  H   UNL     1       0.532 -12.446 -12.303  1.00  0.00     0.211 HD
ENDBRANCH   4  11
BRANCH   6  13
ATOM     13  O   UNL     1      -0.449 -13.110 -15.572  1.00  0.00    -0.387 OA
ATOM     14  H   UNL     1      -0.409 -13.639 -16.411  1.00  0.00     0.211 HD
ENDBRANCH   6  13
BRANCH   7  15
ATOM     15  O   UNL     1       1.144 -15.477 -15.419  1.00  0.00    -0.385 OA
ATOM     16  H   UNL     1       2.028 -15.161 -15.739  1.00  0.00     0.211 HD
ENDBRANCH   7  15
ENDBRANCH   1   2
BRANCH   1  17
ATOM     17  C   UNL     1       0.374 -17.960 -12.703  1.00  0.00     0.224 C 
ATOM     18  C   UNL     1       0.832 -18.888 -13.843  1.00  0.00     0.208 C 
ATOM     19  O   UNL     1       1.502 -17.744 -11.877  1.00  0.00    -0.337 OA
ATOM     20  C   UNL     1       1.948 -19.693 -13.222  1.00  0.00     0.180 C 
ATOM     21  C   UNL     1       2.347 -18.870 -11.987  1.00  0.00     0.179 C 
BRANCH  17  22
ATOM     22  C   UNL     1      -0.757 -18.625 -11.877  1.00  0.00     0.225 C 
BRANCH  22  23
ATOM     23  O   UNL     1      -1.325 -19.687 -12.592  1.00  0.00    -0.391 OA
ATOM     24  H   UNL     1      -1.786 -20.257 -11.923  1.00  0.00     0.210 HD
ENDBRANCH  22  23
ENDBRANCH  17  22
BRANCH  18  25
ATOM     25  O   UNL     1       1.350 -18.139 -14.916  1.00  0.00    -0.385 OA
ATOM     26  H   UNL     1       0.573 -17.784 -15.422  1.00  0.00     0.211 HD
ENDBRANCH  18  25
BRANCH  20  27
ATOM     27  O   UNL     1       1.468 -20.955 -12.838  1.00  0.00    -0.387 OA
ATOM     28  H   UNL     1       2.005 -21.238 -12.054  1.00  0.00     0.211 HD
ENDBRANCH  20  27
BRANCH  21  29
ATOM     29  C   UNL     1       3.807 -18.405 -12.043  1.00  0.00     0.191 C 
BRANCH  29  30
ATOM     30  O   UNL     1       4.005 -17.552 -13.136  1.00  0.00    -0.394 OA
ATOM     31  H   UNL     1       3.453 -17.919 -13.873  1.00  0.00     0.210 HD
ENDBRANCH  29  30
ENDBRANCH  21  29
ENDBRANCH   1  17
TORSDOF 13
ENDMDL
MODEL 9
REMARK VINA RESULT:    -5.044      1.687      5.660
REMARK INTER + INTRA:          -9.126
REMARK INTER:                  -6.993
REMARK INTRA:                  -2.133
REMARK UNBOUND:                -1.428
REMARK SMILES OC[C@H]1O[C@@](CO)(O[C@@H]2O[C@H](CO)[C@@H](O)[C@@H](O)[C@@H]2O)[C@@H](O)[C@@H]1O
REMARK SMILES IDX 8 1 9 2 11 3 14 4 10 5 16 6 18 7 12 8 13 9 15 11 17 13 19 15
REMARK SMILES IDX 5 17 20 18 4 19 22 20 3 21 6 22 7 23 21 25 23 27 2 29 1 30
REMARK H PARENT 13 10 15 12 17 14 19 16 7 24 21 26 23 28 1 31
REMARK Flexibility Score: inf
ROOT
ATOM      1  O   UNL     1       6.891 -11.547 -29.993  1.00  0.00    -0.313 OA
ENDROOT
BRANCH   1   2
ATOM      2  C   UNL     1       7.851 -11.913 -29.008  1.00  0.00     0.285 C 
ATOM      3  C   UNL     1       7.295 -14.246 -28.951  1.00  0.00     0.178 C 
ATOM      4  C   UNL     1       6.652 -14.116 -27.548  1.00  0.00     0.177 C 
ATOM      5  O   UNL     1       8.285 -13.252 -29.214  1.00  0.00    -0.341 OA
ATOM      6  C   UNL     1       6.150 -12.689 -27.307  1.00  0.00     0.179 C 
ATOM      7  C   UNL     1       7.280 -11.691 -27.592  1.00  0.00     0.202 C 
BRANCH   3   8
ATOM      8  C   UNL     1       6.255 -14.384 -30.080  1.00  0.00     0.191 C 
BRANCH   8   9
ATOM      9  O   UNL     1       6.881 -14.223 -31.322  1.00  0.00    -0.394 OA
ATOM     10  H   UNL     1       7.427 -15.039 -31.464  1.00  0.00     0.210 HD
ENDBRANCH   8   9
ENDBRANCH   3   8
BRANCH   4  11
ATOM     11  O   UNL     1       7.596 -14.452 -26.559  1.00  0.00    -0.387 OA
ATOM     12  H   UNL     1       7.085 -14.719 -25.750  1.00  0.00     0.211 HD
ENDBRANCH   4  11
BRANCH   6  13
ATOM     13  O   UNL     1       5.715 -12.567 -25.975  1.00  0.00    -0.387 OA
ATOM     14  H   UNL     1       5.851 -13.450 -25.542  1.00  0.00     0.211 HD
ENDBRANCH   6  13
BRANCH   7  15
ATOM     15  O   UNL     1       6.785 -10.383 -27.476  1.00  0.00    -0.385 OA
ATOM     16  H   UNL     1       7.375  -9.904 -26.839  1.00  0.00     0.211 HD
ENDBRANCH   7  15
ENDBRANCH   1   2
BRANCH   1  17
ATOM     17  C   UNL     1       7.206 -10.356 -30.710  1.00  0.00     0.224 C 
ATOM     18  C   UNL     1       5.933  -9.497 -30.811  1.00  0.00     0.208 C 
ATOM     19  O   UNL     1       8.164  -9.581 -30.015  1.00  0.00    -0.337 OA
ATOM     20  C   UNL     1       6.456  -8.080 -30.811  1.00  0.00     0.180 C 
ATOM     21  C   UNL     1       7.880  -8.218 -30.249  1.00  0.00     0.179 C 
BRANCH  17  22
ATOM     22  C   UNL     1       7.744 -10.706 -32.121  1.00  0.00     0.225 C 
BRANCH  22  23
ATOM     23  O   UNL     1       8.457 -11.911 -32.088  1.00  0.00    -0.391 OA
ATOM     24  H   UNL     1       8.566 -12.194 -33.033  1.00  0.00     0.210 HD
ENDBRANCH  22  23
ENDBRANCH  17  22
BRANCH  18  25
ATOM     25  O   UNL     1       5.116  -9.683 -29.681  1.00  0.00    -0.385 OA
ATOM     26  H   UNL     1       5.260  -8.898 -29.089  1.00  0.00     0.211 HD
ENDBRANCH  18  25
BRANCH  20  27
ATOM     27  O   UNL     1       6.491  -7.586 -32.125  1.00  0.00    -0.387 OA
ATOM     28  H   UNL     1       7.342  -7.085 -32.218  1.00  0.00     0.211 HD
ENDBRANCH  20  27
BRANCH  21  29
ATOM     29  C   UNL     1       8.073  -7.428 -28.951  1.00  0.00     0.191 C 
BRANCH  29  30
ATOM     30  O   UNL     1       6.929  -7.523 -28.147  1.00  0.00    -0.394 OA
ATOM     31  H   UNL     1       6.175  -7.697 -28.766  1.00  0.00     0.210 HD
ENDBRANCH  29  30
ENDBRANCH  21  29
ENDBRANCH   1  17
TORSDOF 13
ENDMDL
