MODEL 1
REMARK VINA RESULT:    -4.155      0.000      0.000
REMARK INTER + INTRA:         -12.800
REMARK INTER:                 -10.470
REMARK INTRA:                  -2.330
REMARK UNBOUND:                -2.330
REMARK SMILES CCCCCCCCCCCCCCCCCCCCCCCCCCCC(=O)[O-]
REMARK SMILES IDX 15 1 16 2 17 3 18 4 19 5 20 6 21 7 22 8 23 9 24 10 25 11
REMARK SMILES IDX 26 12 27 13 28 14 29 15 30 16 14 17 13 18 12 19 11 20 10 21
REMARK SMILES IDX 9 22 8 23 7 24 6 25 5 26 4 27 3 28 2 29 1 30
REMARK H PARENT
REMARK Flexibility Score: inf
ROOT
ATOM      1  C   UNL     1      56.939  44.949  15.428  1.00  0.00     0.000 C 
ENDROOT
BRANCH   1   2
ATOM      2  C   UNL     1      57.217  46.435  15.145  1.00  0.00     0.000 C 
BRANCH   2   3
ATOM      3  C   UNL     1      56.731  46.879  13.759  1.00  0.00     0.000 C 
BRANCH   3   4
ATOM      4  C   UNL     1      55.804  48.096  13.864  1.00  0.00     0.000 C 
BRANCH   4   5
ATOM      5  C   UNL     1      54.392  47.760  13.368  1.00  0.00     0.000 C 
BRANCH   5   6
ATOM      6  C   UNL     1      53.460  47.425  14.539  1.00  0.00     0.000 C 
BRANCH   6   7
ATOM      7  C   UNL     1      52.234  48.351  14.545  1.00  0.00     0.000 C 
BRANCH   7   8
ATOM      8  C   UNL     1      50.933  47.616  14.919  1.00  0.00     0.000 C 
BRANCH   8   9
ATOM      9  C   UNL     1      50.533  46.481  13.959  1.00  0.00     0.000 C 
BRANCH   9  10
ATOM     10  C   UNL     1      50.201  45.137  14.639  1.00  0.00     0.000 C 
BRANCH  10  11
ATOM     11  C   UNL     1      48.691  44.914  14.871  1.00  0.00     0.000 C 
BRANCH  11  12
ATOM     12  C   UNL     1      48.275  43.451  14.660  1.00  0.00     0.006 C 
BRANCH  12  13
ATOM     13  C   UNL     1      46.756  43.326  14.504  1.00  0.00     0.053 C 
BRANCH  13  14
ATOM     14  C   UNL     1      46.059  43.874  15.708  1.00  0.00     0.041 C 
ATOM     15  O   UNL     1      46.258  43.364  16.844  1.00  0.00    -0.550 OA
ATOM     16  O   UNL     1      45.143  44.909  15.570  1.00  0.00    -0.550 OA
ENDBRANCH  13  14
ENDBRANCH  12  13
ENDBRANCH  11  12
ENDBRANCH  10  11
ENDBRANCH   9  10
ENDBRANCH   8   9
ENDBRANCH   7   8
ENDBRANCH   6   7
ENDBRANCH   5   6
ENDBRANCH   4   5
ENDBRANCH   3   4
ENDBRANCH   2   3
ENDBRANCH   1   2
BRANCH   1  17
ATOM     17  C   UNL     1      57.934  44.310  16.419  1.00  0.00     0.000 C 
BRANCH  17  18
ATOM     18  C   UNL     1      58.915  45.342  17.005  1.00  0.00     0.000 C 
BRANCH  18  19
ATOM     19  C   UNL     1      60.342  44.786  17.137  1.00  0.00     0.000 C 
BRANCH  19  20
ATOM     20  C   UNL     1      61.365  45.873  17.509  1.00  0.00     0.000 C 
BRANCH  20  21
ATOM     21  C   UNL     1      62.761  45.607  16.918  1.00  0.00     0.000 C 
BRANCH  21  22
ATOM     22  C   UNL     1      62.837  44.417  15.942  1.00  0.00    -0.000 C 
BRANCH  22  23
ATOM     23  C   UNL     1      64.118  44.427  15.087  1.00  0.00    -0.000 C 
BRANCH  23  24
ATOM     24  C   UNL     1      65.019  43.210  15.359  1.00  0.00    -0.000 C 
BRANCH  24  25
ATOM     25  C   UNL     1      64.356  41.880  14.965  1.00  0.00    -0.000 C 
BRANCH  25  26
ATOM     26  C   UNL     1      64.350  40.852  16.112  1.00  0.00    -0.000 C 
BRANCH  26  27
ATOM     27  C   UNL     1      64.211  41.455  17.523  1.00  0.00    -0.000 C 
BRANCH  27  28
ATOM     28  C   UNL     1      62.847  41.222  18.200  1.00  0.00    -0.000 C 
BRANCH  28  29
ATOM     29  C   UNL     1      62.396  42.389  19.105  1.00  0.00    -0.003 C 
ATOM     30  C   UNL     1      63.573  43.168  19.694  1.00  0.00     0.004 C 
ENDBRANCH  28  29
ENDBRANCH  27  28
ENDBRANCH  26  27
ENDBRANCH  25  26
ENDBRANCH  24  25
ENDBRANCH  23  24
ENDBRANCH  22  23
ENDBRANCH  21  22
ENDBRANCH  20  21
ENDBRANCH  19  20
ENDBRANCH  18  19
ENDBRANCH  17  18
ENDBRANCH   1  17
TORSDOF 26
ENDMDL
MODEL 2
REMARK VINA RESULT:    -4.074      5.176     10.715
REMARK INTER + INTRA:         -12.596
REMARK INTER:                  -7.384
REMARK INTRA:                  -5.211
REMARK UNBOUND:                -2.330
REMARK SMILES CCCCCCCCCCCCCCCCCCCCCCCCCCCC(=O)[O-]
REMARK SMILES IDX 15 1 16 2 17 3 18 4 19 5 20 6 21 7 22 8 23 9 24 10 25 11
REMARK SMILES IDX 26 12 27 13 28 14 29 15 30 16 14 17 13 18 12 19 11 20 10 21
REMARK SMILES IDX 9 22 8 23 7 24 6 25 5 26 4 27 3 28 2 29 1 30
REMARK H PARENT
REMARK Flexibility Score: inf
ROOT
ATOM      1  C   UNL     1      54.722  48.496  14.300  1.00  0.00     0.000 C 
ENDROOT
BRANCH   1   2
ATOM      2  C   UNL     1      55.226  47.306  13.465  1.00  0.00     0.000 C 
BRANCH   2   3
ATOM      3  C   UNL     1      56.464  46.634  14.072  1.00  0.00     0.000 C 
BRANCH   3   4
ATOM      4  C   UNL     1      57.106  47.528  15.141  1.00  0.00     0.000 C 
BRANCH   4   5
ATOM      5  C   UNL     1      57.272  46.771  16.466  1.00  0.00     0.000 C 
BRANCH   5   6
ATOM      6  C   UNL     1      56.989  47.686  17.664  1.00  0.00     0.000 C 
BRANCH   6   7
ATOM      7  C   UNL     1      55.811  47.153  18.494  1.00  0.00     0.000 C 
BRANCH   7   8
ATOM      8  C   UNL     1      54.442  47.503  17.882  1.00  0.00     0.000 C 
BRANCH   8   9
ATOM      9  C   UNL     1      53.524  46.296  17.616  1.00  0.00     0.000 C 
BRANCH   9  10
ATOM     10  C   UNL     1      53.846  45.499  16.336  1.00  0.00     0.000 C 
BRANCH  10  11
ATOM     11  C   UNL     1      53.990  43.980  16.569  1.00  0.00     0.000 C 
BRANCH  11  12
ATOM     12  C   UNL     1      55.309  43.424  16.014  1.00  0.00     0.006 C 
BRANCH  12  13
ATOM     13  C   UNL     1      56.354  43.271  17.125  1.00  0.00     0.053 C 
BRANCH  13  14
ATOM     14  C   UNL     1      56.510  41.832  17.503  1.00  0.00     0.041 C 
ATOM     15  O   UNL     1      57.597  41.233  17.283  1.00  0.00    -0.550 OA
ATOM     16  O   UNL     1      55.436  41.135  18.042  1.00  0.00    -0.550 OA
ENDBRANCH  13  14
ENDBRANCH  12  13
ENDBRANCH  11  12
ENDBRANCH  10  11
ENDBRANCH   9  10
ENDBRANCH   8   9
ENDBRANCH   7   8
ENDBRANCH   6   7
ENDBRANCH   5   6
ENDBRANCH   4   5
ENDBRANCH   3   4
ENDBRANCH   2   3
ENDBRANCH   1   2
BRANCH   1  17
ATOM     17  C   UNL     1      53.333  49.012  13.868  1.00  0.00     0.000 C 
BRANCH  17  18
ATOM     18  C   UNL     1      52.797  48.272  12.629  1.00  0.00     0.000 C 
BRANCH  18  19
ATOM     19  C   UNL     1      51.452  48.837  12.145  1.00  0.00     0.000 C 
BRANCH  19  20
ATOM     20  C   UNL     1      50.861  49.869  13.121  1.00  0.00     0.000 C 
BRANCH  20  21
ATOM     21  C   UNL     1      49.360  49.650  13.385  1.00  0.00     0.000 C 
BRANCH  21  22
ATOM     22  C   UNL     1      49.014  48.344  14.125  1.00  0.00    -0.000 C 
BRANCH  22  23
ATOM     23  C   UNL     1      49.618  48.281  15.540  1.00  0.00    -0.000 C 
BRANCH  23  24
ATOM     24  C   UNL     1      50.723  47.219  15.664  1.00  0.00    -0.000 C 
BRANCH  24  25
ATOM     25  C   UNL     1      50.569  46.080  14.642  1.00  0.00    -0.000 C 
BRANCH  25  26
ATOM     26  C   UNL     1      50.069  44.769  15.278  1.00  0.00    -0.000 C 
BRANCH  26  27
ATOM     27  C   UNL     1      48.863  44.123  14.570  1.00  0.00    -0.000 C 
BRANCH  27  28
ATOM     28  C   UNL     1      47.485  44.568  15.094  1.00  0.00    -0.000 C 
BRANCH  28  29
ATOM     29  C   UNL     1      47.537  45.252  16.477  1.00  0.00    -0.003 C 
ATOM     30  C   UNL     1      46.624  46.475  16.565  1.00  0.00     0.004 C 
ENDBRANCH  28  29
ENDBRANCH  27  28
ENDBRANCH  26  27
ENDBRANCH  25  26
ENDBRANCH  24  25
ENDBRANCH  23  24
ENDBRANCH  22  23
ENDBRANCH  21  22
ENDBRANCH  20  21
ENDBRANCH  19  20
ENDBRANCH  18  19
ENDBRANCH  17  18
ENDBRANCH   1  17
TORSDOF 26
ENDMDL
MODEL 3
REMARK VINA RESULT:    -4.074      7.205     10.274
REMARK INTER + INTRA:         -12.595
REMARK INTER:                  -7.015
REMARK INTRA:                  -5.580
REMARK UNBOUND:                -2.330
REMARK SMILES CCCCCCCCCCCCCCCCCCCCCCCCCCCC(=O)[O-]
REMARK SMILES IDX 15 1 16 2 17 3 18 4 19 5 20 6 21 7 22 8 23 9 24 10 25 11
REMARK SMILES IDX 26 12 27 13 28 14 29 15 30 16 14 17 13 18 12 19 11 20 10 21
REMARK SMILES IDX 9 22 8 23 7 24 6 25 5 26 4 27 3 28 2 29 1 30
REMARK H PARENT
REMARK Flexibility Score: inf
ROOT
ATOM      1  C   UNL     1      49.630  45.175  17.786  1.00  0.00     0.000 C 
ENDROOT
BRANCH   1   2
ATOM      2  C   UNL     1      48.364  46.045  17.702  1.00  0.00     0.000 C 
BRANCH   2   3
ATOM      3  C   UNL     1      47.117  45.246  17.301  1.00  0.00     0.000 C 
BRANCH   3   4
ATOM      4  C   UNL     1      46.810  45.417  15.808  1.00  0.00     0.000 C 
BRANCH   4   5
ATOM      5  C   UNL     1      46.199  44.138  15.220  1.00  0.00     0.000 C 
BRANCH   5   6
ATOM      6  C   UNL     1      47.269  43.274  14.542  1.00  0.00     0.000 C 
BRANCH   6   7
ATOM      7  C   UNL     1      46.742  41.856  14.279  1.00  0.00     0.000 C 
BRANCH   7   8
ATOM      8  C   UNL     1      45.438  41.552  15.040  1.00  0.00     0.000 C 
BRANCH   8   9
ATOM      9  C   UNL     1      45.544  40.422  16.081  1.00  0.00     0.000 C 
BRANCH   9  10
ATOM     10  C   UNL     1      46.866  40.386  16.874  1.00  0.00     0.000 C 
BRANCH  10  11
ATOM     11  C   UNL     1      46.999  41.521  17.912  1.00  0.00     0.000 C 
BRANCH  11  12
ATOM     12  C   UNL     1      48.460  41.796  18.296  1.00  0.00     0.006 C 
BRANCH  12  13
ATOM     13  C   UNL     1      49.384  41.676  17.079  1.00  0.00     0.053 C 
BRANCH  13  14
ATOM     14  C   UNL     1      50.816  41.666  17.507  1.00  0.00     0.041 C 
ATOM     15  O   UNL     1      51.716  41.305  16.703  1.00  0.00    -0.550 OA
ATOM     16  O   UNL     1      51.154  41.999  18.813  1.00  0.00    -0.550 OA
ENDBRANCH  13  14
ENDBRANCH  12  13
ENDBRANCH  11  12
ENDBRANCH  10  11
ENDBRANCH   9  10
ENDBRANCH   8   9
ENDBRANCH   7   8
ENDBRANCH   6   7
ENDBRANCH   5   6
ENDBRANCH   4   5
ENDBRANCH   3   4
ENDBRANCH   2   3
ENDBRANCH   1   2
BRANCH   1  17
ATOM     17  C   UNL     1      50.814  45.721  16.961  1.00  0.00     0.000 C 
BRANCH  17  18
ATOM     18  C   UNL     1      51.054  44.907  15.677  1.00  0.00     0.000 C 
BRANCH  18  19
ATOM     19  C   UNL     1      50.160  45.366  14.515  1.00  0.00     0.000 C 
BRANCH  19  20
ATOM     20  C   UNL     1      50.474  46.803  14.063  1.00  0.00     0.000 C 
BRANCH  20  21
ATOM     21  C   UNL     1      49.263  47.746  14.190  1.00  0.00     0.000 C 
BRANCH  21  22
ATOM     22  C   UNL     1      49.568  49.113  14.830  1.00  0.00    -0.000 C 
BRANCH  22  23
ATOM     23  C   UNL     1      49.506  49.079  16.368  1.00  0.00    -0.000 C 
BRANCH  23  24
ATOM     24  C   UNL     1      50.741  49.722  17.024  1.00  0.00    -0.000 C 
BRANCH  24  25
ATOM     25  C   UNL     1      51.992  49.648  16.133  1.00  0.00    -0.000 C 
BRANCH  25  26
ATOM     26  C   UNL     1      53.076  48.711  16.700  1.00  0.00    -0.000 C 
BRANCH  26  27
ATOM     27  C   UNL     1      53.640  47.688  15.696  1.00  0.00    -0.000 C 
BRANCH  27  28
ATOM     28  C   UNL     1      54.483  48.290  14.556  1.00  0.00    -0.000 C 
BRANCH  28  29
ATOM     29  C   UNL     1      53.951  47.953  13.146  1.00  0.00    -0.003 C 
ATOM     30  C   UNL     1      52.902  48.952  12.657  1.00  0.00     0.004 C 
ENDBRANCH  28  29
ENDBRANCH  27  28
ENDBRANCH  26  27
ENDBRANCH  25  26
ENDBRANCH  24  25
ENDBRANCH  23  24
ENDBRANCH  22  23
ENDBRANCH  21  22
ENDBRANCH  20  21
ENDBRANCH  19  20
ENDBRANCH  18  19
ENDBRANCH  17  18
ENDBRANCH   1  17
TORSDOF 26
ENDMDL
MODEL 4
REMARK VINA RESULT:    -4.061      6.346     12.089
REMARK INTER + INTRA:         -12.563
REMARK INTER:                  -7.459
REMARK INTRA:                  -5.104
REMARK UNBOUND:                -2.330
REMARK SMILES CCCCCCCCCCCCCCCCCCCCCCCCCCCC(=O)[O-]
REMARK SMILES IDX 15 1 16 2 17 3 18 4 19 5 20 6 21 7 22 8 23 9 24 10 25 11
REMARK SMILES IDX 26 12 27 13 28 14 29 15 30 16 14 17 13 18 12 19 11 20 10 21
REMARK SMILES IDX 9 22 8 23 7 24 6 25 5 26 4 27 3 28 2 29 1 30
REMARK H PARENT
REMARK Flexibility Score: inf
ROOT
ATOM      1  C   UNL     1      49.386  48.693  16.697  1.00  0.00     0.000 C 
ENDROOT
BRANCH   1   2
ATOM      2  C   UNL     1      50.345  48.299  15.561  1.00  0.00     0.000 C 
BRANCH   2   3
ATOM      3  C   UNL     1      49.680  47.412  14.501  1.00  0.00     0.000 C 
BRANCH   3   4
ATOM      4  C   UNL     1      50.556  46.196  14.173  1.00  0.00     0.000 C 
BRANCH   4   5
ATOM      5  C   UNL     1      49.830  44.886  14.507  1.00  0.00     0.000 C 
BRANCH   5   6
ATOM      6  C   UNL     1      50.156  44.420  15.931  1.00  0.00     0.000 C 
BRANCH   6   7
ATOM      7  C   UNL     1      51.644  44.061  16.061  1.00  0.00     0.000 C 
BRANCH   7   8
ATOM      8  C   UNL     1      52.231  44.437  17.435  1.00  0.00     0.000 C 
BRANCH   8   9
ATOM      9  C   UNL     1      52.244  45.946  17.741  1.00  0.00     0.000 C 
BRANCH   9  10
ATOM     10  C   UNL     1      53.614  46.635  17.575  1.00  0.00     0.000 C 
BRANCH  10  11
ATOM     11  C   UNL     1      53.824  47.274  16.186  1.00  0.00     0.000 C 
BRANCH  11  12
ATOM     12  C   UNL     1      54.552  46.335  15.213  1.00  0.00     0.006 C 
BRANCH  12  13
ATOM     13  C   UNL     1      55.143  47.112  14.033  1.00  0.00     0.053 C 
BRANCH  13  14
ATOM     14  C   UNL     1      56.633  46.987  14.016  1.00  0.00     0.041 C 
ATOM     15  O   UNL     1      57.274  47.179  12.948  1.00  0.00    -0.550 OA
ATOM     16  O   UNL     1      57.311  46.599  15.165  1.00  0.00    -0.550 OA
ENDBRANCH  13  14
ENDBRANCH  12  13
ENDBRANCH  11  12
ENDBRANCH  10  11
ENDBRANCH   9  10
ENDBRANCH   8   9
ENDBRANCH   7   8
ENDBRANCH   6   7
ENDBRANCH   5   6
ENDBRANCH   4   5
ENDBRANCH   3   4
ENDBRANCH   2   3
ENDBRANCH   1   2
BRANCH   1  17
ATOM     17  C   UNL     1      49.071  47.538  17.671  1.00  0.00     0.000 C 
BRANCH  17  18
ATOM     18  C   UNL     1      47.559  47.291  17.811  1.00  0.00     0.000 C 
BRANCH  18  19
ATOM     19  C   UNL     1      47.164  45.850  17.452  1.00  0.00     0.000 C 
BRANCH  19  20
ATOM     20  C   UNL     1      46.546  45.741  16.047  1.00  0.00     0.000 C 
BRANCH  20  21
ATOM     21  C   UNL     1      45.184  45.023  16.047  1.00  0.00     0.000 C 
BRANCH  21  22
ATOM     22  C   UNL     1      45.150  43.695  15.267  1.00  0.00    -0.000 C 
BRANCH  22  23
ATOM     23  C   UNL     1      46.426  43.457  14.438  1.00  0.00    -0.000 C 
BRANCH  23  24
ATOM     24  C   UNL     1      46.852  41.979  14.420  1.00  0.00    -0.000 C 
BRANCH  24  25
ATOM     25  C   UNL     1      45.863  41.067  15.165  1.00  0.00    -0.000 C 
BRANCH  25  26
ATOM     26  C   UNL     1      46.465  40.450  16.442  1.00  0.00    -0.000 C 
BRANCH  26  27
ATOM     27  C   UNL     1      46.550  41.405  17.647  1.00  0.00    -0.000 C 
BRANCH  27  28
ATOM     28  C   UNL     1      47.918  42.087  17.843  1.00  0.00    -0.000 C 
BRANCH  28  29
ATOM     29  C   UNL     1      49.096  41.305  17.222  1.00  0.00    -0.003 C 
ATOM     30  C   UNL     1      50.276  41.155  18.183  1.00  0.00     0.004 C 
ENDBRANCH  28  29
ENDBRANCH  27  28
ENDBRANCH  26  27
ENDBRANCH  25  26
ENDBRANCH  24  25
ENDBRANCH  23  24
ENDBRANCH  22  23
ENDBRANCH  21  22
ENDBRANCH  20  21
ENDBRANCH  19  20
ENDBRANCH  18  19
ENDBRANCH  17  18
ENDBRANCH   1  17
TORSDOF 26
ENDMDL
MODEL 5
REMARK VINA RESULT:    -4.043      6.141     12.231
REMARK INTER + INTRA:         -12.519
REMARK INTER:                  -8.317
REMARK INTRA:                  -4.202
REMARK UNBOUND:                -2.330
REMARK SMILES CCCCCCCCCCCCCCCCCCCCCCCCCCCC(=O)[O-]
REMARK SMILES IDX 15 1 16 2 17 3 18 4 19 5 20 6 21 7 22 8 23 9 24 10 25 11
REMARK SMILES IDX 26 12 27 13 28 14 29 15 30 16 14 17 13 18 12 19 11 20 10 21
REMARK SMILES IDX 9 22 8 23 7 24 6 25 5 26 4 27 3 28 2 29 1 30
REMARK H PARENT
REMARK Flexibility Score: inf
ROOT
ATOM      1  C   UNL     1      49.980  44.824  15.376  1.00  0.00     0.000 C 
ENDROOT
BRANCH   1   2
ATOM      2  C   UNL     1      50.137  45.724  14.139  1.00  0.00     0.000 C 
BRANCH   2   3
ATOM      3  C   UNL     1      50.392  47.193  14.500  1.00  0.00     0.000 C 
BRANCH   3   4
ATOM      4  C   UNL     1      49.177  48.064  14.155  1.00  0.00     0.000 C 
BRANCH   4   5
ATOM      5  C   UNL     1      49.582  49.251  13.270  1.00  0.00     0.000 C 
BRANCH   5   6
ATOM      6  C   UNL     1      50.860  48.941  12.481  1.00  0.00     0.000 C 
BRANCH   6   7
ATOM      7  C   UNL     1      51.902  50.054  12.668  1.00  0.00     0.000 C 
BRANCH   7   8
ATOM      8  C   UNL     1      53.158  49.575  13.421  1.00  0.00     0.000 C 
BRANCH   8   9
ATOM      9  C   UNL     1      53.605  48.140  13.086  1.00  0.00     0.000 C 
BRANCH   9  10
ATOM     10  C   UNL     1      54.589  47.511  14.093  1.00  0.00     0.000 C 
BRANCH  10  11
ATOM     11  C   UNL     1      54.039  47.430  15.532  1.00  0.00     0.000 C 
BRANCH  11  12
ATOM     12  C   UNL     1      53.626  46.004  15.924  1.00  0.00     0.006 C 
BRANCH  12  13
ATOM     13  C   UNL     1      54.837  45.065  15.948  1.00  0.00     0.053 C 
BRANCH  13  14
ATOM     14  C   UNL     1      54.422  43.685  16.346  1.00  0.00     0.041 C 
ATOM     15  O   UNL     1      55.289  42.837  16.691  1.00  0.00    -0.550 OA
ATOM     16  O   UNL     1      53.086  43.314  16.276  1.00  0.00    -0.550 OA
ENDBRANCH  13  14
ENDBRANCH  12  13
ENDBRANCH  11  12
ENDBRANCH  10  11
ENDBRANCH   9  10
ENDBRANCH   8   9
ENDBRANCH   7   8
ENDBRANCH   6   7
ENDBRANCH   5   6
ENDBRANCH   4   5
ENDBRANCH   3   4
ENDBRANCH   2   3
ENDBRANCH   1   2
BRANCH   1  17
ATOM     17  C   UNL     1      48.813  43.820  15.269  1.00  0.00     0.000 C 
BRANCH  17  18
ATOM     18  C   UNL     1      47.448  44.524  15.166  1.00  0.00     0.000 C 
BRANCH  18  19
ATOM     19  C   UNL     1      46.392  43.657  14.463  1.00  0.00     0.000 C 
BRANCH  19  20
ATOM     20  C   UNL     1      46.922  42.257  14.107  1.00  0.00     0.000 C 
BRANCH  20  21
ATOM     21  C   UNL     1      46.185  41.131  14.855  1.00  0.00     0.000 C 
BRANCH  21  22
ATOM     22  C   UNL     1      46.659  40.893  16.301  1.00  0.00    -0.000 C 
BRANCH  22  23
ATOM     23  C   UNL     1      45.586  41.249  17.347  1.00  0.00    -0.000 C 
BRANCH  23  24
ATOM     24  C   UNL     1      45.893  42.563  18.085  1.00  0.00    -0.000 C 
BRANCH  24  25
ATOM     25  C   UNL     1      44.875  43.672  17.769  1.00  0.00    -0.000 C 
BRANCH  25  26
ATOM     26  C   UNL     1      45.067  44.926  18.643  1.00  0.00    -0.000 C 
BRANCH  26  27
ATOM     27  C   UNL     1      46.473  45.554  18.579  1.00  0.00    -0.000 C 
BRANCH  27  28
ATOM     28  C   UNL     1      46.513  47.014  18.089  1.00  0.00    -0.000 C 
BRANCH  28  29
ATOM     29  C   UNL     1      47.848  47.408  17.421  1.00  0.00    -0.003 C 
ATOM     30  C   UNL     1      49.066  46.987  18.245  1.00  0.00     0.004 C 
ENDBRANCH  28  29
ENDBRANCH  27  28
ENDBRANCH  26  27
ENDBRANCH  25  26
ENDBRANCH  24  25
ENDBRANCH  23  24
ENDBRANCH  22  23
ENDBRANCH  21  22
ENDBRANCH  20  21
ENDBRANCH  19  20
ENDBRANCH  18  19
ENDBRANCH  17  18
ENDBRANCH   1  17
TORSDOF 26
ENDMDL
MODEL 6
REMARK VINA RESULT:    -4.015      7.993     11.165
REMARK INTER + INTRA:         -12.448
REMARK INTER:                  -6.399
REMARK INTRA:                  -6.049
REMARK UNBOUND:                -2.330
REMARK SMILES CCCCCCCCCCCCCCCCCCCCCCCCCCCC(=O)[O-]
REMARK SMILES IDX 15 1 16 2 17 3 18 4 19 5 20 6 21 7 22 8 23 9 24 10 25 11
REMARK SMILES IDX 26 12 27 13 28 14 29 15 30 16 14 17 13 18 12 19 11 20 10 21
REMARK SMILES IDX 9 22 8 23 7 24 6 25 5 26 4 27 3 28 2 29 1 30
REMARK H PARENT
REMARK Flexibility Score: inf
ROOT
ATOM      1  C   UNL     1      47.556  41.156  16.732  1.00  0.00     0.000 C 
ENDROOT
BRANCH   1   2
ATOM      2  C   UNL     1      46.083  40.828  16.438  1.00  0.00     0.000 C 
BRANCH   2   3
ATOM      3  C   UNL     1      45.504  41.663  15.289  1.00  0.00     0.000 C 
BRANCH   3   4
ATOM      4  C   UNL     1      46.617  42.381  14.515  1.00  0.00     0.000 C 
BRANCH   4   5
ATOM      5  C   UNL     1      46.392  43.899  14.506  1.00  0.00     0.000 C 
BRANCH   5   6
ATOM      6  C   UNL     1      45.664  44.357  15.775  1.00  0.00     0.000 C 
BRANCH   6   7
ATOM      7  C   UNL     1      45.967  45.833  16.077  1.00  0.00     0.000 C 
BRANCH   7   8
ATOM      8  C   UNL     1      46.073  46.124  17.586  1.00  0.00     0.000 C 
BRANCH   8   9
ATOM      9  C   UNL     1      46.974  47.318  17.953  1.00  0.00     0.000 C 
BRANCH   9  10
ATOM     10  C   UNL     1      48.212  46.966  18.802  1.00  0.00     0.000 C 
BRANCH  10  11
ATOM     11  C   UNL     1      48.899  48.194  19.437  1.00  0.00     0.000 C 
BRANCH  11  12
ATOM     12  C   UNL     1      50.418  48.011  19.571  1.00  0.00     0.006 C 
BRANCH  12  13
ATOM     13  C   UNL     1      50.854  46.630  19.074  1.00  0.00     0.053 C 
BRANCH  13  14
ATOM     14  C   UNL     1      52.099  46.737  18.253  1.00  0.00     0.041 C 
ATOM     15  O   UNL     1      52.335  45.895  17.346  1.00  0.00    -0.550 OA
ATOM     16  O   UNL     1      53.030  47.731  18.528  1.00  0.00    -0.550 OA
ENDBRANCH  13  14
ENDBRANCH  12  13
ENDBRANCH  11  12
ENDBRANCH  10  11
ENDBRANCH   9  10
ENDBRANCH   8   9
ENDBRANCH   7   8
ENDBRANCH   6   7
ENDBRANCH   5   6
ENDBRANCH   4   5
ENDBRANCH   3   4
ENDBRANCH   2   3
ENDBRANCH   1   2
BRANCH   1  17
ATOM     17  C   UNL     1      47.747  42.216  17.837  1.00  0.00     0.000 C 
BRANCH  17  18
ATOM     18  C   UNL     1      49.139  42.872  17.782  1.00  0.00     0.000 C 
BRANCH  18  19
ATOM     19  C   UNL     1      49.162  44.126  16.894  1.00  0.00     0.000 C 
BRANCH  19  20
ATOM     20  C   UNL     1      49.938  43.905  15.584  1.00  0.00     0.000 C 
BRANCH  20  21
ATOM     21  C   UNL     1      49.933  45.145  14.671  1.00  0.00     0.000 C 
BRANCH  21  22
ATOM     22  C   UNL     1      49.587  46.470  15.376  1.00  0.00    -0.000 C 
BRANCH  22  23
ATOM     23  C   UNL     1      48.821  47.448  14.467  1.00  0.00    -0.000 C 
BRANCH  23  24
ATOM     24  C   UNL     1      49.229  48.913  14.697  1.00  0.00    -0.000 C 
BRANCH  24  25
ATOM     25  C   UNL     1      49.773  49.162  16.114  1.00  0.00    -0.000 C 
BRANCH  25  26
ATOM     26  C   UNL     1      51.229  49.666  16.116  1.00  0.00    -0.000 C 
BRANCH  26  27
ATOM     27  C   UNL     1      51.986  49.470  14.788  1.00  0.00    -0.000 C 
BRANCH  27  28
ATOM     28  C   UNL     1      52.873  48.212  14.724  1.00  0.00    -0.000 C 
BRANCH  28  29
ATOM     29  C   UNL     1      52.902  47.543  13.333  1.00  0.00    -0.003 C 
ATOM     30  C   UNL     1      51.895  48.160  12.361  1.00  0.00     0.004 C 
ENDBRANCH  28  29
ENDBRANCH  27  28
ENDBRANCH  26  27
ENDBRANCH  25  26
ENDBRANCH  24  25
ENDBRANCH  23  24
ENDBRANCH  22  23
ENDBRANCH  21  22
ENDBRANCH  20  21
ENDBRANCH  19  20
ENDBRANCH  18  19
ENDBRANCH  17  18
ENDBRANCH   1  17
TORSDOF 26
ENDMDL
MODEL 7
REMARK VINA RESULT:    -3.996      6.677      9.305
REMARK INTER + INTRA:         -12.399
REMARK INTER:                  -7.818
REMARK INTRA:                  -4.581
REMARK UNBOUND:                -2.330
REMARK SMILES CCCCCCCCCCCCCCCCCCCCCCCCCCCC(=O)[O-]
REMARK SMILES IDX 15 1 16 2 17 3 18 4 19 5 20 6 21 7 22 8 23 9 24 10 25 11
REMARK SMILES IDX 26 12 27 13 28 14 29 15 30 16 14 17 13 18 12 19 11 20 10 21
REMARK SMILES IDX 9 22 8 23 7 24 6 25 5 26 4 27 3 28 2 29 1 30
REMARK H PARENT
REMARK Flexibility Score: inf
ROOT
ATOM      1  C   UNL     1      49.804  44.731  15.338  1.00  0.00     0.000 C 
ENDROOT
BRANCH   1   2
ATOM      2  C   UNL     1      48.693  43.767  14.891  1.00  0.00     0.000 C 
BRANCH   2   3
ATOM      3  C   UNL     1      47.296  44.399  14.951  1.00  0.00     0.000 C 
BRANCH   3   4
ATOM      4  C   UNL     1      46.223  43.407  14.484  1.00  0.00     0.000 C 
BRANCH   4   5
ATOM      5  C   UNL     1      46.756  41.969  14.500  1.00  0.00     0.000 C 
BRANCH   5   6
ATOM      6  C   UNL     1      45.696  40.992  15.026  1.00  0.00     0.000 C 
BRANCH   6   7
ATOM      7  C   UNL     1      46.258  40.142  16.175  1.00  0.00     0.000 C 
BRANCH   7   8
ATOM      8  C   UNL     1      47.516  40.758  16.815  1.00  0.00     0.000 C 
BRANCH   8   9
ATOM      9  C   UNL     1      47.289  41.408  18.193  1.00  0.00     0.000 C 
BRANCH   9  10
ATOM     10  C   UNL     1      46.839  42.882  18.154  1.00  0.00     0.000 C 
BRANCH  10  11
ATOM     11  C   UNL     1      45.309  43.068  18.238  1.00  0.00     0.000 C 
BRANCH  11  12
ATOM     12  C   UNL     1      44.885  44.532  18.048  1.00  0.00     0.006 C 
BRANCH  12  13
ATOM     13  C   UNL     1      46.002  45.490  18.471  1.00  0.00     0.053 C 
BRANCH  13  14
ATOM     14  C   UNL     1      46.053  46.673  17.558  1.00  0.00     0.041 C 
ATOM     15  O   UNL     1      47.098  47.372  17.482  1.00  0.00    -0.550 OA
ATOM     16  O   UNL     1      44.925  47.041  16.834  1.00  0.00    -0.550 OA
ENDBRANCH  13  14
ENDBRANCH  12  13
ENDBRANCH  11  12
ENDBRANCH  10  11
ENDBRANCH   9  10
ENDBRANCH   8   9
ENDBRANCH   7   8
ENDBRANCH   6   7
ENDBRANCH   5   6
ENDBRANCH   4   5
ENDBRANCH   3   4
ENDBRANCH   2   3
ENDBRANCH   1   2
BRANCH   1  17
ATOM     17  C   UNL     1      50.269  45.698  14.229  1.00  0.00     0.000 C 
BRANCH  17  18
ATOM     18  C   UNL     1      49.810  47.144  14.489  1.00  0.00     0.000 C 
BRANCH  18  19
ATOM     19  C   UNL     1      50.619  48.171  13.680  1.00  0.00     0.000 C 
BRANCH  19  20
ATOM     20  C   UNL     1      51.637  47.507  12.737  1.00  0.00     0.000 C 
BRANCH  20  21
ATOM     21  C   UNL     1      53.086  47.948  13.016  1.00  0.00     0.000 C 
BRANCH  21  22
ATOM     22  C   UNL     1      53.315  48.589  14.398  1.00  0.00    -0.000 C 
BRANCH  22  23
ATOM     23  C   UNL     1      53.840  47.587  15.442  1.00  0.00    -0.000 C 
BRANCH  23  24
ATOM     24  C   UNL     1      53.021  47.603  16.743  1.00  0.00    -0.000 C 
BRANCH  24  25
ATOM     25  C   UNL     1      52.564  46.199  17.176  1.00  0.00    -0.000 C 
BRANCH  25  26
ATOM     26  C   UNL     1      53.638  45.121  16.935  1.00  0.00    -0.000 C 
BRANCH  26  27
ATOM     27  C   UNL     1      53.104  43.784  16.388  1.00  0.00    -0.000 C 
BRANCH  27  28
ATOM     28  C   UNL     1      52.325  42.928  17.406  1.00  0.00    -0.000 C 
BRANCH  28  29
ATOM     29  C   UNL     1      51.604  41.717  16.775  1.00  0.00    -0.003 C 
ATOM     30  C   UNL     1      52.465  40.453  16.776  1.00  0.00     0.004 C 
ENDBRANCH  28  29
ENDBRANCH  27  28
ENDBRANCH  26  27
ENDBRANCH  25  26
ENDBRANCH  24  25
ENDBRANCH  23  24
ENDBRANCH  22  23
ENDBRANCH  21  22
ENDBRANCH  20  21
ENDBRANCH  19  20
ENDBRANCH  18  19
ENDBRANCH  17  18
ENDBRANCH   1  17
TORSDOF 26
ENDMDL
MODEL 8
REMARK VINA RESULT:    -3.964      4.403      6.541
REMARK INTER + INTRA:         -12.320
REMARK INTER:                  -7.187
REMARK INTRA:                  -5.133
REMARK UNBOUND:                -2.330
REMARK SMILES CCCCCCCCCCCCCCCCCCCCCCCCCCCC(=O)[O-]
REMARK SMILES IDX 15 1 16 2 17 3 18 4 19 5 20 6 21 7 22 8 23 9 24 10 25 11
REMARK SMILES IDX 26 12 27 13 28 14 29 15 30 16 14 17 13 18 12 19 11 20 10 21
REMARK SMILES IDX 9 22 8 23 7 24 6 25 5 26 4 27 3 28 2 29 1 30
REMARK H PARENT
REMARK Flexibility Score: inf
ROOT
ATOM      1  C   UNL     1      50.704  47.284  13.664  1.00  0.00     0.000 C 
ENDROOT
BRANCH   1   2
ATOM      2  C   UNL     1      49.705  48.451  13.753  1.00  0.00     0.000 C 
BRANCH   2   3
ATOM      3  C   UNL     1      49.733  49.156  15.115  1.00  0.00     0.000 C 
BRANCH   3   4
ATOM      4  C   UNL     1      49.992  48.154  16.248  1.00  0.00     0.000 C 
BRANCH   4   5
ATOM      5  C   UNL     1      51.099  48.656  17.185  1.00  0.00     0.000 C 
BRANCH   5   6
ATOM      6  C   UNL     1      52.489  48.359  16.609  1.00  0.00     0.000 C 
BRANCH   6   7
ATOM      7  C   UNL     1      52.995  46.988  17.080  1.00  0.00     0.000 C 
BRANCH   7   8
ATOM      8  C   UNL     1      53.075  45.956  15.939  1.00  0.00     0.000 C 
BRANCH   8   9
ATOM      9  C   UNL     1      52.312  44.644  16.200  1.00  0.00     0.000 C 
BRANCH   9  10
ATOM     10  C   UNL     1      51.028  44.790  17.040  1.00  0.00     0.000 C 
BRANCH  10  11
ATOM     11  C   UNL     1      49.837  43.967  16.504  1.00  0.00     0.000 C 
BRANCH  11  12
ATOM     12  C   UNL     1      49.425  44.388  15.086  1.00  0.00     0.006 C 
BRANCH  12  13
ATOM     13  C   UNL     1      48.019  44.996  15.078  1.00  0.00     0.053 C 
BRANCH  13  14
ATOM     14  C   UNL     1      46.994  43.945  14.792  1.00  0.00     0.041 C 
ATOM     15  O   UNL     1      47.340  42.843  14.288  1.00  0.00    -0.550 OA
ATOM     16  O   UNL     1      45.650  44.203  15.026  1.00  0.00    -0.550 OA
ENDBRANCH  13  14
ENDBRANCH  12  13
ENDBRANCH  11  12
ENDBRANCH  10  11
ENDBRANCH   9  10
ENDBRANCH   8   9
ENDBRANCH   7   8
ENDBRANCH   6   7
ENDBRANCH   5   6
ENDBRANCH   4   5
ENDBRANCH   3   4
ENDBRANCH   2   3
ENDBRANCH   1   2
BRANCH   1  17
ATOM     17  C   UNL     1      51.819  47.500  12.620  1.00  0.00     0.000 C 
BRANCH  17  18
ATOM     18  C   UNL     1      52.064  48.992  12.331  1.00  0.00     0.000 C 
BRANCH  18  19
ATOM     19  C   UNL     1      53.263  49.552  13.111  1.00  0.00     0.000 C 
BRANCH  19  20
ATOM     20  C   UNL     1      54.320  48.477  13.418  1.00  0.00     0.000 C 
BRANCH  20  21
ATOM     21  C   UNL     1      55.693  49.075  13.777  1.00  0.00     0.000 C 
BRANCH  21  22
ATOM     22  C   UNL     1      56.809  48.040  14.016  1.00  0.00    -0.000 C 
BRANCH  22  23
ATOM     23  C   UNL     1      56.285  46.593  14.045  1.00  0.00    -0.000 C 
BRANCH  23  24
ATOM     24  C   UNL     1      56.698  45.840  15.322  1.00  0.00    -0.000 C 
BRANCH  24  25
ATOM     25  C   UNL     1      57.679  46.643  16.194  1.00  0.00    -0.000 C 
BRANCH  25  26
ATOM     26  C   UNL     1      57.633  46.232  17.677  1.00  0.00    -0.000 C 
BRANCH  26  27
ATOM     27  C   UNL     1      56.268  45.710  18.165  1.00  0.00    -0.000 C 
BRANCH  27  28
ATOM     28  C   UNL     1      56.272  44.258  18.681  1.00  0.00    -0.000 C 
BRANCH  28  29
ATOM     29  C   UNL     1      55.014  43.455  18.284  1.00  0.00    -0.003 C 
ATOM     30  C   UNL     1      55.223  42.617  17.022  1.00  0.00     0.004 C 
ENDBRANCH  28  29
ENDBRANCH  27  28
ENDBRANCH  26  27
ENDBRANCH  25  26
ENDBRANCH  24  25
ENDBRANCH  23  24
ENDBRANCH  22  23
ENDBRANCH  21  22
ENDBRANCH  20  21
ENDBRANCH  19  20
ENDBRANCH  18  19
ENDBRANCH  17  18
ENDBRANCH   1  17
TORSDOF 26
ENDMDL
MODEL 9
REMARK VINA RESULT:    -3.935      5.560      9.631
REMARK INTER + INTRA:         -12.246
REMARK INTER:                  -8.043
REMARK INTRA:                  -4.203
REMARK UNBOUND:                -2.330
REMARK SMILES CCCCCCCCCCCCCCCCCCCCCCCCCCCC(=O)[O-]
REMARK SMILES IDX 15 1 16 2 17 3 18 4 19 5 20 6 21 7 22 8 23 9 24 10 25 11
REMARK SMILES IDX 26 12 27 13 28 14 29 15 30 16 14 17 13 18 12 19 11 20 10 21
REMARK SMILES IDX 9 22 8 23 7 24 6 25 5 26 4 27 3 28 2 29 1 30
REMARK H PARENT
REMARK Flexibility Score: inf
ROOT
ATOM      1  C   UNL     1      64.844  42.344  15.232  1.00  0.00     0.000 C 
ENDROOT
BRANCH   1   2
ATOM      2  C   UNL     1      64.048  41.092  15.640  1.00  0.00     0.000 C 
BRANCH   2   3
ATOM      3  C   UNL     1      64.214  40.737  17.123  1.00  0.00     0.000 C 
BRANCH   3   4
ATOM      4  C   UNL     1      64.624  41.968  17.941  1.00  0.00     0.000 C 
BRANCH   4   5
ATOM      5  C   UNL     1      63.653  42.206  19.105  1.00  0.00     0.000 C 
BRANCH   5   6
ATOM      6  C   UNL     1      62.520  41.172  19.099  1.00  0.00     0.000 C 
BRANCH   6   7
ATOM      7  C   UNL     1      61.381  41.602  20.036  1.00  0.00     0.000 C 
BRANCH   7   8
ATOM      8  C   UNL     1      60.185  40.632  20.007  1.00  0.00     0.000 C 
BRANCH   8   9
ATOM      9  C   UNL     1      59.264  40.778  18.781  1.00  0.00     0.000 C 
BRANCH   9  10
ATOM     10  C   UNL     1      57.932  40.007  18.869  1.00  0.00     0.000 C 
BRANCH  10  11
ATOM     11  C   UNL     1      57.386  39.550  17.499  1.00  0.00     0.000 C 
BRANCH  11  12
ATOM     12  C   UNL     1      56.314  38.459  17.629  1.00  0.00     0.006 C 
BRANCH  12  13
ATOM     13  C   UNL     1      56.598  37.290  16.681  1.00  0.00     0.053 C 
BRANCH  13  14
ATOM     14  C   UNL     1      57.178  36.134  17.432  1.00  0.00     0.041 C 
ATOM     15  O   UNL     1      56.492  35.095  17.625  1.00  0.00    -0.550 OA
ATOM     16  O   UNL     1      58.455  36.226  17.971  1.00  0.00    -0.550 OA
ENDBRANCH  13  14
ENDBRANCH  12  13
ENDBRANCH  11  12
ENDBRANCH  10  11
ENDBRANCH   9  10
ENDBRANCH   8   9
ENDBRANCH   7   8
ENDBRANCH   6   7
ENDBRANCH   5   6
ENDBRANCH   4   5
ENDBRANCH   3   4
ENDBRANCH   2   3
ENDBRANCH   1   2
BRANCH   1  17
ATOM     17  C   UNL     1      63.957  43.534  14.812  1.00  0.00     0.000 C 
BRANCH  17  18
ATOM     18  C   UNL     1      64.385  44.847  15.491  1.00  0.00     0.000 C 
BRANCH  18  19
ATOM     19  C   UNL     1      63.330  45.368  16.480  1.00  0.00     0.000 C 
BRANCH  19  20
ATOM     20  C   UNL     1      62.065  44.493  16.506  1.00  0.00     0.000 C 
BRANCH  20  21
ATOM     21  C   UNL     1      60.884  45.172  17.224  1.00  0.00     0.000 C 
BRANCH  21  22
ATOM     22  C   UNL     1      60.202  44.315  18.307  1.00  0.00    -0.000 C 
BRANCH  22  23
ATOM     23  C   UNL     1      59.050  45.051  19.014  1.00  0.00    -0.000 C 
BRANCH  23  24
ATOM     24  C   UNL     1      58.405  44.209  20.128  1.00  0.00    -0.000 C 
BRANCH  24  25
ATOM     25  C   UNL     1      57.110  43.514  19.672  1.00  0.00    -0.000 C 
BRANCH  25  26
ATOM     26  C   UNL     1      56.581  44.057  18.331  1.00  0.00    -0.000 C 
BRANCH  26  27
ATOM     27  C   UNL     1      56.493  43.015  17.199  1.00  0.00    -0.000 C 
BRANCH  27  28
ATOM     28  C   UNL     1      57.259  43.384  15.914  1.00  0.00    -0.000 C 
BRANCH  28  29
ATOM     29  C   UNL     1      57.517  44.898  15.757  1.00  0.00    -0.003 C 
ATOM     30  C   UNL     1      56.406  45.608  14.983  1.00  0.00     0.004 C 
ENDBRANCH  28  29
ENDBRANCH  27  28
ENDBRANCH  26  27
ENDBRANCH  25  26
ENDBRANCH  24  25
ENDBRANCH  23  24
ENDBRANCH  22  23
ENDBRANCH  21  22
ENDBRANCH  20  21
ENDBRANCH  19  20
ENDBRANCH  18  19
ENDBRANCH  17  18
ENDBRANCH   1  17
TORSDOF 26
ENDMDL
