MODEL 1
REMARK VINA RESULT:    -3.526      0.000      0.000
REMARK INTER + INTRA:          -4.267
REMARK INTER:                  -4.247
REMARK INTRA:                  -0.020
REMARK UNBOUND:                -0.020
REMARK SMILES CC[C@H](C)[C@H]([NH3+])C(=O)[O-]
REMARK SMILES IDX 3 1 4 2 5 3 6 4 7 8 8 9 9 10 2 11 1 12
REMARK H PARENT 6 5 6 6 6 7
REMARK Flexibility Score: inf
ROOT
ATOM      1  C   UNL     1      23.783  29.280  27.790  1.00  0.00     0.050 C 
ATOM      2  C   UNL     1      22.271  29.423  27.528  1.00  0.00     0.014 C 
ENDROOT
BRANCH   1   3
ATOM      3  C   UNL     1      24.432  28.118  26.971  1.00  0.00     0.230 C 
BRANCH   3   4
ATOM      4  N   UNL     1      25.899  28.216  26.950  1.00  0.00    -0.350 N 
ATOM      5  H   UNL     1      26.304  27.744  26.110  1.00  0.00     0.345 HD
ATOM      6  H   UNL     1      26.290  27.756  27.805  1.00  0.00     0.345 HD
ATOM      7  H   UNL     1      26.192  29.219  26.958  1.00  0.00     0.345 HD
ENDBRANCH   3   4
BRANCH   3   8
ATOM      8  C   UNL     1      23.887  28.019  25.566  1.00  0.00     0.099 C 
ATOM      9  O   UNL     1      23.330  26.957  25.181  1.00  0.00    -0.544 OA
ATOM     10  O   UNL     1      23.971  29.098  24.695  1.00  0.00    -0.544 OA
ENDBRANCH   3   8
ENDBRANCH   1   3
BRANCH   1  11
ATOM     11  C   UNL     1      24.031  29.160  29.314  1.00  0.00     0.006 C 
ATOM     12  C   UNL     1      22.923  28.406  30.053  1.00  0.00     0.004 C 
ENDBRANCH   1  11
TORSDOF 4
ENDMDL
MODEL 2
REMARK VINA RESULT:    -3.332      2.247      3.254
REMARK INTER + INTRA:          -4.034
REMARK INTER:                  -3.997
REMARK INTRA:                  -0.037
REMARK UNBOUND:                -0.020
REMARK SMILES CC[C@H](C)[C@H]([NH3+])C(=O)[O-]
REMARK SMILES IDX 3 1 4 2 5 3 6 4 7 8 8 9 9 10 2 11 1 12
REMARK H PARENT 6 5 6 6 6 7
REMARK Flexibility Score: inf
ROOT
ATOM      1  C   UNL     1      23.874  29.568  26.175  1.00  0.00     0.050 C 
ATOM      2  C   UNL     1      23.653  28.406  25.189  1.00  0.00     0.014 C 
ENDROOT
BRANCH   1   3
ATOM      3  C   UNL     1      24.796  29.178  27.375  1.00  0.00     0.230 C 
BRANCH   3   4
ATOM      4  N   UNL     1      25.808  28.185  26.988  1.00  0.00    -0.350 N 
ATOM      5  H   UNL     1      25.382  27.245  26.825  1.00  0.00     0.345 HD
ATOM      6  H   UNL     1      26.517  28.095  27.753  1.00  0.00     0.345 HD
ATOM      7  H   UNL     1      26.304  28.495  26.122  1.00  0.00     0.345 HD
ENDBRANCH   3   4
BRANCH   3   8
ATOM      8  C   UNL     1      24.018  28.702  28.578  1.00  0.00     0.099 C 
ATOM      9  O   UNL     1      24.063  29.354  29.655  1.00  0.00    -0.544 OA
ATOM     10  O   UNL     1      23.229  27.561  28.506  1.00  0.00    -0.544 OA
ENDBRANCH   3   8
ENDBRANCH   1   3
BRANCH   1  11
ATOM     11  C   UNL     1      22.501  30.129  26.623  1.00  0.00     0.006 C 
ATOM     12  C   UNL     1      21.314  29.310  26.115  1.00  0.00     0.004 C 
ENDBRANCH   1  11
TORSDOF 4
ENDMDL
MODEL 3
REMARK VINA RESULT:    -3.272      0.997      1.854
REMARK INTER + INTRA:          -3.962
REMARK INTER:                  -3.889
REMARK INTRA:                  -0.073
REMARK UNBOUND:                -0.020
REMARK SMILES CC[C@H](C)[C@H]([NH3+])C(=O)[O-]
REMARK SMILES IDX 3 1 4 2 5 3 6 4 7 8 8 9 9 10 2 11 1 12
REMARK H PARENT 6 5 6 6 6 7
REMARK Flexibility Score: inf
ROOT
ATOM      1  C   UNL     1      23.662  27.989  28.148  1.00  0.00     0.050 C 
ATOM      2  C   UNL     1      24.144  29.136  29.057  1.00  0.00     0.014 C 
ENDROOT
BRANCH   1   3
ATOM      3  C   UNL     1      24.518  27.845  26.849  1.00  0.00     0.230 C 
BRANCH   3   4
ATOM      4  N   UNL     1      25.901  28.303  27.050  1.00  0.00    -0.350 N 
ATOM      5  H   UNL     1      26.012  29.313  26.804  1.00  0.00     0.345 HD
ATOM      6  H   UNL     1      26.544  27.745  26.441  1.00  0.00     0.345 HD
ATOM      7  H   UNL     1      26.187  28.155  28.044  1.00  0.00     0.345 HD
ENDBRANCH   3   4
BRANCH   3   8
ATOM      8  C   UNL     1      23.897  28.541  25.661  1.00  0.00     0.099 C 
ATOM      9  O   UNL     1      23.894  29.799  25.599  1.00  0.00    -0.544 OA
ATOM     10  O   UNL     1      23.350  27.807  24.616  1.00  0.00    -0.544 OA
ENDBRANCH   3   8
ENDBRANCH   1   3
BRANCH   1  11
ATOM     11  C   UNL     1      22.149  28.162  27.862  1.00  0.00     0.006 C 
ATOM     12  C   UNL     1      21.565  29.451  28.442  1.00  0.00     0.004 C 
ENDBRANCH   1  11
TORSDOF 4
ENDMDL
MODEL 4
REMARK VINA RESULT:    -3.192      1.678      2.313
REMARK INTER + INTRA:          -3.865
REMARK INTER:                  -3.768
REMARK INTRA:                  -0.097
REMARK UNBOUND:                -0.020
REMARK SMILES CC[C@H](C)[C@H]([NH3+])C(=O)[O-]
REMARK SMILES IDX 3 1 4 2 5 3 6 4 7 8 8 9 9 10 2 11 1 12
REMARK H PARENT 6 5 6 6 6 7
REMARK Flexibility Score: inf
ROOT
ATOM      1  C   UNL     1      23.139  28.897  28.260  1.00  0.00     0.050 C 
ATOM      2  C   UNL     1      24.068  29.089  29.474  1.00  0.00     0.014 C 
ENDROOT
BRANCH   1   3
ATOM      3  C   UNL     1      23.646  29.645  26.985  1.00  0.00     0.230 C 
BRANCH   3   4
ATOM      4  N   UNL     1      22.792  30.793  26.648  1.00  0.00    -0.350 N 
ATOM      5  H   UNL     1      22.284  31.155  27.487  1.00  0.00     0.345 HD
ATOM      6  H   UNL     1      22.083  30.502  25.936  1.00  0.00     0.345 HD
ATOM      7  H   UNL     1      23.369  31.561  26.236  1.00  0.00     0.345 HD
ENDBRANCH   3   4
BRANCH   3   8
ATOM      8  C   UNL     1      23.799  28.731  25.793  1.00  0.00     0.099 C 
ATOM      9  O   UNL     1      23.881  29.217  24.634  1.00  0.00    -0.544 OA
ATOM     10  O   UNL     1      23.877  27.354  25.961  1.00  0.00    -0.544 OA
ENDBRANCH   3   8
ENDBRANCH   1   3
BRANCH   1  11
ATOM     11  C   UNL     1      21.691  29.283  28.655  1.00  0.00     0.006 C 
ATOM     12  C   UNL     1      21.588  29.908  30.047  1.00  0.00     0.004 C 
ENDBRANCH   1  11
TORSDOF 4
ENDMDL
MODEL 5
REMARK VINA RESULT:    -3.161      2.766      3.920
REMARK INTER + INTRA:          -3.828
REMARK INTER:                  -3.755
REMARK INTRA:                  -0.074
REMARK UNBOUND:                -0.020
REMARK SMILES CC[C@H](C)[C@H]([NH3+])C(=O)[O-]
REMARK SMILES IDX 3 1 4 2 5 3 6 4 7 8 8 9 9 10 2 11 1 12
REMARK H PARENT 6 5 6 6 6 7
REMARK Flexibility Score: inf
ROOT
ATOM      1  C   UNL     1      23.910  29.653  27.045  1.00  0.00     0.050 C 
ATOM      2  C   UNL     1      24.292  29.222  28.474  1.00  0.00     0.014 C 
ENDROOT
BRANCH   1   3
ATOM      3  C   UNL     1      22.393  30.002  26.903  1.00  0.00     0.230 C 
BRANCH   3   4
ATOM      4  N   UNL     1      22.161  31.454  26.909  1.00  0.00    -0.350 N 
ATOM      5  H   UNL     1      21.175  31.687  26.656  1.00  0.00     0.345 HD
ATOM      6  H   UNL     1      22.795  31.909  26.212  1.00  0.00     0.345 HD
ATOM      7  H   UNL     1      22.380  31.849  27.852  1.00  0.00     0.345 HD
ENDBRANCH   3   4
BRANCH   3   8
ATOM      8  C   UNL     1      21.538  29.325  27.948  1.00  0.00     0.099 C 
ATOM      9  O   UNL     1      21.059  29.996  28.901  1.00  0.00    -0.544 OA
ATOM     10  O   UNL     1      21.249  27.969  27.859  1.00  0.00    -0.544 OA
ENDBRANCH   3   8
ENDBRANCH   1   3
BRANCH   1  11
ATOM     11  C   UNL     1      24.380  28.573  26.039  1.00  0.00     0.006 C 
ATOM     12  C   UNL     1      23.667  28.649  24.688  1.00  0.00     0.004 C 
ENDBRANCH   1  11
TORSDOF 4
ENDMDL
MODEL 6
REMARK VINA RESULT:    -3.108      2.781      3.497
REMARK INTER + INTRA:          -3.764
REMARK INTER:                  -3.618
REMARK INTRA:                  -0.145
REMARK UNBOUND:                -0.020
REMARK SMILES CC[C@H](C)[C@H]([NH3+])C(=O)[O-]
REMARK SMILES IDX 3 1 4 2 5 3 6 4 7 8 8 9 9 10 2 11 1 12
REMARK H PARENT 6 5 6 6 6 7
REMARK Flexibility Score: inf
ROOT
ATOM      1  C   UNL     1      23.292  28.954  26.770  1.00  0.00     0.050 C 
ATOM      2  C   UNL     1      23.984  28.702  25.417  1.00  0.00     0.014 C 
ENDROOT
BRANCH   1   3
ATOM      3  C   UNL     1      22.016  29.848  26.641  1.00  0.00     0.230 C 
BRANCH   3   4
ATOM      4  N   UNL     1      22.307  31.261  26.925  1.00  0.00    -0.350 N 
ATOM      5  H   UNL     1      22.918  31.683  26.190  1.00  0.00     0.345 HD
ATOM      6  H   UNL     1      22.800  31.336  27.845  1.00  0.00     0.345 HD
ATOM      7  H   UNL     1      21.417  31.805  26.989  1.00  0.00     0.345 HD
ENDBRANCH   3   4
BRANCH   3   8
ATOM      8  C   UNL     1      20.872  29.360  27.498  1.00  0.00     0.099 C 
ATOM      9  O   UNL     1      19.902  30.125  27.748  1.00  0.00    -0.544 OA
ATOM     10  O   UNL     1      20.862  28.063  27.996  1.00  0.00    -0.544 OA
ENDBRANCH   3   8
ENDBRANCH   1   3
BRANCH   1  11
ATOM     11  C   UNL     1      24.325  29.514  27.780  1.00  0.00     0.006 C 
ATOM     12  C   UNL     1      24.098  29.030  29.213  1.00  0.00     0.004 C 
ENDBRANCH   1  11
TORSDOF 4
ENDMDL
MODEL 7
REMARK VINA RESULT:    -3.094      2.371      3.090
REMARK INTER + INTRA:          -3.748
REMARK INTER:                  -3.698
REMARK INTRA:                  -0.050
REMARK UNBOUND:                -0.020
REMARK SMILES CC[C@H](C)[C@H]([NH3+])C(=O)[O-]
REMARK SMILES IDX 3 1 4 2 5 3 6 4 7 8 8 9 9 10 2 11 1 12
REMARK H PARENT 6 5 6 6 6 7
REMARK Flexibility Score: inf
ROOT
ATOM      1  C   UNL     1      21.985  29.492  26.861  1.00  0.00     0.050 C 
ATOM      2  C   UNL     1      21.698  27.983  26.971  1.00  0.00     0.014 C 
ENDROOT
BRANCH   1   3
ATOM      3  C   UNL     1      23.513  29.821  26.874  1.00  0.00     0.230 C 
BRANCH   3   4
ATOM      4  N   UNL     1      24.083  29.831  25.519  1.00  0.00    -0.350 N 
ATOM      5  H   UNL     1      23.377  29.549  24.802  1.00  0.00     0.345 HD
ATOM      6  H   UNL     1      24.883  29.158  25.473  1.00  0.00     0.345 HD
ATOM      7  H   UNL     1      24.448  30.783  25.290  1.00  0.00     0.345 HD
ENDBRANCH   3   4
BRANCH   3   8
ATOM      8  C   UNL     1      24.301  28.899  27.773  1.00  0.00     0.099 C 
ATOM      9  O   UNL     1      25.020  27.994  27.272  1.00  0.00    -0.544 OA
ATOM     10  O   UNL     1      24.264  29.052  29.154  1.00  0.00    -0.544 OA
ENDBRANCH   3   8
ENDBRANCH   1   3
BRANCH   1  11
ATOM     11  C   UNL     1      21.193  30.247  27.958  1.00  0.00     0.006 C 
ATOM     12  C   UNL     1      20.552  31.544  27.461  1.00  0.00     0.004 C 
ENDBRANCH   1  11
TORSDOF 4
ENDMDL
MODEL 8
REMARK VINA RESULT:    -3.053      1.865      2.415
REMARK INTER + INTRA:          -3.698
REMARK INTER:                  -3.590
REMARK INTRA:                  -0.108
REMARK UNBOUND:                -0.020
REMARK SMILES CC[C@H](C)[C@H]([NH3+])C(=O)[O-]
REMARK SMILES IDX 3 1 4 2 5 3 6 4 7 8 8 9 9 10 2 11 1 12
REMARK H PARENT 6 5 6 6 6 7
REMARK Flexibility Score: inf
ROOT
ATOM      1  C   UNL     1      22.345  28.825  28.904  1.00  0.00     0.050 C 
ATOM      2  C   UNL     1      22.003  27.343  29.150  1.00  0.00     0.014 C 
ENDROOT
BRANCH   1   3
ATOM      3  C   UNL     1      23.547  29.016  27.924  1.00  0.00     0.230 C 
BRANCH   3   4
ATOM      4  N   UNL     1      24.709  29.618  28.592  1.00  0.00    -0.350 N 
ATOM      5  H   UNL     1      24.686  30.662  28.538  1.00  0.00     0.345 HD
ATOM      6  H   UNL     1      25.587  29.285  28.131  1.00  0.00     0.345 HD
ATOM      7  H   UNL     1      24.739  29.325  29.595  1.00  0.00     0.345 HD
ENDBRANCH   3   4
BRANCH   3   8
ATOM      8  C   UNL     1      23.176  29.805  26.691  1.00  0.00     0.099 C 
ATOM      9  O   UNL     1      22.267  30.676  26.751  1.00  0.00    -0.544 OA
ATOM     10  O   UNL     1      23.845  29.602  25.491  1.00  0.00    -0.544 OA
ENDBRANCH   3   8
ENDBRANCH   1   3
BRANCH   1  11
ATOM     11  C   UNL     1      22.553  29.537  30.265  1.00  0.00     0.006 C 
ATOM     12  C   UNL     1      21.367  30.407  30.683  1.00  0.00     0.004 C 
ENDBRANCH   1  11
TORSDOF 4
ENDMDL
MODEL 9
REMARK VINA RESULT:    -3.017      2.107      2.626
REMARK INTER + INTRA:          -3.655
REMARK INTER:                  -3.564
REMARK INTRA:                  -0.090
REMARK UNBOUND:                -0.020
REMARK SMILES CC[C@H](C)[C@H]([NH3+])C(=O)[O-]
REMARK SMILES IDX 3 1 4 2 5 3 6 4 7 8 8 9 9 10 2 11 1 12
REMARK H PARENT 6 5 6 6 6 7
REMARK Flexibility Score: inf
ROOT
ATOM      1  C   UNL     1      23.649  28.278  27.726  1.00  0.00     0.050 C 
ATOM      2  C   UNL     1      24.421  29.304  28.577  1.00  0.00     0.014 C 
ENDROOT
BRANCH   1   3
ATOM      3  C   UNL     1      23.142  28.872  26.372  1.00  0.00     0.230 C 
BRANCH   3   4
ATOM      4  N   UNL     1      24.124  29.788  25.774  1.00  0.00    -0.350 N 
ATOM      5  H   UNL     1      24.810  29.278  25.173  1.00  0.00     0.345 HD
ATOM      6  H   UNL     1      24.654  30.275  26.535  1.00  0.00     0.345 HD
ATOM      7  H   UNL     1      23.636  30.514  25.203  1.00  0.00     0.345 HD
ENDBRANCH   3   4
BRANCH   3   8
ATOM      8  C   UNL     1      21.797  29.546  26.498  1.00  0.00     0.099 C 
ATOM      9  O   UNL     1      21.713  30.692  27.014  1.00  0.00    -0.544 OA
ATOM     10  O   UNL     1      20.646  28.926  26.026  1.00  0.00    -0.544 OA
ENDBRANCH   3   8
ENDBRANCH   1   3
BRANCH   1  11
ATOM     11  C   UNL     1      22.514  27.656  28.578  1.00  0.00     0.006 C 
ATOM     12  C   UNL     1      22.543  28.094  30.043  1.00  0.00     0.004 C 
ENDBRANCH   1  11
TORSDOF 4
ENDMDL
