MODEL 1
REMARK VINA RESULT:    -2.510      0.000      0.000
REMARK INTER + INTRA:          -2.730
REMARK INTER:                  -2.730
REMARK INTRA:                   0.000
REMARK UNBOUND:                 0.000
REMARK SMILES [NH3+]CC(=O)[O-]
REMARK SMILES IDX 2 1 1 2 3 6 4 7 5 8
REMARK H PARENT 1 3 1 4 1 5
REMARK Flexibility Score: inf
ROOT
ATOM      1  C   UNL     1      20.739  29.065  43.289  1.00  0.00     0.312 C 
ENDROOT
BRANCH   1   2
ATOM      2  N   UNL     1      20.987  27.880  44.108  1.00  0.00    -0.353 N 
ATOM      3  H   UNL     1      21.976  27.563  43.989  1.00  0.00     0.344 HD
ATOM      4  H   UNL     1      20.346  27.112  43.801  1.00  0.00     0.344 HD
ATOM      5  H   UNL     1      20.802  28.094  45.114  1.00  0.00     0.344 HD
ENDBRANCH   1   2
BRANCH   1   6
ATOM      6  C   UNL     1      19.364  29.600  43.536  1.00  0.00     0.096 C 
ATOM      7  O   UNL     1      19.040  30.011  44.682  1.00  0.00    -0.544 OA
ATOM      8  O   UNL     1      18.422  29.597  42.515  1.00  0.00    -0.544 OA
ENDBRANCH   1   6
TORSDOF 2
ENDMDL
MODEL 2
REMARK VINA RESULT:    -2.446      3.240      3.494
REMARK INTER + INTRA:          -2.660
REMARK INTER:                  -2.660
REMARK INTRA:                   0.000
REMARK UNBOUND:                 0.000
REMARK SMILES [NH3+]CC(=O)[O-]
REMARK SMILES IDX 2 1 1 2 3 6 4 7 5 8
REMARK H PARENT 1 3 1 4 1 5
REMARK Flexibility Score: inf
ROOT
ATOM      1  C   UNL     1      17.313  31.444  44.536  1.00  0.00     0.312 C 
ENDROOT
BRANCH   1   2
ATOM      2  N   UNL     1      18.679  31.727  44.972  1.00  0.00    -0.353 N 
ATOM      3  H   UNL     1      18.675  32.474  45.704  1.00  0.00     0.344 HD
ATOM      4  H   UNL     1      19.238  32.058  44.152  1.00  0.00     0.344 HD
ATOM      5  H   UNL     1      19.120  30.860  45.355  1.00  0.00     0.344 HD
ENDBRANCH   1   2
BRANCH   1   6
ATOM      6  C   UNL     1      17.288  31.068  43.088  1.00  0.00     0.096 C 
ATOM      7  O   UNL     1      17.312  31.962  42.201  1.00  0.00    -0.544 OA
ATOM      8  O   UNL     1      17.184  29.734  42.717  1.00  0.00    -0.544 OA
ENDBRANCH   1   6
TORSDOF 2
ENDMDL
MODEL 3
REMARK VINA RESULT:    -2.430      2.623      2.841
REMARK INTER + INTRA:          -2.643
REMARK INTER:                  -2.643
REMARK INTRA:                   0.000
REMARK UNBOUND:                 0.000
REMARK SMILES [NH3+]CC(=O)[O-]
REMARK SMILES IDX 2 1 1 2 3 6 4 7 5 8
REMARK H PARENT 1 3 1 4 1 5
REMARK Flexibility Score: inf
ROOT
ATOM      1  C   UNL     1      18.677  30.255  44.767  1.00  0.00     0.312 C 
ENDROOT
BRANCH   1   2
ATOM      2  N   UNL     1      18.642  31.693  45.026  1.00  0.00    -0.353 N 
ATOM      3  H   UNL     1      18.576  32.218  44.123  1.00  0.00     0.344 HD
ATOM      4  H   UNL     1      19.521  31.974  45.518  1.00  0.00     0.344 HD
ATOM      5  H   UNL     1      17.823  31.928  45.632  1.00  0.00     0.344 HD
ENDBRANCH   1   2
BRANCH   1   6
ATOM      6  C   UNL     1      19.949  29.873  44.076  1.00  0.00     0.096 C 
ATOM      7  O   UNL     1      20.414  28.710  44.204  1.00  0.00    -0.544 OA
ATOM      8  O   UNL     1      20.648  30.816  43.334  1.00  0.00    -0.544 OA
ENDBRANCH   1   6
TORSDOF 2
ENDMDL
MODEL 4
REMARK VINA RESULT:    -2.406      1.200      1.504
REMARK INTER + INTRA:          -2.617
REMARK INTER:                  -2.617
REMARK INTRA:                   0.000
REMARK UNBOUND:                 0.000
REMARK SMILES [NH3+]CC(=O)[O-]
REMARK SMILES IDX 2 1 1 2 3 6 4 7 5 8
REMARK H PARENT 1 3 1 4 1 5
REMARK Flexibility Score: inf
ROOT
ATOM      1  C   UNL     1      20.193  29.115  44.187  1.00  0.00     0.312 C 
ENDROOT
BRANCH   1   2
ATOM      2  N   UNL     1      20.965  27.876  44.110  1.00  0.00    -0.353 N 
ATOM      3  H   UNL     1      21.911  28.067  43.709  1.00  0.00     0.344 HD
ATOM      4  H   UNL     1      20.464  27.199  43.489  1.00  0.00     0.344 HD
ATOM      5  H   UNL     1      21.063  27.455  45.062  1.00  0.00     0.344 HD
ENDBRANCH   1   2
BRANCH   1   6
ATOM      6  C   UNL     1      19.723  29.530  42.828  1.00  0.00     0.096 C 
ATOM      7  O   UNL     1      20.544  29.973  41.982  1.00  0.00    -0.544 OA
ATOM      8  O   UNL     1      18.372  29.477  42.512  1.00  0.00    -0.544 OA
ENDBRANCH   1   6
TORSDOF 2
ENDMDL
MODEL 5
REMARK VINA RESULT:    -2.341      1.802      2.020
REMARK INTER + INTRA:          -2.546
REMARK INTER:                  -2.546
REMARK INTRA:                   0.000
REMARK UNBOUND:                 0.000
REMARK SMILES [NH3+]CC(=O)[O-]
REMARK SMILES IDX 2 1 1 2 3 6 4 7 5 8
REMARK H PARENT 1 3 1 4 1 5
REMARK Flexibility Score: inf
ROOT
ATOM      1  C   UNL     1      20.194  30.385  44.357  1.00  0.00     0.312 C 
ENDROOT
BRANCH   1   2
ATOM      2  N   UNL     1      20.319  28.988  44.767  1.00  0.00    -0.353 N 
ATOM      3  H   UNL     1      19.405  28.639  45.135  1.00  0.00     0.344 HD
ATOM      4  H   UNL     1      21.039  28.917  45.524  1.00  0.00     0.344 HD
ATOM      5  H   UNL     1      20.622  28.402  43.956  1.00  0.00     0.344 HD
ENDBRANCH   1   2
BRANCH   1   6
ATOM      6  C   UNL     1      18.802  30.882  44.593  1.00  0.00     0.096 C 
ATOM      7  O   UNL     1      18.510  32.084  44.355  1.00  0.00    -0.544 OA
ATOM      8  O   UNL     1      17.840  30.033  45.125  1.00  0.00    -0.544 OA
ENDBRANCH   1   6
TORSDOF 2
ENDMDL
MODEL 6
REMARK VINA RESULT:    -2.246      2.659      2.896
REMARK INTER + INTRA:          -2.443
REMARK INTER:                  -2.443
REMARK INTRA:                   0.000
REMARK UNBOUND:                 0.000
REMARK SMILES [NH3+]CC(=O)[O-]
REMARK SMILES IDX 2 1 1 2 3 6 4 7 5 8
REMARK H PARENT 1 3 1 4 1 5
REMARK Flexibility Score: inf
ROOT
ATOM      1  C   UNL     1      17.351  29.977  42.718  1.00  0.00     0.312 C 
ENDROOT
BRANCH   1   2
ATOM      2  N   UNL     1      18.582  29.304  42.307  1.00  0.00    -0.353 N 
ATOM      3  H   UNL     1      18.521  28.283  42.525  1.00  0.00     0.344 HD
ATOM      4  H   UNL     1      19.388  29.715  42.831  1.00  0.00     0.344 HD
ATOM      5  H   UNL     1      18.739  29.439  41.282  1.00  0.00     0.344 HD
ENDBRANCH   1   2
BRANCH   1   6
ATOM      6  C   UNL     1      17.471  30.489  44.119  1.00  0.00     0.096 C 
ATOM      7  O   UNL     1      16.823  31.507  44.479  1.00  0.00    -0.544 OA
ATOM      8  O   UNL     1      18.337  29.873  45.014  1.00  0.00    -0.544 OA
ENDBRANCH   1   6
TORSDOF 2
ENDMDL
MODEL 7
REMARK VINA RESULT:    -2.188     12.134     12.325
REMARK INTER + INTRA:          -2.380
REMARK INTER:                  -2.380
REMARK INTRA:                   0.000
REMARK UNBOUND:                 0.000
REMARK SMILES [NH3+]CC(=O)[O-]
REMARK SMILES IDX 2 1 1 2 3 6 4 7 5 8
REMARK H PARENT 1 3 1 4 1 5
REMARK Flexibility Score: inf
ROOT
ATOM      1  C   UNL     1      28.505  38.531  41.836  1.00  0.00     0.312 C 
ENDROOT
BRANCH   1   2
ATOM      2  N   UNL     1      28.614  39.984  41.716  1.00  0.00    -0.353 N 
ATOM      3  H   UNL     1      28.121  40.448  42.513  1.00  0.00     0.344 HD
ATOM      4  H   UNL     1      28.170  40.287  40.819  1.00  0.00     0.344 HD
ATOM      5  H   UNL     1      29.621  40.268  41.709  1.00  0.00     0.344 HD
ENDBRANCH   1   2
BRANCH   1   6
ATOM      6  C   UNL     1      27.095  38.131  42.140  1.00  0.00     0.096 C 
ATOM      7  O   UNL     1      26.137  38.861  41.773  1.00  0.00    -0.544 OA
ATOM      8  O   UNL     1      26.841  36.978  42.871  1.00  0.00    -0.544 OA
ENDBRANCH   1   6
TORSDOF 2
ENDMDL
MODEL 8
REMARK VINA RESULT:    -2.183     10.622     11.059
REMARK INTER + INTRA:          -2.374
REMARK INTER:                  -2.374
REMARK INTRA:                   0.000
REMARK UNBOUND:                 0.000
REMARK SMILES [NH3+]CC(=O)[O-]
REMARK SMILES IDX 2 1 1 2 3 6 4 7 5 8
REMARK H PARENT 1 3 1 4 1 5
REMARK Flexibility Score: inf
ROOT
ATOM      1  C   UNL     1      16.155  30.982  32.692  1.00  0.00     0.312 C 
ENDROOT
BRANCH   1   2
ATOM      2  N   UNL     1      15.004  30.157  33.055  1.00  0.00    -0.353 N 
ATOM      3  H   UNL     1      14.890  29.379  32.366  1.00  0.00     0.344 HD
ATOM      4  H   UNL     1      14.142  30.749  33.046  1.00  0.00     0.344 HD
ATOM      5  H   UNL     1      15.134  29.763  34.015  1.00  0.00     0.344 HD
ENDBRANCH   1   2
BRANCH   1   6
ATOM      6  C   UNL     1      17.394  30.488  33.370  1.00  0.00     0.096 C 
ATOM      7  O   UNL     1      17.319  29.595  34.254  1.00  0.00    -0.544 OA
ATOM      8  O   UNL     1      18.627  31.050  33.062  1.00  0.00    -0.544 OA
ENDBRANCH   1   6
TORSDOF 2
ENDMDL
MODEL 9
REMARK VINA RESULT:    -2.177      6.642      6.845
REMARK INTER + INTRA:          -2.368
REMARK INTER:                  -2.368
REMARK INTRA:                   0.000
REMARK UNBOUND:                 0.000
REMARK SMILES [NH3+]CC(=O)[O-]
REMARK SMILES IDX 2 1 1 2 3 6 4 7 5 8
REMARK H PARENT 1 3 1 4 1 5
REMARK Flexibility Score: inf
ROOT
ATOM      1  C   UNL     1      24.292  30.887  41.043  1.00  0.00     0.312 C 
ENDROOT
BRANCH   1   2
ATOM      2  N   UNL     1      23.287  31.659  40.314  1.00  0.00    -0.353 N 
ATOM      3  H   UNL     1      23.139  31.247  39.364  1.00  0.00     0.344 HD
ATOM      4  H   UNL     1      23.624  32.644  40.208  1.00  0.00     0.344 HD
ATOM      5  H   UNL     1      22.385  31.664  40.843  1.00  0.00     0.344 HD
ENDBRANCH   1   2
BRANCH   1   6
ATOM      6  C   UNL     1      25.541  31.689  41.231  1.00  0.00     0.096 C 
ATOM      7  O   UNL     1      25.607  32.554  42.143  1.00  0.00    -0.544 OA
ATOM      8  O   UNL     1      26.615  31.518  40.366  1.00  0.00    -0.544 OA
ENDBRANCH   1   6
TORSDOF 2
ENDMDL
