MODEL 1
REMARK VINA RESULT:    -4.139      0.000      0.000
REMARK INTER + INTRA:          -6.155
REMARK INTER:                  -5.591
REMARK INTRA:                  -0.564
REMARK UNBOUND:                -0.564
REMARK SMILES CCCCCCCC(=O)[O-]
REMARK SMILES IDX 5 1 6 2 7 3 8 4 9 5 10 6 4 7 3 8 2 9 1 10
REMARK H PARENT
REMARK Flexibility Score: inf
ROOT
ATOM      1  C   UNL     1      87.177  76.370  72.211  1.00  0.00     0.000 C 
ENDROOT
BRANCH   1   2
ATOM      2  C   UNL     1      88.013  75.556  73.210  1.00  0.00     0.006 C 
BRANCH   2   3
ATOM      3  C   UNL     1      88.060  74.065  72.850  1.00  0.00     0.053 C 
BRANCH   3   4
ATOM      4  C   UNL     1      89.456  73.608  72.555  1.00  0.00     0.041 C 
ATOM      5  O   UNL     1      89.810  73.375  71.371  1.00  0.00    -0.550 OA
ATOM      6  O   UNL     1      90.356  73.407  73.595  1.00  0.00    -0.550 OA
ENDBRANCH   3   4
ENDBRANCH   2   3
ENDBRANCH   1   2
BRANCH   1   7
ATOM      7  C   UNL     1      88.071  76.992  71.127  1.00  0.00     0.000 C 
BRANCH   7   8
ATOM      8  C   UNL     1      87.989  76.241  69.789  1.00  0.00    -0.000 C 
BRANCH   8   9
ATOM      9  C   UNL     1      89.355  76.104  69.101  1.00  0.00    -0.003 C 
ATOM     10  C   UNL     1      90.477  76.608  70.004  1.00  0.00     0.004 C 
ENDBRANCH   8   9
ENDBRANCH   7   8
ENDBRANCH   1   7
TORSDOF 6
ENDMDL
MODEL 2
REMARK VINA RESULT:    -4.110      2.331      3.146
REMARK INTER + INTRA:          -6.116
REMARK INTER:                  -5.517
REMARK INTRA:                  -0.599
REMARK UNBOUND:                -0.564
REMARK SMILES CCCCCCCC(=O)[O-]
REMARK SMILES IDX 5 1 6 2 7 3 8 4 9 5 10 6 4 7 3 8 2 9 1 10
REMARK H PARENT
REMARK Flexibility Score: inf
ROOT
ATOM      1  C   UNL     1      89.940  73.565  72.030  1.00  0.00     0.000 C 
ENDROOT
BRANCH   1   2
ATOM      2  C   UNL     1      88.477  74.025  72.125  1.00  0.00     0.006 C 
BRANCH   2   3
ATOM      3  C   UNL     1      88.329  75.329  72.920  1.00  0.00     0.053 C 
BRANCH   3   4
ATOM      4  C   UNL     1      87.201  76.170  72.405  1.00  0.00     0.041 C 
ATOM      5  O   UNL     1      87.052  76.341  71.168  1.00  0.00    -0.550 OA
ATOM      6  O   UNL     1      86.334  76.791  73.296  1.00  0.00    -0.550 OA
ENDBRANCH   3   4
ENDBRANCH   2   3
ENDBRANCH   1   2
BRANCH   1   7
ATOM      7  C   UNL     1      90.542  73.928  70.664  1.00  0.00     0.000 C 
BRANCH   7   8
ATOM      8  C   UNL     1      89.469  74.264  69.616  1.00  0.00    -0.000 C 
BRANCH   8   9
ATOM      9  C   UNL     1      89.699  75.630  68.951  1.00  0.00    -0.003 C 
ATOM     10  C   UNL     1      90.401  76.594  69.904  1.00  0.00     0.004 C 
ENDBRANCH   8   9
ENDBRANCH   7   8
ENDBRANCH   1   7
TORSDOF 6
ENDMDL
MODEL 3
REMARK VINA RESULT:    -4.097      1.304      2.084
REMARK INTER + INTRA:          -6.098
REMARK INTER:                  -5.511
REMARK INTRA:                  -0.588
REMARK UNBOUND:                -0.564
REMARK SMILES CCCCCCCC(=O)[O-]
REMARK SMILES IDX 5 1 6 2 7 3 8 4 9 5 10 6 4 7 3 8 2 9 1 10
REMARK H PARENT
REMARK Flexibility Score: inf
ROOT
ATOM      1  C   UNL     1      88.280  76.809  70.850  1.00  0.00     0.000 C 
ENDROOT
BRANCH   1   2
ATOM      2  C   UNL     1      87.167  76.260  71.757  1.00  0.00     0.006 C 
BRANCH   2   3
ATOM      3  C   UNL     1      87.668  75.961  73.176  1.00  0.00     0.053 C 
BRANCH   3   4
ATOM      4  C   UNL     1      88.552  74.751  73.210  1.00  0.00     0.041 C 
ATOM      5  O   UNL     1      89.646  74.783  73.831  1.00  0.00    -0.550 OA
ATOM      6  O   UNL     1      88.180  73.598  72.528  1.00  0.00    -0.550 OA
ENDBRANCH   3   4
ENDBRANCH   2   3
ENDBRANCH   1   2
BRANCH   1   7
ATOM      7  C   UNL     1      88.150  76.252  69.424  1.00  0.00     0.000 C 
BRANCH   7   8
ATOM      8  C   UNL     1      89.416  75.517  68.958  1.00  0.00    -0.000 C 
BRANCH   8   9
ATOM      9  C   UNL     1      90.492  75.439  70.052  1.00  0.00    -0.003 C 
ATOM     10  C   UNL     1      90.897  73.992  70.321  1.00  0.00     0.004 C 
ENDBRANCH   8   9
ENDBRANCH   7   8
ENDBRANCH   1   7
TORSDOF 6
ENDMDL
MODEL 4
REMARK VINA RESULT:    -4.061      2.237      4.378
REMARK INTER + INTRA:          -6.050
REMARK INTER:                  -5.585
REMARK INTRA:                  -0.464
REMARK UNBOUND:                -0.564
REMARK SMILES CCCCCCCC(=O)[O-]
REMARK SMILES IDX 5 1 6 2 7 3 8 4 9 5 10 6 4 7 3 8 2 9 1 10
REMARK H PARENT
REMARK Flexibility Score: inf
ROOT
ATOM      1  C   UNL     1      90.587  73.741  70.443  1.00  0.00     0.000 C 
ENDROOT
BRANCH   1   2
ATOM      2  C   UNL     1      89.469  74.353  69.585  1.00  0.00     0.006 C 
BRANCH   2   3
ATOM      3  C   UNL     1      89.855  75.726  69.020  1.00  0.00     0.053 C 
BRANCH   3   4
ATOM      4  C   UNL     1      90.185  76.703  70.108  1.00  0.00     0.041 C 
ATOM      5  O   UNL     1      91.342  77.191  70.192  1.00  0.00    -0.550 OA
ATOM      6  O   UNL     1      89.222  77.048  71.049  1.00  0.00    -0.550 OA
ENDBRANCH   3   4
ENDBRANCH   2   3
ENDBRANCH   1   2
BRANCH   1   7
ATOM      7  C   UNL     1      90.120  73.544  71.893  1.00  0.00     0.000 C 
BRANCH   7   8
ATOM      8  C   UNL     1      88.596  73.663  72.045  1.00  0.00    -0.000 C 
BRANCH   8   9
ATOM      9  C   UNL     1      88.171  74.044  73.471  1.00  0.00    -0.003 C 
ATOM     10  C   UNL     1      87.313  75.306  73.470  1.00  0.00     0.004 C 
ENDBRANCH   8   9
ENDBRANCH   7   8
ENDBRANCH   1   7
TORSDOF 6
ENDMDL
MODEL 5
REMARK VINA RESULT:    -3.943      1.350      3.428
REMARK INTER + INTRA:          -5.890
REMARK INTER:                  -5.324
REMARK INTRA:                  -0.566
REMARK UNBOUND:                -0.564
REMARK SMILES CCCCCCCC(=O)[O-]
REMARK SMILES IDX 5 1 6 2 7 3 8 4 9 5 10 6 4 7 3 8 2 9 1 10
REMARK H PARENT
REMARK Flexibility Score: inf
ROOT
ATOM      1  C   UNL     1      87.492  76.251  70.304  1.00  0.00     0.000 C 
ENDROOT
BRANCH   1   2
ATOM      2  C   UNL     1      88.477  76.143  69.130  1.00  0.00     0.006 C 
BRANCH   2   3
ATOM      3  C   UNL     1      89.873  75.696  69.582  1.00  0.00     0.053 C 
BRANCH   3   4
ATOM      4  C   UNL     1      89.935  74.217  69.818  1.00  0.00     0.041 C 
ATOM      5  O   UNL     1      90.863  73.724  70.510  1.00  0.00    -0.550 OA
ATOM      6  O   UNL     1      88.984  73.381  69.245  1.00  0.00    -0.550 OA
ENDBRANCH   3   4
ENDBRANCH   2   3
ENDBRANCH   1   2
BRANCH   1   7
ATOM      7  C   UNL     1      88.094  77.077  71.451  1.00  0.00     0.000 C 
BRANCH   7   8
ATOM      8  C   UNL     1      87.821  76.459  72.832  1.00  0.00    -0.000 C 
BRANCH   8   9
ATOM      9  C   UNL     1      88.852  75.387  73.215  1.00  0.00    -0.003 C 
ATOM     10  C   UNL     1      88.234  73.992  73.178  1.00  0.00     0.004 C 
ENDBRANCH   8   9
ENDBRANCH   7   8
ENDBRANCH   1   7
TORSDOF 6
ENDMDL
MODEL 6
REMARK VINA RESULT:    -3.910      1.604      2.193
REMARK INTER + INTRA:          -5.845
REMARK INTER:                  -5.263
REMARK INTRA:                  -0.583
REMARK UNBOUND:                -0.564
REMARK SMILES CCCCCCCC(=O)[O-]
REMARK SMILES IDX 5 1 6 2 7 3 8 4 9 5 10 6 4 7 3 8 2 9 1 10
REMARK H PARENT
REMARK Flexibility Score: inf
ROOT
ATOM      1  C   UNL     1      88.848  76.972  71.187  1.00  0.00     0.000 C 
ENDROOT
BRANCH   1   2
ATOM      2  C   UNL     1      88.673  76.468  72.628  1.00  0.00     0.006 C 
BRANCH   2   3
ATOM      3  C   UNL     1      87.485  75.507  72.767  1.00  0.00     0.053 C 
BRANCH   3   4
ATOM      4  C   UNL     1      87.925  74.131  73.164  1.00  0.00     0.041 C 
ATOM      5  O   UNL     1      87.078  73.276  73.532  1.00  0.00    -0.550 OA
ATOM      6  O   UNL     1      89.276  73.804  73.159  1.00  0.00    -0.550 OA
ENDBRANCH   3   4
ENDBRANCH   2   3
ENDBRANCH   1   2
BRANCH   1   7
ATOM      7  C   UNL     1      90.092  76.348  70.536  1.00  0.00     0.000 C 
BRANCH   7   8
ATOM      8  C   UNL     1      89.809  75.794  69.131  1.00  0.00    -0.000 C 
BRANCH   8   9
ATOM      9  C   UNL     1      88.665  74.770  69.118  1.00  0.00    -0.003 C 
ATOM     10  C   UNL     1      89.137  73.412  69.631  1.00  0.00     0.004 C 
ENDBRANCH   8   9
ENDBRANCH   7   8
ENDBRANCH   1   7
TORSDOF 6
ENDMDL
MODEL 7
REMARK VINA RESULT:    -3.762      2.214      2.685
REMARK INTER + INTRA:          -5.645
REMARK INTER:                  -5.297
REMARK INTRA:                  -0.348
REMARK UNBOUND:                -0.564
REMARK SMILES CCCCCCCC(=O)[O-]
REMARK SMILES IDX 5 1 6 2 7 3 8 4 9 5 10 6 4 7 3 8 2 9 1 10
REMARK H PARENT
REMARK Flexibility Score: inf
ROOT
ATOM      1  C   UNL     1      88.708  74.168  71.499  1.00  0.00     0.000 C 
ENDROOT
BRANCH   1   2
ATOM      2  C   UNL     1      88.957  73.905  72.992  1.00  0.00     0.006 C 
BRANCH   2   3
ATOM      3  C   UNL     1      88.062  74.768  73.891  1.00  0.00     0.053 C 
BRANCH   3   4
ATOM      4  C   UNL     1      86.786  74.066  74.244  1.00  0.00     0.041 C 
ATOM      5  O   UNL     1      86.815  72.986  74.890  1.00  0.00    -0.550 OA
ATOM      6  O   UNL     1      85.567  74.588  73.830  1.00  0.00    -0.550 OA
ENDBRANCH   3   4
ENDBRANCH   2   3
ENDBRANCH   1   2
BRANCH   1   7
ATOM      7  C   UNL     1      88.321  75.635  71.257  1.00  0.00     0.000 C 
BRANCH   7   8
ATOM      8  C   UNL     1      88.539  76.072  69.800  1.00  0.00    -0.000 C 
BRANCH   8   9
ATOM      9  C   UNL     1      90.006  75.953  69.359  1.00  0.00    -0.003 C 
ATOM     10  C   UNL     1      90.888  76.944  70.113  1.00  0.00     0.004 C 
ENDBRANCH   8   9
ENDBRANCH   7   8
ENDBRANCH   1   7
TORSDOF 6
ENDMDL
MODEL 8
REMARK VINA RESULT:    -3.663      2.410      3.195
REMARK INTER + INTRA:          -5.512
REMARK INTER:                  -5.173
REMARK INTRA:                  -0.339
REMARK UNBOUND:                -0.564
REMARK SMILES CCCCCCCC(=O)[O-]
REMARK SMILES IDX 5 1 6 2 7 3 8 4 9 5 10 6 4 7 3 8 2 9 1 10
REMARK H PARENT
REMARK Flexibility Score: inf
ROOT
ATOM      1  C   UNL     1      89.674  76.439  72.008  1.00  0.00     0.000 C 
ENDROOT
BRANCH   1   2
ATOM      2  C   UNL     1      88.508  77.256  72.584  1.00  0.00     0.006 C 
BRANCH   2   3
ATOM      3  C   UNL     1      87.143  76.657  72.220  1.00  0.00     0.053 C 
BRANCH   3   4
ATOM      4  C   UNL     1      86.542  75.903  73.368  1.00  0.00     0.041 C 
ATOM      5  O   UNL     1      87.237  75.080  74.018  1.00  0.00    -0.550 OA
ATOM      6  O   UNL     1      85.205  76.087  73.697  1.00  0.00    -0.550 OA
ENDBRANCH   3   4
ENDBRANCH   2   3
ENDBRANCH   1   2
BRANCH   1   7
ATOM      7  C   UNL     1      90.116  76.997  70.647  1.00  0.00     0.000 C 
BRANCH   7   8
ATOM      8  C   UNL     1      90.435  75.891  69.629  1.00  0.00    -0.000 C 
BRANCH   8   9
ATOM      9  C   UNL     1      89.214  75.018  69.301  1.00  0.00    -0.003 C 
ATOM     10  C   UNL     1      88.024  75.875  68.879  1.00  0.00     0.004 C 
ENDBRANCH   8   9
ENDBRANCH   7   8
ENDBRANCH   1   7
TORSDOF 6
ENDMDL
MODEL 9
REMARK VINA RESULT:    -3.588      2.036      3.963
REMARK INTER + INTRA:          -5.410
REMARK INTER:                  -4.916
REMARK INTRA:                  -0.493
REMARK UNBOUND:                -0.564
REMARK SMILES CCCCCCCC(=O)[O-]
REMARK SMILES IDX 5 1 6 2 7 3 8 4 9 5 10 6 4 7 3 8 2 9 1 10
REMARK H PARENT
REMARK Flexibility Score: inf
ROOT
ATOM      1  C   UNL     1      89.565  74.346  73.520  1.00  0.00     0.000 C 
ENDROOT
BRANCH   1   2
ATOM      2  C   UNL     1      89.103  73.634  72.239  1.00  0.00     0.006 C 
BRANCH   2   3
ATOM      3  C   UNL     1      89.096  74.571  71.024  1.00  0.00     0.053 C 
BRANCH   3   4
ATOM      4  C   UNL     1      90.463  74.723  70.430  1.00  0.00     0.041 C 
ATOM      5  O   UNL     1      91.235  73.732  70.355  1.00  0.00    -0.550 OA
ATOM      6  O   UNL     1      90.895  75.968  69.988  1.00  0.00    -0.550 OA
ENDBRANCH   3   4
ENDBRANCH   2   3
ENDBRANCH   1   2
BRANCH   1   7
ATOM      7  C   UNL     1      88.362  74.775  74.373  1.00  0.00     0.000 C 
BRANCH   7   8
ATOM      8  C   UNL     1      87.107  73.935  74.091  1.00  0.00    -0.000 C 
BRANCH   8   9
ATOM      9  C   UNL     1      85.852  74.796  73.883  1.00  0.00    -0.003 C 
ATOM     10  C   UNL     1      86.174  76.050  73.076  1.00  0.00     0.004 C 
ENDBRANCH   8   9
ENDBRANCH   7   8
ENDBRANCH   1   7
TORSDOF 6
ENDMDL
