MODEL 1
REMARK VINA RESULT:    -4.467      0.000      0.000
REMARK INTER + INTRA:          -7.106
REMARK INTER:                  -6.034
REMARK INTRA:                  -1.072
REMARK UNBOUND:                -1.072
REMARK SMILES CC(=O)CCC=C(C)CCC=C(C)C
REMARK SMILES IDX 7 1 6 2 8 3 9 4 10 5 11 6 13 7 12 8 14 9 5 10 4 11 2 12 3 13
REMARK SMILES IDX 1 14
REMARK H PARENT
REMARK Flexibility Score: inf
ROOT
ATOM      1  C   UNL     1      27.491  43.875 143.445  1.00  0.00    -0.077 C 
ATOM      2  C   UNL     1      26.479  42.994 143.619  1.00  0.00    -0.028 C 
ATOM      3  C   UNL     1      27.502  44.860 142.300  1.00  0.00     0.039 C 
ENDROOT
BRANCH   1   4
ATOM      4  C   UNL     1      28.639  43.876 144.431  1.00  0.00     0.034 C 
BRANCH   4   5
ATOM      5  C   UNL     1      29.417  42.557 144.364  1.00  0.00     0.032 C 
BRANCH   5   6
ATOM      6  C   UNL     1      30.533  42.644 143.353  1.00  0.00    -0.028 C 
ATOM      7  C   UNL     1      29.332  41.232 141.668  1.00  0.00     0.039 C 
ATOM      8  C   UNL     1      30.498  42.075 142.127  1.00  0.00    -0.080 C 
ATOM      9  C   UNL     1      31.674  42.279 141.207  1.00  0.00     0.039 C 
ENDBRANCH   5   6
ENDBRANCH   4   5
ENDBRANCH   1   4
BRANCH   2  10
ATOM     10  C   UNL     1      25.296  42.857 142.693  1.00  0.00     0.035 C 
BRANCH  10  11
ATOM     11  C   UNL     1      24.148  43.766 143.144  1.00  0.00     0.079 C 
BRANCH  11  12
ATOM     12  C   UNL     1      23.869  44.824 142.112  1.00  0.00     0.130 C 
ATOM     13  O   UNL     1      23.749  45.991 142.455  1.00  0.00    -0.300 OA
ATOM     14  C   UNL     1      23.762  44.461 140.662  1.00  0.00     0.087 C 
ENDBRANCH  11  12
ENDBRANCH  10  11
ENDBRANCH   2  10
TORSDOF 6
ENDMDL
MODEL 2
REMARK VINA RESULT:    -4.407      8.746     11.732
REMARK INTER + INTRA:          -7.025
REMARK INTER:                  -5.960
REMARK INTRA:                  -1.065
REMARK UNBOUND:                -1.072
REMARK SMILES CC(=O)CCC=C(C)CCC=C(C)C
REMARK SMILES IDX 7 1 6 2 8 3 9 4 10 5 11 6 13 7 12 8 14 9 5 10 4 11 2 12 3 13
REMARK SMILES IDX 1 14
REMARK H PARENT
REMARK Flexibility Score: inf
ROOT
ATOM      1  C   UNL     1      39.964  43.389 144.696  1.00  0.00    -0.077 C 
ATOM      2  C   UNL     1      38.749  43.979 144.616  1.00  0.00    -0.028 C 
ATOM      3  C   UNL     1      40.164  42.070 145.404  1.00  0.00     0.039 C 
ENDROOT
BRANCH   1   4
ATOM      4  C   UNL     1      41.152  44.068 144.050  1.00  0.00     0.034 C 
BRANCH   4   5
ATOM      5  C   UNL     1      40.966  44.164 142.532  1.00  0.00     0.032 C 
BRANCH   5   6
ATOM      6  C   UNL     1      41.305  42.854 141.866  1.00  0.00    -0.028 C 
ATOM      7  C   UNL     1      38.931  42.383 141.223  1.00  0.00     0.039 C 
ATOM      8  C   UNL     1      40.405  42.055 141.252  1.00  0.00    -0.080 C 
ATOM      9  C   UNL     1      40.898  40.791 140.595  1.00  0.00     0.039 C 
ENDBRANCH   5   6
ENDBRANCH   4   5
ENDBRANCH   1   4
BRANCH   2  10
ATOM     10  C   UNL     1      37.491  43.435 145.246  1.00  0.00     0.035 C 
BRANCH  10  11
ATOM     11  C   UNL     1      36.655  42.672 144.214  1.00  0.00     0.079 C 
BRANCH  11  12
ATOM     12  C   UNL     1      35.260  42.439 144.725  1.00  0.00     0.130 C 
ATOM     13  O   UNL     1      34.301  42.680 144.006  1.00  0.00    -0.300 OA
ATOM     14  C   UNL     1      35.036  41.892 146.102  1.00  0.00     0.087 C 
ENDBRANCH  11  12
ENDBRANCH  10  11
ENDBRANCH   2  10
TORSDOF 6
ENDMDL
MODEL 3
REMARK VINA RESULT:    -4.361      7.190      9.168
REMARK INTER + INTRA:          -6.963
REMARK INTER:                  -6.179
REMARK INTRA:                  -0.784
REMARK UNBOUND:                -1.072
REMARK SMILES CC(=O)CCC=C(C)CCC=C(C)C
REMARK SMILES IDX 7 1 6 2 8 3 9 4 10 5 11 6 13 7 12 8 14 9 5 10 4 11 2 12 3 13
REMARK SMILES IDX 1 14
REMARK H PARENT
REMARK Flexibility Score: inf
ROOT
ATOM      1  C   UNL     1      34.218  41.571 148.910  1.00  0.00    -0.077 C 
ATOM      2  C   UNL     1      32.958  41.918 149.260  1.00  0.00    -0.028 C 
ATOM      3  C   UNL     1      34.705  40.144 148.999  1.00  0.00     0.039 C 
ENDROOT
BRANCH   1   4
ATOM      4  C   UNL     1      35.161  42.643 148.409  1.00  0.00     0.034 C 
BRANCH   4   5
ATOM      5  C   UNL     1      36.505  42.036 147.991  1.00  0.00     0.032 C 
BRANCH   5   6
ATOM      6  C   UNL     1      37.275  42.991 147.114  1.00  0.00    -0.028 C 
ATOM      7  C   UNL     1      36.304  42.078 144.993  1.00  0.00     0.039 C 
ATOM      8  C   UNL     1      37.176  43.039 145.767  1.00  0.00    -0.080 C 
ATOM      9  C   UNL     1      37.980  44.075 145.024  1.00  0.00     0.039 C 
ENDBRANCH   5   6
ENDBRANCH   4   5
ENDBRANCH   1   4
BRANCH   2  10
ATOM     10  C   UNL     1      31.930  40.962 149.810  1.00  0.00     0.035 C 
BRANCH  10  11
ATOM     11  C   UNL     1      30.787  40.760 148.810  1.00  0.00     0.079 C 
BRANCH  11  12
ATOM     12  C   UNL     1      31.207  39.834 147.701  1.00  0.00     0.130 C 
ATOM     13  O   UNL     1      31.418  38.655 147.942  1.00  0.00    -0.300 OA
ATOM     14  C   UNL     1      31.344  40.343 146.299  1.00  0.00     0.087 C 
ENDBRANCH  11  12
ENDBRANCH  10  11
ENDBRANCH   2  10
TORSDOF 6
ENDMDL
MODEL 4
REMARK VINA RESULT:    -4.276      9.145     10.883
REMARK INTER + INTRA:          -6.848
REMARK INTER:                  -6.341
REMARK INTRA:                  -0.507
REMARK UNBOUND:                -1.072
REMARK SMILES CC(=O)CCC=C(C)CCC=C(C)C
REMARK SMILES IDX 7 1 6 2 8 3 9 4 10 5 11 6 13 7 12 8 14 9 5 10 4 11 2 12 3 13
REMARK SMILES IDX 1 14
REMARK H PARENT
REMARK Flexibility Score: inf
ROOT
ATOM      1  C   UNL     1      36.998  43.059 145.789  1.00  0.00    -0.077 C 
ATOM      2  C   UNL     1      37.126  42.969 147.133  1.00  0.00    -0.028 C 
ATOM      3  C   UNL     1      35.995  42.226 145.027  1.00  0.00     0.039 C 
ENDROOT
BRANCH   1   4
ATOM      4  C   UNL     1      37.880  44.028 145.032  1.00  0.00     0.034 C 
BRANCH   4   5
ATOM      5  C   UNL     1      39.246  43.402 144.733  1.00  0.00     0.032 C 
BRANCH   5   6
ATOM      6  C   UNL     1      39.241  42.724 143.386  1.00  0.00    -0.028 C 
ATOM      7  C   UNL     1      41.240  43.990 142.563  1.00  0.00     0.039 C 
ATOM      8  C   UNL     1      40.146  42.960 142.409  1.00  0.00    -0.080 C 
ATOM      9  C   UNL     1      40.038  42.177 141.126  1.00  0.00     0.039 C 
ENDBRANCH   5   6
ENDBRANCH   4   5
ENDBRANCH   1   4
BRANCH   2  10
ATOM     10  C   UNL     1      36.342  42.020 148.005  1.00  0.00     0.035 C 
BRANCH  10  11
ATOM     11  C   UNL     1      35.008  42.646 148.424  1.00  0.00     0.079 C 
BRANCH  11  12
ATOM     12  C   UNL     1      33.920  41.609 148.460  1.00  0.00     0.130 C 
ATOM     13  O   UNL     1      33.954  40.666 147.683  1.00  0.00    -0.300 OA
ATOM     14  C   UNL     1      32.807  41.710 149.458  1.00  0.00     0.087 C 
ENDBRANCH  11  12
ENDBRANCH  10  11
ENDBRANCH   2  10
TORSDOF 6
ENDMDL
MODEL 5
REMARK VINA RESULT:    -4.263      7.999     10.479
REMARK INTER + INTRA:          -6.831
REMARK INTER:                  -6.241
REMARK INTRA:                  -0.590
REMARK UNBOUND:                -1.072
REMARK SMILES CC(=O)CCC=C(C)CCC=C(C)C
REMARK SMILES IDX 7 1 6 2 8 3 9 4 10 5 11 6 13 7 12 8 14 9 5 10 4 11 2 12 3 13
REMARK SMILES IDX 1 14
REMARK H PARENT
REMARK Flexibility Score: inf
ROOT
ATOM      1  C   UNL     1      35.156  41.975 147.502  1.00  0.00    -0.077 C 
ATOM      2  C   UNL     1      34.814  41.789 146.206  1.00  0.00    -0.028 C 
ATOM      3  C   UNL     1      36.232  42.953 147.911  1.00  0.00     0.039 C 
ENDROOT
BRANCH   1   4
ATOM      4  C   UNL     1      34.432  41.185 148.571  1.00  0.00     0.034 C 
BRANCH   4   5
ATOM      5  C   UNL     1      33.281  42.002 149.167  1.00  0.00     0.032 C 
BRANCH   5   6
ATOM      6  C   UNL     1      32.360  41.121 149.973  1.00  0.00    -0.028 C 
ATOM      7  C   UNL     1      30.615  41.029 148.179  1.00  0.00     0.039 C 
ATOM      8  C   UNL     1      31.170  40.655 149.533  1.00  0.00    -0.080 C 
ATOM      9  C   UNL     1      30.374  39.750 150.438  1.00  0.00     0.039 C 
ENDBRANCH   5   6
ENDBRANCH   4   5
ENDBRANCH   1   4
BRANCH   2  10
ATOM     10  C   UNL     1      35.478  42.479 145.040  1.00  0.00     0.035 C 
BRANCH  10  11
ATOM     11  C   UNL     1      36.742  41.726 144.613  1.00  0.00     0.079 C 
BRANCH  11  12
ATOM     12  C   UNL     1      37.805  42.687 144.154  1.00  0.00     0.130 C 
ATOM     13  O   UNL     1      38.458  42.436 143.152  1.00  0.00    -0.300 OA
ATOM     14  C   UNL     1      38.051  43.961 144.902  1.00  0.00     0.087 C 
ENDBRANCH  11  12
ENDBRANCH  10  11
ENDBRANCH   2  10
TORSDOF 6
ENDMDL
MODEL 6
REMARK VINA RESULT:    -4.252      8.882     11.187
REMARK INTER + INTRA:          -6.815
REMARK INTER:                  -6.215
REMARK INTRA:                  -0.601
REMARK UNBOUND:                -1.072
REMARK SMILES CC(=O)CCC=C(C)CCC=C(C)C
REMARK SMILES IDX 7 1 6 2 8 3 9 4 10 5 11 6 13 7 12 8 14 9 5 10 4 11 2 12 3 13
REMARK SMILES IDX 1 14
REMARK H PARENT
REMARK Flexibility Score: inf
ROOT
ATOM      1  C   UNL     1      35.117  41.771 147.253  1.00  0.00    -0.077 C 
ATOM      2  C   UNL     1      36.159  42.252 147.969  1.00  0.00    -0.028 C 
ATOM      3  C   UNL     1      34.969  42.051 145.776  1.00  0.00     0.039 C 
ENDROOT
BRANCH   1   4
ATOM      4  C   UNL     1      34.078  40.922 147.952  1.00  0.00     0.034 C 
BRANCH   4   5
ATOM      5  C   UNL     1      33.273  41.759 148.952  1.00  0.00     0.032 C 
BRANCH   5   6
ATOM      6  C   UNL     1      31.838  41.298 149.004  1.00  0.00    -0.028 C 
ATOM      7  C   UNL     1      32.242  39.739 150.923  1.00  0.00     0.039 C 
ATOM      8  C   UNL     1      31.354  40.409 149.901  1.00  0.00    -0.080 C 
ATOM      9  C   UNL     1      29.886  40.071 149.856  1.00  0.00     0.039 C 
ENDBRANCH   5   6
ENDBRANCH   4   5
ENDBRANCH   1   4
BRANCH   2  10
ATOM     10  C   UNL     1      37.243  43.140 147.411  1.00  0.00     0.035 C 
BRANCH  10  11
ATOM     11  C   UNL     1      38.392  42.301 146.842  1.00  0.00     0.079 C 
BRANCH  11  12
ATOM     12  C   UNL     1      38.803  42.810 145.488  1.00  0.00     0.130 C 
ATOM     13  O   UNL     1      39.699  42.249 144.874  1.00  0.00    -0.300 OA
ATOM     14  C   UNL     1      38.105  43.985 144.873  1.00  0.00     0.087 C 
ENDBRANCH  11  12
ENDBRANCH  10  11
ENDBRANCH   2  10
TORSDOF 6
ENDMDL
MODEL 7
REMARK VINA RESULT:    -4.189      8.564     11.669
REMARK INTER + INTRA:          -6.731
REMARK INTER:                  -6.101
REMARK INTRA:                  -0.630
REMARK UNBOUND:                -1.072
REMARK SMILES CC(=O)CCC=C(C)CCC=C(C)C
REMARK SMILES IDX 7 1 6 2 8 3 9 4 10 5 11 6 13 7 12 8 14 9 5 10 4 11 2 12 3 13
REMARK SMILES IDX 1 14
REMARK H PARENT
REMARK Flexibility Score: inf
ROOT
ATOM      1  C   UNL     1      36.649  42.493 147.286  1.00  0.00    -0.077 C 
ATOM      2  C   UNL     1      36.517  42.775 145.969  1.00  0.00    -0.028 C 
ATOM      3  C   UNL     1      37.946  41.979 147.865  1.00  0.00     0.039 C 
ENDROOT
BRANCH   1   4
ATOM      4  C   UNL     1      35.465  42.707 148.203  1.00  0.00     0.034 C 
BRANCH   4   5
ATOM      5  C   UNL     1      34.854  41.367 148.627  1.00  0.00     0.032 C 
BRANCH   5   6
ATOM      6  C   UNL     1      33.426  41.256 148.153  1.00  0.00    -0.028 C 
ATOM      7  C   UNL     1      32.495  41.161 150.477  1.00  0.00     0.039 C 
ATOM      8  C   UNL     1      32.353  41.188 148.973  1.00  0.00    -0.080 C 
ATOM      9  C   UNL     1      30.981  41.119 148.355  1.00  0.00     0.039 C 
ENDBRANCH   5   6
ENDBRANCH   4   5
ENDBRANCH   1   4
BRANCH   2  10
ATOM     10  C   UNL     1      37.600  42.573 144.939  1.00  0.00     0.035 C 
BRANCH  10  11
ATOM     11  C   UNL     1      38.374  43.873 144.703  1.00  0.00     0.079 C 
BRANCH  11  12
ATOM     12  C   UNL     1      39.852  43.606 144.617  1.00  0.00     0.130 C 
ATOM     13  O   UNL     1      40.609  44.491 144.247  1.00  0.00    -0.300 OA
ATOM     14  C   UNL     1      40.406  42.270 145.007  1.00  0.00     0.087 C 
ENDBRANCH  11  12
ENDBRANCH  10  11
ENDBRANCH   2  10
TORSDOF 6
ENDMDL
MODEL 8
REMARK VINA RESULT:    -4.131      1.742      2.330
REMARK INTER + INTRA:          -6.652
REMARK INTER:                  -5.436
REMARK INTRA:                  -1.216
REMARK UNBOUND:                -1.072
REMARK SMILES CC(=O)CCC=C(C)CCC=C(C)C
REMARK SMILES IDX 7 1 6 2 8 3 9 4 10 5 11 6 13 7 12 8 14 9 5 10 4 11 2 12 3 13
REMARK SMILES IDX 1 14
REMARK H PARENT
REMARK Flexibility Score: inf
ROOT
ATOM      1  C   UNL     1      26.970  44.173 143.383  1.00  0.00    -0.077 C 
ATOM      2  C   UNL     1      25.784  43.608 143.707  1.00  0.00    -0.028 C 
ATOM      3  C   UNL     1      27.196  44.843 142.048  1.00  0.00     0.039 C 
ENDROOT
BRANCH   1   4
ATOM      4  C   UNL     1      28.098  44.138 144.391  1.00  0.00     0.034 C 
BRANCH   4   5
ATOM      5  C   UNL     1      28.827  42.791 144.347  1.00  0.00     0.032 C 
BRANCH   5   6
ATOM      6  C   UNL     1      30.091  42.892 143.530  1.00  0.00    -0.028 C 
ATOM      7  C   UNL     1      29.163  41.545 141.633  1.00  0.00     0.039 C 
ATOM      8  C   UNL     1      30.248  42.359 142.298  1.00  0.00    -0.080 C 
ATOM      9  C   UNL     1      31.558  42.575 141.584  1.00  0.00     0.039 C 
ENDBRANCH   5   6
ENDBRANCH   4   5
ENDBRANCH   1   4
BRANCH   2  10
ATOM     10  C   UNL     1      24.591  43.537 142.787  1.00  0.00     0.035 C 
BRANCH  10  11
ATOM     11  C   UNL     1      24.136  42.086 142.600  1.00  0.00     0.079 C 
BRANCH  11  12
ATOM     12  C   UNL     1      25.247  41.248 142.031  1.00  0.00     0.130 C 
ATOM     13  O   UNL     1      25.659  41.470 140.902  1.00  0.00    -0.300 OA
ATOM     14  C   UNL     1      25.871  40.157 142.848  1.00  0.00     0.087 C 
ENDBRANCH  11  12
ENDBRANCH  10  11
ENDBRANCH   2  10
TORSDOF 6
ENDMDL
MODEL 9
REMARK VINA RESULT:    -4.123     12.092     13.209
REMARK INTER + INTRA:          -6.641
REMARK INTER:                  -5.335
REMARK INTRA:                  -1.306
REMARK UNBOUND:                -1.072
REMARK SMILES CC(=O)CCC=C(C)CCC=C(C)C
REMARK SMILES IDX 7 1 6 2 8 3 9 4 10 5 11 6 13 7 12 8 14 9 5 10 4 11 2 12 3 13
REMARK SMILES IDX 1 14
REMARK H PARENT
REMARK Flexibility Score: inf
ROOT
ATOM      1  C   UNL     1      27.289  30.335 141.038  1.00  0.00    -0.077 C 
ATOM      2  C   UNL     1      26.497  29.641 140.189  1.00  0.00    -0.028 C 
ATOM      3  C   UNL     1      26.718  31.288 142.061  1.00  0.00     0.039 C 
ENDROOT
BRANCH   1   4
ATOM      4  C   UNL     1      28.788  30.143 140.963  1.00  0.00     0.034 C 
BRANCH   4   5
ATOM      5  C   UNL     1      29.249  30.008 139.507  1.00  0.00     0.032 C 
BRANCH   5   6
ATOM      6  C   UNL     1      29.282  31.355 138.829  1.00  0.00    -0.028 C 
ATOM      7  C   UNL     1      27.950  30.572 136.857  1.00  0.00     0.039 C 
ATOM      8  C   UNL     1      28.681  31.630 137.649  1.00  0.00    -0.080 C 
ATOM      9  C   UNL     1      28.767  33.034 137.110  1.00  0.00     0.039 C 
ENDBRANCH   5   6
ENDBRANCH   4   5
ENDBRANCH   1   4
BRANCH   2  10
ATOM     10  C   UNL     1      24.995  29.764 140.128  1.00  0.00     0.035 C 
BRANCH  10  11
ATOM     11  C   UNL     1      24.521  29.906 138.678  1.00  0.00     0.079 C 
BRANCH  11  12
ATOM     12  C   UNL     1      24.070  31.314 138.401  1.00  0.00     0.130 C 
ATOM     13  O   UNL     1      22.879  31.557 138.273  1.00  0.00    -0.300 OA
ATOM     14  C   UNL     1      25.070  32.426 138.304  1.00  0.00     0.087 C 
ENDBRANCH  11  12
ENDBRANCH  10  11
ENDBRANCH   2  10
TORSDOF 6
ENDMDL
