MODEL 1
REMARK VINA RESULT:    11.067      0.000      0.000
REMARK INTER + INTRA:          14.476
REMARK INTER:                  13.331
REMARK INTRA:                   1.145
REMARK UNBOUND:                 1.145
REMARK SMILES O=c1ccn([C@H]2O[C@@H](CO)[C@H](O)[C@H]2O)c(=O)[nH]1
REMARK SMILES IDX 6 1 13 2 11 3 8 4 7 5 5 6 3 7 4 8 2 9 17 10 1 11 15 12 16 14
REMARK SMILES IDX 14 15 12 17 9 19 10 20
REMARK H PARENT 17 13 14 16 12 18 10 21
REMARK Flexibility Score: inf
ROOT
ATOM      1  C   UNL     1      28.242 -37.994  49.300  1.00  0.00     0.255 C 
ATOM      2  C   UNL     1      28.883 -37.437  48.030  1.00  0.00     0.196 C 
ATOM      3  C   UNL     1      27.679 -37.026  47.204  1.00  0.00     0.179 C 
ATOM      4  C   UNL     1      26.536 -36.935  48.233  1.00  0.00     0.178 C 
ATOM      5  O   UNL     1      27.018 -37.326  49.503  1.00  0.00    -0.347 OA
ENDROOT
BRANCH   1   6
ATOM      6  N   UNL     1      29.134 -37.861  50.474  1.00  0.00    -0.271 N 
ATOM      7  C   UNL     1      31.332 -37.604  51.406  1.00  0.00     0.090 A 
ATOM      8  C   UNL     1      30.484 -37.705  50.306  1.00  0.00     0.099 A 
ATOM      9  C   UNL     1      30.780 -37.675  52.681  1.00  0.00     0.253 A 
ATOM     10  N   UNL     1      29.440 -37.846  52.828  1.00  0.00    -0.274 N 
ATOM     11  O   UNL     1      31.522 -37.585  53.695  1.00  0.00    -0.269 OA
ATOM     12  C   UNL     1      28.620 -37.945  51.745  1.00  0.00     0.330 A 
ATOM     13  H   UNL     1      29.034 -37.906  53.790  1.00  0.00     0.175 HD
ATOM     14  O   UNL     1      27.383 -38.120  51.927  1.00  0.00    -0.248 OA
ENDBRANCH   1   6
BRANCH   2  15
ATOM     15  O   UNL     1      29.726 -36.338  48.293  1.00  0.00    -0.386 OA
ATOM     16  H   UNL     1      30.193 -36.096  47.449  1.00  0.00     0.211 HD
ENDBRANCH   2  15
BRANCH   3  17
ATOM     17  O   UNL     1      27.393 -37.976  46.203  1.00  0.00    -0.387 OA
ATOM     18  H   UNL     1      27.894 -38.807  46.414  1.00  0.00     0.211 HD
ENDBRANCH   3  17
BRANCH   4  19
ATOM     19  C   UNL     1      25.966 -35.513  48.326  1.00  0.00     0.191 C 
BRANCH  19  20
ATOM     20  O   UNL     1      25.586 -35.222  49.643  1.00  0.00    -0.394 OA
ATOM     21  H   UNL     1      25.358 -36.088  50.072  1.00  0.00     0.210 HD
ENDBRANCH  19  20
ENDBRANCH   4  19
TORSDOF 5
ENDMDL
MODEL 2
REMARK VINA RESULT:    12.091      1.749      2.528
REMARK INTER + INTRA:          15.710
REMARK INTER:                  15.425
REMARK INTRA:                   0.284
REMARK UNBOUND:                 1.145
REMARK SMILES O=c1ccn([C@H]2O[C@@H](CO)[C@H](O)[C@H]2O)c(=O)[nH]1
REMARK SMILES IDX 6 1 13 2 11 3 8 4 7 5 5 6 3 7 4 8 2 9 17 10 1 11 15 12 16 14
REMARK SMILES IDX 14 15 12 17 9 19 10 20
REMARK H PARENT 17 13 14 16 12 18 10 21
REMARK Flexibility Score: inf
ROOT
ATOM      1  C   UNL     1      26.944 -36.372  49.633  1.00  0.00     0.255 C 
ATOM      2  C   UNL     1      26.371 -36.908  48.323  1.00  0.00     0.196 C 
ATOM      3  C   UNL     1      25.272 -35.910  48.008  1.00  0.00     0.179 C 
ATOM      4  C   UNL     1      25.628 -34.682  48.868  1.00  0.00     0.178 C 
ATOM      5  O   UNL     1      26.770 -34.973  49.649  1.00  0.00    -0.347 OA
ENDROOT
BRANCH   1   6
ATOM      6  N   UNL     1      28.366 -36.744  49.809  1.00  0.00    -0.271 N 
ATOM      7  C   UNL     1      30.658 -36.614  49.108  1.00  0.00     0.090 A 
ATOM      8  C   UNL     1      29.322 -36.250  48.963  1.00  0.00     0.099 A 
ATOM      9  C   UNL     1      31.000 -37.501  50.124  1.00  0.00     0.253 A 
ATOM     10  N   UNL     1      30.036 -37.993  50.944  1.00  0.00    -0.274 N 
ATOM     11  O   UNL     1      32.202 -37.848  50.280  1.00  0.00    -0.269 OA
ATOM     12  C   UNL     1      28.731 -37.631  50.792  1.00  0.00     0.330 A 
ATOM     13  H   UNL     1      30.299 -38.665  51.700  1.00  0.00     0.175 HD
ATOM     14  O   UNL     1      27.864 -38.125  51.565  1.00  0.00    -0.248 OA
ENDBRANCH   1   6
BRANCH   2  15
ATOM     15  O   UNL     1      27.335 -36.952  47.295  1.00  0.00    -0.386 OA
ATOM     16  H   UNL     1      27.255 -36.119  46.759  1.00  0.00     0.211 HD
ENDBRANCH   2  15
BRANCH   3  17
ATOM     17  O   UNL     1      24.003 -36.421  48.345  1.00  0.00    -0.387 OA
ATOM     18  H   UNL     1      23.421 -35.658  48.604  1.00  0.00     0.211 HD
ENDBRANCH   3  17
BRANCH   4  19
ATOM     19  C   UNL     1      25.911 -33.446  48.003  1.00  0.00     0.191 C 
BRANCH  19  20
ATOM     20  O   UNL     1      27.125 -32.853  48.377  1.00  0.00    -0.394 OA
ATOM     21  H   UNL     1      27.611 -33.521  48.926  1.00  0.00     0.210 HD
ENDBRANCH  19  20
ENDBRANCH   4  19
TORSDOF 5
ENDMDL
