MODEL 1
REMARK VINA RESULT:    -8.363      0.000      0.000
REMARK INTER + INTRA:          -8.607
REMARK INTER:                  -8.607
REMARK INTRA:                   0.000
REMARK UNBOUND:                 0.000
REMARK SMILES CC1(C)CC[C@]2(C)CC[C@@]3(C)C(=CC[C@H]4[C@@]5(C)CC[C@H](O)C(C)(C)[C@@H]5CC[C@@]43C)[C@H]2C1
REMARK SMILES IDX 1 1 2 2 4 3 5 4 6 5 8 6 9 7 10 8 12 9 13 10 14 11 15 12
REMARK SMILES IDX 28 13 27 14 26 15 25 16 16 17 18 18 19 19 20 20 22 21 23 22
REMARK SMILES IDX 24 23 17 24 29 25 30 26 31 27 11 28 7 29 3 30 21 31
REMARK H PARENT 21 32
REMARK Flexibility Score: inf
ROOT
ATOM      1  C   UNL     1     180.926 172.867 176.125  1.00  0.00     0.011 C 
ATOM      2  C   UNL     1     182.421 172.532 176.365  1.00  0.00    -0.035 C 
ATOM      3  C   UNL     1     182.571 171.070 176.864  1.00  0.00     0.007 C 
ATOM      4  C   UNL     1     182.126 170.879 178.326  1.00  0.00     0.008 C 
ATOM      5  C   UNL     1     182.823 171.850 179.325  1.00  0.00    -0.026 C 
ATOM      6  C   UNL     1     182.186 171.648 180.752  1.00  0.00     0.008 C 
ATOM      7  C   UNL     1     181.740 172.942 181.484  1.00  0.00     0.012 C 
ATOM      8  C   UNL     1     182.735 174.145 181.340  1.00  0.00    -0.006 C 
ATOM      9  C   UNL     1     183.142 174.319 179.873  1.00  0.00    -0.064 C 
ATOM     10  C   UNL     1     183.798 175.446 179.507  1.00  0.00    -0.027 C 
ATOM     11  C   UNL     1     183.822 176.718 180.334  1.00  0.00     0.032 C 
ATOM     12  C   UNL     1     183.184 176.644 181.763  1.00  0.00     0.006 C 
ATOM     13  C   UNL     1     182.074 175.530 181.825  1.00  0.00    -0.020 C 
ATOM     14  C   UNL     1     181.550 175.417 183.293  1.00  0.00     0.008 C 
ATOM     15  C   UNL     1     181.235 176.752 184.006  1.00  0.00     0.005 C 
ATOM     16  C   UNL     1     181.441 178.038 183.161  1.00  0.00     0.003 C 
ATOM     17  C   UNL     1     182.838 178.063 182.458  1.00  0.00    -0.025 C 
ATOM     18  C   UNL     1     182.756 179.213 181.425  1.00  0.00     0.010 C 
ATOM     19  C   UNL     1     182.524 180.601 182.024  1.00  0.00     0.033 C 
ATOM     20  C   UNL     1     181.629 180.714 183.289  1.00  0.00     0.120 C 
ATOM     21  C   UNL     1     180.997 179.378 183.901  1.00  0.00    -0.006 C 
ATOM     22  C   UNL     1     179.447 179.501 183.775  1.00  0.00     0.014 C 
ATOM     23  C   UNL     1     181.274 179.301 185.442  1.00  0.00     0.014 C 
ATOM     24  C   UNL     1     183.974 178.378 183.476  1.00  0.00     0.012 C 
ATOM     25  C   UNL     1     180.865 175.912 180.887  1.00  0.00     0.012 C 
ATOM     26  C   UNL     1     182.608 173.313 178.841  1.00  0.00     0.022 C 
ATOM     27  C   UNL     1     183.062 173.531 177.374  1.00  0.00     0.015 C 
ATOM     28  C   UNL     1     184.037 173.766 182.136  1.00  0.00     0.017 C 
ATOM     29  C   UNL     1     184.339 171.505 179.387  1.00  0.00     0.012 C 
ATOM     30  C   UNL     1     183.158 172.670 175.013  1.00  0.00     0.011 C 
ENDROOT
BRANCH  20  31
ATOM     31  O   UNL     1     182.359 181.414 184.277  1.00  0.00    -0.393 OA
ATOM     32  H   UNL     1     182.903 180.750 184.782  1.00  0.00     0.210 HD
ENDBRANCH  20  31
TORSDOF 1
ENDMDL
MODEL 2
REMARK VINA RESULT:    -8.326      2.572      4.689
REMARK INTER + INTRA:          -8.570
REMARK INTER:                  -8.570
REMARK INTRA:                   0.000
REMARK UNBOUND:                 0.000
REMARK SMILES CC1(C)CC[C@]2(C)CC[C@@]3(C)C(=CC[C@H]4[C@@]5(C)CC[C@H](O)C(C)(C)[C@@H]5CC[C@@]43C)[C@H]2C1
REMARK SMILES IDX 1 1 2 2 4 3 5 4 6 5 8 6 9 7 10 8 12 9 13 10 14 11 15 12
REMARK SMILES IDX 28 13 27 14 26 15 25 16 16 17 18 18 19 19 20 20 22 21 23 22
REMARK SMILES IDX 24 23 17 24 29 25 30 26 31 27 11 28 7 29 3 30 21 31
REMARK H PARENT 21 32
REMARK Flexibility Score: inf
ROOT
ATOM      1  C   UNL     1     180.890 175.059 178.569  1.00  0.00     0.011 C 
ATOM      2  C   UNL     1     182.354 175.075 179.081  1.00  0.00    -0.035 C 
ATOM      3  C   UNL     1     182.562 173.973 180.153  1.00  0.00     0.007 C 
ATOM      4  C   UNL     1     181.915 174.315 181.508  1.00  0.00     0.008 C 
ATOM      5  C   UNL     1     182.353 175.696 182.081  1.00  0.00    -0.026 C 
ATOM      6  C   UNL     1     181.522 175.984 183.389  1.00  0.00     0.008 C 
ATOM      7  C   UNL     1     180.848 177.380 183.468  1.00  0.00     0.012 C 
ATOM      8  C   UNL     1     181.734 178.562 182.943  1.00  0.00    -0.006 C 
ATOM      9  C   UNL     1     182.347 178.196 181.586  1.00  0.00    -0.064 C 
ATOM     10  C   UNL     1     182.943 179.170 180.856  1.00  0.00    -0.027 C 
ATOM     11  C   UNL     1     182.717 180.653 181.079  1.00  0.00     0.032 C 
ATOM     12  C   UNL     1     181.874 181.059 182.336  1.00  0.00     0.006 C 
ATOM     13  C   UNL     1     180.878 179.908 182.738  1.00  0.00    -0.020 C 
ATOM     14  C   UNL     1     180.145 180.312 184.059  1.00  0.00     0.008 C 
ATOM     15  C   UNL     1     179.598 181.756 184.117  1.00  0.00     0.005 C 
ATOM     16  C   UNL     1     179.810 182.615 182.841  1.00  0.00     0.003 C 
ATOM     17  C   UNL     1     181.291 182.568 182.341  1.00  0.00    -0.025 C 
ATOM     18  C   UNL     1     181.263 183.185 180.921  1.00  0.00     0.010 C 
ATOM     19  C   UNL     1     180.809 184.645 180.863  1.00  0.00     0.033 C 
ATOM     20  C   UNL     1     179.722 185.116 181.868  1.00  0.00     0.120 C 
ATOM     21  C   UNL     1     179.132 184.056 182.910  1.00  0.00    -0.006 C 
ATOM     22  C   UNL     1     177.616 183.884 182.585  1.00  0.00     0.014 C 
ATOM     23  C   UNL     1     179.171 184.640 184.363  1.00  0.00     0.014 C 
ATOM     24  C   UNL     1     182.220 183.428 183.247  1.00  0.00     0.012 C 
ATOM     25  C   UNL     1     179.800 179.699 181.608  1.00  0.00     0.012 C 
ATOM     26  C   UNL     1     182.078 176.795 181.015  1.00  0.00     0.022 C 
ATOM     27  C   UNL     1     182.733 176.477 179.645  1.00  0.00     0.015 C 
ATOM     28  C   UNL     1     182.926 178.730 183.954  1.00  0.00     0.017 C 
ATOM     29  C   UNL     1     183.866 175.636 182.437  1.00  0.00     0.012 C 
ATOM     30  C   UNL     1     183.276 174.773 177.877  1.00  0.00     0.011 C 
ENDROOT
BRANCH  20  31
ATOM     31  O   UNL     1     180.219 186.253 182.546  1.00  0.00    -0.393 OA
ATOM     32  H   UNL     1     180.319 186.013 183.509  1.00  0.00     0.210 HD
ENDBRANCH  20  31
TORSDOF 1
ENDMDL
MODEL 3
REMARK VINA RESULT:    -8.205      1.627      3.169
REMARK INTER + INTRA:          -8.445
REMARK INTER:                  -8.445
REMARK INTRA:                   0.000
REMARK UNBOUND:                 0.000
REMARK SMILES CC1(C)CC[C@]2(C)CC[C@@]3(C)C(=CC[C@H]4[C@@]5(C)CC[C@H](O)C(C)(C)[C@@H]5CC[C@@]43C)[C@H]2C1
REMARK SMILES IDX 1 1 2 2 4 3 5 4 6 5 8 6 9 7 10 8 12 9 13 10 14 11 15 12
REMARK SMILES IDX 28 13 27 14 26 15 25 16 16 17 18 18 19 19 20 20 22 21 23 22
REMARK SMILES IDX 24 23 17 24 29 25 30 26 31 27 11 28 7 29 3 30 21 31
REMARK H PARENT 21 32
REMARK Flexibility Score: inf
ROOT
ATOM      1  C   UNL     1     181.254 171.848 180.764  1.00  0.00     0.011 C 
ATOM      2  C   UNL     1     181.839 172.450 179.460  1.00  0.00    -0.035 C 
ATOM      3  C   UNL     1     183.294 171.954 179.244  1.00  0.00     0.007 C 
ATOM      4  C   UNL     1     184.309 172.615 180.195  1.00  0.00     0.008 C 
ATOM      5  C   UNL     1     184.273 174.173 180.165  1.00  0.00    -0.026 C 
ATOM      6  C   UNL     1     185.252 174.721 181.273  1.00  0.00     0.008 C 
ATOM      7  C   UNL     1     184.665 175.803 182.218  1.00  0.00     0.012 C 
ATOM      8  C   UNL     1     183.767 176.872 181.505  1.00  0.00    -0.006 C 
ATOM      9  C   UNL     1     182.759 176.180 180.581  1.00  0.00    -0.064 C 
ATOM     10  C   UNL     1     181.740 176.909 180.065  1.00  0.00    -0.027 C 
ATOM     11  C   UNL     1     181.286 178.244 180.626  1.00  0.00     0.032 C 
ATOM     12  C   UNL     1     182.166 178.872 181.759  1.00  0.00     0.006 C 
ATOM     13  C   UNL     1     182.931 177.752 182.560  1.00  0.00    -0.020 C 
ATOM     14  C   UNL     1     183.879 178.432 183.599  1.00  0.00     0.008 C 
ATOM     15  C   UNL     1     183.265 179.583 184.428  1.00  0.00     0.005 C 
ATOM     16  C   UNL     1     181.770 179.895 184.153  1.00  0.00     0.003 C 
ATOM     17  C   UNL     1     181.473 180.049 182.625  1.00  0.00    -0.025 C 
ATOM     18  C   UNL     1     179.930 180.029 182.504  1.00  0.00     0.010 C 
ATOM     19  C   UNL     1     179.213 181.173 183.223  1.00  0.00     0.033 C 
ATOM     20  C   UNL     1     179.817 181.693 184.556  1.00  0.00     0.120 C 
ATOM     21  C   UNL     1     181.154 181.012 185.109  1.00  0.00    -0.006 C 
ATOM     22  C   UNL     1     180.798 180.333 186.467  1.00  0.00     0.014 C 
ATOM     23  C   UNL     1     182.215 182.108 185.469  1.00  0.00     0.014 C 
ATOM     24  C   UNL     1     182.005 181.408 182.082  1.00  0.00     0.012 C 
ATOM     25  C   UNL     1     181.905 176.840 183.335  1.00  0.00     0.012 C 
ATOM     26  C   UNL     1     182.819 174.650 180.446  1.00  0.00     0.022 C 
ATOM     27  C   UNL     1     181.782 174.006 179.489  1.00  0.00     0.015 C 
ATOM     28  C   UNL     1     184.713 177.733 180.589  1.00  0.00     0.017 C 
ATOM     29  C   UNL     1     184.756 174.660 178.769  1.00  0.00     0.012 C 
ATOM     30  C   UNL     1     180.970 171.955 178.281  1.00  0.00     0.011 C 
ENDROOT
BRANCH  20  31
ATOM     31  O   UNL     1     179.986 183.093 184.439  1.00  0.00    -0.393 OA
ATOM     32  H   UNL     1     180.864 183.258 183.996  1.00  0.00     0.210 HD
ENDBRANCH  20  31
TORSDOF 1
ENDMDL
MODEL 4
REMARK VINA RESULT:    -8.069      1.866      2.689
REMARK INTER + INTRA:          -8.305
REMARK INTER:                  -8.305
REMARK INTRA:                   0.000
REMARK UNBOUND:                 0.000
REMARK SMILES CC1(C)CC[C@]2(C)CC[C@@]3(C)C(=CC[C@H]4[C@@]5(C)CC[C@H](O)C(C)(C)[C@@H]5CC[C@@]43C)[C@H]2C1
REMARK SMILES IDX 1 1 2 2 4 3 5 4 6 5 8 6 9 7 10 8 12 9 13 10 14 11 15 12
REMARK SMILES IDX 28 13 27 14 26 15 25 16 16 17 18 18 19 19 20 20 22 21 23 22
REMARK SMILES IDX 24 23 17 24 29 25 30 26 31 27 11 28 7 29 3 30 21 31
REMARK H PARENT 21 32
REMARK Flexibility Score: inf
ROOT
ATOM      1  C   UNL     1     180.353 176.500 176.618  1.00  0.00     0.011 C 
ATOM      2  C   UNL     1     181.754 175.854 176.769  1.00  0.00    -0.035 C 
ATOM      3  C   UNL     1     181.622 174.320 176.964  1.00  0.00     0.007 C 
ATOM      4  C   UNL     1     181.113 173.927 178.363  1.00  0.00     0.008 C 
ATOM      5  C   UNL     1     181.950 174.536 179.528  1.00  0.00    -0.026 C 
ATOM      6  C   UNL     1     181.250 174.174 180.893  1.00  0.00     0.008 C 
ATOM      7  C   UNL     1     181.030 175.357 181.874  1.00  0.00     0.012 C 
ATOM      8  C   UNL     1     182.231 176.361 181.962  1.00  0.00    -0.006 C 
ATOM      9  C   UNL     1     182.700 176.744 180.555  1.00  0.00    -0.064 C 
ATOM     10  C   UNL     1     183.561 177.782 180.414  1.00  0.00    -0.027 C 
ATOM     11  C   UNL     1     183.795 178.837 181.478  1.00  0.00     0.032 C 
ATOM     12  C   UNL     1     183.119 178.600 182.871  1.00  0.00     0.006 C 
ATOM     13  C   UNL     1     181.822 177.719 182.722  1.00  0.00    -0.020 C 
ATOM     14  C   UNL     1     181.250 177.415 184.144  1.00  0.00     0.008 C 
ATOM     15  C   UNL     1     181.166 178.617 185.113  1.00  0.00     0.005 C 
ATOM     16  C   UNL     1     181.624 179.985 184.540  1.00  0.00     0.003 C 
ATOM     17  C   UNL     1     183.020 179.891 183.840  1.00  0.00    -0.025 C 
ATOM     18  C   UNL     1     183.176 181.218 183.059  1.00  0.00     0.010 C 
ATOM     19  C   UNL     1     183.186 182.479 183.926  1.00  0.00     0.033 C 
ATOM     20  C   UNL     1     182.295 182.500 185.198  1.00  0.00     0.120 C 
ATOM     21  C   UNL     1     181.415 181.209 185.539  1.00  0.00    -0.006 C 
ATOM     22  C   UNL     1     179.917 181.637 185.458  1.00  0.00     0.014 C 
ATOM     23  C   UNL     1     181.633 180.778 187.029  1.00  0.00     0.014 C 
ATOM     24  C   UNL     1     184.169 179.783 184.886  1.00  0.00     0.012 C 
ATOM     25  C   UNL     1     180.728 178.495 181.894  1.00  0.00     0.012 C 
ATOM     26  C   UNL     1     182.018 176.079 179.349  1.00  0.00     0.022 C 
ATOM     27  C   UNL     1     182.542 176.497 177.949  1.00  0.00     0.015 C 
ATOM     28  C   UNL     1     183.421 175.598 182.651  1.00  0.00     0.017 C 
ATOM     29  C   UNL     1     183.375 173.912 179.502  1.00  0.00     0.012 C 
ATOM     30  C   UNL     1     182.538 176.120 175.463  1.00  0.00     0.011 C 
ENDROOT
BRANCH  20  31
ATOM     31  O   UNL     1     183.115 182.844 186.298  1.00  0.00    -0.393 OA
ATOM     32  H   UNL     1     183.986 182.372 186.187  1.00  0.00     0.210 HD
ENDBRANCH  20  31
TORSDOF 1
ENDMDL
MODEL 5
REMARK VINA RESULT:    -7.927      6.081      9.328
REMARK INTER + INTRA:          -8.158
REMARK INTER:                  -8.158
REMARK INTRA:                   0.000
REMARK UNBOUND:                 0.000
REMARK SMILES CC1(C)CC[C@]2(C)CC[C@@]3(C)C(=CC[C@H]4[C@@]5(C)CC[C@H](O)C(C)(C)[C@@H]5CC[C@@]43C)[C@H]2C1
REMARK SMILES IDX 1 1 2 2 4 3 5 4 6 5 8 6 9 7 10 8 12 9 13 10 14 11 15 12
REMARK SMILES IDX 28 13 27 14 26 15 25 16 16 17 18 18 19 19 20 20 22 21 23 22
REMARK SMILES IDX 24 23 17 24 29 25 30 26 31 27 11 28 7 29 3 30 21 31
REMARK H PARENT 21 32
REMARK Flexibility Score: inf
ROOT
ATOM      1  C   UNL     1     180.706 182.060 181.900  1.00  0.00     0.011 C 
ATOM      2  C   UNL     1     180.713 180.553 182.267  1.00  0.00    -0.035 C 
ATOM      3  C   UNL     1     179.395 180.170 182.992  1.00  0.00     0.007 C 
ATOM      4  C   UNL     1     179.326 180.687 184.440  1.00  0.00     0.008 C 
ATOM      5  C   UNL     1     180.548 180.270 185.313  1.00  0.00    -0.026 C 
ATOM      6  C   UNL     1     180.424 180.972 186.720  1.00  0.00     0.008 C 
ATOM      7  C   UNL     1     181.693 181.712 187.220  1.00  0.00     0.012 C 
ATOM      8  C   UNL     1     183.038 180.956 186.945  1.00  0.00    -0.006 C 
ATOM      9  C   UNL     1     183.082 180.472 185.492  1.00  0.00    -0.064 C 
ATOM     10  C   UNL     1     184.255 180.013 184.992  1.00  0.00    -0.027 C 
ATOM     11  C   UNL     1     185.609 180.299 185.614  1.00  0.00     0.032 C 
ATOM     12  C   UNL     1     185.611 181.025 187.002  1.00  0.00     0.006 C 
ATOM     13  C   UNL     1     184.317 181.905 187.176  1.00  0.00    -0.020 C 
ATOM     14  C   UNL     1     184.309 182.515 188.615  1.00  0.00     0.008 C 
ATOM     15  C   UNL     1     185.641 183.134 189.097  1.00  0.00     0.005 C 
ATOM     16  C   UNL     1     186.810 183.108 188.077  1.00  0.00     0.003 C 
ATOM     17  C   UNL     1     187.015 181.689 187.453  1.00  0.00    -0.025 C 
ATOM     18  C   UNL     1     187.969 181.903 186.252  1.00  0.00     0.010 C 
ATOM     19  C   UNL     1     189.353 182.443 186.618  1.00  0.00     0.033 C 
ATOM     20  C   UNL     1     189.460 183.442 187.802  1.00  0.00     0.120 C 
ATOM     21  C   UNL     1     188.125 183.857 188.579  1.00  0.00    -0.006 C 
ATOM     22  C   UNL     1     187.917 185.386 188.355  1.00  0.00     0.014 C 
ATOM     23  C   UNL     1     188.322 183.696 190.125  1.00  0.00     0.014 C 
ATOM     24  C   UNL     1     187.690 180.719 188.467  1.00  0.00     0.012 C 
ATOM     25  C   UNL     1     184.314 183.084 186.130  1.00  0.00     0.012 C 
ATOM     26  C   UNL     1     181.855 180.719 184.600  1.00  0.00     0.022 C 
ATOM     27  C   UNL     1     181.951 180.197 183.142  1.00  0.00     0.015 C 
ATOM     28  C   UNL     1     183.042 179.675 187.857  1.00  0.00     0.017 C 
ATOM     29  C   UNL     1     180.524 178.727 185.507  1.00  0.00     0.012 C 
ATOM     30  C   UNL     1     180.804 179.748 180.950  1.00  0.00     0.011 C 
ENDROOT
BRANCH  20  31
ATOM     31  O   UNL     1     190.425 182.941 188.708  1.00  0.00    -0.393 OA
ATOM     32  H   UNL     1     191.200 183.567 188.704  1.00  0.00     0.210 HD
ENDBRANCH  20  31
TORSDOF 1
ENDMDL
MODEL 6
REMARK VINA RESULT:    -7.842      2.573      8.223
REMARK INTER + INTRA:          -8.071
REMARK INTER:                  -8.071
REMARK INTRA:                   0.000
REMARK UNBOUND:                 0.000
REMARK SMILES CC1(C)CC[C@]2(C)CC[C@@]3(C)C(=CC[C@H]4[C@@]5(C)CC[C@H](O)C(C)(C)[C@@H]5CC[C@@]43C)[C@H]2C1
REMARK SMILES IDX 1 1 2 2 4 3 5 4 6 5 8 6 9 7 10 8 12 9 13 10 14 11 15 12
REMARK SMILES IDX 28 13 27 14 26 15 25 16 16 17 18 18 19 19 20 20 22 21 23 22
REMARK SMILES IDX 24 23 17 24 29 25 30 26 31 27 11 28 7 29 3 30 21 31
REMARK H PARENT 21 32
REMARK Flexibility Score: inf
ROOT
ATOM      1  C   UNL     1     179.159 180.440 183.700  1.00  0.00     0.011 C 
ATOM      2  C   UNL     1     180.159 179.981 184.793  1.00  0.00    -0.035 C 
ATOM      3  C   UNL     1     181.229 181.078 185.038  1.00  0.00     0.007 C 
ATOM      4  C   UNL     1     182.266 181.180 183.904  1.00  0.00     0.008 C 
ATOM      5  C   UNL     1     182.965 179.828 183.571  1.00  0.00    -0.026 C 
ATOM      6  C   UNL     1     183.893 180.037 182.314  1.00  0.00     0.008 C 
ATOM      7  C   UNL     1     183.734 178.993 181.176  1.00  0.00     0.012 C 
ATOM      8  C   UNL     1     183.566 177.515 181.667  1.00  0.00    -0.006 C 
ATOM      9  C   UNL     1     182.515 177.447 182.781  1.00  0.00    -0.064 C 
ATOM     10  C   UNL     1     182.051 176.234 183.167  1.00  0.00    -0.027 C 
ATOM     11  C   UNL     1     182.188 174.972 182.336  1.00  0.00     0.032 C 
ATOM     12  C   UNL     1     183.063 175.069 181.041  1.00  0.00     0.006 C 
ATOM     13  C   UNL     1     183.077 176.541 180.483  1.00  0.00    -0.020 C 
ATOM     14  C   UNL     1     184.051 176.611 179.263  1.00  0.00     0.008 C 
ATOM     15  C   UNL     1     183.918 175.475 178.223  1.00  0.00     0.005 C 
ATOM     16  C   UNL     1     182.807 174.427 178.500  1.00  0.00     0.003 C 
ATOM     17  C   UNL     1     182.868 173.879 179.963  1.00  0.00    -0.025 C 
ATOM     18  C   UNL     1     181.536 173.118 180.170  1.00  0.00     0.010 C 
ATOM     19  C   UNL     1     181.328 171.919 179.244  1.00  0.00     0.033 C 
ATOM     20  C   UNL     1     181.881 172.007 177.795  1.00  0.00     0.120 C 
ATOM     21  C   UNL     1     182.637 173.342 177.344  1.00  0.00    -0.006 C 
ATOM     22  C   UNL     1     181.792 173.989 176.205  1.00  0.00     0.014 C 
ATOM     23  C   UNL     1     184.012 172.991 176.679  1.00  0.00     0.014 C 
ATOM     24  C   UNL     1     184.052 172.883 180.143  1.00  0.00     0.012 C 
ATOM     25  C   UNL     1     181.635 176.956 180.001  1.00  0.00     0.012 C 
ATOM     26  C   UNL     1     181.877 178.758 183.267  1.00  0.00     0.022 C 
ATOM     27  C   UNL     1     180.830 178.629 184.404  1.00  0.00     0.015 C 
ATOM     28  C   UNL     1     184.937 177.081 182.302  1.00  0.00     0.017 C 
ATOM     29  C   UNL     1     183.838 179.400 184.786  1.00  0.00     0.012 C 
ATOM     30  C   UNL     1     179.363 179.767 186.100  1.00  0.00     0.011 C 
ENDROOT
BRANCH  20  31
ATOM     31  O   UNL     1     182.699 170.875 177.572  1.00  0.00    -0.393 OA
ATOM     32  H   UNL     1     182.178 170.226 177.023  1.00  0.00     0.210 HD
ENDBRANCH  20  31
TORSDOF 1
ENDMDL
MODEL 7
REMARK VINA RESULT:    -7.799      6.279      9.908
REMARK INTER + INTRA:          -8.027
REMARK INTER:                  -8.027
REMARK INTRA:                   0.000
REMARK UNBOUND:                 0.000
REMARK SMILES CC1(C)CC[C@]2(C)CC[C@@]3(C)C(=CC[C@H]4[C@@]5(C)CC[C@H](O)C(C)(C)[C@@H]5CC[C@@]43C)[C@H]2C1
REMARK SMILES IDX 1 1 2 2 4 3 5 4 6 5 8 6 9 7 10 8 12 9 13 10 14 11 15 12
REMARK SMILES IDX 28 13 27 14 26 15 25 16 16 17 18 18 19 19 20 20 22 21 23 22
REMARK SMILES IDX 24 23 17 24 29 25 30 26 31 27 11 28 7 29 3 30 21 31
REMARK H PARENT 21 32
REMARK Flexibility Score: inf
ROOT
ATOM      1  C   UNL     1     183.672 179.231 184.861  1.00  0.00     0.011 C 
ATOM      2  C   UNL     1     182.296 179.609 185.466  1.00  0.00    -0.035 C 
ATOM      3  C   UNL     1     181.205 178.614 184.988  1.00  0.00     0.007 C 
ATOM      4  C   UNL     1     180.795 178.821 183.519  1.00  0.00     0.008 C 
ATOM      5  C   UNL     1     180.358 180.280 183.190  1.00  0.00    -0.026 C 
ATOM      6  C   UNL     1     180.099 180.391 181.639  1.00  0.00     0.008 C 
ATOM      7  C   UNL     1     180.784 181.586 180.923  1.00  0.00     0.012 C 
ATOM      8  C   UNL     1     180.746 182.933 181.724  1.00  0.00    -0.006 C 
ATOM      9  C   UNL     1     181.176 182.694 183.175  1.00  0.00    -0.064 C 
ATOM     10  C   UNL     1     181.442 183.765 183.961  1.00  0.00    -0.027 C 
ATOM     11  C   UNL     1     181.730 185.156 183.427  1.00  0.00     0.032 C 
ATOM     12  C   UNL     1     181.538 185.376 181.888  1.00  0.00     0.006 C 
ATOM     13  C   UNL     1     181.743 184.029 181.099  1.00  0.00    -0.020 C 
ATOM     14  C   UNL     1     181.430 184.275 179.588  1.00  0.00     0.008 C 
ATOM     15  C   UNL     1     182.049 185.547 178.965  1.00  0.00     0.005 C 
ATOM     16  C   UNL     1     182.938 186.402 179.908  1.00  0.00     0.003 C 
ATOM     17  C   UNL     1     182.231 186.701 181.270  1.00  0.00    -0.025 C 
ATOM     18  C   UNL     1     183.341 187.261 182.193  1.00  0.00     0.010 C 
ATOM     19  C   UNL     1     183.977 188.568 181.715  1.00  0.00     0.033 C 
ATOM     20  C   UNL     1     184.142 188.786 180.186  1.00  0.00     0.120 C 
ATOM     21  C   UNL     1     183.641 187.640 179.190  1.00  0.00    -0.006 C 
ATOM     22  C   UNL     1     184.897 187.102 178.437  1.00  0.00     0.014 C 
ATOM     23  C   UNL     1     182.728 188.250 178.072  1.00  0.00     0.014 C 
ATOM     24  C   UNL     1     181.120 187.779 181.105  1.00  0.00     0.012 C 
ATOM     25  C   UNL     1     183.237 183.542 181.231  1.00  0.00     0.012 C 
ATOM     26  C   UNL     1     181.490 181.256 183.619  1.00  0.00     0.022 C 
ATOM     27  C   UNL     1     181.909 181.074 185.102  1.00  0.00     0.015 C 
ATOM     28  C   UNL     1     179.247 183.406 181.761  1.00  0.00     0.017 C 
ATOM     29  C   UNL     1     179.038 180.593 183.953  1.00  0.00     0.012 C 
ATOM     30  C   UNL     1     182.415 179.510 187.005  1.00  0.00     0.011 C 
ENDROOT
BRANCH  20  31
ATOM     31  O   UNL     1     183.543 190.024 179.856  1.00  0.00    -0.393 OA
ATOM     32  H   UNL     1     183.624 190.149 178.871  1.00  0.00     0.210 HD
ENDBRANCH  20  31
TORSDOF 1
ENDMDL
MODEL 8
REMARK VINA RESULT:    -7.799      5.502     10.610
REMARK INTER + INTRA:          -8.027
REMARK INTER:                  -8.027
REMARK INTRA:                   0.000
REMARK UNBOUND:                 0.000
REMARK SMILES CC1(C)CC[C@]2(C)CC[C@@]3(C)C(=CC[C@H]4[C@@]5(C)CC[C@H](O)C(C)(C)[C@@H]5CC[C@@]43C)[C@H]2C1
REMARK SMILES IDX 1 1 2 2 4 3 5 4 6 5 8 6 9 7 10 8 12 9 13 10 14 11 15 12
REMARK SMILES IDX 28 13 27 14 26 15 25 16 16 17 18 18 19 19 20 20 22 21 23 22
REMARK SMILES IDX 24 23 17 24 29 25 30 26 31 27 11 28 7 29 3 30 21 31
REMARK H PARENT 21 32
REMARK Flexibility Score: inf
ROOT
ATOM      1  C   UNL     1     189.703 182.841 186.114  1.00  0.00     0.011 C 
ATOM      2  C   UNL     1     189.072 183.772 187.182  1.00  0.00    -0.035 C 
ATOM      3  C   UNL     1     189.388 183.247 188.608  1.00  0.00     0.007 C 
ATOM      4  C   UNL     1     188.577 181.995 188.988  1.00  0.00     0.008 C 
ATOM      5  C   UNL     1     187.038 182.171 188.821  1.00  0.00    -0.026 C 
ATOM      6  C   UNL     1     186.339 180.788 189.107  1.00  0.00     0.008 C 
ATOM      7  C   UNL     1     185.310 180.317 188.045  1.00  0.00     0.012 C 
ATOM      8  C   UNL     1     184.384 181.453 187.489  1.00  0.00    -0.006 C 
ATOM      9  C   UNL     1     185.224 182.675 187.104  1.00  0.00    -0.064 C 
ATOM     10  C   UNL     1     184.644 183.664 186.381  1.00  0.00    -0.027 C 
ATOM     11  C   UNL     1     183.360 183.493 185.591  1.00  0.00     0.032 C 
ATOM     12  C   UNL     1     182.593 182.139 185.771  1.00  0.00     0.006 C 
ATOM     13  C   UNL     1     183.584 180.984 186.174  1.00  0.00    -0.020 C 
ATOM     14  C   UNL     1     182.760 179.685 186.454  1.00  0.00     0.008 C 
ATOM     15  C   UNL     1     181.670 179.336 185.414  1.00  0.00     0.005 C 
ATOM     16  C   UNL     1     181.555 180.297 184.201  1.00  0.00     0.003 C 
ATOM     17  C   UNL     1     181.486 181.796 184.643  1.00  0.00    -0.025 C 
ATOM     18  C   UNL     1     181.702 182.615 183.347  1.00  0.00     0.010 C 
ATOM     19  C   UNL     1     180.636 182.409 182.270  1.00  0.00     0.033 C 
ATOM     20  C   UNL     1     180.004 180.998 182.125  1.00  0.00     0.120 C 
ATOM     21  C   UNL     1     180.495 179.834 183.105  1.00  0.00    -0.006 C 
ATOM     22  C   UNL     1     181.173 178.742 182.220  1.00  0.00     0.014 C 
ATOM     23  C   UNL     1     179.266 179.118 183.761  1.00  0.00     0.014 C 
ATOM     24  C   UNL     1     180.088 182.145 185.234  1.00  0.00     0.012 C 
ATOM     25  C   UNL     1     184.593 180.696 184.998  1.00  0.00     0.012 C 
ATOM     26  C   UNL     1     186.738 182.636 187.367  1.00  0.00     0.022 C 
ATOM     27  C   UNL     1     187.535 183.906 186.968  1.00  0.00     0.015 C 
ATOM     28  C   UNL     1     183.440 181.897 188.666  1.00  0.00     0.017 C 
ATOM     29  C   UNL     1     186.537 183.222 189.853  1.00  0.00     0.012 C 
ATOM     30  C   UNL     1     189.707 185.172 187.019  1.00  0.00     0.011 C 
ENDROOT
BRANCH  20  31
ATOM     31  O   UNL     1     178.598 181.142 182.194  1.00  0.00    -0.393 OA
ATOM     32  H   UNL     1     178.302 181.632 181.378  1.00  0.00     0.210 HD
ENDBRANCH  20  31
TORSDOF 1
ENDMDL
MODEL 9
REMARK VINA RESULT:    -7.771      2.782      8.702
REMARK INTER + INTRA:          -7.998
REMARK INTER:                  -7.998
REMARK INTRA:                   0.000
REMARK UNBOUND:                 0.000
REMARK SMILES CC1(C)CC[C@]2(C)CC[C@@]3(C)C(=CC[C@H]4[C@@]5(C)CC[C@H](O)C(C)(C)[C@@H]5CC[C@@]43C)[C@H]2C1
REMARK SMILES IDX 1 1 2 2 4 3 5 4 6 5 8 6 9 7 10 8 12 9 13 10 14 11 15 12
REMARK SMILES IDX 28 13 27 14 26 15 25 16 16 17 18 18 19 19 20 20 22 21 23 22
REMARK SMILES IDX 24 23 17 24 29 25 30 26 31 27 11 28 7 29 3 30 21 31
REMARK H PARENT 21 32
REMARK Flexibility Score: inf
ROOT
ATOM      1  C   UNL     1     179.743 183.839 181.459  1.00  0.00     0.011 C 
ATOM      2  C   UNL     1     179.203 183.432 182.854  1.00  0.00    -0.035 C 
ATOM      3  C   UNL     1     179.878 184.283 183.963  1.00  0.00     0.007 C 
ATOM      4  C   UNL     1     181.339 183.881 184.233  1.00  0.00     0.008 C 
ATOM      5  C   UNL     1     181.524 182.365 184.547  1.00  0.00    -0.026 C 
ATOM      6  C   UNL     1     183.066 182.060 184.667  1.00  0.00     0.008 C 
ATOM      7  C   UNL     1     183.579 180.845 183.849  1.00  0.00     0.012 C 
ATOM      8  C   UNL     1     182.629 179.599 183.868  1.00  0.00    -0.006 C 
ATOM      9  C   UNL     1     181.188 180.033 183.579  1.00  0.00    -0.064 C 
ATOM     10  C   UNL     1     180.261 179.080 183.311  1.00  0.00    -0.027 C 
ATOM     11  C   UNL     1     180.602 177.663 182.892  1.00  0.00     0.032 C 
ATOM     12  C   UNL     1     182.113 177.255 182.939  1.00  0.00     0.006 C 
ATOM     13  C   UNL     1     183.040 178.514 182.754  1.00  0.00    -0.020 C 
ATOM     14  C   UNL     1     184.530 178.075 182.922  1.00  0.00     0.008 C 
ATOM     15  C   UNL     1     184.948 176.789 182.173  1.00  0.00     0.005 C 
ATOM     16  C   UNL     1     183.845 176.114 181.315  1.00  0.00     0.003 C 
ATOM     17  C   UNL     1     182.514 175.923 182.113  1.00  0.00    -0.025 C 
ATOM     18  C   UNL     1     181.449 175.554 181.051  1.00  0.00     0.010 C 
ATOM     19  C   UNL     1     181.717 174.251 180.296  1.00  0.00     0.033 C 
ATOM     20  C   UNL     1     183.192 173.873 179.988  1.00  0.00     0.120 C 
ATOM     21  C   UNL     1     184.354 174.858 180.476  1.00  0.00    -0.006 C 
ATOM     22  C   UNL     1     185.068 175.397 179.198  1.00  0.00     0.014 C 
ATOM     23  C   UNL     1     185.457 174.059 181.250  1.00  0.00     0.014 C 
ATOM     24  C   UNL     1     182.633 174.754 183.135  1.00  0.00     0.012 C 
ATOM     25  C   UNL     1     182.854 179.121 181.311  1.00  0.00     0.012 C 
ATOM     26  C   UNL     1     180.896 181.530 183.395  1.00  0.00     0.022 C 
ATOM     27  C   UNL     1     179.418 181.911 183.115  1.00  0.00     0.015 C 
ATOM     28  C   UNL     1     182.650 179.025 185.332  1.00  0.00     0.017 C 
ATOM     29  C   UNL     1     180.832 182.046 185.903  1.00  0.00     0.012 C 
ATOM     30  C   UNL     1     177.683 183.714 182.872  1.00  0.00     0.011 C 
ENDROOT
BRANCH  20  31
ATOM     31  O   UNL     1     183.416 172.564 180.477  1.00  0.00    -0.393 OA
ATOM     32  H   UNL     1     183.411 172.606 181.473  1.00  0.00     0.210 HD
ENDBRANCH  20  31
TORSDOF 1
ENDMDL
