MODEL 1
REMARK VINA RESULT:    -5.306      0.000      0.000
REMARK INTER + INTRA:          -5.306
REMARK INTER:                  -5.306
REMARK INTRA:                   0.000
REMARK UNBOUND:                 0.000
REMARK SMILES CC(C)=C1CC[C@@H](C)CC1=O
REMARK SMILES IDX 8 1 7 2 6 3 5 4 4 5 2 6 1 7 3 8 10 9 11 10 9 11
REMARK H PARENT
REMARK Flexibility Score: inf
ROOT
ATOM      1  C   UNL     1      -5.495  -4.649   6.875  1.00  0.00     0.008 C 
ATOM      2  C   UNL     1      -5.991  -3.275   7.340  1.00  0.00    -0.006 C 
ATOM      3  C   UNL     1      -6.270  -3.283   8.852  1.00  0.00     0.008 C 
ATOM      4  C   UNL     1      -6.668  -1.889   9.354  1.00  0.00     0.039 C 
ATOM      5  C   UNL     1      -7.813  -1.286   8.551  1.00  0.00    -0.006 C 
ATOM      6  C   UNL     1      -8.720  -0.446   9.131  1.00  0.00    -0.070 C 
ATOM      7  C   UNL     1      -8.617  -0.067  10.591  1.00  0.00     0.039 C 
ATOM      8  C   UNL     1      -9.893   0.114   8.359  1.00  0.00     0.039 C 
ATOM      9  C   UNL     1      -7.810  -1.573   7.085  1.00  0.00     0.159 C 
ATOM     10  O   UNL     1      -8.256  -0.738   6.254  1.00  0.00    -0.295 OA
ATOM     11  C   UNL     1      -7.260  -2.873   6.575  1.00  0.00     0.084 C 
ENDROOT
TORSDOF 0
ENDMDL
MODEL 2
REMARK VINA RESULT:    -5.236      1.736      2.860
REMARK INTER + INTRA:          -5.236
REMARK INTER:                  -5.236
REMARK INTRA:                   0.000
REMARK UNBOUND:                 0.000
REMARK SMILES CC(C)=C1CC[C@@H](C)CC1=O
REMARK SMILES IDX 8 1 7 2 6 3 5 4 4 5 2 6 1 7 3 8 10 9 11 10 9 11
REMARK H PARENT
REMARK Flexibility Score: inf
ROOT
ATOM      1  C   UNL     1      -3.918  -4.369   9.551  1.00  0.00     0.008 C 
ATOM      2  C   UNL     1      -5.305  -3.898   9.101  1.00  0.00    -0.006 C 
ATOM      3  C   UNL     1      -5.324  -3.639   7.586  1.00  0.00     0.008 C 
ATOM      4  C   UNL     1      -6.731  -3.267   7.101  1.00  0.00     0.039 C 
ATOM      5  C   UNL     1      -7.338  -2.119   7.898  1.00  0.00    -0.006 C 
ATOM      6  C   UNL     1      -8.198  -1.231   7.319  1.00  0.00    -0.070 C 
ATOM      7  C   UNL     1      -8.599  -1.359   5.867  1.00  0.00     0.039 C 
ATOM      8  C   UNL     1      -8.763  -0.056   8.084  1.00  0.00     0.039 C 
ATOM      9  C   UNL     1      -7.028  -2.099   9.359  1.00  0.00     0.159 C 
ATOM     10  O   UNL     1      -7.856  -1.654  10.197  1.00  0.00    -0.295 OA
ATOM     11  C   UNL     1      -5.713  -2.624   9.856  1.00  0.00     0.084 C 
ENDROOT
TORSDOF 0
ENDMDL
MODEL 3
REMARK VINA RESULT:    -5.180      1.937      4.811
REMARK INTER + INTRA:          -5.180
REMARK INTER:                  -5.180
REMARK INTRA:                   0.000
REMARK UNBOUND:                 0.000
REMARK SMILES CC(C)=C1CC[C@@H](C)CC1=O
REMARK SMILES IDX 8 1 7 2 6 3 5 4 4 5 2 6 1 7 3 8 10 9 11 10 9 11
REMARK H PARENT
REMARK Flexibility Score: inf
ROOT
ATOM      1  C   UNL     1      -8.551   0.120  10.301  1.00  0.00     0.008 C 
ATOM      2  C   UNL     1      -7.541  -0.569   9.377  1.00  0.00    -0.006 C 
ATOM      3  C   UNL     1      -8.234  -1.642   8.522  1.00  0.00     0.008 C 
ATOM      4  C   UNL     1      -7.259  -2.270   7.517  1.00  0.00     0.039 C 
ATOM      5  C   UNL     1      -5.988  -2.783   8.181  1.00  0.00    -0.006 C 
ATOM      6  C   UNL     1      -5.322  -3.870   7.693  1.00  0.00    -0.070 C 
ATOM      7  C   UNL     1      -5.810  -4.602   6.463  1.00  0.00     0.039 C 
ATOM      8  C   UNL     1      -4.091  -4.422   8.375  1.00  0.00     0.039 C 
ATOM      9  C   UNL     1      -5.460  -1.960   9.310  1.00  0.00     0.159 C 
ATOM     10  O   UNL     1      -4.223  -1.879   9.539  1.00  0.00    -0.295 OA
ATOM     11  C   UNL     1      -6.406  -1.202  10.195  1.00  0.00     0.084 C 
ENDROOT
TORSDOF 0
ENDMDL
MODEL 4
REMARK VINA RESULT:    -5.080      1.979      2.747
REMARK INTER + INTRA:          -5.080
REMARK INTER:                  -5.080
REMARK INTRA:                   0.000
REMARK UNBOUND:                 0.000
REMARK SMILES CC(C)=C1CC[C@@H](C)CC1=O
REMARK SMILES IDX 8 1 7 2 6 3 5 4 4 5 2 6 1 7 3 8 10 9 11 10 9 11
REMARK H PARENT
REMARK Flexibility Score: inf
ROOT
ATOM      1  C   UNL     1      -3.737  -4.714  10.031  1.00  0.00     0.008 C 
ATOM      2  C   UNL     1      -4.316  -3.697   9.040  1.00  0.00    -0.006 C 
ATOM      3  C   UNL     1      -4.984  -2.532   9.788  1.00  0.00     0.008 C 
ATOM      4  C   UNL     1      -5.477  -1.453   8.814  1.00  0.00     0.039 C 
ATOM      5  C   UNL     1      -6.360  -2.023   7.712  1.00  0.00    -0.006 C 
ATOM      6  C   UNL     1      -7.373  -1.290   7.166  1.00  0.00    -0.070 C 
ATOM      7  C   UNL     1      -7.653   0.125   7.621  1.00  0.00     0.039 C 
ATOM      8  C   UNL     1      -8.292  -1.864   6.111  1.00  0.00     0.039 C 
ATOM      9  C   UNL     1      -5.975  -3.370   7.193  1.00  0.00     0.159 C 
ATOM     10  O   UNL     1      -6.172  -3.689   5.990  1.00  0.00    -0.295 OA
ATOM     11  C   UNL     1      -5.331  -4.372   8.107  1.00  0.00     0.084 C 
ENDROOT
TORSDOF 0
ENDMDL
MODEL 5
REMARK VINA RESULT:    -5.006      1.965      4.205
REMARK INTER + INTRA:          -5.006
REMARK INTER:                  -5.006
REMARK INTRA:                   0.000
REMARK UNBOUND:                 0.000
REMARK SMILES CC(C)=C1CC[C@@H](C)CC1=O
REMARK SMILES IDX 8 1 7 2 6 3 5 4 4 5 2 6 1 7 3 8 10 9 11 10 9 11
REMARK H PARENT
REMARK Flexibility Score: inf
ROOT
ATOM      1  C   UNL     1      -9.340  -0.604   6.149  1.00  0.00     0.008 C 
ATOM      2  C   UNL     1      -7.910  -0.992   6.540  1.00  0.00    -0.006 C 
ATOM      3  C   UNL     1      -7.730  -2.518   6.488  1.00  0.00     0.008 C 
ATOM      4  C   UNL     1      -6.277  -2.918   6.776  1.00  0.00     0.039 C 
ATOM      5  C   UNL     1      -5.750  -2.311   8.069  1.00  0.00    -0.006 C 
ATOM      6  C   UNL     1      -4.827  -2.964   8.834  1.00  0.00    -0.070 C 
ATOM      7  C   UNL     1      -4.277  -4.311   8.422  1.00  0.00     0.039 C 
ATOM      8  C   UNL     1      -4.339  -2.398  10.148  1.00  0.00     0.039 C 
ATOM      9  C   UNL     1      -6.212  -0.925   8.380  1.00  0.00     0.159 C 
ATOM     10  O   UNL     1      -5.474  -0.112   8.998  1.00  0.00    -0.295 OA
ATOM     11  C   UNL     1      -7.576  -0.472   7.946  1.00  0.00     0.084 C 
ENDROOT
TORSDOF 0
ENDMDL
MODEL 6
REMARK VINA RESULT:    -4.696      1.916      3.477
REMARK INTER + INTRA:          -4.696
REMARK INTER:                  -4.696
REMARK INTRA:                   0.000
REMARK UNBOUND:                 0.000
REMARK SMILES CC(C)=C1CC[C@@H](C)CC1=O
REMARK SMILES IDX 8 1 7 2 6 3 5 4 4 5 2 6 1 7 3 8 10 9 11 10 9 11
REMARK H PARENT
REMARK Flexibility Score: inf
ROOT
ATOM      1  C   UNL     1      -9.272  -1.000   5.044  1.00  0.00     0.008 C 
ATOM      2  C   UNL     1      -8.766  -1.250   6.468  1.00  0.00    -0.006 C 
ATOM      3  C   UNL     1      -8.412   0.077   7.158  1.00  0.00     0.008 C 
ATOM      4  C   UNL     1      -8.002  -0.146   8.620  1.00  0.00     0.039 C 
ATOM      5  C   UNL     1      -6.904  -1.191   8.765  1.00  0.00    -0.006 C 
ATOM      6  C   UNL     1      -5.977  -1.112   9.764  1.00  0.00    -0.070 C 
ATOM      7  C   UNL     1      -6.011   0.009  10.779  1.00  0.00     0.039 C 
ATOM      8  C   UNL     1      -4.849  -2.111   9.885  1.00  0.00     0.039 C 
ATOM      9  C   UNL     1      -6.978  -2.354   7.831  1.00  0.00     0.159 C 
ATOM     10  O   UNL     1      -6.581  -3.498   8.178  1.00  0.00    -0.295 OA
ATOM     11  C   UNL     1      -7.540  -2.175   6.450  1.00  0.00     0.084 C 
ENDROOT
TORSDOF 0
ENDMDL
MODEL 7
REMARK VINA RESULT:    -4.610      2.267      3.007
REMARK INTER + INTRA:          -4.610
REMARK INTER:                  -4.610
REMARK INTRA:                   0.000
REMARK UNBOUND:                 0.000
REMARK SMILES CC(C)=C1CC[C@@H](C)CC1=O
REMARK SMILES IDX 8 1 7 2 6 3 5 4 4 5 2 6 1 7 3 8 10 9 11 10 9 11
REMARK H PARENT
REMARK Flexibility Score: inf
ROOT
ATOM      1  C   UNL     1      -5.042  -4.885   6.748  1.00  0.00     0.008 C 
ATOM      2  C   UNL     1      -5.648  -4.122   7.932  1.00  0.00    -0.006 C 
ATOM      3  C   UNL     1      -6.815  -3.236   7.465  1.00  0.00     0.008 C 
ATOM      4  C   UNL     1      -7.500  -2.545   8.652  1.00  0.00     0.039 C 
ATOM      5  C   UNL     1      -6.514  -1.795   9.538  1.00  0.00    -0.006 C 
ATOM      6  C   UNL     1      -6.880  -0.659  10.201  1.00  0.00    -0.070 C 
ATOM      7  C   UNL     1      -8.284  -0.107  10.097  1.00  0.00     0.039 C 
ATOM      8  C   UNL     1      -5.896   0.125  11.039  1.00  0.00     0.039 C 
ATOM      9  C   UNL     1      -5.179  -2.438   9.725  1.00  0.00     0.159 C 
ATOM     10  O   UNL     1      -4.537  -2.312  10.802  1.00  0.00    -0.295 OA
ATOM     11  C   UNL     1      -4.580  -3.262   8.622  1.00  0.00     0.084 C 
ENDROOT
TORSDOF 0
ENDMDL
MODEL 8
REMARK VINA RESULT:    -4.449      2.139      2.668
REMARK INTER + INTRA:          -4.449
REMARK INTER:                  -4.449
REMARK INTRA:                   0.000
REMARK UNBOUND:                 0.000
REMARK SMILES CC(C)=C1CC[C@@H](C)CC1=O
REMARK SMILES IDX 8 1 7 2 6 3 5 4 4 5 2 6 1 7 3 8 10 9 11 10 9 11
REMARK H PARENT
REMARK Flexibility Score: inf
ROOT
ATOM      1  C   UNL     1      -3.913  -4.748  10.288  1.00  0.00     0.008 C 
ATOM      2  C   UNL     1      -4.764  -3.474  10.232  1.00  0.00    -0.006 C 
ATOM      3  C   UNL     1      -6.259  -3.816  10.330  1.00  0.00     0.008 C 
ATOM      4  C   UNL     1      -7.120  -2.547  10.381  1.00  0.00     0.039 C 
ATOM      5  C   UNL     1      -6.813  -1.589   9.237  1.00  0.00    -0.006 C 
ATOM      6  C   UNL     1      -7.782  -0.789   8.704  1.00  0.00    -0.070 C 
ATOM      7  C   UNL     1      -9.198  -0.809   9.236  1.00  0.00     0.039 C 
ATOM      8  C   UNL     1      -7.504   0.125   7.532  1.00  0.00     0.039 C 
ATOM      9  C   UNL     1      -5.381  -1.497   8.825  1.00  0.00     0.159 C 
ATOM     10  O   UNL     1      -4.894  -0.420   8.387  1.00  0.00    -0.295 OA
ATOM     11  C   UNL     1      -4.487  -2.698   8.936  1.00  0.00     0.084 C 
ENDROOT
TORSDOF 0
ENDMDL
