MODEL 1
REMARK VINA RESULT:    -7.037      0.000      0.000
REMARK INTER + INTRA:         -10.521
REMARK INTER:                  -9.505
REMARK INTRA:                  -1.016
REMARK UNBOUND:                -1.016
REMARK SMILES O=c1c(-c2ccc(O)cc2)coc2c([C@H]3O[C@H](CO)[C@H](O)[C@@H](O)[C@H]3O)c(O)ccc12
REMARK SMILES IDX 3 1 11 2 12 3 13 4 30 5 2 6 1 7 29 8 28 9 26 10 14 11 4 12
REMARK SMILES IDX 5 13 6 14 7 15 10 16 9 17 8 18 15 20 24 21 16 22 22 23 17 24
REMARK SMILES IDX 20 25 25 26 23 28 18 30 19 31 21 33 27 35
REMARK H PARENT 8 19 25 27 23 29 19 32 21 34 27 36
REMARK Flexibility Score: inf
ROOT
ATOM      1  C   UNL     1      22.014 -22.375 -11.575  1.00  0.00     0.065 A 
ATOM      2  C   UNL     1      21.091 -23.290 -11.050  1.00  0.00     0.208 A 
ATOM      3  O   UNL     1      21.171 -24.584 -11.341  1.00  0.00    -0.463 OA
ATOM      4  C   UNL     1      22.114 -25.096 -12.130  1.00  0.00     0.147 A 
ATOM      5  C   UNL     1      23.117 -24.249 -12.661  1.00  0.00     0.066 A 
ATOM      6  C   UNL     1      23.055 -22.872 -12.379  1.00  0.00     0.200 A 
ATOM      7  O   UNL     1      23.934 -22.086 -12.828  1.00  0.00    -0.288 OA
ATOM      8  C   UNL     1      24.142 -24.795 -13.444  1.00  0.00     0.020 A 
ATOM      9  C   UNL     1      24.158 -26.158 -13.726  1.00  0.00     0.047 A 
ATOM     10  C   UNL     1      23.143 -26.997 -13.253  1.00  0.00     0.125 A 
ATOM     11  C   UNL     1      22.112 -26.478 -12.435  1.00  0.00     0.069 A 
ENDROOT
BRANCH   1  12
ATOM     12  C   UNL     1      21.863 -20.927 -11.301  1.00  0.00    -0.011 A 
ATOM     13  C   UNL     1      22.790 -20.254 -10.487  1.00  0.00     0.013 A 
ATOM     14  C   UNL     1      22.647 -18.883 -10.241  1.00  0.00     0.047 A 
ATOM     15  C   UNL     1      21.580 -18.174 -10.801  1.00  0.00     0.115 A 
ATOM     16  C   UNL     1      20.778 -20.213 -11.838  1.00  0.00     0.013 A 
ATOM     17  C   UNL     1      20.638 -18.844 -11.591  1.00  0.00     0.047 A 
BRANCH  15  18
ATOM     18  O   UNL     1      21.466 -16.804 -10.570  1.00  0.00    -0.508 OA
ATOM     19  H   UNL     1      22.289 -16.224 -10.446  1.00  0.00     0.293 HD
ENDBRANCH  15  18
ENDBRANCH   1  12
BRANCH  11  20
ATOM     20  C   UNL     1      21.038 -27.391 -11.851  1.00  0.00     0.188 C 
ATOM     21  C   UNL     1      21.536 -28.081 -10.559  1.00  0.00     0.179 C 
ATOM     22  O   UNL     1      20.631 -28.344 -12.826  1.00  0.00    -0.362 OA
ATOM     23  C   UNL     1      20.412 -28.958  -9.985  1.00  0.00     0.177 C 
ATOM     24  C   UNL     1      19.540 -29.145 -12.382  1.00  0.00     0.176 C 
ATOM     25  C   UNL     1      19.877 -29.910 -11.076  1.00  0.00     0.177 C 
BRANCH  21  26
ATOM     26  O   UNL     1      22.670 -28.867 -10.829  1.00  0.00    -0.387 OA
ATOM     27  H   UNL     1      22.347 -29.757 -11.127  1.00  0.00     0.211 HD
ENDBRANCH  21  26
BRANCH  23  28
ATOM     28  O   UNL     1      20.912 -29.697  -8.902  1.00  0.00    -0.387 OA
ATOM     29  H   UNL     1      20.154 -30.218  -8.528  1.00  0.00     0.211 HD
ENDBRANCH  23  28
BRANCH  24  30
ATOM     30  C   UNL     1      18.216 -28.347 -12.338  1.00  0.00     0.191 C 
BRANCH  30  31
ATOM     31  O   UNL     1      17.132 -29.202 -12.571  1.00  0.00    -0.394 OA
ATOM     32  H   UNL     1      16.569 -29.161 -11.754  1.00  0.00     0.210 HD
ENDBRANCH  30  31
ENDBRANCH  24  30
BRANCH  25  33
ATOM     33  O   UNL     1      18.739 -30.596 -10.613  1.00  0.00    -0.388 OA
ATOM     34  H   UNL     1      18.344 -31.070 -11.392  1.00  0.00     0.211 HD
ENDBRANCH  25  33
ENDBRANCH  11  20
BRANCH  10  35
ATOM     35  O   UNL     1      23.167 -28.349 -13.594  1.00  0.00    -0.507 OA
ATOM     36  H   UNL     1      24.025 -28.888 -13.591  1.00  0.00     0.293 HD
ENDBRANCH  10  35
TORSDOF 9
ENDMDL
MODEL 2
REMARK VINA RESULT:    -6.742      3.372      5.419
REMARK INTER + INTRA:         -10.123
REMARK INTER:                  -9.573
REMARK INTRA:                  -0.550
REMARK UNBOUND:                -1.016
REMARK SMILES O=c1c(-c2ccc(O)cc2)coc2c([C@H]3O[C@H](CO)[C@H](O)[C@@H](O)[C@H]3O)c(O)ccc12
REMARK SMILES IDX 3 1 11 2 12 3 13 4 30 5 2 6 1 7 29 8 28 9 26 10 14 11 4 12
REMARK SMILES IDX 5 13 6 14 7 15 10 16 9 17 8 18 15 20 24 21 16 22 22 23 17 24
REMARK SMILES IDX 20 25 25 26 23 28 18 30 19 31 21 33 27 35
REMARK H PARENT 8 19 25 27 23 29 19 32 21 34 27 36
REMARK Flexibility Score: inf
ROOT
ATOM      1  C   UNL     1      23.279 -20.241 -11.209  1.00  0.00     0.065 A 
ATOM      2  C   UNL     1      24.422 -20.979 -11.547  1.00  0.00     0.208 A 
ATOM      3  O   UNL     1      24.318 -22.181 -12.102  1.00  0.00    -0.463 OA
ATOM      4  C   UNL     1      23.150 -22.760 -12.375  1.00  0.00     0.147 A 
ATOM      5  C   UNL     1      21.946 -22.062 -12.112  1.00  0.00     0.066 A 
ATOM      6  C   UNL     1      22.022 -20.789 -11.516  1.00  0.00     0.200 A 
ATOM      7  O   UNL     1      20.972 -20.133 -11.273  1.00  0.00    -0.288 OA
ATOM      8  C   UNL     1      20.719 -22.645 -12.451  1.00  0.00     0.020 A 
ATOM      9  C   UNL     1      20.679 -23.917 -13.014  1.00  0.00     0.047 A 
ATOM     10  C   UNL     1      21.858 -24.640 -13.228  1.00  0.00     0.125 A 
ATOM     11  C   UNL     1      23.114 -24.064 -12.923  1.00  0.00     0.069 A 
ENDROOT
BRANCH   1  12
ATOM     12  C   UNL     1      23.414 -18.935 -10.522  1.00  0.00    -0.011 A 
ATOM     13  C   UNL     1      23.709 -18.877  -9.149  1.00  0.00     0.013 A 
ATOM     14  C   UNL     1      23.844 -17.639  -8.509  1.00  0.00     0.047 A 
ATOM     15  C   UNL     1      23.687 -16.452  -9.230  1.00  0.00     0.115 A 
ATOM     16  C   UNL     1      23.231 -17.736 -11.234  1.00  0.00     0.013 A 
ATOM     17  C   UNL     1      23.368 -16.502 -10.593  1.00  0.00     0.047 A 
BRANCH  15  18
ATOM     18  O   UNL     1      23.854 -15.227  -8.586  1.00  0.00    -0.508 OA
ATOM     19  H   UNL     1      24.430 -15.147  -7.755  1.00  0.00     0.293 HD
ENDBRANCH  15  18
ENDBRANCH   1  12
BRANCH  11  20
ATOM     20  C   UNL     1      24.412 -24.809 -13.218  1.00  0.00     0.188 C 
ATOM     21  C   UNL     1      25.209 -24.114 -14.346  1.00  0.00     0.179 C 
ATOM     22  O   UNL     1      24.129 -26.166 -13.540  1.00  0.00    -0.362 OA
ATOM     23  C   UNL     1      26.524 -24.873 -14.582  1.00  0.00     0.177 C 
ATOM     24  C   UNL     1      25.310 -26.944 -13.702  1.00  0.00     0.176 C 
ATOM     25  C   UNL     1      26.234 -26.373 -14.808  1.00  0.00     0.177 C 
BRANCH  21  26
ATOM     26  O   UNL     1      24.453 -24.081 -15.531  1.00  0.00    -0.387 OA
ATOM     27  H   UNL     1      23.521 -24.326 -15.293  1.00  0.00     0.211 HD
ENDBRANCH  21  26
BRANCH  23  28
ATOM     28  O   UNL     1      27.173 -24.333 -15.704  1.00  0.00    -0.387 OA
ATOM     29  H   UNL     1      26.468 -24.024 -16.330  1.00  0.00     0.211 HD
ENDBRANCH  23  28
BRANCH  24  30
ATOM     30  C   UNL     1      26.014 -27.218 -12.352  1.00  0.00     0.191 C 
BRANCH  30  31
ATOM     31  O   UNL     1      26.656 -28.461 -12.387  1.00  0.00    -0.394 OA
ATOM     32  H   UNL     1      25.935 -29.142 -12.428  1.00  0.00     0.210 HD
ENDBRANCH  30  31
ENDBRANCH  24  30
BRANCH  25  33
ATOM     33  O   UNL     1      27.437 -27.103 -14.856  1.00  0.00    -0.388 OA
ATOM     34  H   UNL     1      27.710 -27.279 -13.917  1.00  0.00     0.211 HD
ENDBRANCH  25  33
ENDBRANCH  11  20
BRANCH  10  35
ATOM     35  O   UNL     1      21.777 -25.930 -13.752  1.00  0.00    -0.507 OA
ATOM     36  H   UNL     1      21.363 -26.695 -13.232  1.00  0.00     0.293 HD
ENDBRANCH  10  35
TORSDOF 9
ENDMDL
MODEL 3
REMARK VINA RESULT:    -6.734      2.076      3.634
REMARK INTER + INTRA:         -10.112
REMARK INTER:                  -9.267
REMARK INTRA:                  -0.845
REMARK UNBOUND:                -1.016
REMARK SMILES O=c1c(-c2ccc(O)cc2)coc2c([C@H]3O[C@H](CO)[C@H](O)[C@@H](O)[C@H]3O)c(O)ccc12
REMARK SMILES IDX 3 1 11 2 12 3 13 4 30 5 2 6 1 7 29 8 28 9 26 10 14 11 4 12
REMARK SMILES IDX 5 13 6 14 7 15 10 16 9 17 8 18 15 20 24 21 16 22 22 23 17 24
REMARK SMILES IDX 20 25 25 26 23 28 18 30 19 31 21 33 27 35
REMARK H PARENT 8 19 25 27 23 29 19 32 21 34 27 36
REMARK Flexibility Score: inf
ROOT
ATOM      1  C   UNL     1      22.274 -20.135 -11.225  1.00  0.00     0.065 A 
ATOM      2  C   UNL     1      22.586 -21.414 -10.745  1.00  0.00     0.208 A 
ATOM      3  O   UNL     1      22.158 -22.502 -11.376  1.00  0.00    -0.463 OA
ATOM      4  C   UNL     1      21.424 -22.460 -12.486  1.00  0.00     0.147 A 
ATOM      5  C   UNL     1      21.107 -21.208 -13.067  1.00  0.00     0.066 A 
ATOM      6  C   UNL     1      21.537 -20.036 -12.417  1.00  0.00     0.200 A 
ATOM      7  O   UNL     1      21.281 -18.902 -12.908  1.00  0.00    -0.288 OA
ATOM      8  C   UNL     1      20.383 -21.163 -14.265  1.00  0.00     0.020 A 
ATOM      9  C   UNL     1      19.950 -22.341 -14.866  1.00  0.00     0.047 A 
ATOM     10  C   UNL     1      20.208 -23.583 -14.274  1.00  0.00     0.125 A 
ATOM     11  C   UNL     1      20.963 -23.660 -13.080  1.00  0.00     0.069 A 
ENDROOT
BRANCH   1  12
ATOM     12  C   UNL     1      22.695 -18.933 -10.466  1.00  0.00    -0.011 A 
ATOM     13  C   UNL     1      24.044 -18.744 -10.121  1.00  0.00     0.013 A 
ATOM     14  C   UNL     1      24.435 -17.601  -9.412  1.00  0.00     0.047 A 
ATOM     15  C   UNL     1      23.488 -16.642  -9.042  1.00  0.00     0.115 A 
ATOM     16  C   UNL     1      21.744 -17.978 -10.067  1.00  0.00     0.013 A 
ATOM     17  C   UNL     1      22.138 -16.838  -9.361  1.00  0.00     0.047 A 
BRANCH  15  18
ATOM     18  O   UNL     1      23.897 -15.496  -8.363  1.00  0.00    -0.508 OA
ATOM     19  H   UNL     1      23.431 -15.198  -7.512  1.00  0.00     0.293 HD
ENDBRANCH  15  18
ENDBRANCH   1  12
BRANCH  11  20
ATOM     20  C   UNL     1      21.316 -25.008 -12.459  1.00  0.00     0.188 C 
ATOM     21  C   UNL     1      22.524 -25.652 -13.180  1.00  0.00     0.179 C 
ATOM     22  O   UNL     1      20.180 -25.864 -12.481  1.00  0.00    -0.362 OA
ATOM     23  C   UNL     1      22.870 -26.986 -12.500  1.00  0.00     0.177 C 
ATOM     24  C   UNL     1      20.411 -27.093 -11.802  1.00  0.00     0.176 C 
ATOM     25  C   UNL     1      21.609 -27.872 -12.406  1.00  0.00     0.177 C 
BRANCH  21  26
ATOM     26  O   UNL     1      22.227 -25.867 -14.537  1.00  0.00    -0.387 OA
ATOM     27  H   UNL     1      22.785 -25.238 -15.064  1.00  0.00     0.211 HD
ENDBRANCH  21  26
BRANCH  23  28
ATOM     28  O   UNL     1      23.864 -27.639 -13.244  1.00  0.00    -0.387 OA
ATOM     29  H   UNL     1      24.545 -26.958 -13.485  1.00  0.00     0.211 HD
ENDBRANCH  23  28
BRANCH  24  30
ATOM     30  C   UNL     1      20.472 -26.906 -10.268  1.00  0.00     0.191 C 
BRANCH  30  31
ATOM     31  O   UNL     1      20.137 -28.102  -9.624  1.00  0.00    -0.394 OA
ATOM     32  H   UNL     1      20.195 -27.916  -8.650  1.00  0.00     0.210 HD
ENDBRANCH  30  31
ENDBRANCH  24  30
BRANCH  25  33
ATOM     33  O   UNL     1      21.873 -29.021 -11.636  1.00  0.00    -0.388 OA
ATOM     34  H   UNL     1      21.691 -28.787 -10.688  1.00  0.00     0.211 HD
ENDBRANCH  25  33
ENDBRANCH  11  20
BRANCH  10  35
ATOM     35  O   UNL     1      19.719 -24.739 -14.881  1.00  0.00    -0.507 OA
ATOM     36  H   UNL     1      19.747 -25.640 -14.418  1.00  0.00     0.293 HD
ENDBRANCH  10  35
TORSDOF 9
ENDMDL
MODEL 4
REMARK VINA RESULT:    -6.631      4.316      9.122
REMARK INTER + INTRA:          -9.973
REMARK INTER:                  -9.022
REMARK INTRA:                  -0.951
REMARK UNBOUND:                -1.016
REMARK SMILES O=c1c(-c2ccc(O)cc2)coc2c([C@H]3O[C@H](CO)[C@H](O)[C@@H](O)[C@H]3O)c(O)ccc12
REMARK SMILES IDX 3 1 11 2 12 3 13 4 30 5 2 6 1 7 29 8 28 9 26 10 14 11 4 12
REMARK SMILES IDX 5 13 6 14 7 15 10 16 9 17 8 18 15 20 24 21 16 22 22 23 17 24
REMARK SMILES IDX 20 25 25 26 23 28 18 30 19 31 21 33 27 35
REMARK H PARENT 8 19 25 27 23 29 19 32 21 34 27 36
REMARK Flexibility Score: inf
ROOT
ATOM      1  C   UNL     1      24.248 -23.733 -13.755  1.00  0.00     0.065 A 
ATOM      2  C   UNL     1      24.460 -22.551 -13.032  1.00  0.00     0.208 A 
ATOM      3  O   UNL     1      23.576 -21.559 -13.073  1.00  0.00    -0.463 OA
ATOM      4  C   UNL     1      22.450 -21.615 -13.782  1.00  0.00     0.147 A 
ATOM      5  C   UNL     1      22.135 -22.793 -14.501  1.00  0.00     0.066 A 
ATOM      6  C   UNL     1      23.054 -23.858 -14.485  1.00  0.00     0.200 A 
ATOM      7  O   UNL     1      22.804 -24.927 -15.107  1.00  0.00    -0.288 OA
ATOM      8  C   UNL     1      20.924 -22.874 -15.200  1.00  0.00     0.020 A 
ATOM      9  C   UNL     1      20.050 -21.791 -15.216  1.00  0.00     0.047 A 
ATOM     10  C   UNL     1      20.375 -20.601 -14.556  1.00  0.00     0.125 A 
ATOM     11  C   UNL     1      21.577 -20.501 -13.816  1.00  0.00     0.069 A 
ENDROOT
BRANCH   1  12
ATOM     12  C   UNL     1      25.280 -24.797 -13.758  1.00  0.00    -0.011 A 
ATOM     13  C   UNL     1      26.362 -24.740 -14.653  1.00  0.00     0.013 A 
ATOM     14  C   UNL     1      27.338 -25.743 -14.643  1.00  0.00     0.047 A 
ATOM     15  C   UNL     1      27.243 -26.810 -13.744  1.00  0.00     0.115 A 
ATOM     16  C   UNL     1      25.177 -25.887 -12.875  1.00  0.00     0.013 A 
ATOM     17  C   UNL     1      26.154 -26.886 -12.867  1.00  0.00     0.047 A 
BRANCH  15  18
ATOM     18  O   UNL     1      28.237 -27.786 -13.726  1.00  0.00    -0.508 OA
ATOM     19  H   UNL     1      28.032 -28.747 -13.980  1.00  0.00     0.293 HD
ENDBRANCH  15  18
ENDBRANCH   1  12
BRANCH  11  20
ATOM     20  C   UNL     1      21.913 -19.237 -13.031  1.00  0.00     0.188 C 
ATOM     21  C   UNL     1      21.492 -19.375 -11.549  1.00  0.00     0.179 C 
ATOM     22  O   UNL     1      21.300 -18.109 -13.644  1.00  0.00    -0.362 OA
ATOM     23  C   UNL     1      21.883 -18.098 -10.788  1.00  0.00     0.177 C 
ATOM     24  C   UNL     1      21.680 -16.882 -13.029  1.00  0.00     0.176 C 
ATOM     25  C   UNL     1      21.327 -16.857 -11.519  1.00  0.00     0.177 C 
BRANCH  21  26
ATOM     26  O   UNL     1      20.105 -19.586 -11.451  1.00  0.00    -0.387 OA
ATOM     27  H   UNL     1      19.826 -19.294 -10.545  1.00  0.00     0.211 HD
ENDBRANCH  21  26
BRANCH  23  28
ATOM     28  O   UNL     1      21.368 -18.162  -9.484  1.00  0.00    -0.387 OA
ATOM     29  H   UNL     1      22.103 -17.908  -8.866  1.00  0.00     0.211 HD
ENDBRANCH  23  28
BRANCH  24  30
ATOM     30  C   UNL     1      23.142 -16.498 -13.356  1.00  0.00     0.191 C 
BRANCH  30  31
ATOM     31  O   UNL     1      23.351 -15.138 -13.100  1.00  0.00    -0.394 OA
ATOM     32  H   UNL     1      23.655 -14.740 -13.957  1.00  0.00     0.210 HD
ENDBRANCH  30  31
ENDBRANCH  24  30
BRANCH  25  33
ATOM     33  O   UNL     1      21.820 -15.678 -10.929  1.00  0.00    -0.388 OA
ATOM     34  H   UNL     1      21.108 -15.330 -10.330  1.00  0.00     0.211 HD
ENDBRANCH  25  33
ENDBRANCH  11  20
BRANCH  10  35
ATOM     35  O   UNL     1      19.496 -19.521 -14.632  1.00  0.00    -0.507 OA
ATOM     36  H   UNL     1      18.651 -19.478 -14.075  1.00  0.00     0.293 HD
ENDBRANCH  10  35
TORSDOF 9
ENDMDL
MODEL 5
REMARK VINA RESULT:    -6.604      1.483      2.692
REMARK INTER + INTRA:          -9.936
REMARK INTER:                  -9.493
REMARK INTRA:                  -0.443
REMARK UNBOUND:                -1.016
REMARK SMILES O=c1c(-c2ccc(O)cc2)coc2c([C@H]3O[C@H](CO)[C@H](O)[C@@H](O)[C@H]3O)c(O)ccc12
REMARK SMILES IDX 3 1 11 2 12 3 13 4 30 5 2 6 1 7 29 8 28 9 26 10 14 11 4 12
REMARK SMILES IDX 5 13 6 14 7 15 10 16 9 17 8 18 15 20 24 21 16 22 22 23 17 24
REMARK SMILES IDX 20 25 25 26 23 28 18 30 19 31 21 33 27 35
REMARK H PARENT 8 19 25 27 23 29 19 32 21 34 27 36
REMARK Flexibility Score: inf
ROOT
ATOM      1  C   UNL     1      22.705 -21.279 -11.208  1.00  0.00     0.065 A 
ATOM      2  C   UNL     1      21.758 -22.286 -10.978  1.00  0.00     0.208 A 
ATOM      3  O   UNL     1      21.896 -23.489 -11.524  1.00  0.00    -0.463 OA
ATOM      4  C   UNL     1      22.921 -23.821 -12.307  1.00  0.00     0.147 A 
ATOM      5  C   UNL     1      23.949 -22.879 -12.549  1.00  0.00     0.066 A 
ATOM      6  C   UNL     1      23.828 -21.592 -11.993  1.00  0.00     0.200 A 
ATOM      7  O   UNL     1      24.728 -20.727 -12.180  1.00  0.00    -0.288 OA
ATOM      8  C   UNL     1      25.056 -23.245 -13.326  1.00  0.00     0.020 A 
ATOM      9  C   UNL     1      25.131 -24.518 -13.883  1.00  0.00     0.047 A 
ATOM     10  C   UNL     1      24.095 -25.441 -13.698  1.00  0.00     0.125 A 
ATOM     11  C   UNL     1      22.979 -25.109 -12.893  1.00  0.00     0.069 A 
ENDROOT
BRANCH   1  12
ATOM     12  C   UNL     1      22.495 -19.921 -10.653  1.00  0.00    -0.011 A 
ATOM     13  C   UNL     1      23.236 -19.481  -9.543  1.00  0.00     0.013 A 
ATOM     14  C   UNL     1      23.040 -18.193  -9.031  1.00  0.00     0.047 A 
ATOM     15  C   UNL     1      22.104 -17.336  -9.618  1.00  0.00     0.115 A 
ATOM     16  C   UNL     1      21.537 -19.063 -11.221  1.00  0.00     0.013 A 
ATOM     17  C   UNL     1      21.343 -17.777 -10.708  1.00  0.00     0.047 A 
BRANCH  15  18
ATOM     18  O   UNL     1      21.939 -16.046  -9.115  1.00  0.00    -0.508 OA
ATOM     19  H   UNL     1      21.085 -15.776  -8.638  1.00  0.00     0.293 HD
ENDBRANCH  15  18
ENDBRANCH   1  12
BRANCH  11  20
ATOM     20  C   UNL     1      21.876 -26.127 -12.621  1.00  0.00     0.188 C 
ATOM     21  C   UNL     1      20.801 -26.092 -13.732  1.00  0.00     0.179 C 
ATOM     22  O   UNL     1      21.307 -25.894 -11.338  1.00  0.00    -0.362 OA
ATOM     23  C   UNL     1      19.733 -27.158 -13.440  1.00  0.00     0.177 C 
ATOM     24  C   UNL     1      20.358 -26.890 -10.974  1.00  0.00     0.176 C 
ATOM     25  C   UNL     1      19.200 -26.989 -12.000  1.00  0.00     0.177 C 
BRANCH  21  26
ATOM     26  O   UNL     1      20.205 -24.820 -13.798  1.00  0.00    -0.387 OA
ATOM     27  H   UNL     1      20.778 -24.256 -14.379  1.00  0.00     0.211 HD
ENDBRANCH  21  26
BRANCH  23  28
ATOM     28  O   UNL     1      18.683 -27.024 -14.362  1.00  0.00    -0.387 OA
ATOM     29  H   UNL     1      18.423 -27.940 -14.644  1.00  0.00     0.211 HD
ENDBRANCH  23  28
BRANCH  24  30
ATOM     30  C   UNL     1      21.035 -28.239 -10.634  1.00  0.00     0.191 C 
BRANCH  30  31
ATOM     31  O   UNL     1      20.252 -28.953  -9.719  1.00  0.00    -0.394 OA
ATOM     32  H   UNL     1      20.861 -29.606  -9.286  1.00  0.00     0.210 HD
ENDBRANCH  30  31
ENDBRANCH  24  30
BRANCH  25  33
ATOM     33  O   UNL     1      18.349 -28.059 -11.664  1.00  0.00    -0.388 OA
ATOM     34  H   UNL     1      18.039 -27.905 -10.733  1.00  0.00     0.211 HD
ENDBRANCH  25  33
ENDBRANCH  11  20
BRANCH  10  35
ATOM     35  O   UNL     1      24.183 -26.691 -14.309  1.00  0.00    -0.507 OA
ATOM     36  H   UNL     1      24.090 -26.805 -15.312  1.00  0.00     0.293 HD
ENDBRANCH  10  35
TORSDOF 9
ENDMDL
MODEL 6
REMARK VINA RESULT:    -6.491      4.569      9.071
REMARK INTER + INTRA:          -9.783
REMARK INTER:                 -10.430
REMARK INTRA:                   0.647
REMARK UNBOUND:                -1.016
REMARK SMILES O=c1c(-c2ccc(O)cc2)coc2c([C@H]3O[C@H](CO)[C@H](O)[C@@H](O)[C@H]3O)c(O)ccc12
REMARK SMILES IDX 3 1 11 2 12 3 13 4 30 5 2 6 1 7 29 8 28 9 26 10 14 11 4 12
REMARK SMILES IDX 5 13 6 14 7 15 10 16 9 17 8 18 15 20 24 21 16 22 22 23 17 24
REMARK SMILES IDX 20 25 25 26 23 28 18 30 19 31 21 33 27 35
REMARK H PARENT 8 19 25 27 23 29 19 32 21 34 27 36
REMARK Flexibility Score: inf
ROOT
ATOM      1  C   UNL     1      23.660 -23.401 -14.161  1.00  0.00     0.065 A 
ATOM      2  C   UNL     1      24.201 -22.750 -13.043  1.00  0.00     0.208 A 
ATOM      3  O   UNL     1      23.719 -21.581 -12.636  1.00  0.00    -0.463 OA
ATOM      4  C   UNL     1      22.708 -20.958 -13.240  1.00  0.00     0.147 A 
ATOM      5  C   UNL     1      22.071 -21.572 -14.346  1.00  0.00     0.066 A 
ATOM      6  C   UNL     1      22.564 -22.806 -14.808  1.00  0.00     0.200 A 
ATOM      7  O   UNL     1      22.018 -23.387 -15.786  1.00  0.00    -0.288 OA
ATOM      8  C   UNL     1      20.972 -20.945 -14.947  1.00  0.00     0.020 A 
ATOM      9  C   UNL     1      20.527 -19.712 -14.481  1.00  0.00     0.047 A 
ATOM     10  C   UNL     1      21.182 -19.068 -13.425  1.00  0.00     0.125 A 
ATOM     11  C   UNL     1      22.276 -19.692 -12.779  1.00  0.00     0.069 A 
ENDROOT
BRANCH   1  12
ATOM     12  C   UNL     1      24.260 -24.666 -14.646  1.00  0.00    -0.011 A 
ATOM     13  C   UNL     1      23.443 -25.720 -15.090  1.00  0.00     0.013 A 
ATOM     14  C   UNL     1      24.018 -26.909 -15.556  1.00  0.00     0.047 A 
ATOM     15  C   UNL     1      25.407 -27.057 -15.583  1.00  0.00     0.115 A 
ATOM     16  C   UNL     1      25.656 -24.833 -14.650  1.00  0.00     0.013 A 
ATOM     17  C   UNL     1      26.227 -26.021 -15.117  1.00  0.00     0.047 A 
BRANCH  15  18
ATOM     18  O   UNL     1      25.966 -28.234 -16.076  1.00  0.00    -0.508 OA
ATOM     19  H   UNL     1      25.391 -28.933 -16.537  1.00  0.00     0.293 HD
ENDBRANCH  15  18
ENDBRANCH   1  12
BRANCH  11  20
ATOM     20  C   UNL     1      22.956 -19.038 -11.580  1.00  0.00     0.188 C 
ATOM     21  C   UNL     1      23.648 -20.096 -10.689  1.00  0.00     0.179 C 
ATOM     22  O   UNL     1      22.009 -18.276 -10.842  1.00  0.00    -0.362 OA
ATOM     23  C   UNL     1      24.352 -19.393  -9.518  1.00  0.00     0.177 C 
ATOM     24  C   UNL     1      22.610 -17.540  -9.782  1.00  0.00     0.176 C 
ATOM     25  C   UNL     1      23.359 -18.464  -8.787  1.00  0.00     0.177 C 
BRANCH  21  26
ATOM     26  O   UNL     1      22.706 -21.018 -10.200  1.00  0.00    -0.387 OA
ATOM     27  H   UNL     1      22.513 -20.771  -9.258  1.00  0.00     0.211 HD
ENDBRANCH  21  26
BRANCH  23  28
ATOM     28  O   UNL     1      24.850 -20.361  -8.630  1.00  0.00    -0.387 OA
ATOM     29  H   UNL     1      25.295 -19.875  -7.887  1.00  0.00     0.211 HD
ENDBRANCH  23  28
BRANCH  24  30
ATOM     30  C   UNL     1      23.442 -16.345 -10.304  1.00  0.00     0.191 C 
BRANCH  30  31
ATOM     31  O   UNL     1      23.656 -15.422  -9.274  1.00  0.00    -0.394 OA
ATOM     32  H   UNL     1      22.783 -14.978  -9.117  1.00  0.00     0.210 HD
ENDBRANCH  30  31
ENDBRANCH  24  30
BRANCH  25  33
ATOM     33  O   UNL     1      24.031 -17.689  -7.822  1.00  0.00    -0.388 OA
ATOM     34  H   UNL     1      24.759 -17.203  -8.293  1.00  0.00     0.211 HD
ENDBRANCH  25  33
ENDBRANCH  11  20
BRANCH  10  35
ATOM     35  O   UNL     1      20.737 -17.812 -13.015  1.00  0.00    -0.507 OA
ATOM     36  H   UNL     1      20.705 -17.548 -12.037  1.00  0.00     0.293 HD
ENDBRANCH  10  35
TORSDOF 9
ENDMDL
MODEL 7
REMARK VINA RESULT:    -6.418      4.398      9.072
REMARK INTER + INTRA:          -9.685
REMARK INTER:                  -9.216
REMARK INTRA:                  -0.469
REMARK UNBOUND:                -1.016
REMARK SMILES O=c1c(-c2ccc(O)cc2)coc2c([C@H]3O[C@H](CO)[C@H](O)[C@@H](O)[C@H]3O)c(O)ccc12
REMARK SMILES IDX 3 1 11 2 12 3 13 4 30 5 2 6 1 7 29 8 28 9 26 10 14 11 4 12
REMARK SMILES IDX 5 13 6 14 7 15 10 16 9 17 8 18 15 20 24 21 16 22 22 23 17 24
REMARK SMILES IDX 20 25 25 26 23 28 18 30 19 31 21 33 27 35
REMARK H PARENT 8 19 25 27 23 29 19 32 21 34 27 36
REMARK Flexibility Score: inf
ROOT
ATOM      1  C   UNL     1      24.246 -23.765 -13.742  1.00  0.00     0.065 A 
ATOM      2  C   UNL     1      24.407 -22.650 -12.908  1.00  0.00     0.208 A 
ATOM      3  O   UNL     1      23.529 -21.652 -12.925  1.00  0.00    -0.463 OA
ATOM      4  C   UNL     1      22.456 -21.640 -13.714  1.00  0.00     0.147 A 
ATOM      5  C   UNL     1      22.191 -22.751 -14.551  1.00  0.00     0.066 A 
ATOM      6  C   UNL     1      23.106 -23.819 -14.562  1.00  0.00     0.200 A 
ATOM      7  O   UNL     1      22.900 -24.830 -15.289  1.00  0.00    -0.288 OA
ATOM      8  C   UNL     1      21.033 -22.764 -15.338  1.00  0.00     0.020 A 
ATOM      9  C   UNL     1      20.162 -21.678 -15.322  1.00  0.00     0.047 A 
ATOM     10  C   UNL     1      20.440 -20.550 -14.542  1.00  0.00     0.125 A 
ATOM     11  C   UNL     1      21.588 -20.522 -13.714  1.00  0.00     0.069 A 
ENDROOT
BRANCH   1  12
ATOM     12  C   UNL     1      25.275 -24.831 -13.764  1.00  0.00    -0.011 A 
ATOM     13  C   UNL     1      26.376 -24.743 -14.631  1.00  0.00     0.013 A 
ATOM     14  C   UNL     1      27.349 -25.750 -14.639  1.00  0.00     0.047 A 
ATOM     15  C   UNL     1      27.232 -26.850 -13.785  1.00  0.00     0.115 A 
ATOM     16  C   UNL     1      25.150 -25.954 -12.927  1.00  0.00     0.013 A 
ATOM     17  C   UNL     1      26.123 -26.957 -12.936  1.00  0.00     0.047 A 
BRANCH  15  18
ATOM     18  O   UNL     1      28.223 -27.830 -13.784  1.00  0.00    -0.508 OA
ATOM     19  H   UNL     1      29.063 -27.726 -14.343  1.00  0.00     0.293 HD
ENDBRANCH  15  18
ENDBRANCH   1  12
BRANCH  11  20
ATOM     20  C   UNL     1      21.869 -19.331 -12.802  1.00  0.00     0.188 C 
ATOM     21  C   UNL     1      22.618 -18.212 -13.563  1.00  0.00     0.179 C 
ATOM     22  O   UNL     1      22.597 -19.759 -11.657  1.00  0.00    -0.362 OA
ATOM     23  C   UNL     1      22.845 -17.020 -12.621  1.00  0.00     0.177 C 
ATOM     24  C   UNL     1      22.780 -18.715 -10.707  1.00  0.00     0.176 C 
ATOM     25  C   UNL     1      23.522 -17.499 -11.318  1.00  0.00     0.177 C 
BRANCH  21  26
ATOM     26  O   UNL     1      23.851 -18.687 -14.043  1.00  0.00    -0.387 OA
ATOM     27  H   UNL     1      23.682 -19.107 -14.926  1.00  0.00     0.211 HD
ENDBRANCH  21  26
BRANCH  23  28
ATOM     28  O   UNL     1      23.654 -16.071 -13.265  1.00  0.00    -0.387 OA
ATOM     29  H   UNL     1      23.050 -15.468 -13.773  1.00  0.00     0.211 HD
ENDBRANCH  23  28
BRANCH  24  30
ATOM     30  C   UNL     1      21.465 -18.364  -9.970  1.00  0.00     0.191 C 
BRANCH  30  31
ATOM     31  O   UNL     1      21.750 -17.807  -8.718  1.00  0.00    -0.394 OA
ATOM     32  H   UNL     1      21.524 -16.843  -8.788  1.00  0.00     0.210 HD
ENDBRANCH  30  31
ENDBRANCH  24  30
BRANCH  25  33
ATOM     33  O   UNL     1      23.581 -16.450 -10.382  1.00  0.00    -0.388 OA
ATOM     34  H   UNL     1      22.763 -15.899 -10.507  1.00  0.00     0.211 HD
ENDBRANCH  25  33
ENDBRANCH  11  20
BRANCH  10  35
ATOM     35  O   UNL     1      19.570 -19.462 -14.587  1.00  0.00    -0.507 OA
ATOM     36  H   UNL     1      19.401 -18.877 -13.777  1.00  0.00     0.293 HD
ENDBRANCH  10  35
TORSDOF 9
ENDMDL
MODEL 8
REMARK VINA RESULT:    -6.395      1.760      2.180
REMARK INTER + INTRA:          -9.653
REMARK INTER:                  -8.523
REMARK INTRA:                  -1.130
REMARK UNBOUND:                -1.016
REMARK SMILES O=c1c(-c2ccc(O)cc2)coc2c([C@H]3O[C@H](CO)[C@H](O)[C@@H](O)[C@H]3O)c(O)ccc12
REMARK SMILES IDX 3 1 11 2 12 3 13 4 30 5 2 6 1 7 29 8 28 9 26 10 14 11 4 12
REMARK SMILES IDX 5 13 6 14 7 15 10 16 9 17 8 18 15 20 24 21 16 22 22 23 17 24
REMARK SMILES IDX 20 25 25 26 23 28 18 30 19 31 21 33 27 35
REMARK H PARENT 8 19 25 27 23 29 19 32 21 34 27 36
REMARK Flexibility Score: inf
ROOT
ATOM      1  C   UNL     1      23.306 -23.708 -12.814  1.00  0.00     0.065 A 
ATOM      2  C   UNL     1      22.208 -24.270 -12.148  1.00  0.00     0.208 A 
ATOM      3  O   UNL     1      21.964 -25.574 -12.216  1.00  0.00    -0.463 OA
ATOM      4  C   UNL     1      22.727 -26.424 -12.901  1.00  0.00     0.147 A 
ATOM      5  C   UNL     1      23.885 -25.947 -13.561  1.00  0.00     0.066 A 
ATOM      6  C   UNL     1      24.167 -24.569 -13.516  1.00  0.00     0.200 A 
ATOM      7  O   UNL     1      25.194 -24.108 -14.086  1.00  0.00    -0.288 OA
ATOM      8  C   UNL     1      24.720 -26.848 -14.234  1.00  0.00     0.020 A 
ATOM      9  C   UNL     1      24.397 -28.202 -14.281  1.00  0.00     0.047 A 
ATOM     10  C   UNL     1      23.226 -28.678 -13.680  1.00  0.00     0.125 A 
ATOM     11  C   UNL     1      22.380 -27.795 -12.968  1.00  0.00     0.069 A 
ENDROOT
BRANCH   1  12
ATOM     12  C   UNL     1      23.519 -22.242 -12.790  1.00  0.00    -0.011 A 
ATOM     13  C   UNL     1      22.878 -21.412 -13.725  1.00  0.00     0.013 A 
ATOM     14  C   UNL     1      23.077 -20.026 -13.690  1.00  0.00     0.047 A 
ATOM     15  C   UNL     1      23.914 -19.458 -12.725  1.00  0.00     0.115 A 
ATOM     16  C   UNL     1      24.381 -21.666 -11.839  1.00  0.00     0.013 A 
ATOM     17  C   UNL     1      24.576 -20.283 -11.806  1.00  0.00     0.047 A 
BRANCH  15  18
ATOM     18  O   UNL     1      24.079 -18.075 -12.683  1.00  0.00    -0.508 OA
ATOM     19  H   UNL     1      23.878 -17.549 -11.839  1.00  0.00     0.293 HD
ENDBRANCH  15  18
ENDBRANCH   1  12
BRANCH  11  20
ATOM     20  C   UNL     1      21.138 -28.309 -12.245  1.00  0.00     0.188 C 
ATOM     21  C   UNL     1      21.508 -28.927 -10.876  1.00  0.00     0.179 C 
ATOM     22  O   UNL     1      20.451 -29.243 -13.069  1.00  0.00    -0.362 OA
ATOM     23  C   UNL     1      20.227 -29.394 -10.167  1.00  0.00     0.177 C 
ATOM     24  C   UNL     1      19.215 -29.664 -12.500  1.00  0.00     0.176 C 
ATOM     25  C   UNL     1      19.410 -30.310 -11.104  1.00  0.00     0.177 C 
BRANCH  21  26
ATOM     26  O   UNL     1      22.386 -30.011 -11.048  1.00  0.00    -0.387 OA
ATOM     27  H   UNL     1      23.201 -29.662 -11.492  1.00  0.00     0.211 HD
ENDBRANCH  21  26
BRANCH  23  28
ATOM     28  O   UNL     1      20.575 -30.088  -8.997  1.00  0.00    -0.387 OA
ATOM     29  H   UNL     1      20.227 -29.561  -8.230  1.00  0.00     0.211 HD
ENDBRANCH  23  28
BRANCH  24  30
ATOM     30  C   UNL     1      18.144 -28.549 -12.551  1.00  0.00     0.191 C 
BRANCH  30  31
ATOM     31  O   UNL     1      16.866 -29.113 -12.640  1.00  0.00    -0.394 OA
ATOM     32  H   UNL     1      16.335 -28.709 -11.905  1.00  0.00     0.210 HD
ENDBRANCH  30  31
ENDBRANCH  24  30
BRANCH  25  33
ATOM     33  O   UNL     1      18.159 -30.606 -10.532  1.00  0.00    -0.388 OA
ATOM     34  H   UNL     1      17.881 -31.495 -10.878  1.00  0.00     0.211 HD
ENDBRANCH  25  33
ENDBRANCH  11  20
BRANCH  10  35
ATOM     35  O   UNL     1      22.911 -30.032 -13.787  1.00  0.00    -0.507 OA
ATOM     36  H   UNL     1      22.785 -30.619 -12.971  1.00  0.00     0.293 HD
ENDBRANCH  10  35
TORSDOF 9
ENDMDL
MODEL 9
REMARK VINA RESULT:    -6.254      1.955      3.129
REMARK INTER + INTRA:          -9.463
REMARK INTER:                  -8.618
REMARK INTRA:                  -0.846
REMARK UNBOUND:                -1.016
REMARK SMILES O=c1c(-c2ccc(O)cc2)coc2c([C@H]3O[C@H](CO)[C@H](O)[C@@H](O)[C@H]3O)c(O)ccc12
REMARK SMILES IDX 3 1 11 2 12 3 13 4 30 5 2 6 1 7 29 8 28 9 26 10 14 11 4 12
REMARK SMILES IDX 5 13 6 14 7 15 10 16 9 17 8 18 15 20 24 21 16 22 22 23 17 24
REMARK SMILES IDX 20 25 25 26 23 28 18 30 19 31 21 33 27 35
REMARK H PARENT 8 19 25 27 23 29 19 32 21 34 27 36
REMARK Flexibility Score: inf
ROOT
ATOM      1  C   UNL     1      21.881 -20.893 -11.813  1.00  0.00     0.065 A 
ATOM      2  C   UNL     1      22.315 -22.083 -11.214  1.00  0.00     0.208 A 
ATOM      3  O   UNL     1      21.942 -23.264 -11.695  1.00  0.00    -0.463 OA
ATOM      4  C   UNL     1      21.151 -23.401 -12.758  1.00  0.00     0.147 A 
ATOM      5  C   UNL     1      20.709 -22.250 -13.453  1.00  0.00     0.066 A 
ATOM      6  C   UNL     1      21.079 -20.984 -12.963  1.00  0.00     0.200 A 
ATOM      7  O   UNL     1      20.710 -19.934 -13.560  1.00  0.00    -0.288 OA
ATOM      8  C   UNL     1      19.924 -22.394 -14.603  1.00  0.00     0.020 A 
ATOM      9  C   UNL     1      19.553 -23.662 -15.045  1.00  0.00     0.047 A 
ATOM     10  C   UNL     1      19.937 -24.805 -14.336  1.00  0.00     0.125 A 
ATOM     11  C   UNL     1      20.756 -24.691 -13.187  1.00  0.00     0.069 A 
ENDROOT
BRANCH   1  12
ATOM     12  C   UNL     1      22.245 -19.585 -11.217  1.00  0.00    -0.011 A 
ATOM     13  C   UNL     1      23.590 -19.268 -10.960  1.00  0.00     0.013 A 
ATOM     14  C   UNL     1      23.927 -18.027 -10.406  1.00  0.00     0.047 A 
ATOM     15  C   UNL     1      22.929 -17.095 -10.104  1.00  0.00     0.115 A 
ATOM     16  C   UNL     1      21.246 -18.654 -10.886  1.00  0.00     0.013 A 
ATOM     17  C   UNL     1      21.585 -17.415 -10.334  1.00  0.00     0.047 A 
BRANCH  15  18
ATOM     18  O   UNL     1      23.282 -15.853  -9.581  1.00  0.00    -0.508 OA
ATOM     19  H   UNL     1      23.956 -15.258 -10.052  1.00  0.00     0.293 HD
ENDBRANCH  15  18
ENDBRANCH   1  12
BRANCH  11  20
ATOM     20  C   UNL     1      21.244 -25.931 -12.444  1.00  0.00     0.188 C 
ATOM     21  C   UNL     1      22.456 -26.568 -13.162  1.00  0.00     0.179 C 
ATOM     22  O   UNL     1      20.176 -26.861 -12.300  1.00  0.00    -0.362 OA
ATOM     23  C   UNL     1      22.939 -27.787 -12.361  1.00  0.00     0.177 C 
ATOM     24  C   UNL     1      20.537 -27.984 -11.504  1.00  0.00     0.176 C 
ATOM     25  C   UNL     1      21.756 -28.743 -12.091  1.00  0.00     0.177 C 
BRANCH  21  26
ATOM     26  O   UNL     1      22.104 -26.958 -14.466  1.00  0.00    -0.387 OA
ATOM     27  H   UNL     1      21.127 -26.811 -14.564  1.00  0.00     0.211 HD
ENDBRANCH  21  26
BRANCH  23  28
ATOM     28  O   UNL     1      23.939 -28.451 -13.089  1.00  0.00    -0.387 OA
ATOM     29  H   UNL     1      23.696 -28.384 -14.049  1.00  0.00     0.211 HD
ENDBRANCH  23  28
BRANCH  24  30
ATOM     30  C   UNL     1      20.667 -27.617 -10.007  1.00  0.00     0.191 C 
BRANCH  30  31
ATOM     31  O   UNL     1      20.282 -28.703  -9.211  1.00  0.00    -0.394 OA
ATOM     32  H   UNL     1      19.965 -28.316  -8.353  1.00  0.00     0.210 HD
ENDBRANCH  30  31
ENDBRANCH  24  30
BRANCH  25  33
ATOM     33  O   UNL     1      22.149 -29.774 -11.217  1.00  0.00    -0.388 OA
ATOM     34  H   UNL     1      21.423 -29.882 -10.546  1.00  0.00     0.211 HD
ENDBRANCH  25  33
ENDBRANCH  11  20
BRANCH  10  35
ATOM     35  O   UNL     1      19.509 -26.055 -14.781  1.00  0.00    -0.507 OA
ATOM     36  H   UNL     1      19.706 -26.387 -15.719  1.00  0.00     0.293 HD
ENDBRANCH  10  35
TORSDOF 9
ENDMDL
