MODEL 1
REMARK VINA RESULT:    -3.711      0.000      0.000
REMARK INTER + INTRA:          -4.358
REMARK INTER:                  -4.145
REMARK INTRA:                  -0.213
REMARK UNBOUND:                -0.213
REMARK SMILES CC(C)c1ccc(C(=O)[O-])cc1
REMARK SMILES IDX 7 1 6 2 11 3 5 4 12 5 4 6 8 7 9 8 10 9 2 10 1 11 3 12
REMARK H PARENT
REMARK Flexibility Score: inf
ROOT
ATOM      1  C   UNL     1      -5.625  -8.427   6.332  1.00  0.00    -0.003 A 
ATOM      2  C   UNL     1      -4.324  -8.950   6.400  1.00  0.00     0.010 A 
ATOM      3  C   UNL     1      -5.938  -7.278   7.079  1.00  0.00     0.010 A 
ATOM      4  C   UNL     1      -3.354  -8.338   7.199  1.00  0.00     0.004 A 
ATOM      5  C   UNL     1      -4.968  -6.666   7.878  1.00  0.00     0.004 A 
ATOM      6  C   UNL     1      -3.666  -7.188   7.948  1.00  0.00    -0.045 A 
ENDROOT
BRANCH   1   7
ATOM      7  C   UNL     1      -6.649  -9.078   5.484  1.00  0.00     0.071 C 
ATOM      8  O   UNL     1      -7.235 -10.123   5.875  1.00  0.00    -0.545 OA
ATOM      9  O   UNL     1      -6.978  -8.545   4.243  1.00  0.00    -0.545 OA
ENDBRANCH   1   7
BRANCH   6  10
ATOM     10  C   UNL     1      -2.623  -6.513   8.819  1.00  0.00     0.013 C 
ATOM     11  C   UNL     1      -1.211  -6.734   8.262  1.00  0.00     0.012 C 
ATOM     12  C   UNL     1      -2.923  -5.019   8.985  1.00  0.00     0.012 C 
ENDBRANCH   6  10
TORSDOF 2
ENDMDL
MODEL 2
REMARK VINA RESULT:    -3.570      4.157      5.666
REMARK INTER + INTRA:          -4.201
REMARK INTER:                  -3.996
REMARK INTRA:                  -0.204
REMARK UNBOUND:                -0.213
REMARK SMILES CC(C)c1ccc(C(=O)[O-])cc1
REMARK SMILES IDX 7 1 6 2 11 3 5 4 12 5 4 6 8 7 9 8 10 9 2 10 1 11 3 12
REMARK H PARENT
REMARK Flexibility Score: inf
ROOT
ATOM      1  C   UNL     1      -0.629  -6.920   8.649  1.00  0.00    -0.003 A 
ATOM      2  C   UNL     1      -1.366  -8.113   8.569  1.00  0.00     0.010 A 
ATOM      3  C   UNL     1      -1.317  -5.694   8.667  1.00  0.00     0.010 A 
ATOM      4  C   UNL     1      -2.761  -8.082   8.508  1.00  0.00     0.004 A 
ATOM      5  C   UNL     1      -2.712  -5.664   8.606  1.00  0.00     0.004 A 
ATOM      6  C   UNL     1      -3.451  -6.855   8.525  1.00  0.00    -0.045 A 
ENDROOT
BRANCH   1   7
ATOM      7  C   UNL     1       0.849  -6.958   8.715  1.00  0.00     0.071 C 
ATOM      8  O   UNL     1       1.475  -6.204   9.507  1.00  0.00    -0.545 OA
ATOM      9  O   UNL     1       1.568  -7.826   7.901  1.00  0.00    -0.545 OA
ENDBRANCH   1   7
BRANCH   6  10
ATOM     10  C   UNL     1      -4.966  -6.807   8.459  1.00  0.00     0.013 C 
ATOM     11  C   UNL     1      -5.468  -7.102   7.040  1.00  0.00     0.012 C 
ATOM     12  C   UNL     1      -5.595  -7.767   9.477  1.00  0.00     0.012 C 
ENDBRANCH   6  10
TORSDOF 2
ENDMDL
MODEL 3
REMARK VINA RESULT:    -3.518      3.706      5.213
REMARK INTER + INTRA:          -4.142
REMARK INTER:                  -3.930
REMARK INTRA:                  -0.212
REMARK UNBOUND:                -0.213
REMARK SMILES CC(C)c1ccc(C(=O)[O-])cc1
REMARK SMILES IDX 7 1 6 2 11 3 5 4 12 5 4 6 8 7 9 8 10 9 2 10 1 11 3 12
REMARK H PARENT
REMARK Flexibility Score: inf
ROOT
ATOM      1  C   UNL     1      -1.853  -6.816   8.250  1.00  0.00    -0.003 A 
ATOM      2  C   UNL     1      -2.190  -7.975   7.533  1.00  0.00     0.010 A 
ATOM      3  C   UNL     1      -2.877  -5.938   8.646  1.00  0.00     0.010 A 
ATOM      4  C   UNL     1      -3.523  -8.253   7.218  1.00  0.00     0.004 A 
ATOM      5  C   UNL     1      -4.210  -6.215   8.331  1.00  0.00     0.004 A 
ATOM      6  C   UNL     1      -4.549  -7.374   7.614  1.00  0.00    -0.045 A 
ENDROOT
BRANCH   1   7
ATOM      7  C   UNL     1      -0.439  -6.527   8.582  1.00  0.00     0.071 C 
ATOM      8  O   UNL     1       0.478  -7.307   8.213  1.00  0.00    -0.545 OA
ATOM      9  O   UNL     1      -0.106  -5.388   9.307  1.00  0.00    -0.545 OA
ENDBRANCH   1   7
BRANCH   6  10
ATOM     10  C   UNL     1      -6.000  -7.663   7.279  1.00  0.00     0.013 C 
ATOM     11  C   UNL     1      -6.114  -8.552   6.035  1.00  0.00     0.012 C 
ATOM     12  C   UNL     1      -6.729  -8.290   8.473  1.00  0.00     0.012 C 
ENDBRANCH   6  10
TORSDOF 2
ENDMDL
MODEL 4
REMARK VINA RESULT:    -3.488      4.091      5.715
REMARK INTER + INTRA:          -4.109
REMARK INTER:                  -3.887
REMARK INTRA:                  -0.221
REMARK UNBOUND:                -0.213
REMARK SMILES CC(C)c1ccc(C(=O)[O-])cc1
REMARK SMILES IDX 7 1 6 2 11 3 5 4 12 5 4 6 8 7 9 8 10 9 2 10 1 11 3 12
REMARK H PARENT
REMARK Flexibility Score: inf
ROOT
ATOM      1  C   UNL     1      -1.838  -5.547   8.987  1.00  0.00    -0.003 A 
ATOM      2  C   UNL     1      -1.399  -6.758   8.428  1.00  0.00     0.010 A 
ATOM      3  C   UNL     1      -3.214  -5.260   8.996  1.00  0.00     0.010 A 
ATOM      4  C   UNL     1      -2.316  -7.663   7.887  1.00  0.00     0.004 A 
ATOM      5  C   UNL     1      -4.130  -6.165   8.455  1.00  0.00     0.004 A 
ATOM      6  C   UNL     1      -3.694  -7.376   7.894  1.00  0.00    -0.045 A 
ENDROOT
BRANCH   1   7
ATOM      7  C   UNL     1      -0.863  -4.592   9.560  1.00  0.00     0.071 C 
ATOM      8  O   UNL     1      -1.256  -3.536  10.125  1.00  0.00    -0.545 OA
ATOM      9  O   UNL     1       0.502  -4.847   9.482  1.00  0.00    -0.545 OA
ENDBRANCH   1   7
BRANCH   6  10
ATOM     10  C   UNL     1      -4.700  -8.350   7.310  1.00  0.00     0.013 C 
ATOM     11  C   UNL     1      -6.015  -7.643   6.959  1.00  0.00     0.012 C 
ATOM     12  C   UNL     1      -4.122  -9.078   6.091  1.00  0.00     0.012 C 
ENDBRANCH   6  10
TORSDOF 2
ENDMDL
MODEL 5
REMARK VINA RESULT:    -3.442      3.034      5.306
REMARK INTER + INTRA:          -4.056
REMARK INTER:                  -3.850
REMARK INTRA:                  -0.207
REMARK UNBOUND:                -0.213
REMARK SMILES CC(C)c1ccc(C(=O)[O-])cc1
REMARK SMILES IDX 7 1 6 2 11 3 5 4 12 5 4 6 8 7 9 8 10 9 2 10 1 11 3 12
REMARK H PARENT
REMARK Flexibility Score: inf
ROOT
ATOM      1  C   UNL     1      -3.245  -7.975   7.404  1.00  0.00    -0.003 A 
ATOM      2  C   UNL     1      -4.562  -7.520   7.572  1.00  0.00     0.010 A 
ATOM      3  C   UNL     1      -2.973  -8.925   6.404  1.00  0.00     0.010 A 
ATOM      4  C   UNL     1      -5.589  -8.005   6.758  1.00  0.00     0.004 A 
ATOM      5  C   UNL     1      -4.000  -9.410   5.590  1.00  0.00     0.004 A 
ATOM      6  C   UNL     1      -5.319  -8.957   5.757  1.00  0.00    -0.045 A 
ENDROOT
BRANCH   1   7
ATOM      7  C   UNL     1      -2.160  -7.458   8.268  1.00  0.00     0.071 C 
ATOM      8  O   UNL     1      -1.030  -7.183   7.783  1.00  0.00    -0.545 OA
ATOM      9  O   UNL     1      -2.373  -7.268   9.629  1.00  0.00    -0.545 OA
ENDBRANCH   1   7
BRANCH   6  10
ATOM     10  C   UNL     1      -6.425  -9.492   4.866  1.00  0.00     0.013 C 
ATOM     11  C   UNL     1      -7.770  -9.506   5.601  1.00  0.00     0.012 C 
ATOM     12  C   UNL     1      -6.518  -8.694   3.560  1.00  0.00     0.012 C 
ENDBRANCH   6  10
TORSDOF 2
ENDMDL
MODEL 6
REMARK VINA RESULT:    -3.409      0.989      2.024
REMARK INTER + INTRA:          -4.020
REMARK INTER:                  -3.808
REMARK INTRA:                  -0.212
REMARK UNBOUND:                -0.213
REMARK SMILES CC(C)c1ccc(C(=O)[O-])cc1
REMARK SMILES IDX 7 1 6 2 11 3 5 4 12 5 4 6 8 7 9 8 10 9 2 10 1 11 3 12
REMARK H PARENT
REMARK Flexibility Score: inf
ROOT
ATOM      1  C   UNL     1      -5.645  -8.725   5.755  1.00  0.00    -0.003 A 
ATOM      2  C   UNL     1      -6.089  -7.700   6.605  1.00  0.00     0.010 A 
ATOM      3  C   UNL     1      -4.326  -9.195   5.885  1.00  0.00     0.010 A 
ATOM      4  C   UNL     1      -5.233  -7.152   7.564  1.00  0.00     0.004 A 
ATOM      5  C   UNL     1      -3.470  -8.647   6.844  1.00  0.00     0.004 A 
ATOM      6  C   UNL     1      -3.912  -7.620   7.695  1.00  0.00    -0.045 A 
ENDROOT
BRANCH   1   7
ATOM      7  C   UNL     1      -6.555  -9.303   4.741  1.00  0.00     0.071 C 
ATOM      8  O   UNL     1      -6.126 -10.125   3.888  1.00  0.00    -0.545 OA
ATOM      9  O   UNL     1      -7.899  -8.944   4.716  1.00  0.00    -0.545 OA
ENDBRANCH   1   7
BRANCH   6  10
ATOM     10  C   UNL     1      -2.972  -7.035   8.732  1.00  0.00     0.013 C 
ATOM     11  C   UNL     1      -3.395  -5.614   9.123  1.00  0.00     0.012 C 
ATOM     12  C   UNL     1      -2.876  -7.941   9.965  1.00  0.00     0.012 C 
ENDBRANCH   6  10
TORSDOF 2
ENDMDL
MODEL 7
REMARK VINA RESULT:    -3.360     11.500     13.264
REMARK INTER + INTRA:          -3.965
REMARK INTER:                  -3.758
REMARK INTRA:                  -0.207
REMARK UNBOUND:                -0.213
REMARK SMILES CC(C)c1ccc(C(=O)[O-])cc1
REMARK SMILES IDX 7 1 6 2 11 3 5 4 12 5 4 6 8 7 9 8 10 9 2 10 1 11 3 12
REMARK H PARENT
REMARK Flexibility Score: inf
ROOT
ATOM      1  C   UNL     1       7.999  -3.706   8.835  1.00  0.00    -0.003 A 
ATOM      2  C   UNL     1       8.229  -2.424   9.359  1.00  0.00     0.010 A 
ATOM      3  C   UNL     1       6.676  -4.156   8.688  1.00  0.00     0.010 A 
ATOM      4  C   UNL     1       7.157  -1.607   9.731  1.00  0.00     0.004 A 
ATOM      5  C   UNL     1       5.604  -3.339   9.060  1.00  0.00     0.004 A 
ATOM      6  C   UNL     1       5.832  -2.057   9.586  1.00  0.00    -0.045 A 
ENDROOT
BRANCH   1   7
ATOM      7  C   UNL     1       9.137  -4.567   8.441  1.00  0.00     0.071 C 
ATOM      8  O   UNL     1       9.713  -5.297   9.292  1.00  0.00    -0.545 OA
ATOM      9  O   UNL     1       9.588  -4.581   7.126  1.00  0.00    -0.545 OA
ENDBRANCH   1   7
BRANCH   6  10
ATOM     10  C   UNL     1       4.659  -1.180   9.985  1.00  0.00     0.013 C 
ATOM     11  C   UNL     1       4.543   0.042   9.066  1.00  0.00     0.012 C 
ATOM     12  C   UNL     1       3.352  -1.981  10.006  1.00  0.00     0.012 C 
ENDBRANCH   6  10
TORSDOF 2
ENDMDL
MODEL 8
REMARK VINA RESULT:    -3.342     22.546     23.133
REMARK INTER + INTRA:          -3.945
REMARK INTER:                  -3.727
REMARK INTRA:                  -0.219
REMARK UNBOUND:                -0.213
REMARK SMILES CC(C)c1ccc(C(=O)[O-])cc1
REMARK SMILES IDX 7 1 6 2 11 3 5 4 12 5 4 6 8 7 9 8 10 9 2 10 1 11 3 12
REMARK H PARENT
REMARK Flexibility Score: inf
ROOT
ATOM      1  C   UNL     1      -5.765   8.876  -8.564  1.00  0.00    -0.003 A 
ATOM      2  C   UNL     1      -4.850   9.897  -8.263  1.00  0.00     0.010 A 
ATOM      3  C   UNL     1      -5.330   7.770  -9.316  1.00  0.00     0.010 A 
ATOM      4  C   UNL     1      -3.526   9.817  -8.704  1.00  0.00     0.004 A 
ATOM      5  C   UNL     1      -4.006   7.691  -9.757  1.00  0.00     0.004 A 
ATOM      6  C   UNL     1      -3.089   8.712  -9.457  1.00  0.00    -0.045 A 
ENDROOT
BRANCH   1   7
ATOM      7  C   UNL     1      -7.166   8.964  -8.094  1.00  0.00     0.071 C 
ATOM      8  O   UNL     1      -7.730  10.084  -7.969  1.00  0.00    -0.545 OA
ATOM      9  O   UNL     1      -7.878   7.811  -7.782  1.00  0.00    -0.545 OA
ENDBRANCH   1   7
BRANCH   6  10
ATOM     10  C   UNL     1      -1.655   8.612  -9.942  1.00  0.00     0.013 C 
ATOM     11  C   UNL     1      -0.699   9.348  -8.996  1.00  0.00     0.012 C 
ATOM     12  C   UNL     1      -1.233   7.149 -10.125  1.00  0.00     0.012 C 
ENDBRANCH   6  10
TORSDOF 2
ENDMDL
MODEL 9
REMARK VINA RESULT:    -3.321      1.698      2.437
REMARK INTER + INTRA:          -3.922
REMARK INTER:                  -3.704
REMARK INTRA:                  -0.218
REMARK UNBOUND:                -0.213
REMARK SMILES CC(C)c1ccc(C(=O)[O-])cc1
REMARK SMILES IDX 7 1 6 2 11 3 5 4 12 5 4 6 8 7 9 8 10 9 2 10 1 11 3 12
REMARK H PARENT
REMARK Flexibility Score: inf
ROOT
ATOM      1  C   UNL     1      -4.264  -7.281   7.876  1.00  0.00    -0.003 A 
ATOM      2  C   UNL     1      -3.205  -8.202   7.833  1.00  0.00     0.010 A 
ATOM      3  C   UNL     1      -4.051  -6.026   8.472  1.00  0.00     0.010 A 
ATOM      4  C   UNL     1      -1.959  -7.878   8.376  1.00  0.00     0.004 A 
ATOM      5  C   UNL     1      -2.804  -5.701   9.015  1.00  0.00     0.004 A 
ATOM      6  C   UNL     1      -1.745  -6.622   8.974  1.00  0.00    -0.045 A 
ENDROOT
BRANCH   1   7
ATOM      7  C   UNL     1      -5.582  -7.628   7.299  1.00  0.00     0.071 C 
ATOM      8  O   UNL     1      -6.044  -8.794   7.415  1.00  0.00    -0.545 OA
ATOM      9  O   UNL     1      -6.327  -6.671   6.619  1.00  0.00    -0.545 OA
ENDBRANCH   1   7
BRANCH   6  10
ATOM     10  C   UNL     1      -0.397  -6.257   9.567  1.00  0.00     0.013 C 
ATOM     11  C   UNL     1       0.746  -6.935   8.802  1.00  0.00     0.012 C 
ATOM     12  C   UNL     1      -0.205  -4.736   9.610  1.00  0.00     0.012 C 
ENDBRANCH   6  10
TORSDOF 2
ENDMDL
