MODEL 1
REMARK VINA RESULT:    -5.543      0.000      0.000
REMARK INTER + INTRA:         -10.725
REMARK INTER:                  -8.460
REMARK INTRA:                  -2.265
REMARK UNBOUND:                -2.265
REMARK SMILES CC(=O)CCC=C(C)CCC=C(C)CCC=C(C)C
REMARK SMILES IDX 10 1 11 2 12 3 13 4 14 5 15 6 16 7 18 8 17 9 19 10 9 11 7 12
REMARK SMILES IDX 6 13 8 14 5 15 4 16 2 17 3 18 1 19
REMARK H PARENT
REMARK Flexibility Score: inf
ROOT
ATOM      1  C   UNL     1      18.843 -31.449  21.450  1.00  0.00     0.032 C 
ENDROOT
BRANCH   1   2
ATOM      2  C   UNL     1      18.408 -32.391  20.355  1.00  0.00    -0.028 C 
ATOM      3  C   UNL     1      18.458 -33.736  20.476  1.00  0.00    -0.077 C 
ATOM      4  C   UNL     1      18.968 -34.394  21.736  1.00  0.00     0.039 C 
BRANCH   3   5
ATOM      5  C   UNL     1      17.996 -34.601  19.325  1.00  0.00     0.034 C 
BRANCH   5   6
ATOM      6  C   UNL     1      16.624 -35.215  19.622  1.00  0.00     0.032 C 
BRANCH   6   7
ATOM      7  C   UNL     1      15.532 -34.184  19.476  1.00  0.00    -0.028 C 
ATOM      8  C   UNL     1      15.174 -33.979  21.946  1.00  0.00     0.039 C 
ATOM      9  C   UNL     1      14.850 -33.644  20.512  1.00  0.00    -0.080 C 
ATOM     10  C   UNL     1      13.755 -32.644  20.247  1.00  0.00     0.039 C 
ENDBRANCH   6   7
ENDBRANCH   5   6
ENDBRANCH   3   5
ENDBRANCH   1   2
BRANCH   1  11
ATOM     11  C   UNL     1      17.830 -30.314  21.643  1.00  0.00     0.034 C 
BRANCH  11  12
ATOM     12  C   UNL     1      16.773 -30.701  22.656  1.00  0.00    -0.077 C 
ATOM     13  C   UNL     1      15.488 -30.347  22.429  1.00  0.00    -0.028 C 
ATOM     14  C   UNL     1      17.182 -31.477  23.886  1.00  0.00     0.039 C 
BRANCH  13  15
ATOM     15  C   UNL     1      14.342 -30.622  23.376  1.00  0.00     0.035 C 
BRANCH  15  16
ATOM     16  C   UNL     1      13.592 -29.338  23.748  1.00  0.00     0.079 C 
BRANCH  16  17
ATOM     17  C   UNL     1      12.165 -29.365  23.267  1.00  0.00     0.130 C 
ATOM     18  O   UNL     1      11.341 -28.613  23.767  1.00  0.00    -0.300 OA
ATOM     19  C   UNL     1      11.751 -30.302  22.174  1.00  0.00     0.087 C 
ENDBRANCH  16  17
ENDBRANCH  15  16
ENDBRANCH  13  15
ENDBRANCH  11  12
ENDBRANCH   1  11
TORSDOF 9
ENDMDL
MODEL 2
REMARK VINA RESULT:    -5.407      2.676      5.225
REMARK INTER + INTRA:         -10.517
REMARK INTER:                  -8.046
REMARK INTRA:                  -2.471
REMARK UNBOUND:                -2.265
REMARK SMILES CC(=O)CCC=C(C)CCC=C(C)CCC=C(C)C
REMARK SMILES IDX 10 1 11 2 12 3 13 4 14 5 15 6 16 7 18 8 17 9 19 10 9 11 7 12
REMARK SMILES IDX 6 13 8 14 5 15 4 16 2 17 3 18 1 19
REMARK H PARENT
REMARK Flexibility Score: inf
ROOT
ATOM      1  C   UNL     1      18.726 -32.562  23.586  1.00  0.00     0.032 C 
ENDROOT
BRANCH   1   2
ATOM      2  C   UNL     1      18.042 -31.249  23.301  1.00  0.00    -0.028 C 
ATOM      3  C   UNL     1      17.955 -30.716  22.062  1.00  0.00    -0.077 C 
ATOM      4  C   UNL     1      18.554 -31.412  20.863  1.00  0.00     0.039 C 
BRANCH   3   5
ATOM      5  C   UNL     1      17.245 -29.394  21.872  1.00  0.00     0.034 C 
BRANCH   5   6
ATOM      6  C   UNL     1      15.784 -29.492  22.320  1.00  0.00     0.032 C 
BRANCH   6   7
ATOM      7  C   UNL     1      14.983 -30.331  21.355  1.00  0.00    -0.028 C 
ATOM      8  C   UNL     1      13.049 -30.580  22.926  1.00  0.00     0.039 C 
ATOM      9  C   UNL     1      13.765 -30.853  21.627  1.00  0.00    -0.080 C 
ATOM     10  C   UNL     1      13.067 -31.705  20.599  1.00  0.00     0.039 C 
ENDBRANCH   6   7
ENDBRANCH   5   6
ENDBRANCH   3   5
ENDBRANCH   1   2
BRANCH   1  11
ATOM     11  C   UNL     1      17.769 -33.554  24.257  1.00  0.00     0.034 C 
BRANCH  11  12
ATOM     12  C   UNL     1      16.507 -33.724  23.438  1.00  0.00    -0.077 C 
ATOM     13  C   UNL     1      16.602 -34.215  22.182  1.00  0.00    -0.028 C 
ATOM     14  C   UNL     1      15.177 -33.349  24.050  1.00  0.00     0.039 C 
BRANCH  13  15
ATOM     15  C   UNL     1      15.435 -34.389  21.238  1.00  0.00     0.035 C 
BRANCH  15  16
ATOM     16  C   UNL     1      15.839 -34.127  19.781  1.00  0.00     0.079 C 
BRANCH  16  17
ATOM     17  C   UNL     1      17.018 -34.967  19.368  1.00  0.00     0.130 C 
ATOM     18  O   UNL     1      18.056 -34.426  19.017  1.00  0.00    -0.300 OA
ATOM     19  C   UNL     1      16.930 -36.463  19.394  1.00  0.00     0.087 C 
ENDBRANCH  16  17
ENDBRANCH  15  16
ENDBRANCH  13  15
ENDBRANCH  11  12
ENDBRANCH   1  11
TORSDOF 9
ENDMDL
MODEL 3
REMARK VINA RESULT:    -5.399      2.048      4.788
REMARK INTER + INTRA:         -10.505
REMARK INTER:                  -8.333
REMARK INTRA:                  -2.172
REMARK UNBOUND:                -2.265
REMARK SMILES CC(=O)CCC=C(C)CCC=C(C)CCC=C(C)C
REMARK SMILES IDX 10 1 11 2 12 3 13 4 14 5 15 6 16 7 18 8 17 9 19 10 9 11 7 12
REMARK SMILES IDX 6 13 8 14 5 15 4 16 2 17 3 18 1 19
REMARK H PARENT
REMARK Flexibility Score: inf
ROOT
ATOM      1  C   UNL     1      17.658 -36.481  20.224  1.00  0.00     0.032 C 
ENDROOT
BRANCH   1   2
ATOM      2  C   UNL     1      16.366 -35.709  20.333  1.00  0.00    -0.028 C 
ATOM      3  C   UNL     1      16.167 -34.516  19.731  1.00  0.00    -0.077 C 
ATOM      4  C   UNL     1      17.246 -33.864  18.900  1.00  0.00     0.039 C 
BRANCH   3   5
ATOM      5  C   UNL     1      14.835 -33.817  19.895  1.00  0.00     0.034 C 
BRANCH   5   6
ATOM      6  C   UNL     1      14.674 -33.281  21.321  1.00  0.00     0.032 C 
BRANCH   6   7
ATOM      7  C   UNL     1      13.821 -32.036  21.332  1.00  0.00    -0.028 C 
ATOM      8  C   UNL     1      13.773 -31.898  23.832  1.00  0.00     0.039 C 
ATOM      9  C   UNL     1      13.383 -31.422  22.455  1.00  0.00    -0.080 C 
ATOM     10  C   UNL     1      12.508 -30.200  22.349  1.00  0.00     0.039 C 
ENDBRANCH   6   7
ENDBRANCH   5   6
ENDBRANCH   3   5
ENDBRANCH   1   2
BRANCH   1  11
ATOM     11  C   UNL     1      18.299 -36.688  21.601  1.00  0.00     0.034 C 
BRANCH  11  12
ATOM     12  C   UNL     1      18.446 -35.371  22.332  1.00  0.00    -0.077 C 
ATOM     13  C   UNL     1      19.304 -34.444  21.848  1.00  0.00    -0.028 C 
ATOM     14  C   UNL     1      17.624 -35.125  23.576  1.00  0.00     0.039 C 
BRANCH  13  15
ATOM     15  C   UNL     1      19.586 -33.111  22.502  1.00  0.00     0.035 C 
BRANCH  15  16
ATOM     16  C   UNL     1      19.263 -31.940  21.565  1.00  0.00     0.079 C 
BRANCH  16  17
ATOM     17  C   UNL     1      17.892 -31.377  21.826  1.00  0.00     0.130 C 
ATOM     18  O   UNL     1      17.236 -30.921  20.901  1.00  0.00    -0.300 OA
ATOM     19  C   UNL     1      17.322 -31.379  23.211  1.00  0.00     0.087 C 
ENDBRANCH  16  17
ENDBRANCH  15  16
ENDBRANCH  13  15
ENDBRANCH  11  12
ENDBRANCH   1  11
TORSDOF 9
ENDMDL
MODEL 4
REMARK VINA RESULT:    -5.382      1.595      3.233
REMARK INTER + INTRA:         -10.480
REMARK INTER:                  -7.862
REMARK INTRA:                  -2.617
REMARK UNBOUND:                -2.265
REMARK SMILES CC(=O)CCC=C(C)CCC=C(C)CCC=C(C)C
REMARK SMILES IDX 10 1 11 2 12 3 13 4 14 5 15 6 16 7 18 8 17 9 19 10 9 11 7 12
REMARK SMILES IDX 6 13 8 14 5 15 4 16 2 17 3 18 1 19
REMARK H PARENT
REMARK Flexibility Score: inf
ROOT
ATOM      1  C   UNL     1      16.328 -34.216  24.016  1.00  0.00     0.032 C 
ENDROOT
BRANCH   1   2
ATOM      2  C   UNL     1      16.995 -34.655  22.736  1.00  0.00    -0.028 C 
ATOM      3  C   UNL     1      16.388 -34.594  21.530  1.00  0.00    -0.077 C 
ATOM      4  C   UNL     1      14.976 -34.078  21.385  1.00  0.00     0.039 C 
BRANCH   3   5
ATOM      5  C   UNL     1      17.138 -35.053  20.299  1.00  0.00     0.034 C 
BRANCH   5   6
ATOM      6  C   UNL     1      18.425 -34.244  20.113  1.00  0.00     0.032 C 
BRANCH   6   7
ATOM      7  C   UNL     1      18.128 -32.765  20.080  1.00  0.00    -0.028 C 
ATOM      8  C   UNL     1      19.737 -32.239  21.926  1.00  0.00     0.039 C 
ATOM      9  C   UNL     1      18.688 -31.857  20.912  1.00  0.00    -0.080 C 
ATOM     10  C   UNL     1      18.294 -30.406  20.812  1.00  0.00     0.039 C 
ENDBRANCH   6   7
ENDBRANCH   5   6
ENDBRANCH   3   5
ENDBRANCH   1   2
BRANCH   1  11
ATOM     11  C   UNL     1      17.197 -33.208  24.778  1.00  0.00     0.034 C 
BRANCH  11  12
ATOM     12  C   UNL     1      16.915 -31.794  24.315  1.00  0.00    -0.077 C 
ATOM     13  C   UNL     1      15.757 -31.535  23.666  1.00  0.00    -0.028 C 
ATOM     14  C   UNL     1      17.930 -30.711  24.600  1.00  0.00     0.039 C 
BRANCH  13  15
ATOM     15  C   UNL     1      15.370 -30.186  23.107  1.00  0.00     0.035 C 
BRANCH  15  16
ATOM     16  C   UNL     1      14.767 -30.305  21.702  1.00  0.00     0.079 C 
BRANCH  16  17
ATOM     17  C   UNL     1      13.309 -30.677  21.748  1.00  0.00     0.130 C 
ATOM     18  O   UNL     1      12.839 -31.404  20.886  1.00  0.00    -0.300 OA
ATOM     19  C   UNL     1      12.431 -30.167  22.851  1.00  0.00     0.087 C 
ENDBRANCH  16  17
ENDBRANCH  15  16
ENDBRANCH  13  15
ENDBRANCH  11  12
ENDBRANCH   1  11
TORSDOF 9
ENDMDL
MODEL 5
REMARK VINA RESULT:    -5.289      3.369      4.996
REMARK INTER + INTRA:         -10.338
REMARK INTER:                  -8.825
REMARK INTRA:                  -1.513
REMARK UNBOUND:                -2.265
REMARK SMILES CC(=O)CCC=C(C)CCC=C(C)CCC=C(C)C
REMARK SMILES IDX 10 1 11 2 12 3 13 4 14 5 15 6 16 7 18 8 17 9 19 10 9 11 7 12
REMARK SMILES IDX 6 13 8 14 5 15 4 16 2 17 3 18 1 19
REMARK H PARENT
REMARK Flexibility Score: inf
ROOT
ATOM      1  C   UNL     1      19.033 -32.147  20.997  1.00  0.00     0.032 C 
ENDROOT
BRANCH   1   2
ATOM      2  C   UNL     1      18.045 -32.878  20.122  1.00  0.00    -0.028 C 
ATOM      3  C   UNL     1      17.723 -34.178  20.301  1.00  0.00    -0.077 C 
ATOM      4  C   UNL     1      18.346 -34.998  21.406  1.00  0.00     0.039 C 
BRANCH   3   5
ATOM      5  C   UNL     1      16.717 -34.826  19.375  1.00  0.00     0.034 C 
BRANCH   5   6
ATOM      6  C   UNL     1      15.363 -34.989  20.071  1.00  0.00     0.032 C 
BRANCH   6   7
ATOM      7  C   UNL     1      14.560 -33.715  19.987  1.00  0.00    -0.028 C 
ATOM      8  C   UNL     1      14.909 -33.146  22.401  1.00  0.00     0.039 C 
ATOM      9  C   UNL     1      14.322 -32.893  21.035  1.00  0.00    -0.080 C 
ATOM     10  C   UNL     1      13.477 -31.659  20.843  1.00  0.00     0.039 C 
ENDBRANCH   6   7
ENDBRANCH   5   6
ENDBRANCH   3   5
ENDBRANCH   1   2
BRANCH   1  11
ATOM     11  C   UNL     1      18.317 -31.281  22.040  1.00  0.00     0.034 C 
BRANCH  11  12
ATOM     12  C   UNL     1      18.214 -29.845  21.571  1.00  0.00    -0.077 C 
ATOM     13  C   UNL     1      19.322 -29.229  21.101  1.00  0.00    -0.028 C 
ATOM     14  C   UNL     1      16.877 -29.144  21.634  1.00  0.00     0.039 C 
BRANCH  13  15
ATOM     15  C   UNL     1      19.376 -27.788  20.648  1.00  0.00     0.035 C 
BRANCH  15  16
ATOM     16  C   UNL     1      20.744 -27.154  20.932  1.00  0.00     0.079 C 
BRANCH  16  17
ATOM     17  C   UNL     1      20.771 -25.695  20.564  1.00  0.00     0.130 C 
ATOM     18  O   UNL     1      19.848 -24.967  20.897  1.00  0.00    -0.300 OA
ATOM     19  C   UNL     1      21.928 -25.127  19.798  1.00  0.00     0.087 C 
ENDBRANCH  16  17
ENDBRANCH  15  16
ENDBRANCH  13  15
ENDBRANCH  11  12
ENDBRANCH   1  11
TORSDOF 9
ENDMDL
MODEL 6
REMARK VINA RESULT:    -5.277      2.893      5.149
REMARK INTER + INTRA:         -10.318
REMARK INTER:                  -7.983
REMARK INTRA:                  -2.336
REMARK UNBOUND:                -2.265
REMARK SMILES CC(=O)CCC=C(C)CCC=C(C)CCC=C(C)C
REMARK SMILES IDX 10 1 11 2 12 3 13 4 14 5 15 6 16 7 18 8 17 9 19 10 9 11 7 12
REMARK SMILES IDX 6 13 8 14 5 15 4 16 2 17 3 18 1 19
REMARK H PARENT
REMARK Flexibility Score: inf
ROOT
ATOM      1  C   UNL     1      14.637 -33.633  20.139  1.00  0.00     0.032 C 
ENDROOT
BRANCH   1   2
ATOM      2  C   UNL     1      15.371 -34.951  20.137  1.00  0.00    -0.028 C 
ATOM      3  C   UNL     1      16.562 -35.130  19.525  1.00  0.00    -0.077 C 
ATOM      4  C   UNL     1      17.245 -34.003  18.786  1.00  0.00     0.039 C 
BRANCH   3   5
ATOM      5  C   UNL     1      17.226 -36.489  19.579  1.00  0.00     0.034 C 
BRANCH   5   6
ATOM      6  C   UNL     1      17.644 -36.832  21.012  1.00  0.00     0.032 C 
BRANCH   6   7
ATOM      7  C   UNL     1      18.689 -35.865  21.512  1.00  0.00    -0.028 C 
ATOM      8  C   UNL     1      17.250 -35.030  23.385  1.00  0.00     0.039 C 
ATOM      9  C   UNL     1      18.512 -35.026  22.559  1.00  0.00    -0.080 C 
ATOM     10  C   UNL     1      19.615 -34.078  22.953  1.00  0.00     0.039 C 
ENDBRANCH   6   7
ENDBRANCH   5   6
ENDBRANCH   3   5
ENDBRANCH   1   2
BRANCH   1  11
ATOM     11  C   UNL     1      14.673 -32.979  21.525  1.00  0.00     0.034 C 
BRANCH  11  12
ATOM     12  C   UNL     1      15.532 -31.732  21.511  1.00  0.00    -0.077 C 
ATOM     13  C   UNL     1      16.876 -31.861  21.585  1.00  0.00    -0.028 C 
ATOM     14  C   UNL     1      14.865 -30.380  21.406  1.00  0.00     0.039 C 
BRANCH  13  15
ATOM     15  C   UNL     1      17.848 -30.705  21.631  1.00  0.00     0.035 C 
BRANCH  15  16
ATOM     16  C   UNL     1      19.183 -31.058  20.964  1.00  0.00     0.079 C 
BRANCH  16  17
ATOM     17  C   UNL     1      20.317 -30.233  21.510  1.00  0.00     0.130 C 
ATOM     18  O   UNL     1      21.052 -30.702  22.366  1.00  0.00    -0.300 OA
ATOM     19  C   UNL     1      20.556 -28.843  21.004  1.00  0.00     0.087 C 
ENDBRANCH  16  17
ENDBRANCH  15  16
ENDBRANCH  13  15
ENDBRANCH  11  12
ENDBRANCH   1  11
TORSDOF 9
ENDMDL
MODEL 7
REMARK VINA RESULT:    -5.266      3.113      5.268
REMARK INTER + INTRA:         -10.303
REMARK INTER:                  -8.462
REMARK INTRA:                  -1.840
REMARK UNBOUND:                -2.265
REMARK SMILES CC(=O)CCC=C(C)CCC=C(C)CCC=C(C)C
REMARK SMILES IDX 10 1 11 2 12 3 13 4 14 5 15 6 16 7 18 8 17 9 19 10 9 11 7 12
REMARK SMILES IDX 6 13 8 14 5 15 4 16 2 17 3 18 1 19
REMARK H PARENT
REMARK Flexibility Score: inf
ROOT
ATOM      1  C   UNL     1      17.558 -35.776  20.075  1.00  0.00     0.032 C 
ENDROOT
BRANCH   1   2
ATOM      2  C   UNL     1      18.015 -36.735  21.146  1.00  0.00    -0.028 C 
ATOM      3  C   UNL     1      18.788 -36.361  22.190  1.00  0.00    -0.077 C 
ATOM      4  C   UNL     1      19.256 -34.934  22.350  1.00  0.00     0.039 C 
BRANCH   3   5
ATOM      5  C   UNL     1      19.193 -37.393  23.219  1.00  0.00     0.034 C 
BRANCH   5   6
ATOM      6  C   UNL     1      19.509 -36.726  24.562  1.00  0.00     0.032 C 
BRANCH   6   7
ATOM      7  C   UNL     1      18.638 -37.290  25.658  1.00  0.00    -0.028 C 
ATOM      8  C   UNL     1      16.992 -35.406  25.538  1.00  0.00     0.039 C 
ATOM      9  C   UNL     1      17.520 -36.690  26.128  1.00  0.00    -0.080 C 
ATOM     10  C   UNL     1      16.742 -37.328  27.250  1.00  0.00     0.039 C 
ENDBRANCH   6   7
ENDBRANCH   5   6
ENDBRANCH   3   5
ENDBRANCH   1   2
BRANCH   1  11
ATOM     11  C   UNL     1      16.031 -35.778  19.941  1.00  0.00     0.034 C 
BRANCH  11  12
ATOM     12  C   UNL     1      15.431 -34.548  20.589  1.00  0.00    -0.077 C 
ATOM     13  C   UNL     1      15.739 -34.268  21.875  1.00  0.00    -0.028 C 
ATOM     14  C   UNL     1      14.513 -33.664  19.777  1.00  0.00     0.039 C 
BRANCH  13  15
ATOM     15  C   UNL     1      15.176 -33.106  22.659  1.00  0.00     0.035 C 
BRANCH  15  16
ATOM     16  C   UNL     1      16.223 -32.007  22.877  1.00  0.00     0.079 C 
BRANCH  16  17
ATOM     17  C   UNL     1      16.402 -31.154  21.649  1.00  0.00     0.130 C 
ATOM     18  O   UNL     1      15.511 -30.393  21.303  1.00  0.00    -0.300 OA
ATOM     19  C   UNL     1      17.669 -31.227  20.853  1.00  0.00     0.087 C 
ENDBRANCH  16  17
ENDBRANCH  15  16
ENDBRANCH  13  15
ENDBRANCH  11  12
ENDBRANCH   1  11
TORSDOF 9
ENDMDL
MODEL 8
REMARK VINA RESULT:    -5.253      2.787      5.527
REMARK INTER + INTRA:         -10.282
REMARK INTER:                  -8.455
REMARK INTRA:                  -1.827
REMARK UNBOUND:                -2.265
REMARK SMILES CC(=O)CCC=C(C)CCC=C(C)CCC=C(C)C
REMARK SMILES IDX 10 1 11 2 12 3 13 4 14 5 15 6 16 7 18 8 17 9 19 10 9 11 7 12
REMARK SMILES IDX 6 13 8 14 5 15 4 16 2 17 3 18 1 19
REMARK H PARENT
REMARK Flexibility Score: inf
ROOT
ATOM      1  C   UNL     1      18.419 -32.185  24.155  1.00  0.00     0.032 C 
ENDROOT
BRANCH   1   2
ATOM      2  C   UNL     1      16.913 -32.208  24.058  1.00  0.00    -0.028 C 
ATOM      3  C   UNL     1      16.183 -33.336  24.202  1.00  0.00    -0.077 C 
ATOM      4  C   UNL     1      16.839 -34.670  24.467  1.00  0.00     0.039 C 
BRANCH   3   5
ATOM      5  C   UNL     1      14.676 -33.261  24.093  1.00  0.00     0.034 C 
BRANCH   5   6
ATOM      6  C   UNL     1      14.258 -32.281  22.993  1.00  0.00     0.032 C 
BRANCH   6   7
ATOM      7  C   UNL     1      13.345 -31.214  23.544  1.00  0.00    -0.028 C 
ATOM      8  C   UNL     1      14.974 -29.364  23.097  1.00  0.00     0.039 C 
ATOM      9  C   UNL     1      13.668 -29.902  23.626  1.00  0.00    -0.080 C 
ATOM     10  C   UNL     1      12.689 -28.925  24.225  1.00  0.00     0.039 C 
ENDBRANCH   6   7
ENDBRANCH   5   6
ENDBRANCH   3   5
ENDBRANCH   1   2
BRANCH   1  11
ATOM     11  C   UNL     1      19.031 -31.287  23.073  1.00  0.00     0.034 C 
BRANCH  11  12
ATOM     12  C   UNL     1      18.445 -31.604  21.713  1.00  0.00    -0.077 C 
ATOM     13  C   UNL     1      18.535 -32.868  21.240  1.00  0.00    -0.028 C 
ATOM     14  C   UNL     1      17.770 -30.504  20.928  1.00  0.00     0.039 C 
BRANCH  13  15
ATOM     15  C   UNL     1      18.041 -33.313  19.883  1.00  0.00     0.035 C 
BRANCH  15  16
ATOM     16  C   UNL     1      18.111 -34.837  19.725  1.00  0.00     0.079 C 
BRANCH  16  17
ATOM     17  C   UNL     1      16.742 -35.464  19.745  1.00  0.00     0.130 C 
ATOM     18  O   UNL     1      16.563 -36.550  19.214  1.00  0.00    -0.300 OA
ATOM     19  C   UNL     1      15.599 -34.768  20.420  1.00  0.00     0.087 C 
ENDBRANCH  16  17
ENDBRANCH  15  16
ENDBRANCH  13  15
ENDBRANCH  11  12
ENDBRANCH   1  11
TORSDOF 9
ENDMDL
MODEL 9
REMARK VINA RESULT:    -5.249      2.516      5.284
REMARK INTER + INTRA:         -10.277
REMARK INTER:                  -8.113
REMARK INTRA:                  -2.164
REMARK UNBOUND:                -2.265
REMARK SMILES CC(=O)CCC=C(C)CCC=C(C)CCC=C(C)C
REMARK SMILES IDX 10 1 11 2 12 3 13 4 14 5 15 6 16 7 18 8 17 9 19 10 9 11 7 12
REMARK SMILES IDX 6 13 8 14 5 15 4 16 2 17 3 18 1 19
REMARK H PARENT
REMARK Flexibility Score: inf
ROOT
ATOM      1  C   UNL     1      18.085 -31.555  20.754  1.00  0.00     0.032 C 
ENDROOT
BRANCH   1   2
ATOM      2  C   UNL     1      16.868 -30.957  21.416  1.00  0.00    -0.028 C 
ATOM      3  C   UNL     1      16.835 -30.608  22.721  1.00  0.00    -0.077 C 
ATOM      4  C   UNL     1      18.035 -30.802  23.617  1.00  0.00     0.039 C 
BRANCH   3   5
ATOM      5  C   UNL     1      15.570 -30.011  23.296  1.00  0.00     0.034 C 
BRANCH   5   6
ATOM      6  C   UNL     1      14.518 -31.098  23.540  1.00  0.00     0.032 C 
BRANCH   6   7
ATOM      7  C   UNL     1      13.142 -30.605  23.168  1.00  0.00    -0.028 C 
ATOM      8  C   UNL     1      13.246 -31.569  20.859  1.00  0.00     0.039 C 
ATOM      9  C   UNL     1      12.570 -30.783  21.955  1.00  0.00    -0.080 C 
ATOM     10  C   UNL     1      11.200 -30.219  21.681  1.00  0.00     0.039 C 
ENDBRANCH   6   7
ENDBRANCH   5   6
ENDBRANCH   3   5
ENDBRANCH   1   2
BRANCH   1  11
ATOM     11  C   UNL     1      17.768 -32.924  20.141  1.00  0.00     0.034 C 
BRANCH  11  12
ATOM     12  C   UNL     1      17.355 -33.912  21.212  1.00  0.00    -0.077 C 
ATOM     13  C   UNL     1      18.284 -34.356  22.088  1.00  0.00    -0.028 C 
ATOM     14  C   UNL     1      15.915 -34.366  21.277  1.00  0.00     0.039 C 
BRANCH  13  15
ATOM     15  C   UNL     1      18.024 -35.376  23.171  1.00  0.00     0.035 C 
BRANCH  15  16
ATOM     16  C   UNL     1      18.710 -34.994  24.489  1.00  0.00     0.079 C 
BRANCH  16  17
ATOM     17  C   UNL     1      17.883 -34.024  25.289  1.00  0.00     0.130 C 
ATOM     18  O   UNL     1      18.428 -33.267  26.079  1.00  0.00    -0.300 OA
ATOM     19  C   UNL     1      16.395 -33.973  25.117  1.00  0.00     0.087 C 
ENDBRANCH  16  17
ENDBRANCH  15  16
ENDBRANCH  13  15
ENDBRANCH  11  12
ENDBRANCH   1  11
TORSDOF 9
ENDMDL
