MODEL 1
REMARK VINA RESULT:    -5.150      0.000      0.000
REMARK INTER + INTRA:          -5.595
REMARK INTER:                  -5.451
REMARK INTRA:                  -0.144
REMARK UNBOUND:                -0.144
REMARK SMILES CC1=C[C@@H]2C(=C(C)CC[C@@H]2C(C)C)CC1
REMARK SMILES IDX 1 1 2 2 3 3 4 4 10 5 9 6 8 7 6 8 5 9 14 10 15 11 7 12 11 13
REMARK SMILES IDX 12 14 13 15
REMARK H PARENT
REMARK Flexibility Score: inf
ROOT
ATOM      1  C   UNL     1      21.396  64.245  20.250  1.00  0.00     0.039 C 
ATOM      2  C   UNL     1      21.338  63.911  18.785  1.00  0.00    -0.076 C 
ATOM      3  C   UNL     1      22.376  64.247  17.994  1.00  0.00    -0.020 C 
ATOM      4  C   UNL     1      22.418  63.977  16.506  1.00  0.00     0.041 C 
ATOM      5  C   UNL     1      23.673  63.159  16.025  1.00  0.00     0.003 C 
ATOM      6  C   UNL     1      23.514  62.649  14.555  1.00  0.00     0.009 C 
ATOM      7  C   UNL     1      22.348  63.299  13.803  1.00  0.00     0.031 C 
ATOM      8  C   UNL     1      21.075  63.150  14.608  1.00  0.00    -0.073 C 
ATOM      9  C   UNL     1      21.113  63.436  15.936  1.00  0.00    -0.064 C 
ATOM     10  C   UNL     1      19.858  63.493  16.785  1.00  0.00     0.036 C 
ATOM     11  C   UNL     1      20.156  63.142  18.241  1.00  0.00     0.035 C 
ATOM     12  C   UNL     1      19.812  62.701  13.913  1.00  0.00     0.039 C 
ENDROOT
BRANCH   5  13
ATOM     13  C   UNL     1      24.174  61.983  16.936  1.00  0.00    -0.013 C 
ATOM     14  C   UNL     1      25.125  62.421  18.059  1.00  0.00     0.007 C 
ATOM     15  C   UNL     1      24.764  60.797  16.154  1.00  0.00     0.007 C 
ENDBRANCH   5  13
TORSDOF 1
ENDMDL
MODEL 2
REMARK VINA RESULT:    -4.874      1.882      4.346
REMARK INTER + INTRA:          -5.303
REMARK INTER:                  -4.942
REMARK INTRA:                  -0.361
REMARK UNBOUND:                -0.144
REMARK SMILES CC1=C[C@@H]2C(=C(C)CC[C@@H]2C(C)C)CC1
REMARK SMILES IDX 1 1 2 2 3 3 4 4 10 5 9 6 8 7 6 8 5 9 14 10 15 11 7 12 11 13
REMARK SMILES IDX 12 14 13 15
REMARK H PARENT
REMARK Flexibility Score: inf
ROOT
ATOM      1  C   UNL     1      16.949  65.000  15.130  1.00  0.00     0.039 C 
ATOM      2  C   UNL     1      18.332  64.555  15.519  1.00  0.00    -0.076 C 
ATOM      3  C   UNL     1      19.076  63.871  14.628  1.00  0.00    -0.020 C 
ATOM      4  C   UNL     1      20.470  63.359  14.918  1.00  0.00     0.041 C 
ATOM      5  C   UNL     1      21.566  63.830  13.891  1.00  0.00     0.003 C 
ATOM      6  C   UNL     1      23.014  63.534  14.402  1.00  0.00     0.009 C 
ATOM      7  C   UNL     1      23.059  62.591  15.608  1.00  0.00     0.031 C 
ATOM      8  C   UNL     1      22.156  63.118  16.703  1.00  0.00    -0.073 C 
ATOM      9  C   UNL     1      20.909  63.536  16.365  1.00  0.00    -0.064 C 
ATOM     10  C   UNL     1      19.874  63.909  17.409  1.00  0.00     0.036 C 
ATOM     11  C   UNL     1      18.887  64.943  16.870  1.00  0.00     0.035 C 
ATOM     12  C   UNL     1      22.666  63.154  18.124  1.00  0.00     0.039 C 
ENDROOT
BRANCH   5  13
ATOM     13  C   UNL     1      21.488  65.306  13.363  1.00  0.00    -0.013 C 
ATOM     14  C   UNL     1      21.016  65.428  11.907  1.00  0.00     0.007 C 
ATOM     15  C   UNL     1      22.777  66.116  13.587  1.00  0.00     0.007 C 
ENDBRANCH   5  13
TORSDOF 1
ENDMDL
MODEL 3
REMARK VINA RESULT:    -4.830      1.618      3.941
REMARK INTER + INTRA:          -5.256
REMARK INTER:                  -4.759
REMARK INTRA:                  -0.498
REMARK UNBOUND:                -0.144
REMARK SMILES CC1=C[C@@H]2C(=C(C)CC[C@@H]2C(C)C)CC1
REMARK SMILES IDX 1 1 2 2 3 3 4 4 10 5 9 6 8 7 6 8 5 9 14 10 15 11 7 12 11 13
REMARK SMILES IDX 12 14 13 15
REMARK H PARENT
REMARK Flexibility Score: inf
ROOT
ATOM      1  C   UNL     1      17.032  64.715  14.811  1.00  0.00     0.039 C 
ATOM      2  C   UNL     1      18.494  64.364  14.855  1.00  0.00    -0.076 C 
ATOM      3  C   UNL     1      19.355  65.216  15.444  1.00  0.00    -0.020 C 
ATOM      4  C   UNL     1      20.846  64.974  15.529  1.00  0.00     0.041 C 
ATOM      5  C   UNL     1      21.434  65.025  16.988  1.00  0.00     0.003 C 
ATOM      6  C   UNL     1      22.895  64.471  17.052  1.00  0.00     0.009 C 
ATOM      7  C   UNL     1      23.546  64.298  15.676  1.00  0.00     0.031 C 
ATOM      8  C   UNL     1      22.650  63.462  14.788  1.00  0.00    -0.073 C 
ATOM      9  C   UNL     1      21.325  63.758  14.747  1.00  0.00    -0.064 C 
ATOM     10  C   UNL     1      20.382  63.100  13.757  1.00  0.00     0.036 C 
ATOM     11  C   UNL     1      18.958  63.034  14.306  1.00  0.00     0.035 C 
ATOM     12  C   UNL     1      23.255  62.340  13.978  1.00  0.00     0.039 C 
ENDROOT
BRANCH   5  13
ATOM     13  C   UNL     1      20.582  64.388  18.142  1.00  0.00    -0.013 C 
ATOM     14  C   UNL     1      21.003  64.832  19.551  1.00  0.00     0.007 C 
ATOM     15  C   UNL     1      20.474  62.855  18.064  1.00  0.00     0.007 C 
ENDBRANCH   5  13
TORSDOF 1
ENDMDL
MODEL 4
REMARK VINA RESULT:    -4.661      1.591      4.300
REMARK INTER + INTRA:          -5.078
REMARK INTER:                  -4.602
REMARK INTRA:                  -0.476
REMARK UNBOUND:                -0.144
REMARK SMILES CC1=C[C@@H]2C(=C(C)CC[C@@H]2C(C)C)CC1
REMARK SMILES IDX 1 1 2 2 3 3 4 4 10 5 9 6 8 7 6 8 5 9 14 10 15 11 7 12 11 13
REMARK SMILES IDX 12 14 13 15
REMARK H PARENT
REMARK Flexibility Score: inf
ROOT
ATOM      1  C   UNL     1      19.216  63.930  14.566  1.00  0.00     0.039 C 
ATOM      2  C   UNL     1      19.728  64.174  15.959  1.00  0.00    -0.076 C 
ATOM      3  C   UNL     1      20.210  63.137  16.671  1.00  0.00    -0.020 C 
ATOM      4  C   UNL     1      20.732  63.262  18.085  1.00  0.00     0.041 C 
ATOM      5  C   UNL     1      22.198  62.726  18.291  1.00  0.00     0.003 C 
ATOM      6  C   UNL     1      22.792  63.155  19.673  1.00  0.00     0.009 C 
ATOM      7  C   UNL     1      21.747  63.717  20.641  1.00  0.00     0.031 C 
ATOM      8  C   UNL     1      20.977  64.835  19.971  1.00  0.00    -0.073 C 
ATOM      9  C   UNL     1      20.519  64.636  18.708  1.00  0.00    -0.064 C 
ATOM     10  C   UNL     1      19.589  65.618  18.023  1.00  0.00     0.036 C 
ATOM     11  C   UNL     1      19.761  65.583  16.506  1.00  0.00     0.035 C 
ATOM     12  C   UNL     1      20.739  66.121  20.725  1.00  0.00     0.039 C 
ENDROOT
BRANCH   5  13
ATOM     13  C   UNL     1      23.247  63.011  17.159  1.00  0.00    -0.013 C 
ATOM     14  C   UNL     1      24.173  61.827  16.848  1.00  0.00     0.007 C 
ATOM     15  C   UNL     1      24.062  64.298  17.375  1.00  0.00     0.007 C 
ENDBRANCH   5  13
TORSDOF 1
ENDMDL
MODEL 5
REMARK VINA RESULT:    -4.619      1.652      5.098
REMARK INTER + INTRA:          -5.033
REMARK INTER:                  -4.528
REMARK INTRA:                  -0.504
REMARK UNBOUND:                -0.144
REMARK SMILES CC1=C[C@@H]2C(=C(C)CC[C@@H]2C(C)C)CC1
REMARK SMILES IDX 1 1 2 2 3 3 4 4 10 5 9 6 8 7 6 8 5 9 14 10 15 11 7 12 11 13
REMARK SMILES IDX 12 14 13 15
REMARK H PARENT
REMARK Flexibility Score: inf
ROOT
ATOM      1  C   UNL     1      23.355  65.962  12.112  1.00  0.00     0.039 C 
ATOM      2  C   UNL     1      23.180  65.114  13.342  1.00  0.00    -0.076 C 
ATOM      3  C   UNL     1      22.368  65.546  14.327  1.00  0.00    -0.020 C 
ATOM      4  C   UNL     1      22.133  64.786  15.613  1.00  0.00     0.041 C 
ATOM      5  C   UNL     1      20.621  64.487  15.928  1.00  0.00     0.003 C 
ATOM      6  C   UNL     1      20.456  63.449  17.087  1.00  0.00     0.009 C 
ATOM      7  C   UNL     1      21.750  63.187  17.864  1.00  0.00     0.031 C 
ATOM      8  C   UNL     1      22.857  62.811  16.903  1.00  0.00    -0.073 C 
ATOM      9  C   UNL     1      23.020  63.559  15.781  1.00  0.00    -0.064 C 
ATOM     10  C   UNL     1      24.206  63.374  14.854  1.00  0.00     0.036 C 
ATOM     11  C   UNL     1      23.856  63.765  13.419  1.00  0.00     0.035 C 
ATOM     12  C   UNL     1      23.742  61.630  17.224  1.00  0.00     0.039 C 
ENDROOT
BRANCH   5  13
ATOM     13  C   UNL     1      19.689  64.086  14.730  1.00  0.00    -0.013 C 
ATOM     14  C   UNL     1      18.201  64.381  14.967  1.00  0.00     0.007 C 
ATOM     15  C   UNL     1      19.887  62.640  14.244  1.00  0.00     0.007 C 
ENDBRANCH   5  13
TORSDOF 1
ENDMDL
MODEL 6
REMARK VINA RESULT:    -4.588      1.462      4.040
REMARK INTER + INTRA:          -5.000
REMARK INTER:                  -4.496
REMARK INTRA:                  -0.504
REMARK UNBOUND:                -0.144
REMARK SMILES CC1=C[C@@H]2C(=C(C)CC[C@@H]2C(C)C)CC1
REMARK SMILES IDX 1 1 2 2 3 3 4 4 10 5 9 6 8 7 6 8 5 9 14 10 15 11 7 12 11 13
REMARK SMILES IDX 12 14 13 15
REMARK H PARENT
REMARK Flexibility Score: inf
ROOT
ATOM      1  C   UNL     1      21.365  64.262  20.261  1.00  0.00     0.039 C 
ATOM      2  C   UNL     1      21.559  64.053  18.784  1.00  0.00    -0.076 C 
ATOM      3  C   UNL     1      20.638  63.351  18.095  1.00  0.00    -0.020 C 
ATOM      4  C   UNL     1      20.741  63.064  16.613  1.00  0.00     0.041 C 
ATOM      5  C   UNL     1      19.492  63.520  15.771  1.00  0.00     0.003 C 
ATOM      6  C   UNL     1      19.776  63.483  14.234  1.00  0.00     0.009 C 
ATOM      7  C   UNL     1      21.058  62.732  13.864  1.00  0.00     0.031 C 
ATOM      8  C   UNL     1      22.223  63.289  14.653  1.00  0.00    -0.073 C 
ATOM      9  C   UNL     1      22.060  63.496  15.986  1.00  0.00    -0.064 C 
ATOM     10  C   UNL     1      23.216  63.877  16.890  1.00  0.00     0.036 C 
ATOM     11  C   UNL     1      22.738  64.694  18.089  1.00  0.00     0.035 C 
ATOM     12  C   UNL     1      23.520  63.588  13.940  1.00  0.00     0.039 C 
ENDROOT
BRANCH   5  13
ATOM     13  C   UNL     1      18.817  64.887  16.147  1.00  0.00    -0.013 C 
ATOM     14  C   UNL     1      17.344  64.995  15.726  1.00  0.00     0.007 C 
ATOM     15  C   UNL     1      19.608  66.121  15.681  1.00  0.00     0.007 C 
ENDBRANCH   5  13
TORSDOF 1
ENDMDL
MODEL 7
REMARK VINA RESULT:    -4.548      1.418      4.002
REMARK INTER + INTRA:          -4.958
REMARK INTER:                  -4.454
REMARK INTRA:                  -0.503
REMARK UNBOUND:                -0.144
REMARK SMILES CC1=C[C@@H]2C(=C(C)CC[C@@H]2C(C)C)CC1
REMARK SMILES IDX 1 1 2 2 3 3 4 4 10 5 9 6 8 7 6 8 5 9 14 10 15 11 7 12 11 13
REMARK SMILES IDX 12 14 13 15
REMARK H PARENT
REMARK Flexibility Score: inf
ROOT
ATOM      1  C   UNL     1      24.761  61.481  17.166  1.00  0.00     0.039 C 
ATOM      2  C   UNL     1      23.511  62.280  16.916  1.00  0.00    -0.076 C 
ATOM      3  C   UNL     1      22.596  62.391  17.899  1.00  0.00    -0.020 C 
ATOM      4  C   UNL     1      21.297  63.152  17.752  1.00  0.00     0.041 C 
ATOM      5  C   UNL     1      21.064  64.262  18.844  1.00  0.00     0.003 C 
ATOM      6  C   UNL     1      19.877  65.210  18.472  1.00  0.00     0.009 C 
ATOM      7  C   UNL     1      19.012  64.689  17.320  1.00  0.00     0.031 C 
ATOM      8  C   UNL     1      19.888  64.364  16.129  1.00  0.00    -0.073 C 
ATOM      9  C   UNL     1      21.027  63.654  16.340  1.00  0.00    -0.064 C 
ATOM     10  C   UNL     1      21.871  63.127  15.196  1.00  0.00     0.036 C 
ATOM     11  C   UNL     1      23.339  63.002  15.600  1.00  0.00     0.035 C 
ATOM     12  C   UNL     1      19.466  64.830  14.756  1.00  0.00     0.039 C 
ENDROOT
BRANCH   5  13
ATOM     13  C   UNL     1      22.299  65.120  19.291  1.00  0.00    -0.013 C 
ATOM     14  C   UNL     1      22.125  65.809  20.652  1.00  0.00     0.007 C 
ATOM     15  C   UNL     1      22.777  66.125  18.229  1.00  0.00     0.007 C 
ENDBRANCH   5  13
TORSDOF 1
ENDMDL
MODEL 8
REMARK VINA RESULT:    -4.409      1.345      3.949
REMARK INTER + INTRA:          -4.811
REMARK INTER:                  -4.310
REMARK INTRA:                  -0.501
REMARK UNBOUND:                -0.144
REMARK SMILES CC1=C[C@@H]2C(=C(C)CC[C@@H]2C(C)C)CC1
REMARK SMILES IDX 1 1 2 2 3 3 4 4 10 5 9 6 8 7 6 8 5 9 14 10 15 11 7 12 11 13
REMARK SMILES IDX 12 14 13 15
REMARK H PARENT
REMARK Flexibility Score: inf
ROOT
ATOM      1  C   UNL     1      24.984  61.713  14.923  1.00  0.00     0.039 C 
ATOM      2  C   UNL     1      23.661  62.364  15.221  1.00  0.00    -0.076 C 
ATOM      3  C   UNL     1      23.222  62.405  16.494  1.00  0.00    -0.020 C 
ATOM      4  C   UNL     1      21.901  63.017  16.906  1.00  0.00     0.041 C 
ATOM      5  C   UNL     1      22.013  64.127  18.016  1.00  0.00     0.003 C 
ATOM      6  C   UNL     1      20.681  64.930  18.179  1.00  0.00     0.009 C 
ATOM      7  C   UNL     1      19.484  64.283  17.475  1.00  0.00     0.031 C 
ATOM      8  C   UNL     1      19.826  64.019  16.024  1.00  0.00    -0.073 C 
ATOM      9  C   UNL     1      21.023  63.443  15.737  1.00  0.00    -0.064 C 
ATOM     10  C   UNL     1      21.378  62.976  14.339  1.00  0.00     0.036 C 
ATOM     11  C   UNL     1      22.886  63.023  14.103  1.00  0.00     0.035 C 
ATOM     12  C   UNL     1      18.830  64.394  14.953  1.00  0.00     0.039 C 
ENDROOT
BRANCH   5  13
ATOM     13  C   UNL     1      23.220  65.127  17.931  1.00  0.00    -0.013 C 
ATOM     14  C   UNL     1      23.523  65.857  19.248  1.00  0.00     0.007 C 
ATOM     15  C   UNL     1      23.121  66.125  16.765  1.00  0.00     0.007 C 
ENDBRANCH   5  13
TORSDOF 1
ENDMDL
MODEL 9
REMARK VINA RESULT:    -4.382      1.223      4.592
REMARK INTER + INTRA:          -4.782
REMARK INTER:                  -4.291
REMARK INTRA:                  -0.491
REMARK UNBOUND:                -0.144
REMARK SMILES CC1=C[C@@H]2C(=C(C)CC[C@@H]2C(C)C)CC1
REMARK SMILES IDX 1 1 2 2 3 3 4 4 10 5 9 6 8 7 6 8 5 9 14 10 15 11 7 12 11 13
REMARK SMILES IDX 12 14 13 15
REMARK H PARENT
REMARK Flexibility Score: inf
ROOT
ATOM      1  C   UNL     1      21.012  65.088  12.900  1.00  0.00     0.039 C 
ATOM      2  C   UNL     1      21.750  64.370  13.996  1.00  0.00    -0.076 C 
ATOM      3  C   UNL     1      22.167  65.066  15.072  1.00  0.00    -0.020 C 
ATOM      4  C   UNL     1      22.933  64.452  16.222  1.00  0.00     0.041 C 
ATOM      5  C   UNL     1      22.282  64.680  17.637  1.00  0.00     0.003 C 
ATOM      6  C   UNL     1      22.934  63.778  18.736  1.00  0.00     0.009 C 
ATOM      7  C   UNL     1      24.241  63.115  18.289  1.00  0.00     0.031 C 
ATOM      8  C   UNL     1      24.020  62.373  16.988  1.00  0.00    -0.073 C 
ATOM      9  C   UNL     1      23.344  63.003  15.993  1.00  0.00    -0.064 C 
ATOM     10  C   UNL     1      23.230  62.417  14.599  1.00  0.00     0.036 C 
ATOM     11  C   UNL     1      21.947  62.874  13.907  1.00  0.00     0.035 C 
ATOM     12  C   UNL     1      24.561  60.972  16.839  1.00  0.00     0.039 C 
ENDROOT
BRANCH   5  13
ATOM     13  C   UNL     1      20.719  64.590  17.746  1.00  0.00    -0.013 C 
ATOM     14  C   UNL     1      20.101  65.581  18.742  1.00  0.00     0.007 C 
ATOM     15  C   UNL     1      20.193  63.166  17.997  1.00  0.00     0.007 C 
ENDBRANCH   5  13
TORSDOF 1
ENDMDL
