MODEL 1
REMARK VINA RESULT:     4.000      0.000      0.000
REMARK INTER + INTRA:           5.153
REMARK INTER:                   4.819
REMARK INTRA:                   0.334
REMARK UNBOUND:                 0.334
REMARK SMILES O=c1c(O)c(-c2ccc(O)c(O)c2)oc2cc(O)cc(O)c12
REMARK SMILES IDX 5 1 3 2 2 3 1 4 22 5 20 6 19 7 17 8 16 9 15 10 14 11 6 12
REMARK SMILES IDX 7 13 8 14 9 15 13 16 11 17 10 18 12 20 4 22 21 24 18 26
REMARK H PARENT 10 19 12 21 4 23 21 25 18 27
REMARK Flexibility Score: inf
ROOT
ATOM      1  C   UNL     1      -0.368  -3.741   0.554  1.00  0.00     0.180 A 
ATOM      2  C   UNL     1       0.807  -3.279  -0.064  1.00  0.00     0.208 A 
ATOM      3  C   UNL     1       0.913  -1.919  -0.395  1.00  0.00     0.238 A 
ATOM      4  O   UNL     1       1.944  -1.522  -0.997  1.00  0.00    -0.285 OA
ATOM      5  C   UNL     1      -0.149  -1.034  -0.087  1.00  0.00     0.111 A 
ATOM      6  C   UNL     1      -0.132   0.371  -0.340  1.00  0.00     0.134 A 
ATOM      7  C   UNL     1      -1.289   1.127  -0.114  1.00  0.00     0.093 A 
ATOM      8  C   UNL     1      -2.440   0.540   0.416  1.00  0.00     0.123 A 
ATOM      9  C   UNL     1      -2.447  -0.818   0.722  1.00  0.00     0.094 A 
ATOM     10  C   UNL     1      -1.320  -1.605   0.474  1.00  0.00     0.146 A 
ATOM     11  O   UNL     1      -1.373  -2.899   0.770  1.00  0.00    -0.452 OA
ENDROOT
BRANCH   1  12
ATOM     12  C   UNL     1      -0.544  -5.155   0.954  1.00  0.00     0.025 A 
ATOM     13  C   UNL     1      -1.838  -5.657   1.170  1.00  0.00     0.016 A 
ATOM     14  C   UNL     1      -2.026  -6.983   1.568  1.00  0.00     0.051 A 
ATOM     15  C   UNL     1      -0.927  -7.822   1.772  1.00  0.00     0.157 A 
ATOM     16  C   UNL     1       0.561  -5.996   1.182  1.00  0.00     0.062 A 
ATOM     17  C   UNL     1       0.374  -7.326   1.583  1.00  0.00     0.158 A 
BRANCH  15  18
ATOM     18  O   UNL     1      -1.146  -9.141   2.167  1.00  0.00    -0.504 OA
ATOM     19  H   UNL     1      -1.009  -9.922   1.535  1.00  0.00     0.293 HD
ENDBRANCH  15  18
BRANCH  17  20
ATOM     20  O   UNL     1       1.474  -8.154   1.799  1.00  0.00    -0.504 OA
ATOM     21  H   UNL     1       1.366  -9.099   2.151  1.00  0.00     0.293 HD
ENDBRANCH  17  20
ENDBRANCH   1  12
BRANCH   2  22
ATOM     22  O   UNL     1       1.833  -4.174  -0.379  1.00  0.00    -0.502 OA
ATOM     23  H   UNL     1       2.790  -4.030  -0.080  1.00  0.00     0.293 HD
ENDBRANCH   2  22
BRANCH   6  24
ATOM     24  O   UNL     1       0.994   1.071  -0.783  1.00  0.00    -0.507 OA
ATOM     25  H   UNL     1       1.668   1.516  -0.178  1.00  0.00     0.293 HD
ENDBRANCH   6  24
BRANCH   8  26
ATOM     26  O   UNL     1      -3.582   1.304   0.652  1.00  0.00    -0.508 OA
ATOM     27  H   UNL     1      -3.693   1.844   1.502  1.00  0.00     0.293 HD
ENDBRANCH   8  26
TORSDOF 6
ENDMDL
MODEL 2
REMARK VINA RESULT:     4.328      1.202      2.906
REMARK INTER + INTRA:           5.548
REMARK INTER:                   5.121
REMARK INTRA:                   0.427
REMARK UNBOUND:                 0.334
REMARK SMILES O=c1c(O)c(-c2ccc(O)c(O)c2)oc2cc(O)cc(O)c12
REMARK SMILES IDX 5 1 3 2 2 3 1 4 22 5 20 6 19 7 17 8 16 9 15 10 14 11 6 12
REMARK SMILES IDX 7 13 8 14 9 15 13 16 11 17 10 18 12 20 4 22 21 24 18 26
REMARK H PARENT 10 19 12 21 4 23 21 25 18 27
REMARK Flexibility Score: inf
ROOT
ATOM      1  C   UNL     1      -0.626  -3.762   0.712  1.00  0.00     0.180 A 
ATOM      2  C   UNL     1      -1.692  -2.884   0.976  1.00  0.00     0.208 A 
ATOM      3  C   UNL     1      -1.576  -1.539   0.593  1.00  0.00     0.238 A 
ATOM      4  O   UNL     1      -2.510  -0.745   0.881  1.00  0.00    -0.285 OA
ATOM      5  C   UNL     1      -0.404  -1.091  -0.064  1.00  0.00     0.111 A 
ATOM      6  C   UNL     1      -0.197   0.241  -0.533  1.00  0.00     0.134 A 
ATOM      7  C   UNL     1       1.053   0.603  -1.052  1.00  0.00     0.093 A 
ATOM      8  C   UNL     1       2.079  -0.335  -1.179  1.00  0.00     0.123 A 
ATOM      9  C   UNL     1       1.867  -1.652  -0.780  1.00  0.00     0.094 A 
ATOM     10  C   UNL     1       0.643  -2.035  -0.224  1.00  0.00     0.146 A 
ATOM     11  O   UNL     1       0.486  -3.298   0.154  1.00  0.00    -0.452 OA
ENDROOT
BRANCH   1  12
ATOM     12  C   UNL     1      -0.684  -5.199   1.064  1.00  0.00     0.025 A 
ATOM     13  C   UNL     1      -1.930  -5.807   1.285  1.00  0.00     0.016 A 
ATOM     14  C   UNL     1      -2.006  -7.157   1.639  1.00  0.00     0.051 A 
ATOM     15  C   UNL     1      -0.842  -7.915   1.790  1.00  0.00     0.157 A 
ATOM     16  C   UNL     1       0.487  -5.959   1.239  1.00  0.00     0.062 A 
ATOM     17  C   UNL     1       0.412  -7.313   1.594  1.00  0.00     0.158 A 
BRANCH  15  18
ATOM     18  O   UNL     1      -0.950  -9.260   2.141  1.00  0.00    -0.504 OA
ATOM     19  H   UNL     1      -1.545  -9.573   2.900  1.00  0.00     0.293 HD
ENDBRANCH  15  18
BRANCH  17  20
ATOM     20  O   UNL     1       1.578  -8.060   1.759  1.00  0.00    -0.504 OA
ATOM     21  H   UNL     1       2.492  -7.622   1.765  1.00  0.00     0.293 HD
ENDBRANCH  17  20
ENDBRANCH   1  12
BRANCH   2  22
ATOM     22  O   UNL     1      -2.830  -3.342   1.646  1.00  0.00    -0.502 OA
ATOM     23  H   UNL     1      -3.546  -3.891   1.187  1.00  0.00     0.293 HD
ENDBRANCH   2  22
BRANCH   6  24
ATOM     24  O   UNL     1      -1.185   1.230  -0.536  1.00  0.00    -0.507 OA
ATOM     25  H   UNL     1      -1.061   2.166  -0.179  1.00  0.00     0.293 HD
ENDBRANCH   6  24
BRANCH   8  26
ATOM     26  O   UNL     1       3.314   0.031  -1.711  1.00  0.00    -0.508 OA
ATOM     27  H   UNL     1       3.849   0.802  -1.328  1.00  0.00     0.293 HD
ENDBRANCH   8  26
TORSDOF 6
ENDMDL
MODEL 3
REMARK VINA RESULT:     4.767      3.119      5.912
REMARK INTER + INTRA:           6.077
REMARK INTER:                   5.923
REMARK INTRA:                   0.155
REMARK UNBOUND:                 0.334
REMARK SMILES O=c1c(O)c(-c2ccc(O)c(O)c2)oc2cc(O)cc(O)c12
REMARK SMILES IDX 5 1 3 2 2 3 1 4 22 5 20 6 19 7 17 8 16 9 15 10 14 11 6 12
REMARK SMILES IDX 7 13 8 14 9 15 13 16 11 17 10 18 12 20 4 22 21 24 18 26
REMARK H PARENT 10 19 12 21 4 23 21 25 18 27
REMARK Flexibility Score: inf
ROOT
ATOM      1  C   UNL     1       1.198  -0.737  -0.432  1.00  0.00     0.180 A 
ATOM      2  C   UNL     1       0.712  -2.013  -0.096  1.00  0.00     0.208 A 
ATOM      3  C   UNL     1      -0.636  -2.153   0.271  1.00  0.00     0.238 A 
ATOM      4  O   UNL     1      -1.052  -3.288   0.623  1.00  0.00    -0.285 OA
ATOM      5  C   UNL     1      -1.485  -1.021   0.279  1.00  0.00     0.111 A 
ATOM      6  C   UNL     1      -2.877  -1.055   0.595  1.00  0.00     0.134 A 
ATOM      7  C   UNL     1      -3.590   0.147   0.700  1.00  0.00     0.093 A 
ATOM      8  C   UNL     1      -2.977   1.374   0.437  1.00  0.00     0.123 A 
ATOM      9  C   UNL     1      -1.635   1.412   0.070  1.00  0.00     0.094 A 
ATOM     10  C   UNL     1      -0.888   0.234  -0.008  1.00  0.00     0.146 A 
ATOM     11  O   UNL     1       0.393   0.315  -0.350  1.00  0.00    -0.452 OA
ENDROOT
BRANCH   1  12
ATOM     12  C   UNL     1       2.599  -0.514  -0.853  1.00  0.00     0.025 A 
ATOM     13  C   UNL     1       2.869   0.337  -1.936  1.00  0.00     0.016 A 
ATOM     14  C   UNL     1       4.183   0.546  -2.363  1.00  0.00     0.051 A 
ATOM     15  C   UNL     1       5.245  -0.102  -1.725  1.00  0.00     0.157 A 
ATOM     16  C   UNL     1       3.668  -1.182  -0.226  1.00  0.00     0.062 A 
ATOM     17  C   UNL     1       4.987  -0.974  -0.654  1.00  0.00     0.158 A 
BRANCH  15  18
ATOM     18  O   UNL     1       6.545   0.128  -2.171  1.00  0.00    -0.504 OA
ATOM     19  H   UNL     1       6.767   0.873  -2.823  1.00  0.00     0.293 HD
ENDBRANCH  15  18
BRANCH  17  20
ATOM     20  O   UNL     1       6.040  -1.634  -0.024  1.00  0.00    -0.504 OA
ATOM     21  H   UNL     1       6.311  -2.575  -0.289  1.00  0.00     0.293 HD
ENDBRANCH  17  20
ENDBRANCH   1  12
BRANCH   2  22
ATOM     22  O   UNL     1       1.573  -3.113  -0.090  1.00  0.00    -0.502 OA
ATOM     23  H   UNL     1       2.548  -3.040   0.174  1.00  0.00     0.293 HD
ENDBRANCH   2  22
BRANCH   6  24
ATOM     24  O   UNL     1      -3.606  -2.232   0.787  1.00  0.00    -0.507 OA
ATOM     25  H   UNL     1      -3.335  -2.981   1.406  1.00  0.00     0.293 HD
ENDBRANCH   6  24
BRANCH   8  26
ATOM     26  O   UNL     1      -3.699   2.562   0.528  1.00  0.00    -0.508 OA
ATOM     27  H   UNL     1      -3.752   3.211  -0.248  1.00  0.00     0.293 HD
ENDBRANCH   8  26
TORSDOF 6
ENDMDL
