MODEL 1
REMARK VINA RESULT:    -4.393      0.000      0.000
REMARK INTER + INTRA:          -5.083
REMARK INTER:                  -4.778
REMARK INTRA:                  -0.304
REMARK UNBOUND:                -0.304
REMARK SMILES CC(=O)c1cc(C)ccc1O
REMARK SMILES IDX 7 1 6 2 5 3 4 4 10 5 9 6 8 7 2 8 3 9 1 10 11 11
REMARK H PARENT 11 12
REMARK Flexibility Score: inf
ROOT
ATOM      1  C   UNL     1      13.013  34.242  26.506  1.00  0.00     0.044 C 
ATOM      2  C   UNL     1      12.790  33.228  27.590  1.00  0.00    -0.050 A 
ATOM      3  C   UNL     1      13.883  32.592  28.196  1.00  0.00     0.019 A 
ATOM      4  C   UNL     1      13.692  31.672  29.244  1.00  0.00     0.059 A 
ATOM      5  C   UNL     1      12.373  31.383  29.673  1.00  0.00     0.126 A 
ATOM      6  C   UNL     1      11.293  32.050  29.086  1.00  0.00     0.047 A 
ATOM      7  C   UNL     1      11.496  32.969  28.057  1.00  0.00     0.007 A 
ENDROOT
BRANCH   4   8
ATOM      8  C   UNL     1      14.878  31.066  29.895  1.00  0.00     0.163 C 
ATOM      9  O   UNL     1      14.853  29.857  30.249  1.00  0.00    -0.294 OA
ATOM     10  C   UNL     1      16.083  31.890  30.230  1.00  0.00     0.093 C 
ENDBRANCH   4   8
BRANCH   5  11
ATOM     11  O   UNL     1      12.097  30.428  30.653  1.00  0.00    -0.507 OA
ATOM     12  H   UNL     1      12.022  29.438  30.459  1.00  0.00     0.293 HD
ENDBRANCH   5  11
TORSDOF 2
ENDMDL
MODEL 2
REMARK VINA RESULT:    -4.113     11.818     13.797
REMARK INTER + INTRA:          -4.778
REMARK INTER:                  -4.471
REMARK INTRA:                  -0.307
REMARK UNBOUND:                -0.304
REMARK SMILES CC(=O)c1cc(C)ccc1O
REMARK SMILES IDX 7 1 6 2 5 3 4 4 10 5 9 6 8 7 2 8 3 9 1 10 11 11
REMARK H PARENT 11 12
REMARK Flexibility Score: inf
ROOT
ATOM      1  C   UNL     1      28.993  27.135  26.070  1.00  0.00     0.044 C 
ATOM      2  C   UNL     1      27.737  27.936  25.894  1.00  0.00    -0.050 A 
ATOM      3  C   UNL     1      26.665  27.771  26.782  1.00  0.00     0.019 A 
ATOM      4  C   UNL     1      25.497  28.548  26.657  1.00  0.00     0.059 A 
ATOM      5  C   UNL     1      25.412  29.495  25.607  1.00  0.00     0.126 A 
ATOM      6  C   UNL     1      26.501  29.677  24.749  1.00  0.00     0.047 A 
ATOM      7  C   UNL     1      27.658  28.910  24.891  1.00  0.00     0.007 A 
ENDROOT
BRANCH   4   8
ATOM      8  C   UNL     1      24.411  28.380  27.652  1.00  0.00     0.163 C 
ATOM      9  O   UNL     1      23.836  29.393  28.133  1.00  0.00    -0.294 OA
ATOM     10  C   UNL     1      24.042  27.026  28.175  1.00  0.00     0.093 C 
ENDBRANCH   4   8
BRANCH   5  11
ATOM     11  O   UNL     1      24.261  30.249  25.371  1.00  0.00    -0.507 OA
ATOM     12  H   UNL     1      23.783  30.776  26.090  1.00  0.00     0.293 HD
ENDBRANCH   5  11
TORSDOF 2
ENDMDL
MODEL 3
REMARK VINA RESULT:    -4.112     16.127     17.622
REMARK INTER + INTRA:          -4.777
REMARK INTER:                  -4.505
REMARK INTRA:                  -0.272
REMARK UNBOUND:                -0.304
REMARK SMILES CC(=O)c1cc(C)ccc1O
REMARK SMILES IDX 7 1 6 2 5 3 4 4 10 5 9 6 8 7 2 8 3 9 1 10 11 11
REMARK H PARENT 11 12
REMARK Flexibility Score: inf
ROOT
ATOM      1  C   UNL     1      24.247  36.999  21.980  1.00  0.00     0.044 C 
ATOM      2  C   UNL     1      25.093  37.693  20.953  1.00  0.00    -0.050 A 
ATOM      3  C   UNL     1      25.391  39.056  21.090  1.00  0.00     0.019 A 
ATOM      4  C   UNL     1      26.220  39.712  20.159  1.00  0.00     0.059 A 
ATOM      5  C   UNL     1      26.742  38.974  19.068  1.00  0.00     0.126 A 
ATOM      6  C   UNL     1      26.469  37.607  18.961  1.00  0.00     0.047 A 
ATOM      7  C   UNL     1      25.656  36.967  19.897  1.00  0.00     0.007 A 
ENDROOT
BRANCH   4   8
ATOM      8  C   UNL     1      26.555  41.139  20.373  1.00  0.00     0.163 C 
ATOM      9  O   UNL     1      26.942  41.847  19.405  1.00  0.00    -0.294 OA
ATOM     10  C   UNL     1      26.535  41.742  21.744  1.00  0.00     0.093 C 
ENDBRANCH   4   8
BRANCH   5  11
ATOM     11  O   UNL     1      27.509  39.567  18.063  1.00  0.00    -0.507 OA
ATOM     12  H   UNL     1      27.273  39.517  17.080  1.00  0.00     0.293 HD
ENDBRANCH   5  11
TORSDOF 2
ENDMDL
MODEL 4
REMARK VINA RESULT:    -4.100     15.013     16.037
REMARK INTER + INTRA:          -4.764
REMARK INTER:                  -4.457
REMARK INTRA:                  -0.307
REMARK UNBOUND:                -0.304
REMARK SMILES CC(=O)c1cc(C)ccc1O
REMARK SMILES IDX 7 1 6 2 5 3 4 4 10 5 9 6 8 7 2 8 3 9 1 10 11 11
REMARK H PARENT 11 12
REMARK Flexibility Score: inf
ROOT
ATOM      1  C   UNL     1      28.322  35.377  19.370  1.00  0.00     0.044 C 
ATOM      2  C   UNL     1      26.860  35.707  19.439  1.00  0.00    -0.050 A 
ATOM      3  C   UNL     1      26.404  36.712  20.304  1.00  0.00     0.019 A 
ATOM      4  C   UNL     1      25.042  37.065  20.348  1.00  0.00     0.059 A 
ATOM      5  C   UNL     1      24.128  36.378  19.511  1.00  0.00     0.126 A 
ATOM      6  C   UNL     1      24.598  35.402  18.626  1.00  0.00     0.047 A 
ATOM      7  C   UNL     1      25.953  35.071  18.583  1.00  0.00     0.007 A 
ENDROOT
BRANCH   4   8
ATOM      8  C   UNL     1      24.612  38.171  21.236  1.00  0.00     0.163 C 
ATOM      9  O   UNL     1      23.535  38.078  21.882  1.00  0.00    -0.294 OA
ATOM     10  C   UNL     1      25.389  39.449  21.311  1.00  0.00     0.093 C 
ENDBRANCH   4   8
BRANCH   5  11
ATOM     11  O   UNL     1      22.753  36.616  19.550  1.00  0.00    -0.507 OA
ATOM     12  H   UNL     1      22.310  37.207  20.242  1.00  0.00     0.293 HD
ENDBRANCH   5  11
TORSDOF 2
ENDMDL
MODEL 5
REMARK VINA RESULT:    -3.987     15.716     17.185
REMARK INTER + INTRA:          -4.641
REMARK INTER:                  -4.340
REMARK INTRA:                  -0.301
REMARK UNBOUND:                -0.304
REMARK SMILES CC(=O)c1cc(C)ccc1O
REMARK SMILES IDX 7 1 6 2 5 3 4 4 10 5 9 6 8 7 2 8 3 9 1 10 11 11
REMARK H PARENT 11 12
REMARK Flexibility Score: inf
ROOT
ATOM      1  C   UNL     1      29.103  35.502  19.012  1.00  0.00     0.044 C 
ATOM      2  C   UNL     1      28.084  36.548  19.358  1.00  0.00    -0.050 A 
ATOM      3  C   UNL     1      26.738  36.194  19.522  1.00  0.00     0.019 A 
ATOM      4  C   UNL     1      25.777  37.157  19.890  1.00  0.00     0.059 A 
ATOM      5  C   UNL     1      26.189  38.498  20.080  1.00  0.00     0.126 A 
ATOM      6  C   UNL     1      27.541  38.834  19.950  1.00  0.00     0.047 A 
ATOM      7  C   UNL     1      28.484  37.868  19.597  1.00  0.00     0.007 A 
ENDROOT
BRANCH   4   8
ATOM      8  C   UNL     1      24.375  36.728  20.107  1.00  0.00     0.163 C 
ATOM      9  O   UNL     1      23.784  37.030  21.178  1.00  0.00    -0.294 OA
ATOM     10  C   UNL     1      23.670  35.856  19.115  1.00  0.00     0.093 C 
ENDBRANCH   4   8
BRANCH   5  11
ATOM     11  O   UNL     1      25.287  39.524  20.371  1.00  0.00    -0.507 OA
ATOM     12  H   UNL     1      24.673  39.937  19.682  1.00  0.00     0.293 HD
ENDBRANCH   5  11
TORSDOF 2
ENDMDL
MODEL 6
REMARK VINA RESULT:    -3.879     16.050     16.713
REMARK INTER + INTRA:          -4.523
REMARK INTER:                  -4.250
REMARK INTRA:                  -0.273
REMARK UNBOUND:                -0.304
REMARK SMILES CC(=O)c1cc(C)ccc1O
REMARK SMILES IDX 7 1 6 2 5 3 4 4 10 5 9 6 8 7 2 8 3 9 1 10 11 11
REMARK H PARENT 11 12
REMARK Flexibility Score: inf
ROOT
ATOM      1  C   UNL     1      29.021  30.546  27.663  1.00  0.00     0.044 C 
ATOM      2  C   UNL     1      28.935  30.387  26.173  1.00  0.00    -0.050 A 
ATOM      3  C   UNL     1      28.745  31.509  25.355  1.00  0.00     0.019 A 
ATOM      4  C   UNL     1      28.706  31.383  23.953  1.00  0.00     0.059 A 
ATOM      5  C   UNL     1      28.851  30.097  23.376  1.00  0.00     0.126 A 
ATOM      6  C   UNL     1      29.077  28.989  24.200  1.00  0.00     0.047 A 
ATOM      7  C   UNL     1      29.125  29.130  25.587  1.00  0.00     0.007 A 
ENDROOT
BRANCH   4   8
ATOM      8  C   UNL     1      28.559  32.602  23.123  1.00  0.00     0.163 C 
ATOM      9  O   UNL     1      28.903  32.585  21.911  1.00  0.00    -0.294 OA
ATOM     10  C   UNL     1      28.095  33.894  23.722  1.00  0.00     0.093 C 
ENDBRANCH   4   8
BRANCH   5  11
ATOM     11  O   UNL     1      28.749  29.878  22.001  1.00  0.00    -0.507 OA
ATOM     12  H   UNL     1      29.412  29.324  21.475  1.00  0.00     0.293 HD
ENDBRANCH   5  11
TORSDOF 2
ENDMDL
MODEL 7
REMARK VINA RESULT:    -3.871     17.530     19.065
REMARK INTER + INTRA:          -4.515
REMARK INTER:                  -4.206
REMARK INTRA:                  -0.309
REMARK UNBOUND:                -0.304
REMARK SMILES CC(=O)c1cc(C)ccc1O
REMARK SMILES IDX 7 1 6 2 5 3 4 4 10 5 9 6 8 7 2 8 3 9 1 10 11 11
REMARK H PARENT 11 12
REMARK Flexibility Score: inf
ROOT
ATOM      1  C   UNL     1      29.061  40.082  17.275  1.00  0.00     0.044 C 
ATOM      2  C   UNL     1      28.095  40.155  18.421  1.00  0.00    -0.050 A 
ATOM      3  C   UNL     1      27.825  41.385  19.038  1.00  0.00     0.019 A 
ATOM      4  C   UNL     1      26.888  41.477  20.085  1.00  0.00     0.059 A 
ATOM      5  C   UNL     1      26.227  40.302  20.519  1.00  0.00     0.126 A 
ATOM      6  C   UNL     1      26.476  39.087  19.873  1.00  0.00     0.047 A 
ATOM      7  C   UNL     1      27.398  39.011  18.828  1.00  0.00     0.007 A 
ENDROOT
BRANCH   4   8
ATOM      8  C   UNL     1      26.592  42.805  20.672  1.00  0.00     0.163 C 
ATOM      9  O   UNL     1      26.463  42.929  21.919  1.00  0.00    -0.294 OA
ATOM     10  C   UNL     1      26.346  43.999  19.800  1.00  0.00     0.093 C 
ENDBRANCH   4   8
BRANCH   5  11
ATOM     11  O   UNL     1      25.341  40.297  21.599  1.00  0.00    -0.507 OA
ATOM     12  H   UNL     1      25.216  41.086  22.220  1.00  0.00     0.293 HD
ENDBRANCH   5  11
TORSDOF 2
ENDMDL
MODEL 8
REMARK VINA RESULT:    -3.851     16.099     17.494
REMARK INTER + INTRA:          -4.492
REMARK INTER:                  -4.193
REMARK INTRA:                  -0.299
REMARK UNBOUND:                -0.304
REMARK SMILES CC(=O)c1cc(C)ccc1O
REMARK SMILES IDX 7 1 6 2 5 3 4 4 10 5 9 6 8 7 2 8 3 9 1 10 11 11
REMARK H PARENT 11 12
REMARK Flexibility Score: inf
ROOT
ATOM      1  C   UNL     1      25.258  35.496  18.626  1.00  0.00     0.044 C 
ATOM      2  C   UNL     1      25.457  36.764  19.403  1.00  0.00    -0.050 A 
ATOM      3  C   UNL     1      26.335  37.750  18.930  1.00  0.00     0.019 A 
ATOM      4  C   UNL     1      26.500  38.964  19.625  1.00  0.00     0.059 A 
ATOM      5  C   UNL     1      25.772  39.173  20.822  1.00  0.00     0.126 A 
ATOM      6  C   UNL     1      24.872  38.199  21.266  1.00  0.00     0.047 A 
ATOM      7  C   UNL     1      24.709  37.005  20.561  1.00  0.00     0.007 A 
ENDROOT
BRANCH   4   8
ATOM      8  C   UNL     1      27.395  40.001  19.060  1.00  0.00     0.163 C 
ATOM      9  O   UNL     1      27.111  41.221  19.198  1.00  0.00    -0.294 OA
ATOM     10  C   UNL     1      28.591  39.628  18.239  1.00  0.00     0.093 C 
ENDBRANCH   4   8
BRANCH   5  11
ATOM     11  O   UNL     1      25.936  40.316  21.608  1.00  0.00    -0.507 OA
ATOM     12  H   UNL     1      25.167  40.802  22.050  1.00  0.00     0.293 HD
ENDBRANCH   5  11
TORSDOF 2
ENDMDL
MODEL 9
REMARK VINA RESULT:    -3.843     16.575     18.040
REMARK INTER + INTRA:          -4.484
REMARK INTER:                  -4.189
REMARK INTRA:                  -0.295
REMARK UNBOUND:                -0.304
REMARK SMILES CC(=O)c1cc(C)ccc1O
REMARK SMILES IDX 7 1 6 2 5 3 4 4 10 5 9 6 8 7 2 8 3 9 1 10 11 11
REMARK H PARENT 11 12
REMARK Flexibility Score: inf
ROOT
ATOM      1  C   UNL     1      29.057  40.156  17.460  1.00  0.00     0.044 C 
ATOM      2  C   UNL     1      28.010  40.109  18.534  1.00  0.00    -0.050 A 
ATOM      3  C   UNL     1      27.336  38.910  18.810  1.00  0.00     0.019 A 
ATOM      4  C   UNL     1      26.383  38.839  19.844  1.00  0.00     0.059 A 
ATOM      5  C   UNL     1      26.101  40.004  20.599  1.00  0.00     0.126 A 
ATOM      6  C   UNL     1      26.805  41.185  20.340  1.00  0.00     0.047 A 
ATOM      7  C   UNL     1      27.756  41.239  19.321  1.00  0.00     0.007 A 
ENDROOT
BRANCH   4   8
ATOM      8  C   UNL     1      25.736  37.538  20.139  1.00  0.00     0.163 C 
ATOM      9  O   UNL     1      25.397  37.256  21.319  1.00  0.00    -0.294 OA
ATOM     10  C   UNL     1      25.560  36.502  19.071  1.00  0.00     0.093 C 
ENDBRANCH   4   8
BRANCH   5  11
ATOM     11  O   UNL     1      25.118  40.034  21.590  1.00  0.00    -0.507 OA
ATOM     12  H   UNL     1      24.505  40.825  21.741  1.00  0.00     0.293 HD
ENDBRANCH   5  11
TORSDOF 2
ENDMDL
