MODEL 1
REMARK VINA RESULT:    -3.150      0.000      0.000
REMARK INTER + INTRA:          -3.881
REMARK INTER:                  -3.703
REMARK INTRA:                  -0.178
REMARK UNBOUND:                -0.178
REMARK SMILES O=C([O-])CCC(=O)[O-]
REMARK SMILES IDX 4 1 2 2 1 3 3 4 5 5 6 6 7 7 8 8
REMARK H PARENT
REMARK Flexibility Score: inf
ROOT
ATOM      1  C   UNL     1     -19.836 -30.353  18.744  1.00  0.00     0.059 C 
ENDROOT
BRANCH   1   2
ATOM      2  C   UNL     1     -18.375 -30.039  18.693  1.00  0.00     0.042 C 
ATOM      3  O   UNL     1     -17.689 -30.378  17.693  1.00  0.00    -0.550 OA
ATOM      4  O   UNL     1     -17.760 -29.417  19.772  1.00  0.00    -0.550 OA
ENDBRANCH   1   2
BRANCH   1   5
ATOM      5  C   UNL     1     -20.173 -31.138  20.013  1.00  0.00     0.059 C 
BRANCH   5   6
ATOM      6  C   UNL     1     -19.439 -32.442  20.033  1.00  0.00     0.042 C 
ATOM      7  O   UNL     1     -18.725 -32.751  21.022  1.00  0.00    -0.550 OA
ATOM      8  O   UNL     1     -19.585 -33.337  18.981  1.00  0.00    -0.550 OA
ENDBRANCH   5   6
ENDBRANCH   1   5
TORSDOF 3
ENDMDL
MODEL 2
REMARK VINA RESULT:    -3.143      2.019      4.055
REMARK INTER + INTRA:          -3.872
REMARK INTER:                  -3.762
REMARK INTRA:                  -0.110
REMARK UNBOUND:                -0.178
REMARK SMILES O=C([O-])CCC(=O)[O-]
REMARK SMILES IDX 4 1 2 2 1 3 3 4 5 5 6 6 7 7 8 8
REMARK H PARENT
REMARK Flexibility Score: inf
ROOT
ATOM      1  C   UNL     1     -18.170 -30.276  19.755  1.00  0.00     0.059 C 
ENDROOT
BRANCH   1   2
ATOM      2  C   UNL     1     -19.543 -30.560  19.233  1.00  0.00     0.042 C 
ATOM      3  O   UNL     1     -19.821 -30.336  18.027  1.00  0.00    -0.550 OA
ATOM      4  O   UNL     1     -20.530 -31.025  20.093  1.00  0.00    -0.550 OA
ENDBRANCH   1   2
BRANCH   1   5
ATOM      5  C   UNL     1     -17.446 -29.282  18.844  1.00  0.00     0.059 C 
BRANCH   5   6
ATOM      6  C   UNL     1     -17.451 -27.915  19.452  1.00  0.00     0.042 C 
ATOM      7  O   UNL     1     -16.515 -27.557  20.214  1.00  0.00    -0.550 OA
ATOM      8  O   UNL     1     -18.463 -27.017  19.135  1.00  0.00    -0.550 OA
ENDBRANCH   5   6
ENDBRANCH   1   5
TORSDOF 3
ENDMDL
MODEL 3
REMARK VINA RESULT:    -3.138      0.047      3.471
REMARK INTER + INTRA:          -3.866
REMARK INTER:                  -3.680
REMARK INTRA:                  -0.186
REMARK UNBOUND:                -0.178
REMARK SMILES O=C([O-])CCC(=O)[O-]
REMARK SMILES IDX 4 1 2 2 1 3 3 4 5 5 6 6 7 7 8 8
REMARK H PARENT
REMARK Flexibility Score: inf
ROOT
ATOM      1  C   UNL     1     -20.167 -31.112  20.030  1.00  0.00     0.059 C 
ENDROOT
BRANCH   1   2
ATOM      2  C   UNL     1     -19.459 -32.429  20.045  1.00  0.00     0.042 C 
ATOM      3  O   UNL     1     -18.696 -32.727  21.001  1.00  0.00    -0.550 OA
ATOM      4  O   UNL     1     -19.602 -33.307  18.978  1.00  0.00    -0.550 OA
ENDBRANCH   1   2
BRANCH   1   5
ATOM      5  C   UNL     1     -19.832 -30.337  18.753  1.00  0.00     0.059 C 
BRANCH   5   6
ATOM      6  C   UNL     1     -18.367 -30.045  18.686  1.00  0.00     0.042 C 
ATOM      7  O   UNL     1     -17.695 -30.404  17.684  1.00  0.00    -0.550 OA
ATOM      8  O   UNL     1     -17.754 -29.331  19.708  1.00  0.00    -0.550 OA
ENDBRANCH   5   6
ENDBRANCH   1   5
TORSDOF 3
ENDMDL
MODEL 4
REMARK VINA RESULT:    -3.130      0.167      3.114
REMARK INTER + INTRA:          -3.856
REMARK INTER:                  -3.675
REMARK INTRA:                  -0.181
REMARK UNBOUND:                -0.178
REMARK SMILES O=C([O-])CCC(=O)[O-]
REMARK SMILES IDX 4 1 2 2 1 3 3 4 5 5 6 6 7 7 8 8
REMARK H PARENT
REMARK Flexibility Score: inf
ROOT
ATOM      1  C   UNL     1     -20.173 -31.106  20.017  1.00  0.00     0.059 C 
ENDROOT
BRANCH   1   2
ATOM      2  C   UNL     1     -19.491 -32.437  20.055  1.00  0.00     0.042 C 
ATOM      3  O   UNL     1     -19.699 -33.281  19.145  1.00  0.00    -0.550 OA
ATOM      4  O   UNL     1     -18.666 -32.764  21.124  1.00  0.00    -0.550 OA
ENDBRANCH   1   2
BRANCH   1   5
ATOM      5  C   UNL     1     -19.733 -30.313  18.785  1.00  0.00     0.059 C 
BRANCH   5   6
ATOM      6  C   UNL     1     -18.258 -30.063  18.822  1.00  0.00     0.042 C 
ATOM      7  O   UNL     1     -17.748 -29.429  19.782  1.00  0.00    -0.550 OA
ATOM      8  O   UNL     1     -17.442 -30.574  17.821  1.00  0.00    -0.550 OA
ENDBRANCH   5   6
ENDBRANCH   1   5
TORSDOF 3
ENDMDL
MODEL 5
REMARK VINA RESULT:    -3.115      1.219      1.817
REMARK INTER + INTRA:          -3.839
REMARK INTER:                  -3.682
REMARK INTRA:                  -0.157
REMARK UNBOUND:                -0.178
REMARK SMILES O=C([O-])CCC(=O)[O-]
REMARK SMILES IDX 4 1 2 2 1 3 3 4 5 5 6 6 7 7 8 8
REMARK H PARENT
REMARK Flexibility Score: inf
ROOT
ATOM      1  C   UNL     1     -20.000 -31.383  20.019  1.00  0.00     0.059 C 
ENDROOT
BRANCH   1   2
ATOM      2  C   UNL     1     -19.129 -30.554  19.130  1.00  0.00     0.042 C 
ATOM      3  O   UNL     1     -19.328 -30.536  17.887  1.00  0.00    -0.550 OA
ATOM      4  O   UNL     1     -18.066 -29.840  19.668  1.00  0.00    -0.550 OA
ENDBRANCH   1   2
BRANCH   1   5
ATOM      5  C   UNL     1     -19.669 -32.869  19.860  1.00  0.00     0.059 C 
BRANCH   5   6
ATOM      6  C   UNL     1     -18.431 -33.214  20.625  1.00  0.00     0.042 C 
ATOM      7  O   UNL     1     -17.567 -33.977  20.119  1.00  0.00    -0.550 OA
ATOM      8  O   UNL     1     -18.208 -32.654  21.876  1.00  0.00    -0.550 OA
ENDBRANCH   5   6
ENDBRANCH   1   5
TORSDOF 3
ENDMDL
MODEL 6
REMARK VINA RESULT:    -3.107      2.019      4.289
REMARK INTER + INTRA:          -3.830
REMARK INTER:                  -3.728
REMARK INTRA:                  -0.102
REMARK UNBOUND:                -0.178
REMARK SMILES O=C([O-])CCC(=O)[O-]
REMARK SMILES IDX 4 1 2 2 1 3 3 4 5 5 6 6 7 7 8 8
REMARK H PARENT
REMARK Flexibility Score: inf
ROOT
ATOM      1  C   UNL     1     -18.215 -30.219  19.696  1.00  0.00     0.059 C 
ENDROOT
BRANCH   1   2
ATOM      2  C   UNL     1     -19.602 -30.565  19.256  1.00  0.00     0.042 C 
ATOM      3  O   UNL     1     -20.422 -31.057  20.075  1.00  0.00    -0.550 OA
ATOM      4  O   UNL     1     -19.974 -30.391  17.929  1.00  0.00    -0.550 OA
ENDBRANCH   1   2
BRANCH   1   5
ATOM      5  C   UNL     1     -17.582 -29.213  18.731  1.00  0.00     0.059 C 
BRANCH   5   6
ATOM      6  C   UNL     1     -17.571 -27.844  19.334  1.00  0.00     0.042 C 
ATOM      7  O   UNL     1     -18.492 -27.029  19.070  1.00  0.00    -0.550 OA
ATOM      8  O   UNL     1     -16.570 -27.488  20.229  1.00  0.00    -0.550 OA
ENDBRANCH   5   6
ENDBRANCH   1   5
TORSDOF 3
ENDMDL
MODEL 7
REMARK VINA RESULT:    -3.092      1.798      2.200
REMARK INTER + INTRA:          -3.812
REMARK INTER:                  -3.759
REMARK INTRA:                  -0.053
REMARK UNBOUND:                -0.178
REMARK SMILES O=C([O-])CCC(=O)[O-]
REMARK SMILES IDX 4 1 2 2 1 3 3 4 5 5 6 6 7 7 8 8
REMARK H PARENT
REMARK Flexibility Score: inf
ROOT
ATOM      1  C   UNL     1     -18.400 -29.416  18.907  1.00  0.00     0.059 C 
ENDROOT
BRANCH   1   2
ATOM      2  C   UNL     1     -17.845 -28.090  19.320  1.00  0.00     0.042 C 
ATOM      3  O   UNL     1     -18.433 -27.027  18.988  1.00  0.00    -0.550 OA
ATOM      4  O   UNL     1     -16.652 -28.025  20.028  1.00  0.00    -0.550 OA
ENDBRANCH   1   2
BRANCH   1   5
ATOM      5  C   UNL     1     -18.043 -30.491  19.937  1.00  0.00     0.059 C 
BRANCH   5   6
ATOM      6  C   UNL     1     -19.235 -31.340  20.243  1.00  0.00     0.042 C 
ATOM      7  O   UNL     1     -19.086 -32.475  20.766  1.00  0.00    -0.550 OA
ATOM      8  O   UNL     1     -20.514 -30.857  19.998  1.00  0.00    -0.550 OA
ENDBRANCH   5   6
ENDBRANCH   1   5
TORSDOF 3
ENDMDL
MODEL 8
REMARK VINA RESULT:    -2.992      1.881      2.623
REMARK INTER + INTRA:          -3.694
REMARK INTER:                  -3.510
REMARK INTRA:                  -0.184
REMARK UNBOUND:                -0.178
REMARK SMILES O=C([O-])CCC(=O)[O-]
REMARK SMILES IDX 4 1 2 2 1 3 3 4 5 5 6 6 7 7 8 8
REMARK H PARENT
REMARK Flexibility Score: inf
ROOT
ATOM      1  C   UNL     1     -18.213 -33.350  18.759  1.00  0.00     0.059 C 
ENDROOT
BRANCH   1   2
ATOM      2  C   UNL     1     -18.283 -32.381  17.621  1.00  0.00     0.042 C 
ATOM      3  O   UNL     1     -17.416 -31.477  17.506  1.00  0.00    -0.550 OA
ATOM      4  O   UNL     1     -19.336 -32.447  16.717  1.00  0.00    -0.550 OA
ENDBRANCH   1   2
BRANCH   1   5
ATOM      5  C   UNL     1     -19.450 -33.220  19.651  1.00  0.00     0.059 C 
BRANCH   5   6
ATOM      6  C   UNL     1     -19.497 -31.868  20.288  1.00  0.00     0.042 C 
ATOM      7  O   UNL     1     -18.553 -31.482  21.025  1.00  0.00    -0.550 OA
ATOM      8  O   UNL     1     -20.561 -31.014  20.028  1.00  0.00    -0.550 OA
ENDBRANCH   5   6
ENDBRANCH   1   5
TORSDOF 3
ENDMDL
MODEL 9
REMARK VINA RESULT:    -2.964      1.879      3.317
REMARK INTER + INTRA:          -3.662
REMARK INTER:                  -3.477
REMARK INTRA:                  -0.185
REMARK UNBOUND:                -0.178
REMARK SMILES O=C([O-])CCC(=O)[O-]
REMARK SMILES IDX 4 1 2 2 1 3 3 4 5 5 6 6 7 7 8 8
REMARK H PARENT
REMARK Flexibility Score: inf
ROOT
ATOM      1  C   UNL     1     -19.305 -33.275  19.705  1.00  0.00     0.059 C 
ENDROOT
BRANCH   1   2
ATOM      2  C   UNL     1     -19.404 -31.912  20.312  1.00  0.00     0.042 C 
ATOM      3  O   UNL     1     -18.504 -31.497  21.087  1.00  0.00    -0.550 OA
ATOM      4  O   UNL     1     -20.517 -31.119  20.062  1.00  0.00    -0.550 OA
ENDBRANCH   1   2
BRANCH   1   5
ATOM      5  C   UNL     1     -18.131 -33.341  18.725  1.00  0.00     0.059 C 
BRANCH   5   6
ATOM      6  C   UNL     1     -18.356 -32.413  17.574  1.00  0.00     0.042 C 
ATOM      7  O   UNL     1     -19.320 -32.603  16.787  1.00  0.00    -0.550 OA
ATOM      8  O   UNL     1     -17.532 -31.309  17.401  1.00  0.00    -0.550 OA
ENDBRANCH   5   6
ENDBRANCH   1   5
TORSDOF 3
ENDMDL
