MODEL 1
REMARK VINA RESULT:    -4.695      0.000      0.000
REMARK INTER + INTRA:          -5.530
REMARK INTER:                  -5.381
REMARK INTRA:                  -0.149
REMARK UNBOUND:                -0.149
REMARK SMILES O=C([O-])C=Cc1ccc(O)cc1
REMARK SMILES IDX 6 1 7 2 12 3 8 4 11 5 9 6 5 7 4 8 2 9 1 10 3 11 10 12
REMARK H PARENT 10 13
REMARK Flexibility Score: inf
ROOT
ATOM      1  C   UNL     1      -7.108  -8.891  30.441  1.00  0.00    -0.025 A 
ATOM      2  C   UNL     1      -7.249  -9.775  29.356  1.00  0.00     0.012 A 
ATOM      3  C   UNL     1      -8.216  -8.102  30.817  1.00  0.00     0.012 A 
ATOM      4  C   UNL     1      -8.461  -9.871  28.665  1.00  0.00     0.047 A 
ATOM      5  C   UNL     1      -9.425  -8.201  30.123  1.00  0.00     0.047 A 
ATOM      6  C   UNL     1      -9.550  -9.085  29.045  1.00  0.00     0.115 A 
ENDROOT
BRANCH   1   7
ATOM      7  C   UNL     1      -5.792  -8.837  31.134  1.00  0.00     0.010 C 
ATOM      8  C   UNL     1      -4.744  -9.624  30.852  1.00  0.00     0.025 C 
BRANCH   8   9
ATOM      9  C   UNL     1      -3.470  -9.512  31.582  1.00  0.00     0.064 C 
ATOM     10  O   UNL     1      -3.374  -9.992  32.741  1.00  0.00    -0.545 OA
ATOM     11  O   UNL     1      -2.368  -8.886  31.012  1.00  0.00    -0.545 OA
ENDBRANCH   8   9
ENDBRANCH   1   7
BRANCH   6  12
ATOM     12  O   UNL     1     -10.752  -9.191  28.347  1.00  0.00    -0.508 OA
ATOM     13  H   UNL     1     -11.314 -10.034  28.386  1.00  0.00     0.293 HD
ENDBRANCH   6  12
TORSDOF 3
ENDMDL
MODEL 2
REMARK VINA RESULT:    -4.609      2.766      3.172
REMARK INTER + INTRA:          -5.431
REMARK INTER:                  -5.283
REMARK INTRA:                  -0.148
REMARK UNBOUND:                -0.149
REMARK SMILES O=C([O-])C=Cc1ccc(O)cc1
REMARK SMILES IDX 6 1 7 2 12 3 8 4 11 5 9 6 5 7 4 8 2 9 1 10 3 11 10 12
REMARK H PARENT 10 13
REMARK Flexibility Score: inf
ROOT
ATOM      1  C   UNL     1      -6.748 -10.145  29.885  1.00  0.00    -0.025 A 
ATOM      2  C   UNL     1      -7.758 -10.169  28.905  1.00  0.00     0.012 A 
ATOM      3  C   UNL     1      -6.802  -9.148  30.884  1.00  0.00     0.012 A 
ATOM      4  C   UNL     1      -8.792  -9.229  28.920  1.00  0.00     0.047 A 
ATOM      5  C   UNL     1      -7.838  -8.210  30.894  1.00  0.00     0.047 A 
ATOM      6  C   UNL     1      -8.835  -8.248  29.912  1.00  0.00     0.115 A 
ENDROOT
BRANCH   1   7
ATOM      7  C   UNL     1      -5.675 -11.174  29.812  1.00  0.00     0.010 C 
ATOM      8  C   UNL     1      -5.491 -12.018  28.787  1.00  0.00     0.025 C 
BRANCH   8   9
ATOM      9  C   UNL     1      -4.405 -13.012  28.786  1.00  0.00     0.064 C 
ATOM     10  O   UNL     1      -3.570 -13.017  27.844  1.00  0.00    -0.545 OA
ATOM     11  O   UNL     1      -4.284 -13.945  29.808  1.00  0.00    -0.545 OA
ENDBRANCH   8   9
ENDBRANCH   1   7
BRANCH   6  12
ATOM     12  O   UNL     1      -9.872  -7.317  29.915  1.00  0.00    -0.508 OA
ATOM     13  H   UNL     1     -10.639  -7.378  29.255  1.00  0.00     0.293 HD
ENDBRANCH   6  12
TORSDOF 3
ENDMDL
MODEL 3
REMARK VINA RESULT:    -4.493      3.750      4.954
REMARK INTER + INTRA:          -5.298
REMARK INTER:                  -5.157
REMARK INTRA:                  -0.141
REMARK UNBOUND:                -0.149
REMARK SMILES O=C([O-])C=Cc1ccc(O)cc1
REMARK SMILES IDX 6 1 7 2 12 3 8 4 11 5 9 6 5 7 4 8 2 9 1 10 3 11 10 12
REMARK H PARENT 10 13
REMARK Flexibility Score: inf
ROOT
ATOM      1  C   UNL     1      -7.962 -10.373  27.757  1.00  0.00    -0.025 A 
ATOM      2  C   UNL     1      -9.170  -9.803  27.315  1.00  0.00     0.012 A 
ATOM      3  C   UNL     1      -7.679 -10.365  29.140  1.00  0.00     0.012 A 
ATOM      4  C   UNL     1     -10.071  -9.242  28.224  1.00  0.00     0.047 A 
ATOM      5  C   UNL     1      -8.582  -9.803  30.045  1.00  0.00     0.047 A 
ATOM      6  C   UNL     1      -9.781  -9.240  29.590  1.00  0.00     0.115 A 
ENDROOT
BRANCH   1   7
ATOM      7  C   UNL     1      -7.046 -10.954  26.737  1.00  0.00     0.010 C 
ATOM      8  C   UNL     1      -6.726 -10.369  25.573  1.00  0.00     0.025 C 
BRANCH   8   9
ATOM      9  C   UNL     1      -5.810 -11.005  24.612  1.00  0.00     0.064 C 
ATOM     10  O   UNL     1      -6.250 -11.394  23.499  1.00  0.00    -0.545 OA
ATOM     11  O   UNL     1      -4.464 -11.184  24.912  1.00  0.00    -0.545 OA
ENDBRANCH   8   9
ENDBRANCH   1   7
BRANCH   6  12
ATOM     12  O   UNL     1     -10.688  -8.677  30.485  1.00  0.00    -0.508 OA
ATOM     13  H   UNL     1     -10.466  -7.836  31.006  1.00  0.00     0.293 HD
ENDBRANCH   6  12
TORSDOF 3
ENDMDL
MODEL 4
REMARK VINA RESULT:    -4.376     10.387     12.538
REMARK INTER + INTRA:          -5.164
REMARK INTER:                  -5.031
REMARK INTRA:                  -0.133
REMARK UNBOUND:                -0.149
REMARK SMILES O=C([O-])C=Cc1ccc(O)cc1
REMARK SMILES IDX 6 1 7 2 12 3 8 4 11 5 9 6 5 7 4 8 2 9 1 10 3 11 10 12
REMARK H PARENT 10 13
REMARK Flexibility Score: inf
ROOT
ATOM      1  C   UNL     1      -9.197 -13.040  19.490  1.00  0.00    -0.025 A 
ATOM      2  C   UNL     1     -10.437 -12.403  19.675  1.00  0.00     0.012 A 
ATOM      3  C   UNL     1      -8.530 -13.559  20.622  1.00  0.00     0.012 A 
ATOM      4  C   UNL     1     -10.999 -12.287  20.950  1.00  0.00     0.047 A 
ATOM      5  C   UNL     1      -9.095 -13.440  21.895  1.00  0.00     0.047 A 
ATOM      6  C   UNL     1     -10.331 -12.803  22.062  1.00  0.00     0.115 A 
ENDROOT
BRANCH   1   7
ATOM      7  C   UNL     1      -8.653 -13.131  18.108  1.00  0.00     0.010 C 
ATOM      8  C   UNL     1      -7.359 -13.305  17.803  1.00  0.00     0.025 C 
BRANCH   8   9
ATOM      9  C   UNL     1      -6.895 -13.386  16.408  1.00  0.00     0.064 C 
ATOM     10  O   UNL     1      -6.251 -12.425  15.911  1.00  0.00    -0.545 OA
ATOM     11  O   UNL     1      -7.154 -14.507  15.628  1.00  0.00    -0.545 OA
ENDBRANCH   8   9
ENDBRANCH   1   7
BRANCH   6  12
ATOM     12  O   UNL     1     -10.903 -12.680  23.326  1.00  0.00    -0.508 OA
ATOM     13  H   UNL     1     -10.338 -12.492  24.147  1.00  0.00     0.293 HD
ENDBRANCH   6  12
TORSDOF 3
ENDMDL
MODEL 5
REMARK VINA RESULT:    -4.319     15.635     17.532
REMARK INTER + INTRA:          -5.099
REMARK INTER:                  -4.962
REMARK INTRA:                  -0.136
REMARK UNBOUND:                -0.149
REMARK SMILES O=C([O-])C=Cc1ccc(O)cc1
REMARK SMILES IDX 6 1 7 2 12 3 8 4 11 5 9 6 5 7 4 8 2 9 1 10 3 11 10 12
REMARK H PARENT 10 13
REMARK Flexibility Score: inf
ROOT
ATOM      1  C   UNL     1     -16.456 -18.449  19.276  1.00  0.00    -0.025 A 
ATOM      2  C   UNL     1     -16.396 -17.171  18.691  1.00  0.00     0.012 A 
ATOM      3  C   UNL     1     -17.391 -19.378  18.771  1.00  0.00     0.012 A 
ATOM      4  C   UNL     1     -17.242 -16.828  17.633  1.00  0.00     0.047 A 
ATOM      5  C   UNL     1     -18.236 -19.031  17.713  1.00  0.00     0.047 A 
ATOM      6  C   UNL     1     -18.163 -17.755  17.141  1.00  0.00     0.115 A 
ENDROOT
BRANCH   1   7
ATOM      7  C   UNL     1     -15.528 -18.751  20.400  1.00  0.00     0.010 C 
ATOM      8  C   UNL     1     -15.716 -19.717  21.311  1.00  0.00     0.025 C 
BRANCH   8   9
ATOM      9  C   UNL     1     -14.751 -19.957  22.397  1.00  0.00     0.064 C 
ATOM     10  O   UNL     1     -13.734 -19.223  22.498  1.00  0.00    -0.545 OA
ATOM     11  O   UNL     1     -14.944 -20.983  23.315  1.00  0.00    -0.545 OA
ENDBRANCH   8   9
ENDBRANCH   1   7
BRANCH   6  12
ATOM     12  O   UNL     1     -19.000 -17.399  16.086  1.00  0.00    -0.508 OA
ATOM     13  H   UNL     1     -18.631 -17.011  15.225  1.00  0.00     0.293 HD
ENDBRANCH   6  12
TORSDOF 3
ENDMDL
MODEL 6
REMARK VINA RESULT:    -4.257     12.450     14.514
REMARK INTER + INTRA:          -5.028
REMARK INTER:                  -4.891
REMARK INTRA:                  -0.137
REMARK UNBOUND:                -0.149
REMARK SMILES O=C([O-])C=Cc1ccc(O)cc1
REMARK SMILES IDX 6 1 7 2 12 3 8 4 11 5 9 6 5 7 4 8 2 9 1 10 3 11 10 12
REMARK H PARENT 10 13
REMARK Flexibility Score: inf
ROOT
ATOM      1  C   UNL     1      -6.431 -13.315  17.813  1.00  0.00    -0.025 A 
ATOM      2  C   UNL     1      -7.644 -13.580  18.473  1.00  0.00     0.012 A 
ATOM      3  C   UNL     1      -5.229 -13.406  18.549  1.00  0.00     0.012 A 
ATOM      4  C   UNL     1      -7.662 -13.927  19.827  1.00  0.00     0.047 A 
ATOM      5  C   UNL     1      -5.252 -13.753  19.903  1.00  0.00     0.047 A 
ATOM      6  C   UNL     1      -6.468 -14.014  20.545  1.00  0.00     0.115 A 
ENDROOT
BRANCH   1   7
ATOM      7  C   UNL     1      -6.481 -12.950  16.371  1.00  0.00     0.010 C 
ATOM      8  C   UNL     1      -6.658 -13.820  15.366  1.00  0.00     0.025 C 
BRANCH   8   9
ATOM      9  C   UNL     1      -6.697 -13.384  13.960  1.00  0.00     0.064 C 
ATOM     10  O   UNL     1      -6.313 -12.224  13.659  1.00  0.00    -0.545 OA
ATOM     11  O   UNL     1      -7.151 -14.233  12.958  1.00  0.00    -0.545 OA
ENDBRANCH   8   9
ENDBRANCH   1   7
BRANCH   6  12
ATOM     12  O   UNL     1      -6.500 -14.362  21.894  1.00  0.00    -0.508 OA
ATOM     13  H   UNL     1      -7.355 -14.299  22.436  1.00  0.00     0.293 HD
ENDBRANCH   6  12
TORSDOF 3
ENDMDL
MODEL 7
REMARK VINA RESULT:    -4.243     15.772     17.406
REMARK INTER + INTRA:          -5.012
REMARK INTER:                  -4.881
REMARK INTRA:                  -0.130
REMARK UNBOUND:                -0.149
REMARK SMILES O=C([O-])C=Cc1ccc(O)cc1
REMARK SMILES IDX 6 1 7 2 12 3 8 4 11 5 9 6 5 7 4 8 2 9 1 10 3 11 10 12
REMARK H PARENT 10 13
REMARK Flexibility Score: inf
ROOT
ATOM      1  C   UNL     1     -14.981 -19.077  20.186  1.00  0.00    -0.025 A 
ATOM      2  C   UNL     1     -15.171 -18.498  21.453  1.00  0.00     0.012 A 
ATOM      3  C   UNL     1     -14.762 -20.470  20.107  1.00  0.00     0.012 A 
ATOM      4  C   UNL     1     -15.145 -19.283  22.610  1.00  0.00     0.047 A 
ATOM      5  C   UNL     1     -14.736 -21.250  21.266  1.00  0.00     0.047 A 
ATOM      6  C   UNL     1     -14.927 -20.659  22.520  1.00  0.00     0.115 A 
ENDROOT
BRANCH   1   7
ATOM      7  C   UNL     1     -15.020 -18.186  18.994  1.00  0.00     0.010 C 
ATOM      8  C   UNL     1     -16.135 -17.836  18.336  1.00  0.00     0.025 C 
BRANCH   8   9
ATOM      9  C   UNL     1     -16.096 -16.948  17.162  1.00  0.00     0.064 C 
ATOM     10  O   UNL     1     -17.159 -16.413  16.753  1.00  0.00    -0.545 OA
ATOM     11  O   UNL     1     -14.903 -16.688  16.497  1.00  0.00    -0.545 OA
ENDBRANCH   8   9
ENDBRANCH   1   7
BRANCH   6  12
ATOM     12  O   UNL     1     -14.904 -21.429  23.681  1.00  0.00    -0.508 OA
ATOM     13  H   UNL     1     -14.033 -21.775  24.070  1.00  0.00     0.293 HD
ENDBRANCH   6  12
TORSDOF 3
ENDMDL
MODEL 8
REMARK VINA RESULT:    -4.206     14.756     17.171
REMARK INTER + INTRA:          -4.969
REMARK INTER:                  -4.818
REMARK INTRA:                  -0.151
REMARK UNBOUND:                -0.149
REMARK SMILES O=C([O-])C=Cc1ccc(O)cc1
REMARK SMILES IDX 6 1 7 2 12 3 8 4 11 5 9 6 5 7 4 8 2 9 1 10 3 11 10 12
REMARK H PARENT 10 13
REMARK Flexibility Score: inf
ROOT
ATOM      1  C   UNL     1     -16.091 -16.980  18.154  1.00  0.00    -0.025 A 
ATOM      2  C   UNL     1     -17.420 -17.125  18.590  1.00  0.00     0.012 A 
ATOM      3  C   UNL     1     -15.859 -16.547  16.830  1.00  0.00     0.012 A 
ATOM      4  C   UNL     1     -18.489 -16.847  17.733  1.00  0.00     0.047 A 
ATOM      5  C   UNL     1     -16.931 -16.270  15.977  1.00  0.00     0.047 A 
ATOM      6  C   UNL     1     -18.248 -16.419  16.426  1.00  0.00     0.115 A 
ENDROOT
BRANCH   1   7
ATOM      7  C   UNL     1     -14.999 -17.293  19.116  1.00  0.00     0.010 C 
ATOM      8  C   UNL     1     -15.183 -17.770  20.356  1.00  0.00     0.025 C 
BRANCH   8   9
ATOM      9  C   UNL     1     -14.051 -18.057  21.252  1.00  0.00     0.064 C 
ATOM     10  O   UNL     1     -12.999 -17.372  21.163  1.00  0.00    -0.545 OA
ATOM     11  O   UNL     1     -14.124 -19.073  22.199  1.00  0.00    -0.545 OA
ENDBRANCH   8   9
ENDBRANCH   1   7
BRANCH   6  12
ATOM     12  O   UNL     1     -19.323 -16.145  15.583  1.00  0.00    -0.508 OA
ATOM     13  H   UNL     1     -20.217 -16.610  15.697  1.00  0.00     0.293 HD
ENDBRANCH   6  12
TORSDOF 3
ENDMDL
MODEL 9
REMARK VINA RESULT:    -4.146     15.276     18.282
REMARK INTER + INTRA:          -4.901
REMARK INTER:                  -4.751
REMARK INTRA:                  -0.150
REMARK UNBOUND:                -0.149
REMARK SMILES O=C([O-])C=Cc1ccc(O)cc1
REMARK SMILES IDX 6 1 7 2 12 3 8 4 11 5 9 6 5 7 4 8 2 9 1 10 3 11 10 12
REMARK H PARENT 10 13
REMARK Flexibility Score: inf
ROOT
ATOM      1  C   UNL     1     -16.619 -18.433  19.361  1.00  0.00    -0.025 A 
ATOM      2  C   UNL     1     -15.608 -17.511  19.689  1.00  0.00     0.012 A 
ATOM      3  C   UNL     1     -16.750 -19.597  20.150  1.00  0.00     0.012 A 
ATOM      4  C   UNL     1     -14.754 -17.740  20.771  1.00  0.00     0.047 A 
ATOM      5  C   UNL     1     -15.893 -19.822  21.231  1.00  0.00     0.047 A 
ATOM      6  C   UNL     1     -14.893 -18.894  21.544  1.00  0.00     0.115 A 
ENDROOT
BRANCH   1   7
ATOM      7  C   UNL     1     -17.495 -18.130  18.197  1.00  0.00     0.010 C 
ATOM      8  C   UNL     1     -17.405 -17.029  17.436  1.00  0.00     0.025 C 
BRANCH   8   9
ATOM      9  C   UNL     1     -18.309 -16.798  16.297  1.00  0.00     0.064 C 
ATOM     10  O   UNL     1     -18.412 -17.673  15.399  1.00  0.00    -0.545 OA
ATOM     11  O   UNL     1     -19.052 -15.627  16.196  1.00  0.00    -0.545 OA
ENDBRANCH   8   9
ENDBRANCH   1   7
BRANCH   6  12
ATOM     12  O   UNL     1     -14.035 -19.109  22.620  1.00  0.00    -0.508 OA
ATOM     13  H   UNL     1     -13.196 -18.554  22.747  1.00  0.00     0.293 HD
ENDBRANCH   6  12
TORSDOF 3
ENDMDL
