MODEL 1
REMARK VINA RESULT:    -3.393      0.000      0.000
REMARK INTER + INTRA:          -4.634
REMARK INTER:                  -4.186
REMARK INTRA:                  -0.448
REMARK UNBOUND:                -0.448
REMARK SMILES C=CC[C@@H](C)C(=O)CC
REMARK SMILES IDX 4 1 5 2 6 3 7 4 8 5 9 6 3 7 2 8 1 9
REMARK H PARENT
REMARK Flexibility Score: inf
ROOT
ATOM      1  C   UNL     1       1.700  -9.863 -41.888  1.00  0.00     0.057 C 
ATOM      2  C   UNL     1       1.301  -9.045 -43.124  1.00  0.00     0.016 C 
ENDROOT
BRANCH   1   3
ATOM      3  C   UNL     1       0.463 -10.242 -41.102  1.00  0.00     0.135 C 
ATOM      4  O   UNL     1       0.004  -9.461 -40.281  1.00  0.00    -0.299 OA
BRANCH   3   5
ATOM      5  C   UNL     1      -0.224 -11.565 -41.320  1.00  0.00     0.072 C 
ATOM      6  C   UNL     1      -1.347 -11.429 -42.343  1.00  0.00     0.012 C 
ENDBRANCH   3   5
ENDBRANCH   1   3
BRANCH   1   7
ATOM      7  C   UNL     1       2.491 -11.131 -42.271  1.00  0.00     0.038 C 
BRANCH   7   8
ATOM      8  C   UNL     1       2.598 -11.311 -43.762  1.00  0.00    -0.034 C 
ATOM      9  C   UNL     1       2.212 -12.440 -44.365  1.00  0.00     0.004 C 
ENDBRANCH   7   8
ENDBRANCH   1   7
TORSDOF 4
ENDMDL
MODEL 2
REMARK VINA RESULT:    -3.260      1.816      3.729
REMARK INTER + INTRA:          -4.470
REMARK INTER:                  -4.167
REMARK INTRA:                  -0.303
REMARK UNBOUND:                -0.448
REMARK SMILES C=CC[C@@H](C)C(=O)CC
REMARK SMILES IDX 4 1 5 2 6 3 7 4 8 5 9 6 3 7 2 8 1 9
REMARK H PARENT
REMARK Flexibility Score: inf
ROOT
ATOM      1  C   UNL     1       1.327 -10.356 -41.539  1.00  0.00     0.057 C 
ATOM      2  C   UNL     1       0.572 -11.596 -41.041  1.00  0.00     0.016 C 
ENDROOT
BRANCH   1   3
ATOM      3  C   UNL     1       2.574 -10.779 -42.285  1.00  0.00     0.135 C 
ATOM      4  O   UNL     1       3.602 -11.010 -41.664  1.00  0.00    -0.299 OA
BRANCH   3   5
ATOM      5  C   UNL     1       2.573 -10.933 -43.784  1.00  0.00     0.072 C 
ATOM      6  C   UNL     1       2.236 -12.367 -44.178  1.00  0.00     0.012 C 
ENDBRANCH   3   5
ENDBRANCH   1   3
BRANCH   1   7
ATOM      7  C   UNL     1       0.443  -9.474 -42.446  1.00  0.00     0.038 C 
BRANCH   7   8
ATOM      8  C   UNL     1      -1.017  -9.828 -42.343  1.00  0.00    -0.034 C 
ATOM      9  C   UNL     1      -1.969  -8.890 -42.325  1.00  0.00     0.004 C 
ENDBRANCH   7   8
ENDBRANCH   1   7
TORSDOF 4
ENDMDL
MODEL 3
REMARK VINA RESULT:    -3.245      1.528      3.527
REMARK INTER + INTRA:          -4.451
REMARK INTER:                  -4.048
REMARK INTRA:                  -0.404
REMARK UNBOUND:                -0.448
REMARK SMILES C=CC[C@@H](C)C(=O)CC
REMARK SMILES IDX 4 1 5 2 6 3 7 4 8 5 9 6 3 7 2 8 1 9
REMARK H PARENT
REMARK Flexibility Score: inf
ROOT
ATOM      1  C   UNL     1      -0.153  -9.430 -41.533  1.00  0.00     0.057 C 
ATOM      2  C   UNL     1      -0.020 -10.228 -40.230  1.00  0.00     0.016 C 
ENDROOT
BRANCH   1   3
ATOM      3  C   UNL     1       1.140  -9.511 -42.318  1.00  0.00     0.135 C 
ATOM      4  O   UNL     1       1.295  -8.805 -43.304  1.00  0.00    -0.299 OA
BRANCH   3   5
ATOM      5  C   UNL     1       2.250 -10.440 -41.901  1.00  0.00     0.072 C 
ATOM      6  C   UNL     1       2.336 -11.636 -42.843  1.00  0.00     0.012 C 
ENDBRANCH   3   5
ENDBRANCH   1   3
BRANCH   1   7
ATOM      7  C   UNL     1      -1.327  -9.935 -42.397  1.00  0.00     0.038 C 
BRANCH   7   8
ATOM      8  C   UNL     1      -1.427 -11.437 -42.406  1.00  0.00    -0.034 C 
ATOM      9  C   UNL     1      -2.607 -12.065 -42.373  1.00  0.00     0.004 C 
ENDBRANCH   7   8
ENDBRANCH   1   7
TORSDOF 4
ENDMDL
MODEL 4
REMARK VINA RESULT:    -3.215      2.280      4.439
REMARK INTER + INTRA:          -4.414
REMARK INTER:                  -4.180
REMARK INTRA:                  -0.234
REMARK UNBOUND:                -0.448
REMARK SMILES C=CC[C@@H](C)C(=O)CC
REMARK SMILES IDX 4 1 5 2 6 3 7 4 8 5 9 6 3 7 2 8 1 9
REMARK H PARENT
REMARK Flexibility Score: inf
ROOT
ATOM      1  C   UNL     1      -0.729 -10.076 -41.486  1.00  0.00     0.057 C 
ATOM      2  C   UNL     1      -1.538  -9.126 -42.380  1.00  0.00     0.016 C 
ENDROOT
BRANCH   1   3
ATOM      3  C   UNL     1       0.516 -10.533 -42.216  1.00  0.00     0.135 C 
ATOM      4  O   UNL     1       0.442 -11.446 -43.026  1.00  0.00    -0.299 OA
BRANCH   3   5
ATOM      5  C   UNL     1       1.849  -9.874 -41.973  1.00  0.00     0.072 C 
ATOM      6  C   UNL     1       2.960 -10.917 -41.896  1.00  0.00     0.012 C 
ENDBRANCH   3   5
ENDBRANCH   1   3
BRANCH   1   7
ATOM      7  C   UNL     1      -0.342  -9.412 -40.148  1.00  0.00     0.038 C 
BRANCH   7   8
ATOM      8  C   UNL     1      -1.320  -8.346 -39.732  1.00  0.00    -0.034 C 
ATOM      9  C   UNL     1      -1.099  -7.560 -38.675  1.00  0.00     0.004 C 
ENDBRANCH   7   8
ENDBRANCH   1   7
TORSDOF 4
ENDMDL
MODEL 5
REMARK VINA RESULT:    -3.194      1.717      1.790
REMARK INTER + INTRA:          -4.389
REMARK INTER:                  -4.141
REMARK INTRA:                  -0.247
REMARK UNBOUND:                -0.448
REMARK SMILES C=CC[C@@H](C)C(=O)CC
REMARK SMILES IDX 4 1 5 2 6 3 7 4 8 5 9 6 3 7 2 8 1 9
REMARK H PARENT
REMARK Flexibility Score: inf
ROOT
ATOM      1  C   UNL     1       1.000  -9.569 -42.235  1.00  0.00     0.057 C 
ATOM      2  C   UNL     1       1.248  -8.754 -43.512  1.00  0.00     0.016 C 
ENDROOT
BRANCH   1   3
ATOM      3  C   UNL     1      -0.446 -10.014 -42.183  1.00  0.00     0.135 C 
ATOM      4  O   UNL     1      -0.746 -11.144 -42.540  1.00  0.00    -0.299 OA
BRANCH   3   5
ATOM      5  C   UNL     1      -1.530  -9.091 -41.687  1.00  0.00     0.072 C 
ATOM      6  C   UNL     1      -2.498  -8.741 -42.813  1.00  0.00     0.012 C 
ENDBRANCH   3   5
ENDBRANCH   1   3
BRANCH   1   7
ATOM      7  C   UNL     1       1.932 -10.795 -42.148  1.00  0.00     0.038 C 
BRANCH   7   8
ATOM      8  C   UNL     1       2.559 -11.134 -43.474  1.00  0.00    -0.034 C 
ATOM      9  C   UNL     1       2.238 -12.247 -44.141  1.00  0.00     0.004 C 
ENDBRANCH   7   8
ENDBRANCH   1   7
TORSDOF 4
ENDMDL
MODEL 6
REMARK VINA RESULT:    -3.157      1.475      2.108
REMARK INTER + INTRA:          -4.343
REMARK INTER:                  -3.882
REMARK INTRA:                  -0.460
REMARK UNBOUND:                -0.448
REMARK SMILES C=CC[C@@H](C)C(=O)CC
REMARK SMILES IDX 4 1 5 2 6 3 7 4 8 5 9 6 3 7 2 8 1 9
REMARK H PARENT
REMARK Flexibility Score: inf
ROOT
ATOM      1  C   UNL     1       2.294 -11.867 -41.924  1.00  0.00     0.057 C 
ATOM      2  C   UNL     1       3.522 -10.981 -41.677  1.00  0.00     0.016 C 
ENDROOT
BRANCH   1   3
ATOM      3  C   UNL     1       1.066 -11.225 -41.314  1.00  0.00     0.135 C 
ATOM      4  O   UNL     1       0.278 -11.909 -40.677  1.00  0.00    -0.299 OA
BRANCH   3   5
ATOM      5  C   UNL     1       0.799  -9.750 -41.467  1.00  0.00     0.072 C 
ATOM      6  C   UNL     1      -0.431  -9.512 -42.336  1.00  0.00     0.012 C 
ENDBRANCH   3   5
ENDBRANCH   1   3
BRANCH   1   7
ATOM      7  C   UNL     1       2.065 -12.120 -43.429  1.00  0.00     0.038 C 
BRANCH   7   8
ATOM      8  C   UNL     1       2.852 -11.174 -44.296  1.00  0.00    -0.034 C 
ATOM      9  C   UNL     1       2.268 -10.167 -44.951  1.00  0.00     0.004 C 
ENDBRANCH   7   8
ENDBRANCH   1   7
TORSDOF 4
ENDMDL
MODEL 7
REMARK VINA RESULT:    -3.097      2.387      4.236
REMARK INTER + INTRA:          -4.269
REMARK INTER:                  -3.964
REMARK INTRA:                  -0.306
REMARK UNBOUND:                -0.448
REMARK SMILES C=CC[C@@H](C)C(=O)CC
REMARK SMILES IDX 4 1 5 2 6 3 7 4 8 5 9 6 3 7 2 8 1 9
REMARK H PARENT
REMARK Flexibility Score: inf
ROOT
ATOM      1  C   UNL     1      -0.003  -9.526 -41.407  1.00  0.00     0.057 C 
ATOM      2  C   UNL     1       1.459  -9.921 -41.657  1.00  0.00     0.016 C 
ENDROOT
BRANCH   1   3
ATOM      3  C   UNL     1      -0.921 -10.432 -42.201  1.00  0.00     0.135 C 
ATOM      4  O   UNL     1      -0.475 -11.448 -42.714  1.00  0.00    -0.299 OA
BRANCH   3   5
ATOM      5  C   UNL     1      -2.384 -10.111 -42.363  1.00  0.00     0.072 C 
ATOM      6  C   UNL     1      -2.572  -8.674 -42.840  1.00  0.00     0.012 C 
ENDBRANCH   3   5
ENDBRANCH   1   3
BRANCH   1   7
ATOM      7  C   UNL     1      -0.365  -9.591 -39.909  1.00  0.00     0.038 C 
BRANCH   7   8
ATOM      8  C   UNL     1      -1.034  -8.332 -39.426  1.00  0.00    -0.034 C 
ATOM      9  C   UNL     1      -0.743  -7.789 -38.240  1.00  0.00     0.004 C 
ENDBRANCH   7   8
ENDBRANCH   1   7
TORSDOF 4
ENDMDL
MODEL 8
REMARK VINA RESULT:    -3.089     13.318     14.932
REMARK INTER + INTRA:          -4.260
REMARK INTER:                  -4.032
REMARK INTRA:                  -0.228
REMARK UNBOUND:                -0.448
REMARK SMILES C=CC[C@@H](C)C(=O)CC
REMARK SMILES IDX 4 1 5 2 6 3 7 4 8 5 9 6 3 7 2 8 1 9
REMARK H PARENT
REMARK Flexibility Score: inf
ROOT
ATOM      1  C   UNL     1      -0.012 -25.418 -46.305  1.00  0.00     0.057 C 
ATOM      2  C   UNL     1       1.181 -26.078 -47.008  1.00  0.00     0.016 C 
ENDROOT
BRANCH   1   3
ATOM      3  C   UNL     1       0.431 -24.128 -45.647  1.00  0.00     0.135 C 
ATOM      4  O   UNL     1       1.559 -23.701 -45.847  1.00  0.00    -0.299 OA
BRANCH   3   5
ATOM      5  C   UNL     1      -0.500 -23.347 -44.755  1.00  0.00     0.072 C 
ATOM      6  C   UNL     1       0.034 -21.938 -44.519  1.00  0.00     0.012 C 
ENDBRANCH   3   5
ENDBRANCH   1   3
BRANCH   1   7
ATOM      7  C   UNL     1      -1.171 -25.140 -47.284  1.00  0.00     0.038 C 
BRANCH   7   8
ATOM      8  C   UNL     1      -2.185 -26.253 -47.304  1.00  0.00    -0.034 C 
ATOM      9  C   UNL     1      -3.153 -26.340 -46.387  1.00  0.00     0.004 C 
ENDBRANCH   7   8
ENDBRANCH   1   7
TORSDOF 4
ENDMDL
MODEL 9
REMARK VINA RESULT:    -3.080      1.767      2.532
REMARK INTER + INTRA:          -4.248
REMARK INTER:                  -3.932
REMARK INTRA:                  -0.315
REMARK UNBOUND:                -0.448
REMARK SMILES C=CC[C@@H](C)C(=O)CC
REMARK SMILES IDX 4 1 5 2 6 3 7 4 8 5 9 6 3 7 2 8 1 9
REMARK H PARENT
REMARK Flexibility Score: inf
ROOT
ATOM      1  C   UNL     1      -0.349  -9.793 -42.113  1.00  0.00     0.057 C 
ATOM      2  C   UNL     1      -0.641 -11.253 -42.486  1.00  0.00     0.016 C 
ENDROOT
BRANCH   1   3
ATOM      3  C   UNL     1      -0.648  -9.569 -40.645  1.00  0.00     0.135 C 
ATOM      4  O   UNL     1      -0.096 -10.262 -39.802  1.00  0.00    -0.299 OA
BRANCH   3   5
ATOM      5  C   UNL     1      -1.607  -8.496 -40.199  1.00  0.00     0.072 C 
ATOM      6  C   UNL     1      -2.721  -8.308 -41.223  1.00  0.00     0.012 C 
ENDBRANCH   3   5
ENDBRANCH   1   3
BRANCH   1   7
ATOM      7  C   UNL     1       1.113  -9.406 -42.419  1.00  0.00     0.038 C 
BRANCH   7   8
ATOM      8  C   UNL     1       1.985 -10.608 -42.668  1.00  0.00    -0.034 C 
ATOM      9  C   UNL     1       3.061 -10.864 -41.918  1.00  0.00     0.004 C 
ENDBRANCH   7   8
ENDBRANCH   1   7
TORSDOF 4
ENDMDL
