MODEL 1
REMARK VINA RESULT:    -2.875      0.000      0.000
REMARK INTER + INTRA:          -3.833
REMARK INTER:                  -3.548
REMARK INTRA:                  -0.285
REMARK UNBOUND:                -0.285
REMARK SMILES Oc1cc(O)c2cc(O)c(-c3cc(O)c(O)c(O)c3)[o+]c2c1
REMARK SMILES IDX 10 1 20 2 21 3 22 4 2 5 3 6 4 7 6 8 7 9 8 10 11 11 12 12
REMARK SMILES IDX 13 13 19 14 15 15 17 16 14 17 16 19 18 21 9 23 1 25 5 27
REMARK H PARENT 14 18 16 20 18 22 9 24 1 26 5 28
REMARK Flexibility Score: inf
ROOT
ATOM      1  C   UNL     1     -30.222 -33.488  13.168  1.00  0.00     0.402 A 
ATOM      2  O   UNL     1     -30.195 -32.159  13.120  1.00  0.00    -0.202 OA
ATOM      3  C   UNL     1     -29.097 -31.461  12.846  1.00  0.00     0.368 A 
ATOM      4  C   UNL     1     -29.167 -30.066  12.822  1.00  0.00     0.162 A 
ATOM      5  C   UNL     1     -28.031 -29.308  12.539  1.00  0.00     0.128 A 
ATOM      6  C   UNL     1     -26.813 -29.947  12.280  1.00  0.00     0.093 A 
ATOM      7  C   UNL     1     -26.717 -31.345  12.299  1.00  0.00     0.136 A 
ATOM      8  C   UNL     1     -27.871 -32.119  12.582  1.00  0.00     0.125 A 
ATOM      9  C   UNL     1     -27.872 -33.523  12.610  1.00  0.00     0.078 A 
ATOM     10  C   UNL     1     -29.052 -34.219  12.892  1.00  0.00     0.223 A 
ENDROOT
BRANCH   1  11
ATOM     11  C   UNL     1     -31.506 -34.151  13.494  1.00  0.00     0.091 A 
ATOM     12  C   UNL     1     -32.570 -34.177  12.576  1.00  0.00     0.068 A 
ATOM     13  C   UNL     1     -33.769 -34.830  12.893  1.00  0.00     0.162 A 
ATOM     14  C   UNL     1     -31.647 -34.816  14.720  1.00  0.00     0.068 A 
ATOM     15  C   UNL     1     -33.909 -35.474  14.134  1.00  0.00     0.200 A 
ATOM     16  C   UNL     1     -32.841 -35.469  15.047  1.00  0.00     0.162 A 
BRANCH  13  17
ATOM     17  O   UNL     1     -34.820 -34.843  11.978  1.00  0.00    -0.504 OA
ATOM     18  H   UNL     1     -35.025 -35.660  11.414  1.00  0.00     0.293 HD
ENDBRANCH  13  17
BRANCH  15  19
ATOM     19  O   UNL     1     -35.097 -36.124  14.469  1.00  0.00    -0.502 OA
ATOM     20  H   UNL     1     -35.381 -36.271  15.431  1.00  0.00     0.293 HD
ENDBRANCH  15  19
BRANCH  16  21
ATOM     21  O   UNL     1     -32.945 -36.107  16.283  1.00  0.00    -0.504 OA
ATOM     22  H   UNL     1     -32.202 -36.074  16.970  1.00  0.00     0.293 HD
ENDBRANCH  16  21
ENDBRANCH   1  11
BRANCH  10  23
ATOM     23  O   UNL     1     -29.064 -35.614  12.871  1.00  0.00    -0.500 OA
ATOM     24  H   UNL     1     -28.317 -36.146  12.441  1.00  0.00     0.294 HD
ENDBRANCH  10  23
BRANCH   5  25
ATOM     25  O   UNL     1     -28.120 -27.918  12.520  1.00  0.00    -0.507 OA
ATOM     26  H   UNL     1     -28.793 -27.438  11.934  1.00  0.00     0.293 HD
ENDBRANCH   5  25
BRANCH   7  27
ATOM     27  O   UNL     1     -25.465 -31.907  12.033  1.00  0.00    -0.507 OA
ATOM     28  H   UNL     1     -25.133 -32.774  12.429  1.00  0.00     0.293 HD
ENDBRANCH   7  27
TORSDOF 7
ENDMDL
MODEL 2
REMARK VINA RESULT:    -2.591      2.271      7.151
REMARK INTER + INTRA:          -3.483
REMARK INTER:                  -3.098
REMARK INTRA:                  -0.385
REMARK UNBOUND:                -0.285
REMARK SMILES Oc1cc(O)c2cc(O)c(-c3cc(O)c(O)c(O)c3)[o+]c2c1
REMARK SMILES IDX 10 1 20 2 21 3 22 4 2 5 3 6 4 7 6 8 7 9 8 10 11 11 12 12
REMARK SMILES IDX 13 13 19 14 15 15 17 16 14 17 16 19 18 21 9 23 1 25 5 27
REMARK H PARENT 14 18 16 20 18 22 9 24 1 26 5 28
REMARK Flexibility Score: inf
ROOT
ATOM      1  C   UNL     1     -30.190 -33.912  14.250  1.00  0.00     0.402 A 
ATOM      2  O   UNL     1     -31.037 -34.238  15.223  1.00  0.00    -0.202 OA
ATOM      3  C   UNL     1     -32.208 -34.829  15.004  1.00  0.00     0.368 A 
ATOM      4  C   UNL     1     -33.031 -35.128  16.091  1.00  0.00     0.162 A 
ATOM      5  C   UNL     1     -34.266 -35.747  15.892  1.00  0.00     0.128 A 
ATOM      6  C   UNL     1     -34.683 -36.067  14.595  1.00  0.00     0.093 A 
ATOM      7  C   UNL     1     -33.876 -35.776  13.488  1.00  0.00     0.136 A 
ATOM      8  C   UNL     1     -32.618 -35.151  13.687  1.00  0.00     0.125 A 
ATOM      9  C   UNL     1     -31.738 -34.835  12.639  1.00  0.00     0.078 A 
ATOM     10  C   UNL     1     -30.511 -34.222  12.915  1.00  0.00     0.223 A 
ENDROOT
BRANCH   1  11
ATOM     11  C   UNL     1     -28.919 -33.248  14.620  1.00  0.00     0.091 A 
ATOM     12  C   UNL     1     -28.811 -31.846  14.660  1.00  0.00     0.068 A 
ATOM     13  C   UNL     1     -27.607 -31.236  15.036  1.00  0.00     0.162 A 
ATOM     14  C   UNL     1     -27.817 -34.028  14.996  1.00  0.00     0.068 A 
ATOM     15  C   UNL     1     -26.500 -32.026  15.387  1.00  0.00     0.200 A 
ATOM     16  C   UNL     1     -26.610 -33.427  15.370  1.00  0.00     0.162 A 
BRANCH  13  17
ATOM     17  O   UNL     1     -27.509 -29.846  15.064  1.00  0.00    -0.504 OA
ATOM     18  H   UNL     1     -26.687 -29.377  15.427  1.00  0.00     0.293 HD
ENDBRANCH  13  17
BRANCH  15  19
ATOM     19  O   UNL     1     -25.292 -31.435  15.760  1.00  0.00    -0.502 OA
ATOM     20  H   UNL     1     -25.094 -30.456  15.589  1.00  0.00     0.293 HD
ENDBRANCH  15  19
BRANCH  16  21
ATOM     21  O   UNL     1     -25.532 -34.239  15.723  1.00  0.00    -0.504 OA
ATOM     22  H   UNL     1     -25.395 -34.571  16.670  1.00  0.00     0.293 HD
ENDBRANCH  16  21
ENDBRANCH   1  11
BRANCH  10  23
ATOM     23  O   UNL     1     -29.616 -33.953  11.880  1.00  0.00    -0.500 OA
ATOM     24  H   UNL     1     -29.657 -34.448  10.997  1.00  0.00     0.294 HD
ENDBRANCH  10  23
BRANCH   5  25
ATOM     25  O   UNL     1     -35.074 -36.038  16.989  1.00  0.00    -0.507 OA
ATOM     26  H   UNL     1     -35.778 -36.765  16.951  1.00  0.00     0.293 HD
ENDBRANCH   5  25
BRANCH   7  27
ATOM     27  O   UNL     1     -34.364 -36.125  12.225  1.00  0.00    -0.507 OA
ATOM     28  H   UNL     1     -35.166 -35.698  11.785  1.00  0.00     0.293 HD
ENDBRANCH   7  27
TORSDOF 7
ENDMDL
MODEL 3
REMARK VINA RESULT:    -2.508     21.799     24.090
REMARK INTER + INTRA:          -3.380
REMARK INTER:                  -2.996
REMARK INTRA:                  -0.384
REMARK UNBOUND:                -0.285
REMARK SMILES Oc1cc(O)c2cc(O)c(-c3cc(O)c(O)c(O)c3)[o+]c2c1
REMARK SMILES IDX 10 1 20 2 21 3 22 4 2 5 3 6 4 7 6 8 7 9 8 10 11 11 12 12
REMARK SMILES IDX 13 13 19 14 15 15 17 16 14 17 16 19 18 21 9 23 1 25 5 27
REMARK H PARENT 14 18 16 20 18 22 9 24 1 26 5 28
REMARK Flexibility Score: inf
ROOT
ATOM      1  C   UNL     1     -17.261 -26.345  30.687  1.00  0.00     0.402 A 
ATOM      2  O   UNL     1     -16.379 -27.299  30.971  1.00  0.00    -0.202 OA
ATOM      3  C   UNL     1     -16.725 -28.553  31.250  1.00  0.00     0.368 A 
ATOM      4  C   UNL     1     -15.725 -29.484  31.540  1.00  0.00     0.162 A 
ATOM      5  C   UNL     1     -16.058 -30.806  31.839  1.00  0.00     0.128 A 
ATOM      6  C   UNL     1     -17.401 -31.200  31.850  1.00  0.00     0.093 A 
ATOM      7  C   UNL     1     -18.422 -30.285  31.564  1.00  0.00     0.136 A 
ATOM      8  C   UNL     1     -18.087 -28.941  31.256  1.00  0.00     0.125 A 
ATOM      9  C   UNL     1     -19.041 -27.959  30.944  1.00  0.00     0.078 A 
ATOM     10  C   UNL     1     -18.633 -26.655  30.646  1.00  0.00     0.223 A 
ENDROOT
BRANCH   1  11
ATOM     11  C   UNL     1     -16.753 -24.983  30.402  1.00  0.00     0.091 A 
ATOM     12  C   UNL     1     -16.687 -24.002  31.406  1.00  0.00     0.068 A 
ATOM     13  C   UNL     1     -16.181 -22.726  31.123  1.00  0.00     0.162 A 
ATOM     14  C   UNL     1     -16.272 -24.681  29.120  1.00  0.00     0.068 A 
ATOM     15  C   UNL     1     -15.724 -22.425  29.829  1.00  0.00     0.200 A 
ATOM     16  C   UNL     1     -15.767 -23.409  28.828  1.00  0.00     0.162 A 
BRANCH  13  17
ATOM     17  O   UNL     1     -16.128 -21.758  32.125  1.00  0.00    -0.504 OA
ATOM     18  H   UNL     1     -15.944 -22.002  33.091  1.00  0.00     0.293 HD
ENDBRANCH  13  17
BRANCH  15  19
ATOM     19  O   UNL     1     -15.221 -21.158  29.528  1.00  0.00    -0.502 OA
ATOM     20  H   UNL     1     -15.302 -20.378  30.171  1.00  0.00     0.293 HD
ENDBRANCH  15  19
BRANCH  16  21
ATOM     21  O   UNL     1     -15.313 -23.144  27.536  1.00  0.00    -0.504 OA
ATOM     22  H   UNL     1     -15.948 -22.980  26.764  1.00  0.00     0.293 HD
ENDBRANCH  16  21
ENDBRANCH   1  11
BRANCH  10  23
ATOM     23  O   UNL     1     -19.577 -25.692  30.287  1.00  0.00    -0.500 OA
ATOM     24  H   UNL     1     -20.555 -25.925  30.165  1.00  0.00     0.294 HD
ENDBRANCH  10  23
BRANCH   5  25
ATOM     25  O   UNL     1     -15.047 -31.721  32.125  1.00  0.00    -0.507 OA
ATOM     26  H   UNL     1     -14.492 -32.144  31.391  1.00  0.00     0.293 HD
ENDBRANCH   5  25
BRANCH   7  27
ATOM     27  O   UNL     1     -19.737 -30.756  31.599  1.00  0.00    -0.507 OA
ATOM     28  H   UNL     1     -20.524 -30.227  31.943  1.00  0.00     0.293 HD
ENDBRANCH   7  27
TORSDOF 7
ENDMDL
MODEL 4
REMARK VINA RESULT:    -2.499     21.357     23.281
REMARK INTER + INTRA:          -3.369
REMARK INTER:                  -2.989
REMARK INTRA:                  -0.380
REMARK UNBOUND:                -0.285
REMARK SMILES Oc1cc(O)c2cc(O)c(-c3cc(O)c(O)c(O)c3)[o+]c2c1
REMARK SMILES IDX 10 1 20 2 21 3 22 4 2 5 3 6 4 7 6 8 7 9 8 10 11 11 12 12
REMARK SMILES IDX 13 13 19 14 15 15 17 16 14 17 16 19 18 21 9 23 1 25 5 27
REMARK H PARENT 14 18 16 20 18 22 9 24 1 26 5 28
REMARK Flexibility Score: inf
ROOT
ATOM      1  C   UNL     1     -17.297 -25.515  30.741  1.00  0.00     0.402 A 
ATOM      2  O   UNL     1     -18.386 -24.750  30.758  1.00  0.00    -0.202 OA
ATOM      3  C   UNL     1     -18.367 -23.460  31.078  1.00  0.00     0.368 A 
ATOM      4  C   UNL     1     -19.564 -22.740  31.071  1.00  0.00     0.162 A 
ATOM      5  C   UNL     1     -19.574 -21.385  31.404  1.00  0.00     0.128 A 
ATOM      6  C   UNL     1     -18.379 -20.744  31.750  1.00  0.00     0.093 A 
ATOM      7  C   UNL     1     -17.166 -21.444  31.766  1.00  0.00     0.136 A 
ATOM      8  C   UNL     1     -17.151 -22.820  31.424  1.00  0.00     0.125 A 
ATOM      9  C   UNL     1     -15.981 -23.598  31.400  1.00  0.00     0.078 A 
ATOM     10  C   UNL     1     -16.045 -24.950  31.047  1.00  0.00     0.223 A 
ENDROOT
BRANCH   1  11
ATOM     11  C   UNL     1     -17.450 -26.942  30.377  1.00  0.00     0.091 A 
ATOM     12  C   UNL     1     -17.360 -27.370  29.041  1.00  0.00     0.068 A 
ATOM     13  C   UNL     1     -17.483 -28.728  28.718  1.00  0.00     0.162 A 
ATOM     14  C   UNL     1     -17.630 -27.897  31.388  1.00  0.00     0.068 A 
ATOM     15  C   UNL     1     -17.687 -29.675  29.736  1.00  0.00     0.200 A 
ATOM     16  C   UNL     1     -17.756 -29.255  31.075  1.00  0.00     0.162 A 
BRANCH  13  17
ATOM     17  O   UNL     1     -17.401 -29.140  27.389  1.00  0.00    -0.504 OA
ATOM     18  H   UNL     1     -17.381 -28.474  26.626  1.00  0.00     0.293 HD
ENDBRANCH  13  17
BRANCH  15  19
ATOM     19  O   UNL     1     -17.817 -31.031  29.433  1.00  0.00    -0.502 OA
ATOM     20  H   UNL     1     -18.149 -31.707  30.111  1.00  0.00     0.293 HD
ENDBRANCH  15  19
BRANCH  16  21
ATOM     21  O   UNL     1     -17.948 -30.170  32.109  1.00  0.00    -0.504 OA
ATOM     22  H   UNL     1     -18.401 -31.064  31.961  1.00  0.00     0.293 HD
ENDBRANCH  16  21
ENDBRANCH   1  11
BRANCH  10  23
ATOM     23  O   UNL     1     -14.877 -25.709  30.974  1.00  0.00    -0.500 OA
ATOM     24  H   UNL     1     -14.607 -26.343  31.717  1.00  0.00     0.294 HD
ENDBRANCH  10  23
BRANCH   5  25
ATOM     25  O   UNL     1     -20.778 -20.684  31.391  1.00  0.00    -0.507 OA
ATOM     26  H   UNL     1     -20.804 -19.679  31.269  1.00  0.00     0.293 HD
ENDBRANCH   5  25
BRANCH   7  27
ATOM     27  O   UNL     1     -16.017 -20.733  32.125  1.00  0.00    -0.507 OA
ATOM     28  H   UNL     1     -15.475 -20.907  32.958  1.00  0.00     0.293 HD
ENDBRANCH   7  27
TORSDOF 7
ENDMDL
MODEL 5
REMARK VINA RESULT:    -2.455     22.364     23.989
REMARK INTER + INTRA:          -3.315
REMARK INTER:                  -2.940
REMARK INTRA:                  -0.374
REMARK UNBOUND:                -0.285
REMARK SMILES Oc1cc(O)c2cc(O)c(-c3cc(O)c(O)c(O)c3)[o+]c2c1
REMARK SMILES IDX 10 1 20 2 21 3 22 4 2 5 3 6 4 7 6 8 7 9 8 10 11 11 12 12
REMARK SMILES IDX 13 13 19 14 15 15 17 16 14 17 16 19 18 21 9 23 1 25 5 27
REMARK H PARENT 14 18 16 20 18 22 9 24 1 26 5 28
REMARK Flexibility Score: inf
ROOT
ATOM      1  C   UNL     1     -21.263 -20.791  30.557  1.00  0.00     0.402 A 
ATOM      2  O   UNL     1     -19.936 -20.766  30.642  1.00  0.00    -0.202 OA
ATOM      3  C   UNL     1     -19.199 -21.848  30.879  1.00  0.00     0.368 A 
ATOM      4  C   UNL     1     -17.811 -21.721  30.953  1.00  0.00     0.162 A 
ATOM      5  C   UNL     1     -17.013 -22.838  31.203  1.00  0.00     0.128 A 
ATOM      6  C   UNL     1     -17.607 -24.093  31.383  1.00  0.00     0.093 A 
ATOM      7  C   UNL     1     -18.998 -24.246  31.314  1.00  0.00     0.136 A 
ATOM      8  C   UNL     1     -19.812 -23.113  31.056  1.00  0.00     0.125 A 
ATOM      9  C   UNL     1     -21.211 -23.174  30.957  1.00  0.00     0.078 A 
ATOM     10  C   UNL     1     -21.947 -22.013  30.695  1.00  0.00     0.223 A 
ENDROOT
BRANCH   1  11
ATOM     11  C   UNL     1     -21.972 -19.517  30.298  1.00  0.00     0.091 A 
ATOM     12  C   UNL     1     -22.309 -18.641  31.345  1.00  0.00     0.068 A 
ATOM     13  C   UNL     1     -22.959 -17.428  31.078  1.00  0.00     0.162 A 
ATOM     14  C   UNL     1     -22.264 -19.146  28.978  1.00  0.00     0.068 A 
ATOM     15  C   UNL     1     -23.269 -17.077  29.753  1.00  0.00     0.200 A 
ATOM     16  C   UNL     1     -22.915 -17.939  28.702  1.00  0.00     0.162 A 
BRANCH  13  17
ATOM     17  O   UNL     1     -23.295 -16.571  32.124  1.00  0.00    -0.504 OA
ATOM     18  H   UNL     1     -22.988 -15.606  32.141  1.00  0.00     0.293 HD
ENDBRANCH  13  17
BRANCH  15  19
ATOM     19  O   UNL     1     -23.920 -15.875  29.469  1.00  0.00    -0.502 OA
ATOM     20  H   UNL     1     -23.474 -15.129  28.947  1.00  0.00     0.293 HD
ENDBRANCH  15  19
BRANCH  16  21
ATOM     21  O   UNL     1     -23.200 -17.614  27.375  1.00  0.00    -0.504 OA
ATOM     22  H   UNL     1     -24.105 -17.261  27.090  1.00  0.00     0.293 HD
ENDBRANCH  16  21
ENDBRANCH   1  11
BRANCH  10  23
ATOM     23  O   UNL     1     -23.332 -22.082  30.548  1.00  0.00    -0.500 OA
ATOM     24  H   UNL     1     -23.960 -21.596  31.176  1.00  0.00     0.294 HD
ENDBRANCH  10  23
BRANCH   5  25
ATOM     25  O   UNL     1     -15.629 -22.692  31.274  1.00  0.00    -0.507 OA
ATOM     26  H   UNL     1     -15.138 -22.014  30.704  1.00  0.00     0.293 HD
ENDBRANCH   5  25
BRANCH   7  27
ATOM     27  O   UNL     1     -19.514 -25.530  31.507  1.00  0.00    -0.507 OA
ATOM     28  H   UNL     1     -19.212 -26.164  32.232  1.00  0.00     0.293 HD
ENDBRANCH   7  27
TORSDOF 7
ENDMDL
MODEL 6
REMARK VINA RESULT:    -2.454      2.454      6.560
REMARK INTER + INTRA:          -3.314
REMARK INTER:                  -2.934
REMARK INTRA:                  -0.380
REMARK UNBOUND:                -0.285
REMARK SMILES Oc1cc(O)c2cc(O)c(-c3cc(O)c(O)c(O)c3)[o+]c2c1
REMARK SMILES IDX 10 1 20 2 21 3 22 4 2 5 3 6 4 7 6 8 7 9 8 10 11 11 12 12
REMARK SMILES IDX 13 13 19 14 15 15 17 16 14 17 16 19 18 21 9 23 1 25 5 27
REMARK H PARENT 14 18 16 20 18 22 9 24 1 26 5 28
REMARK Flexibility Score: inf
ROOT
ATOM      1  C   UNL     1     -30.046 -33.747  13.835  1.00  0.00     0.402 A 
ATOM      2  O   UNL     1     -30.932 -32.781  13.603  1.00  0.00    -0.202 OA
ATOM      3  C   UNL     1     -32.142 -33.007  13.102  1.00  0.00     0.368 A 
ATOM      4  C   UNL     1     -33.002 -31.927  12.890  1.00  0.00     0.162 A 
ATOM      5  C   UNL     1     -34.277 -32.134  12.363  1.00  0.00     0.128 A 
ATOM      6  C   UNL     1     -34.696 -33.429  12.041  1.00  0.00     0.093 A 
ATOM      7  C   UNL     1     -33.852 -34.529  12.242  1.00  0.00     0.136 A 
ATOM      8  C   UNL     1     -32.557 -34.324  12.782  1.00  0.00     0.125 A 
ATOM      9  C   UNL     1     -31.649 -35.366  13.030  1.00  0.00     0.078 A 
ATOM     10  C   UNL     1     -30.389 -35.085  13.570  1.00  0.00     0.223 A 
ENDROOT
BRANCH   1  11
ATOM     11  C   UNL     1     -28.725 -33.367  14.388  1.00  0.00     0.091 A 
ATOM     12  C   UNL     1     -28.497 -33.327  15.775  1.00  0.00     0.068 A 
ATOM     13  C   UNL     1     -27.234 -32.988  16.279  1.00  0.00     0.162 A 
ATOM     14  C   UNL     1     -27.663 -33.098  13.514  1.00  0.00     0.068 A 
ATOM     15  C   UNL     1     -26.181 -32.696  15.395  1.00  0.00     0.200 A 
ATOM     16  C   UNL     1     -26.399 -32.756  14.008  1.00  0.00     0.162 A 
BRANCH  13  17
ATOM     17  O   UNL     1     -27.021 -32.944  17.656  1.00  0.00    -0.504 OA
ATOM     18  H   UNL     1     -27.760 -33.155  18.315  1.00  0.00     0.293 HD
ENDBRANCH  13  17
BRANCH  15  19
ATOM     19  O   UNL     1     -24.919 -32.353  15.879  1.00  0.00    -0.502 OA
ATOM     20  H   UNL     1     -24.777 -31.579  16.518  1.00  0.00     0.293 HD
ENDBRANCH  15  19
BRANCH  16  21
ATOM     21  O   UNL     1     -25.373 -32.481  13.104  1.00  0.00    -0.504 OA
ATOM     22  H   UNL     1     -24.915 -31.579  13.066  1.00  0.00     0.293 HD
ENDBRANCH  16  21
ENDBRANCH   1  11
BRANCH  10  23
ATOM     23  O   UNL     1     -29.506 -36.125  13.862  1.00  0.00    -0.500 OA
ATOM     24  H   UNL     1     -29.566 -36.646  14.728  1.00  0.00     0.294 HD
ENDBRANCH  10  23
BRANCH   5  25
ATOM     25  O   UNL     1     -35.121 -31.044  12.159  1.00  0.00    -0.507 OA
ATOM     26  H   UNL     1     -35.784 -31.022  11.394  1.00  0.00     0.293 HD
ENDBRANCH   5  25
BRANCH   7  27
ATOM     27  O   UNL     1     -34.344 -35.790  11.893  1.00  0.00    -0.507 OA
ATOM     28  H   UNL     1     -34.930 -36.358  12.486  1.00  0.00     0.293 HD
ENDBRANCH   7  27
TORSDOF 7
ENDMDL
MODEL 7
REMARK VINA RESULT:    -2.444     18.704     19.560
REMARK INTER + INTRA:          -3.301
REMARK INTER:                  -2.919
REMARK INTRA:                  -0.382
REMARK UNBOUND:                -0.285
REMARK SMILES Oc1cc(O)c2cc(O)c(-c3cc(O)c(O)c(O)c3)[o+]c2c1
REMARK SMILES IDX 10 1 20 2 21 3 22 4 2 5 3 6 4 7 6 8 7 9 8 10 11 11 12 12
REMARK SMILES IDX 13 13 19 14 15 15 17 16 14 17 16 19 18 21 9 23 1 25 5 27
REMARK H PARENT 14 18 16 20 18 22 9 24 1 26 5 28
REMARK Flexibility Score: inf
ROOT
ATOM      1  C   UNL     1     -20.744 -33.787  30.114  1.00  0.00     0.402 A 
ATOM      2  O   UNL     1     -20.699 -32.483  30.375  1.00  0.00    -0.202 OA
ATOM      3  C   UNL     1     -19.564 -31.817  30.570  1.00  0.00     0.368 A 
ATOM      4  C   UNL     1     -19.618 -30.449  30.842  1.00  0.00     0.162 A 
ATOM      5  C   UNL     1     -18.444 -29.725  31.053  1.00  0.00     0.128 A 
ATOM      6  C   UNL     1     -17.206 -30.373  30.994  1.00  0.00     0.093 A 
ATOM      7  C   UNL     1     -17.125 -31.745  30.724  1.00  0.00     0.136 A 
ATOM      8  C   UNL     1     -18.316 -32.484  30.505  1.00  0.00     0.125 A 
ATOM      9  C   UNL     1     -18.331 -33.858  30.215  1.00  0.00     0.078 A 
ATOM     10  C   UNL     1     -19.546 -34.518  30.007  1.00  0.00     0.223 A 
ENDROOT
BRANCH   1  11
ATOM     11  C   UNL     1     -22.071 -34.417  29.926  1.00  0.00     0.091 A 
ATOM     12  C   UNL     1     -22.799 -34.930  31.014  1.00  0.00     0.068 A 
ATOM     13  C   UNL     1     -24.064 -35.502  30.819  1.00  0.00     0.162 A 
ATOM     14  C   UNL     1     -22.642 -34.454  28.646  1.00  0.00     0.068 A 
ATOM     15  C   UNL     1     -24.617 -35.555  29.529  1.00  0.00     0.200 A 
ATOM     16  C   UNL     1     -23.903 -35.025  28.441  1.00  0.00     0.162 A 
BRANCH  13  17
ATOM     17  O   UNL     1     -24.773 -36.013  31.904  1.00  0.00    -0.504 OA
ATOM     18  H   UNL     1     -24.434 -35.918  32.854  1.00  0.00     0.293 HD
ENDBRANCH  13  17
BRANCH  15  19
ATOM     19  O   UNL     1     -25.873 -36.125  29.315  1.00  0.00    -0.502 OA
ATOM     20  H   UNL     1     -26.516 -36.316  30.076  1.00  0.00     0.293 HD
ENDBRANCH  15  19
BRANCH  16  21
ATOM     21  O   UNL     1     -24.429 -35.055  27.150  1.00  0.00    -0.504 OA
ATOM     22  H   UNL     1     -24.168 -35.767  26.478  1.00  0.00     0.293 HD
ENDBRANCH  16  21
ENDBRANCH   1  11
BRANCH  10  23
ATOM     23  O   UNL     1     -19.559 -35.872  29.670  1.00  0.00    -0.500 OA
ATOM     24  H   UNL     1     -19.782 -36.185  28.734  1.00  0.00     0.294 HD
ENDBRANCH  10  23
BRANCH   5  25
ATOM     25  O   UNL     1     -18.518 -28.360  31.322  1.00  0.00    -0.507 OA
ATOM     26  H   UNL     1     -19.378 -27.840  31.196  1.00  0.00     0.293 HD
ENDBRANCH   5  25
BRANCH   7  27
ATOM     27  O   UNL     1     -15.851 -32.320  30.684  1.00  0.00    -0.507 OA
ATOM     28  H   UNL     1     -15.124 -32.144  31.361  1.00  0.00     0.293 HD
ENDBRANCH   7  27
TORSDOF 7
ENDMDL
MODEL 8
REMARK VINA RESULT:    -2.430     20.451     22.278
REMARK INTER + INTRA:          -3.283
REMARK INTER:                  -2.898
REMARK INTRA:                  -0.385
REMARK UNBOUND:                -0.285
REMARK SMILES Oc1cc(O)c2cc(O)c(-c3cc(O)c(O)c(O)c3)[o+]c2c1
REMARK SMILES IDX 10 1 20 2 21 3 22 4 2 5 3 6 4 7 6 8 7 9 8 10 11 11 12 12
REMARK SMILES IDX 13 13 19 14 15 15 17 16 14 17 16 19 18 21 9 23 1 25 5 27
REMARK H PARENT 14 18 16 20 18 22 9 24 1 26 5 28
REMARK Flexibility Score: inf
ROOT
ATOM      1  C   UNL     1     -20.600 -23.307  30.275  1.00  0.00     0.402 A 
ATOM      2  O   UNL     1     -19.415 -23.838  30.564  1.00  0.00    -0.202 OA
ATOM      3  C   UNL     1     -18.402 -23.135  31.063  1.00  0.00     0.368 A 
ATOM      4  C   UNL     1     -17.194 -23.781  31.331  1.00  0.00     0.162 A 
ATOM      5  C   UNL     1     -16.114 -23.069  31.852  1.00  0.00     0.128 A 
ATOM      6  C   UNL     1     -16.240 -21.699  32.106  1.00  0.00     0.093 A 
ATOM      7  C   UNL     1     -17.441 -21.027  31.846  1.00  0.00     0.136 A 
ATOM      8  C   UNL     1     -18.543 -21.749  31.319  1.00  0.00     0.125 A 
ATOM      9  C   UNL     1     -19.788 -21.163  31.040  1.00  0.00     0.078 A 
ATOM     10  C   UNL     1     -20.830 -21.941  30.525  1.00  0.00     0.223 A 
ENDROOT
BRANCH   1  11
ATOM     11  C   UNL     1     -21.647 -24.192  29.715  1.00  0.00     0.091 A 
ATOM     12  C   UNL     1     -21.802 -24.354  28.327  1.00  0.00     0.068 A 
ATOM     13  C   UNL     1     -22.782 -25.215  27.815  1.00  0.00     0.162 A 
ATOM     14  C   UNL     1     -22.464 -24.930  30.583  1.00  0.00     0.068 A 
ATOM     15  C   UNL     1     -23.612 -25.932  28.693  1.00  0.00     0.200 A 
ATOM     16  C   UNL     1     -23.447 -25.790  30.081  1.00  0.00     0.162 A 
BRANCH  13  17
ATOM     17  O   UNL     1     -22.932 -25.362  26.437  1.00  0.00    -0.504 OA
ATOM     18  H   UNL     1     -22.689 -24.618  25.793  1.00  0.00     0.293 HD
ENDBRANCH  13  17
BRANCH  15  19
ATOM     19  O   UNL     1     -24.597 -26.790  28.202  1.00  0.00    -0.502 OA
ATOM     20  H   UNL     1     -24.511 -27.798  28.255  1.00  0.00     0.293 HD
ENDBRANCH  15  19
BRANCH  16  21
ATOM     21  O   UNL     1     -24.249 -26.495  30.979  1.00  0.00    -0.504 OA
ATOM     22  H   UNL     1     -23.896 -26.831  31.867  1.00  0.00     0.293 HD
ENDBRANCH  16  21
ENDBRANCH   1  11
BRANCH  10  23
ATOM     23  O   UNL     1     -22.082 -21.370  30.294  1.00  0.00    -0.500 OA
ATOM     24  H   UNL     1     -22.750 -21.789  29.659  1.00  0.00     0.294 HD
ENDBRANCH  10  23
BRANCH   5  25
ATOM     25  O   UNL     1     -14.916 -23.731  32.113  1.00  0.00    -0.507 OA
ATOM     26  H   UNL     1     -14.535 -24.413  31.468  1.00  0.00     0.293 HD
ENDBRANCH   5  25
BRANCH   7  27
ATOM     27  O   UNL     1     -17.487 -19.658  32.125  1.00  0.00    -0.507 OA
ATOM     28  H   UNL     1     -16.971 -18.955  31.617  1.00  0.00     0.293 HD
ENDBRANCH   7  27
TORSDOF 7
ENDMDL
MODEL 9
REMARK VINA RESULT:    -2.406     20.449     22.271
REMARK INTER + INTRA:          -3.254
REMARK INTER:                  -2.875
REMARK INTRA:                  -0.379
REMARK UNBOUND:                -0.285
REMARK SMILES Oc1cc(O)c2cc(O)c(-c3cc(O)c(O)c(O)c3)[o+]c2c1
REMARK SMILES IDX 10 1 20 2 21 3 22 4 2 5 3 6 4 7 6 8 7 9 8 10 11 11 12 12
REMARK SMILES IDX 13 13 19 14 15 15 17 16 14 17 16 19 18 21 9 23 1 25 5 27
REMARK H PARENT 14 18 16 20 18 22 9 24 1 26 5 28
REMARK Flexibility Score: inf
ROOT
ATOM      1  C   UNL     1     -20.605 -23.630  30.373  1.00  0.00     0.402 A 
ATOM      2  O   UNL     1     -19.367 -24.031  30.649  1.00  0.00    -0.202 OA
ATOM      3  C   UNL     1     -18.426 -23.220  31.122  1.00  0.00     0.368 A 
ATOM      4  C   UNL     1     -17.152 -23.733  31.378  1.00  0.00     0.162 A 
ATOM      5  C   UNL     1     -16.144 -22.905  31.873  1.00  0.00     0.128 A 
ATOM      6  C   UNL     1     -16.409 -21.551  32.112  1.00  0.00     0.093 A 
ATOM      7  C   UNL     1     -17.678 -21.012  31.863  1.00  0.00     0.136 A 
ATOM      8  C   UNL     1     -18.707 -21.852  31.363  1.00  0.00     0.125 A 
ATOM      9  C   UNL     1     -20.010 -21.403  31.097  1.00  0.00     0.078 A 
ATOM     10  C   UNL     1     -20.973 -22.293  30.610  1.00  0.00     0.223 A 
ENDROOT
BRANCH   1  11
ATOM     11  C   UNL     1     -21.562 -24.628  29.841  1.00  0.00     0.091 A 
ATOM     12  C   UNL     1     -22.348 -25.418  30.698  1.00  0.00     0.068 A 
ATOM     13  C   UNL     1     -23.265 -26.340  30.176  1.00  0.00     0.162 A 
ATOM     14  C   UNL     1     -21.731 -24.750  28.455  1.00  0.00     0.068 A 
ATOM     15  C   UNL     1     -23.410 -26.472  28.784  1.00  0.00     0.200 A 
ATOM     16  C   UNL     1     -22.642 -25.669  27.924  1.00  0.00     0.162 A 
BRANCH  13  17
ATOM     17  O   UNL     1     -24.034 -27.123  31.035  1.00  0.00    -0.504 OA
ATOM     18  H   UNL     1     -25.029 -27.250  30.892  1.00  0.00     0.293 HD
ENDBRANCH  13  17
BRANCH  15  19
ATOM     19  O   UNL     1     -24.315 -27.388  28.246  1.00  0.00    -0.502 OA
ATOM     20  H   UNL     1     -25.285 -27.424  28.538  1.00  0.00     0.293 HD
ENDBRANCH  15  19
BRANCH  16  21
ATOM     21  O   UNL     1     -22.770 -25.769  26.538  1.00  0.00    -0.504 OA
ATOM     22  H   UNL     1     -23.244 -25.063  25.989  1.00  0.00     0.293 HD
ENDBRANCH  16  21
ENDBRANCH   1  11
BRANCH  10  23
ATOM     23  O   UNL     1     -22.280 -21.858  30.392  1.00  0.00    -0.500 OA
ATOM     24  H   UNL     1     -22.535 -21.328  29.568  1.00  0.00     0.294 HD
ENDBRANCH  10  23
BRANCH   5  25
ATOM     25  O   UNL     1     -14.880 -23.435  32.122  1.00  0.00    -0.507 OA
ATOM     26  H   UNL     1     -14.762 -24.337  32.567  1.00  0.00     0.293 HD
ENDBRANCH   5  25
BRANCH   7  27
ATOM     27  O   UNL     1     -17.862 -19.652  32.125  1.00  0.00    -0.507 OA
ATOM     28  H   UNL     1     -17.295 -18.913  31.736  1.00  0.00     0.293 HD
ENDBRANCH   7  27
TORSDOF 7
ENDMDL
