MODEL 1
REMARK VINA RESULT:    -4.127      0.000      0.000
REMARK INTER + INTRA:          -4.390
REMARK INTER:                  -4.368
REMARK INTRA:                  -0.022
REMARK UNBOUND:                -0.022
REMARK SMILES O=C([O-])c1cccnc1
REMARK SMILES IDX 4 1 5 2 9 3 6 4 8 5 7 6 2 7 1 8 3 9
REMARK H PARENT
REMARK Flexibility Score: inf
ROOT
ATOM      1  C   UNL     1      12.972 -30.664  22.832  1.00  0.00     0.016 A 
ATOM      2  C   UNL     1      13.751 -31.450  23.697  1.00  0.00     0.013 A 
ATOM      3  C   UNL     1      12.913 -31.023  21.473  1.00  0.00     0.120 A 
ATOM      4  C   UNL     1      14.444 -32.557  23.205  1.00  0.00     0.021 A 
ATOM      5  N   UNL     1      13.597 -32.108  21.020  1.00  0.00    -0.264 NA
ATOM      6  C   UNL     1      14.353 -32.874  21.849  1.00  0.00     0.111 A 
ENDROOT
BRANCH   1   7
ATOM      7  C   UNL     1      12.233 -29.488  23.341  1.00  0.00     0.073 C 
ATOM      8  O   UNL     1      12.630 -28.880  24.371  1.00  0.00    -0.545 OA
ATOM      9  O   UNL     1      11.091 -29.038  22.689  1.00  0.00    -0.545 OA
ENDBRANCH   1   7
TORSDOF 1
ENDMDL
MODEL 2
REMARK VINA RESULT:    -4.089      0.872      1.604
REMARK INTER + INTRA:          -4.351
REMARK INTER:                  -4.329
REMARK INTRA:                  -0.022
REMARK UNBOUND:                -0.022
REMARK SMILES O=C([O-])c1cccnc1
REMARK SMILES IDX 4 1 5 2 9 3 6 4 8 5 7 6 2 7 1 8 3 9
REMARK H PARENT
REMARK Flexibility Score: inf
ROOT
ATOM      1  C   UNL     1      12.976 -30.644  22.739  1.00  0.00     0.016 A 
ATOM      2  C   UNL     1      12.829 -30.990  21.386  1.00  0.00     0.013 A 
ATOM      3  C   UNL     1      13.823 -31.428  23.541  1.00  0.00     0.120 A 
ATOM      4  C   UNL     1      13.514 -32.089  20.865  1.00  0.00     0.021 A 
ATOM      5  N   UNL     1      14.479 -32.494  23.009  1.00  0.00    -0.264 NA
ATOM      6  C   UNL     1      14.344 -32.837  21.701  1.00  0.00     0.111 A 
ENDROOT
BRANCH   1   7
ATOM      7  C   UNL     1      12.255 -29.482  23.302  1.00  0.00     0.073 C 
ATOM      8  O   UNL     1      12.702 -28.879  24.314  1.00  0.00    -0.545 OA
ATOM      9  O   UNL     1      11.072 -29.038  22.720  1.00  0.00    -0.545 OA
ENDBRANCH   1   7
TORSDOF 1
ENDMDL
MODEL 3
REMARK VINA RESULT:    -4.061      3.675      4.430
REMARK INTER + INTRA:          -4.321
REMARK INTER:                  -4.299
REMARK INTRA:                  -0.022
REMARK UNBOUND:                -0.022
REMARK SMILES O=C([O-])c1cccnc1
REMARK SMILES IDX 4 1 5 2 9 3 6 4 8 5 7 6 2 7 1 8 3 9
REMARK H PARENT
REMARK Flexibility Score: inf
ROOT
ATOM      1  C   UNL     1      14.606 -33.317  21.946  1.00  0.00     0.016 A 
ATOM      2  C   UNL     1      14.505 -33.084  23.328  1.00  0.00     0.013 A 
ATOM      3  C   UNL     1      13.937 -32.442  21.071  1.00  0.00     0.120 A 
ATOM      4  C   UNL     1      13.757 -32.006  23.804  1.00  0.00     0.021 A 
ATOM      5  N   UNL     1      13.215 -31.400  21.561  1.00  0.00    -0.264 NA
ATOM      6  C   UNL     1      13.112 -31.166  22.896  1.00  0.00     0.111 A 
ENDROOT
BRANCH   1   7
ATOM      7  C   UNL     1      15.395 -34.455  21.429  1.00  0.00     0.073 C 
ATOM      8  O   UNL     1      16.378 -34.900  22.079  1.00  0.00    -0.545 OA
ATOM      9  O   UNL     1      15.062 -35.051  20.218  1.00  0.00    -0.545 OA
ENDBRANCH   1   7
TORSDOF 1
ENDMDL
MODEL 4
REMARK VINA RESULT:    -4.058      2.732      3.759
REMARK INTER + INTRA:          -4.317
REMARK INTER:                  -4.296
REMARK INTRA:                  -0.021
REMARK UNBOUND:                -0.022
REMARK SMILES O=C([O-])c1cccnc1
REMARK SMILES IDX 4 1 5 2 9 3 6 4 8 5 7 6 2 7 1 8 3 9
REMARK H PARENT
REMARK Flexibility Score: inf
ROOT
ATOM      1  C   UNL     1      12.921 -30.895  22.338  1.00  0.00     0.016 A 
ATOM      2  C   UNL     1      13.478 -30.145  23.387  1.00  0.00     0.013 A 
ATOM      3  C   UNL     1      11.651 -30.530  21.856  1.00  0.00     0.120 A 
ATOM      4  C   UNL     1      12.775 -29.066  23.927  1.00  0.00     0.021 A 
ATOM      5  N   UNL     1      10.989 -29.474  22.399  1.00  0.00    -0.264 NA
ATOM      6  C   UNL     1      11.519 -28.742  23.413  1.00  0.00     0.111 A 
ENDROOT
BRANCH   1   7
ATOM      7  C   UNL     1      13.655 -32.041  21.758  1.00  0.00     0.073 C 
ATOM      8  O   UNL     1      13.508 -32.349  20.546  1.00  0.00    -0.545 OA
ATOM      9  O   UNL     1      14.519 -32.793  22.546  1.00  0.00    -0.545 OA
ENDBRANCH   1   7
TORSDOF 1
ENDMDL
MODEL 5
REMARK VINA RESULT:    -4.055      3.067      3.752
REMARK INTER + INTRA:          -4.315
REMARK INTER:                  -4.297
REMARK INTRA:                  -0.018
REMARK UNBOUND:                -0.022
REMARK SMILES O=C([O-])c1cccnc1
REMARK SMILES IDX 4 1 5 2 9 3 6 4 8 5 7 6 2 7 1 8 3 9
REMARK H PARENT
REMARK Flexibility Score: inf
ROOT
ATOM      1  C   UNL     1      14.172 -31.510  22.238  1.00  0.00     0.016 A 
ATOM      2  C   UNL     1      13.333 -31.237  23.332  1.00  0.00     0.013 A 
ATOM      3  C   UNL     1      14.785 -30.429  21.581  1.00  0.00     0.120 A 
ATOM      4  C   UNL     1      13.124 -29.920  23.744  1.00  0.00     0.021 A 
ATOM      5  N   UNL     1      14.565 -29.154  22.003  1.00  0.00    -0.264 NA
ATOM      6  C   UNL     1      13.757 -28.881  23.060  1.00  0.00     0.111 A 
ENDROOT
BRANCH   1   7
ATOM      7  C   UNL     1      14.400 -32.901  21.792  1.00  0.00     0.073 C 
ATOM      8  O   UNL     1      14.878 -33.757  22.583  1.00  0.00    -0.545 OA
ATOM      9  O   UNL     1      14.089 -33.283  20.492  1.00  0.00    -0.545 OA
ENDBRANCH   1   7
TORSDOF 1
ENDMDL
MODEL 6
REMARK VINA RESULT:    -4.017      4.019      5.141
REMARK INTER + INTRA:          -4.274
REMARK INTER:                  -4.251
REMARK INTRA:                  -0.023
REMARK UNBOUND:                -0.022
REMARK SMILES O=C([O-])c1cccnc1
REMARK SMILES IDX 4 1 5 2 9 3 6 4 8 5 7 6 2 7 1 8 3 9
REMARK H PARENT
REMARK Flexibility Score: inf
ROOT
ATOM      1  C   UNL     1      15.543 -34.473  21.204  1.00  0.00     0.016 A 
ATOM      2  C   UNL     1      15.475 -35.163  19.982  1.00  0.00     0.013 A 
ATOM      3  C   UNL     1      16.536 -34.845  22.127  1.00  0.00     0.120 A 
ATOM      4  C   UNL     1      16.379 -36.189  19.705  1.00  0.00     0.021 A 
ATOM      5  N   UNL     1      17.405 -35.849  21.832  1.00  0.00    -0.264 NA
ATOM      6  C   UNL     1      17.348 -36.521  20.653  1.00  0.00     0.111 A 
ENDROOT
BRANCH   1   7
ATOM      7  C   UNL     1      14.590 -33.384  21.509  1.00  0.00     0.073 C 
ATOM      8  O   UNL     1      14.491 -32.928  22.679  1.00  0.00    -0.545 OA
ATOM      9  O   UNL     1      13.790 -32.848  20.505  1.00  0.00    -0.545 OA
ENDBRANCH   1   7
TORSDOF 1
ENDMDL
MODEL 7
REMARK VINA RESULT:    -4.006      3.552      4.625
REMARK INTER + INTRA:          -4.263
REMARK INTER:                  -4.240
REMARK INTRA:                  -0.023
REMARK UNBOUND:                -0.022
REMARK SMILES O=C([O-])c1cccnc1
REMARK SMILES IDX 4 1 5 2 9 3 6 4 8 5 7 6 2 7 1 8 3 9
REMARK H PARENT
REMARK Flexibility Score: inf
ROOT
ATOM      1  C   UNL     1      14.278 -32.936  21.709  1.00  0.00     0.016 A 
ATOM      2  C   UNL     1      13.509 -32.136  20.847  1.00  0.00     0.013 A 
ATOM      3  C   UNL     1      14.261 -32.643  23.084  1.00  0.00     0.120 A 
ATOM      4  C   UNL     1      12.752 -31.081  21.359  1.00  0.00     0.021 A 
ATOM      5  N   UNL     1      13.515 -31.609  23.557  1.00  0.00    -0.264 NA
ATOM      6  C   UNL     1      12.768 -30.830  22.732  1.00  0.00     0.111 A 
ENDROOT
BRANCH   1   7
ATOM      7  C   UNL     1      15.084 -34.056  21.178  1.00  0.00     0.073 C 
ATOM      8  O   UNL     1      14.841 -34.537  20.040  1.00  0.00    -0.545 OA
ATOM      9  O   UNL     1      16.122 -34.595  21.931  1.00  0.00    -0.545 OA
ENDBRANCH   1   7
TORSDOF 1
ENDMDL
MODEL 8
REMARK VINA RESULT:    -3.933     10.666     10.929
REMARK INTER + INTRA:          -4.185
REMARK INTER:                  -4.169
REMARK INTRA:                  -0.017
REMARK UNBOUND:                -0.022
REMARK SMILES O=C([O-])c1cccnc1
REMARK SMILES IDX 4 1 5 2 9 3 6 4 8 5 7 6 2 7 1 8 3 9
REMARK H PARENT
REMARK Flexibility Score: inf
ROOT
ATOM      1  C   UNL     1      22.393 -25.775  20.524  1.00  0.00     0.016 A 
ATOM      2  C   UNL     1      21.034 -25.787  20.165  1.00  0.00     0.013 A 
ATOM      3  C   UNL     1      22.911 -26.883  21.217  1.00  0.00     0.120 A 
ATOM      4  C   UNL     1      20.232 -26.880  20.496  1.00  0.00     0.021 A 
ATOM      5  N   UNL     1      22.107 -27.936  21.526  1.00  0.00    -0.264 NA
ATOM      6  C   UNL     1      20.793 -27.957  21.183  1.00  0.00     0.111 A 
ENDROOT
BRANCH   1   7
ATOM      7  C   UNL     1      23.253 -24.622  20.179  1.00  0.00     0.073 C 
ATOM      8  O   UNL     1      23.660 -24.457  18.999  1.00  0.00    -0.545 OA
ATOM      9  O   UNL     1      23.623 -23.704  21.156  1.00  0.00    -0.545 OA
ENDBRANCH   1   7
TORSDOF 1
ENDMDL
MODEL 9
REMARK VINA RESULT:    -3.928     10.979     11.295
REMARK INTER + INTRA:          -4.180
REMARK INTER:                  -4.163
REMARK INTRA:                  -0.017
REMARK UNBOUND:                -0.022
REMARK SMILES O=C([O-])c1cccnc1
REMARK SMILES IDX 4 1 5 2 9 3 6 4 8 5 7 6 2 7 1 8 3 9
REMARK H PARENT
REMARK Flexibility Score: inf
ROOT
ATOM      1  C   UNL     1      22.130 -25.296  20.502  1.00  0.00     0.016 A 
ATOM      2  C   UNL     1      20.826 -25.811  20.407  1.00  0.00     0.013 A 
ATOM      3  C   UNL     1      22.439 -24.456  21.586  1.00  0.00     0.120 A 
ATOM      4  C   UNL     1      19.873 -25.487  21.374  1.00  0.00     0.021 A 
ATOM      5  N   UNL     1      21.492 -24.157  22.515  1.00  0.00    -0.264 NA
ATOM      6  C   UNL     1      20.229 -24.650  22.432  1.00  0.00     0.111 A 
ENDROOT
BRANCH   1   7
ATOM      7  C   UNL     1      23.149 -25.632  19.484  1.00  0.00     0.073 C 
ATOM      8  O   UNL     1      23.648 -24.732  18.757  1.00  0.00    -0.545 OA
ATOM      9  O   UNL     1      23.569 -26.946  19.316  1.00  0.00    -0.545 OA
ENDBRANCH   1   7
TORSDOF 1
ENDMDL
