MODEL 1
REMARK VINA RESULT:    -5.720      0.000      0.000
REMARK INTER + INTRA:          -7.380
REMARK INTER:                  -7.058
REMARK INTRA:                  -0.323
REMARK UNBOUND:                -0.323
REMARK SMILES COc1cc(-c2oc3cc(O)cc(O)c3c(=O)c2O)ccc1O
REMARK SMILES IDX 6 1 18 2 16 3 17 4 15 5 13 6 12 7 10 8 9 9 8 10 7 11 5 12
REMARK SMILES IDX 3 13 22 14 4 15 21 16 20 17 2 18 1 19 23 20 19 22 14 24
REMARK SMILES IDX 11 26
REMARK H PARENT 23 21 19 23 14 25 11 27
REMARK Flexibility Score: inf
ROOT
ATOM      1  C   UNL     1      50.510  13.674  26.599  1.00  0.00     0.180 A 
ATOM      2  C   UNL     1      49.264  13.830  27.230  1.00  0.00     0.208 A 
ATOM      3  C   UNL     1      48.229  14.484  26.541  1.00  0.00     0.238 A 
ATOM      4  O   UNL     1      47.100  14.573  27.090  1.00  0.00    -0.285 OA
ATOM      5  C   UNL     1      48.460  14.986  25.237  1.00  0.00     0.111 A 
ATOM      6  C   UNL     1      47.496  15.701  24.463  1.00  0.00     0.134 A 
ATOM      7  C   UNL     1      47.789  16.036  23.135  1.00  0.00     0.093 A 
ATOM      8  C   UNL     1      49.035  15.741  22.576  1.00  0.00     0.123 A 
ATOM      9  C   UNL     1      50.003  15.098  23.343  1.00  0.00     0.094 A 
ATOM     10  C   UNL     1      49.727  14.719  24.659  1.00  0.00     0.146 A 
ATOM     11  O   UNL     1      50.674  14.097  25.352  1.00  0.00    -0.452 OA
ENDROOT
BRANCH   1  12
ATOM     12  C   UNL     1      51.655  13.018  27.272  1.00  0.00     0.025 A 
ATOM     13  C   UNL     1      53.853  13.119  28.341  1.00  0.00     0.161 A 
ATOM     14  C   UNL     1      53.835  11.725  28.493  1.00  0.00     0.157 A 
ATOM     15  C   UNL     1      52.762  13.761  27.722  1.00  0.00     0.062 A 
ATOM     16  C   UNL     1      52.744  10.982  28.025  1.00  0.00     0.051 A 
ATOM     17  C   UNL     1      51.666  11.623  27.412  1.00  0.00     0.016 A 
BRANCH  13  18
ATOM     18  O   UNL     1      54.969  13.828  28.813  1.00  0.00    -0.493 OA
ATOM     19  C   UNL     1      55.818  14.630  27.999  1.00  0.00     0.278 C 
ENDBRANCH  13  18
BRANCH  14  20
ATOM     20  O   UNL     1      54.909  11.084  29.108  1.00  0.00    -0.504 OA
ATOM     21  H   UNL     1      54.773  10.442  29.879  1.00  0.00     0.293 HD
ENDBRANCH  14  20
ENDBRANCH   1  12
BRANCH   2  22
ATOM     22  O   UNL     1      49.052  13.308  28.509  1.00  0.00    -0.502 OA
ATOM     23  H   UNL     1      48.473  12.494  28.676  1.00  0.00     0.293 HD
ENDBRANCH   2  22
BRANCH   6  24
ATOM     24  O   UNL     1      46.258  16.123  24.954  1.00  0.00    -0.507 OA
ATOM     25  H   UNL     1      45.602  15.533  25.444  1.00  0.00     0.293 HD
ENDBRANCH   6  24
BRANCH   8  26
ATOM     26  O   UNL     1      49.324  16.093  21.259  1.00  0.00    -0.508 OA
ATOM     27  H   UNL     1      49.208  17.043  20.926  1.00  0.00     0.293 HD
ENDBRANCH   8  26
TORSDOF 6
ENDMDL
MODEL 2
REMARK VINA RESULT:    -5.440      1.988      3.109
REMARK INTER + INTRA:          -7.035
REMARK INTER:                  -7.434
REMARK INTRA:                   0.399
REMARK UNBOUND:                -0.323
REMARK SMILES COc1cc(-c2oc3cc(O)cc(O)c3c(=O)c2O)ccc1O
REMARK SMILES IDX 6 1 18 2 16 3 17 4 15 5 13 6 12 7 10 8 9 9 8 10 7 11 5 12
REMARK SMILES IDX 3 13 22 14 4 15 21 16 20 17 2 18 1 19 23 20 19 22 14 24
REMARK SMILES IDX 11 26
REMARK H PARENT 23 21 19 23 14 25 11 27
REMARK Flexibility Score: inf
ROOT
ATOM      1  C   UNL     1      52.564  14.782  25.634  1.00  0.00     0.180 A 
ATOM      2  C   UNL     1      51.668  14.069  26.450  1.00  0.00     0.208 A 
ATOM      3  C   UNL     1      50.344  13.894  26.016  1.00  0.00     0.238 A 
ATOM      4  O   UNL     1      49.561  13.210  26.725  1.00  0.00    -0.285 OA
ATOM      5  C   UNL     1      49.930  14.447  24.780  1.00  0.00     0.111 A 
ATOM      6  C   UNL     1      48.602  14.365  24.261  1.00  0.00     0.134 A 
ATOM      7  C   UNL     1      48.336  14.834  22.969  1.00  0.00     0.093 A 
ATOM      8  C   UNL     1      49.335  15.441  22.203  1.00  0.00     0.123 A 
ATOM      9  C   UNL     1      50.619  15.579  22.724  1.00  0.00     0.094 A 
ATOM     10  C   UNL     1      50.923  15.088  23.997  1.00  0.00     0.146 A 
ATOM     11  O   UNL     1      52.163  15.231  24.452  1.00  0.00    -0.452 OA
ENDROOT
BRANCH   1  12
ATOM     12  C   UNL     1      53.968  15.029  26.036  1.00  0.00     0.025 A 
ATOM     13  C   UNL     1      55.769  14.937  27.688  1.00  0.00     0.161 A 
ATOM     14  C   UNL     1      56.628  15.568  26.777  1.00  0.00     0.157 A 
ATOM     15  C   UNL     1      54.436  14.676  27.315  1.00  0.00     0.062 A 
ATOM     16  C   UNL     1      56.157  15.940  25.512  1.00  0.00     0.051 A 
ATOM     17  C   UNL     1      54.836  15.679  25.147  1.00  0.00     0.016 A 
BRANCH  13  18
ATOM     18  O   UNL     1      56.275  14.589  28.951  1.00  0.00    -0.493 OA
ATOM     19  C   UNL     1      55.471  14.242  30.074  1.00  0.00     0.278 C 
ENDBRANCH  13  18
BRANCH  14  20
ATOM     20  O   UNL     1      57.949  15.826  27.139  1.00  0.00    -0.504 OA
ATOM     21  H   UNL     1      58.409  15.301  27.873  1.00  0.00     0.293 HD
ENDBRANCH  14  20
ENDBRANCH   1  12
BRANCH   2  22
ATOM     22  O   UNL     1      52.104  13.514  27.656  1.00  0.00    -0.502 OA
ATOM     23  H   UNL     1      52.430  12.558  27.730  1.00  0.00     0.293 HD
ENDBRANCH   2  22
BRANCH   6  24
ATOM     24  O   UNL     1      47.513  13.862  24.978  1.00  0.00    -0.507 OA
ATOM     25  H   UNL     1      46.728  14.412  25.293  1.00  0.00     0.293 HD
ENDBRANCH   6  24
BRANCH   8  26
ATOM     26  O   UNL     1      49.057  15.919  20.924  1.00  0.00    -0.508 OA
ATOM     27  H   UNL     1      49.696  16.537  20.438  1.00  0.00     0.293 HD
ENDBRANCH   8  26
TORSDOF 6
ENDMDL
MODEL 3
REMARK VINA RESULT:    -5.312      1.327      2.901
REMARK INTER + INTRA:          -6.876
REMARK INTER:                  -6.581
REMARK INTRA:                  -0.295
REMARK UNBOUND:                -0.323
REMARK SMILES COc1cc(-c2oc3cc(O)cc(O)c3c(=O)c2O)ccc1O
REMARK SMILES IDX 6 1 18 2 16 3 17 4 15 5 13 6 12 7 10 8 9 9 8 10 7 11 5 12
REMARK SMILES IDX 3 13 22 14 4 15 21 16 20 17 2 18 1 19 23 20 19 22 14 24
REMARK SMILES IDX 11 26
REMARK H PARENT 23 21 19 23 14 25 11 27
REMARK Flexibility Score: inf
ROOT
ATOM      1  C   UNL     1      51.513  13.508  25.943  1.00  0.00     0.180 A 
ATOM      2  C   UNL     1      52.139  13.937  24.760  1.00  0.00     0.208 A 
ATOM      3  C   UNL     1      51.404  14.704  23.841  1.00  0.00     0.238 A 
ATOM      4  O   UNL     1      51.986  15.131  22.810  1.00  0.00    -0.285 OA
ATOM      5  C   UNL     1      50.050  15.018  24.110  1.00  0.00     0.111 A 
ATOM      6  C   UNL     1      49.199  15.754  23.230  1.00  0.00     0.134 A 
ATOM      7  C   UNL     1      47.916  16.119  23.656  1.00  0.00     0.093 A 
ATOM      8  C   UNL     1      47.430  15.717  24.903  1.00  0.00     0.123 A 
ATOM      9  C   UNL     1      48.231  14.948  25.743  1.00  0.00     0.094 A 
ATOM     10  C   UNL     1      49.529  14.599  25.360  1.00  0.00     0.146 A 
ATOM     11  O   UNL     1      50.263  13.874  26.197  1.00  0.00    -0.452 OA
ENDROOT
BRANCH   1  12
ATOM     12  C   UNL     1      52.215  12.676  26.947  1.00  0.00     0.025 A 
ATOM     13  C   UNL     1      53.896  12.402  28.703  1.00  0.00     0.161 A 
ATOM     14  C   UNL     1      53.561  11.044  28.802  1.00  0.00     0.157 A 
ATOM     15  C   UNL     1      53.224  13.213  27.767  1.00  0.00     0.062 A 
ATOM     16  C   UNL     1      52.572  10.503  27.971  1.00  0.00     0.051 A 
ATOM     17  C   UNL     1      51.910  11.310  27.046  1.00  0.00     0.016 A 
BRANCH  13  18
ATOM     18  O   UNL     1      54.900  12.906  29.545  1.00  0.00    -0.493 OA
ATOM     19  C   UNL     1      55.303  14.270  29.592  1.00  0.00     0.278 C 
ENDBRANCH  13  18
BRANCH  14  20
ATOM     20  O   UNL     1      54.220  10.238  29.729  1.00  0.00    -0.504 OA
ATOM     21  H   UNL     1      53.734   9.836  30.521  1.00  0.00     0.293 HD
ENDBRANCH  14  20
ENDBRANCH   1  12
BRANCH   2  22
ATOM     22  O   UNL     1      53.483  13.634  24.525  1.00  0.00    -0.502 OA
ATOM     23  H   UNL     1      54.240  14.202  24.885  1.00  0.00     0.293 HD
ENDBRANCH   2  22
BRANCH   6  24
ATOM     24  O   UNL     1      49.554  16.125  21.930  1.00  0.00    -0.507 OA
ATOM     25  H   UNL     1      50.382  16.649  21.688  1.00  0.00     0.293 HD
ENDBRANCH   6  24
BRANCH   8  26
ATOM     26  O   UNL     1      46.146  16.071  25.311  1.00  0.00    -0.508 OA
ATOM     27  H   UNL     1      45.517  15.396  25.730  1.00  0.00     0.293 HD
ENDBRANCH   8  26
TORSDOF 6
ENDMDL
MODEL 4
REMARK VINA RESULT:    -5.308      2.498      4.220
REMARK INTER + INTRA:          -6.872
REMARK INTER:                  -7.152
REMARK INTRA:                   0.281
REMARK UNBOUND:                -0.323
REMARK SMILES COc1cc(-c2oc3cc(O)cc(O)c3c(=O)c2O)ccc1O
REMARK SMILES IDX 6 1 18 2 16 3 17 4 15 5 13 6 12 7 10 8 9 9 8 10 7 11 5 12
REMARK SMILES IDX 3 13 22 14 4 15 21 16 20 17 2 18 1 19 23 20 19 22 14 24
REMARK SMILES IDX 11 26
REMARK H PARENT 23 21 19 23 14 25 11 27
REMARK Flexibility Score: inf
ROOT
ATOM      1  C   UNL     1      52.169  14.338  26.644  1.00  0.00     0.180 A 
ATOM      2  C   UNL     1      51.743  14.285  25.306  1.00  0.00     0.208 A 
ATOM      3  C   UNL     1      50.388  14.038  25.033  1.00  0.00     0.238 A 
ATOM      4  O   UNL     1      50.002  14.046  23.835  1.00  0.00    -0.285 OA
ATOM      5  C   UNL     1      49.480  13.832  26.100  1.00  0.00     0.111 A 
ATOM      6  C   UNL     1      48.093  13.534  25.938  1.00  0.00     0.134 A 
ATOM      7  C   UNL     1      47.263  13.479  27.064  1.00  0.00     0.093 A 
ATOM      8  C   UNL     1      47.782  13.646  28.351  1.00  0.00     0.123 A 
ATOM      9  C   UNL     1      49.144  13.877  28.522  1.00  0.00     0.094 A 
ATOM     10  C   UNL     1      49.991  13.973  27.415  1.00  0.00     0.146 A 
ATOM     11  O   UNL     1      51.283  14.206  27.623  1.00  0.00    -0.452 OA
ENDROOT
BRANCH   1  12
ATOM     12  C   UNL     1      53.586  14.568  27.011  1.00  0.00     0.025 A 
ATOM     13  C   UNL     1      55.817  15.429  26.496  1.00  0.00     0.161 A 
ATOM     14  C   UNL     1      56.282  14.935  27.722  1.00  0.00     0.157 A 
ATOM     15  C   UNL     1      54.467  15.235  26.140  1.00  0.00     0.062 A 
ATOM     16  C   UNL     1      55.412  14.251  28.580  1.00  0.00     0.051 A 
ATOM     17  C   UNL     1      54.076  14.063  28.224  1.00  0.00     0.016 A 
BRANCH  13  18
ATOM     18  O   UNL     1      56.722  16.099  25.659  1.00  0.00    -0.493 OA
ATOM     19  C   UNL     1      56.640  16.125  24.237  1.00  0.00     0.278 C 
ENDBRANCH  13  18
BRANCH  14  20
ATOM     20  O   UNL     1      57.616  15.126  28.081  1.00  0.00    -0.504 OA
ATOM     21  H   UNL     1      57.876  15.726  28.854  1.00  0.00     0.293 HD
ENDBRANCH  14  20
ENDBRANCH   1  12
BRANCH   2  22
ATOM     22  O   UNL     1      52.651  14.513  24.269  1.00  0.00    -0.502 OA
ATOM     23  H   UNL     1      53.233  13.779  23.883  1.00  0.00     0.293 HD
ENDBRANCH   2  22
BRANCH   6  24
ATOM     24  O   UNL     1      47.493  13.260  24.706  1.00  0.00    -0.507 OA
ATOM     25  H   UNL     1      47.785  13.654  23.824  1.00  0.00     0.293 HD
ENDBRANCH   6  24
BRANCH   8  26
ATOM     26  O   UNL     1      46.951  13.573  29.466  1.00  0.00    -0.508 OA
ATOM     27  H   UNL     1      45.941  13.567  29.377  1.00  0.00     0.293 HD
ENDBRANCH   8  26
TORSDOF 6
ENDMDL
MODEL 5
REMARK VINA RESULT:    -5.174      2.336      4.251
REMARK INTER + INTRA:          -6.706
REMARK INTER:                  -7.056
REMARK INTRA:                   0.350
REMARK UNBOUND:                -0.323
REMARK SMILES COc1cc(-c2oc3cc(O)cc(O)c3c(=O)c2O)ccc1O
REMARK SMILES IDX 6 1 18 2 16 3 17 4 15 5 13 6 12 7 10 8 9 9 8 10 7 11 5 12
REMARK SMILES IDX 3 13 22 14 4 15 21 16 20 17 2 18 1 19 23 20 19 22 14 24
REMARK SMILES IDX 11 26
REMARK H PARENT 23 21 19 23 14 25 11 27
REMARK Flexibility Score: inf
ROOT
ATOM      1  C   UNL     1      52.292  14.472  26.338  1.00  0.00     0.180 A 
ATOM      2  C   UNL     1      51.777  14.416  25.032  1.00  0.00     0.208 A 
ATOM      3  C   UNL     1      50.411  14.143  24.850  1.00  0.00     0.238 A 
ATOM      4  O   UNL     1      49.944  14.148  23.682  1.00  0.00    -0.285 OA
ATOM      5  C   UNL     1      49.583  13.915  25.976  1.00  0.00     0.111 A 
ATOM      6  C   UNL     1      48.194  13.591  25.908  1.00  0.00     0.134 A 
ATOM      7  C   UNL     1      47.444  13.516  27.088  1.00  0.00     0.093 A 
ATOM      8  C   UNL     1      48.047  13.688  28.337  1.00  0.00     0.123 A 
ATOM      9  C   UNL     1      49.413  13.945  28.416  1.00  0.00     0.094 A 
ATOM     10  C   UNL     1      50.180  14.062  27.254  1.00  0.00     0.146 A 
ATOM     11  O   UNL     1      51.478  14.319  27.375  1.00  0.00    -0.452 OA
ENDROOT
BRANCH   1  12
ATOM     12  C   UNL     1      53.726  14.729  26.608  1.00  0.00     0.025 A 
ATOM     13  C   UNL     1      55.677  14.637  28.080  1.00  0.00     0.161 A 
ATOM     14  C   UNL     1      56.439  15.287  27.099  1.00  0.00     0.157 A 
ATOM     15  C   UNL     1      54.317  14.367  27.832  1.00  0.00     0.062 A 
ATOM     16  C   UNL     1      55.847  15.669  25.888  1.00  0.00     0.051 A 
ATOM     17  C   UNL     1      54.499  15.398  25.647  1.00  0.00     0.016 A 
BRANCH  13  18
ATOM     18  O   UNL     1      56.304  14.281  29.284  1.00  0.00    -0.493 OA
ATOM     19  C   UNL     1      55.781  14.560  30.579  1.00  0.00     0.278 C 
ENDBRANCH  13  18
BRANCH  14  20
ATOM     20  O   UNL     1      57.787  15.554  27.337  1.00  0.00    -0.504 OA
ATOM     21  H   UNL     1      58.510  14.893  27.085  1.00  0.00     0.293 HD
ENDBRANCH  14  20
ENDBRANCH   1  12
BRANCH   2  22
ATOM     22  O   UNL     1      52.607  14.665  23.936  1.00  0.00    -0.502 OA
ATOM     23  H   UNL     1      53.441  14.121  23.750  1.00  0.00     0.293 HD
ENDBRANCH   2  22
BRANCH   6  24
ATOM     24  O   UNL     1      47.516  13.310  24.719  1.00  0.00    -0.507 OA
ATOM     25  H   UNL     1      46.556  13.004  24.663  1.00  0.00     0.293 HD
ENDBRANCH   6  24
BRANCH   8  26
ATOM     26  O   UNL     1      47.296  13.595  29.506  1.00  0.00    -0.508 OA
ATOM     27  H   UNL     1      46.983  12.701  29.867  1.00  0.00     0.293 HD
ENDBRANCH   8  26
TORSDOF 6
ENDMDL
MODEL 6
REMARK VINA RESULT:    -4.841      2.525      7.643
REMARK INTER + INTRA:          -6.295
REMARK INTER:                  -6.711
REMARK INTRA:                   0.416
REMARK UNBOUND:                -0.323
REMARK SMILES COc1cc(-c2oc3cc(O)cc(O)c3c(=O)c2O)ccc1O
REMARK SMILES IDX 6 1 18 2 16 3 17 4 15 5 13 6 12 7 10 8 9 9 8 10 7 11 5 12
REMARK SMILES IDX 3 13 22 14 4 15 21 16 20 17 2 18 1 19 23 20 19 22 14 24
REMARK SMILES IDX 11 26
REMARK H PARENT 23 21 19 23 14 25 11 27
REMARK Flexibility Score: inf
ROOT
ATOM      1  C   UNL     1      52.666  15.088  24.866  1.00  0.00     0.180 A 
ATOM      2  C   UNL     1      53.747  15.593  24.123  1.00  0.00     0.208 A 
ATOM      3  C   UNL     1      54.999  15.722  24.746  1.00  0.00     0.238 A 
ATOM      4  O   UNL     1      55.976  16.123  24.061  1.00  0.00    -0.285 OA
ATOM      5  C   UNL     1      55.149  15.359  26.107  1.00  0.00     0.111 A 
ATOM      6  C   UNL     1      56.362  15.487  26.850  1.00  0.00     0.134 A 
ATOM      7  C   UNL     1      56.431  14.975  28.151  1.00  0.00     0.093 A 
ATOM      8  C   UNL     1      55.312  14.401  28.760  1.00  0.00     0.123 A 
ATOM      9  C   UNL     1      54.108  14.327  28.064  1.00  0.00     0.094 A 
ATOM     10  C   UNL     1      54.019  14.796  26.751  1.00  0.00     0.146 A 
ATOM     11  O   UNL     1      52.854  14.695  26.120  1.00  0.00    -0.452 OA
ENDROOT
BRANCH   1  12
ATOM     12  C   UNL     1      51.310  14.947  24.286  1.00  0.00     0.025 A 
ATOM     13  C   UNL     1      49.054  14.004  24.322  1.00  0.00     0.161 A 
ATOM     14  C   UNL     1      48.767  14.662  23.118  1.00  0.00     0.157 A 
ATOM     15  C   UNL     1      50.332  14.143  24.899  1.00  0.00     0.062 A 
ATOM     16  C   UNL     1      49.747  15.444  22.495  1.00  0.00     0.051 A 
ATOM     17  C   UNL     1      51.011  15.580  23.070  1.00  0.00     0.016 A 
BRANCH  13  18
ATOM     18  O   UNL     1      48.049  13.221  24.911  1.00  0.00    -0.493 OA
ATOM     19  C   UNL     1      47.382  13.544  26.127  1.00  0.00     0.278 C 
ENDBRANCH  13  18
BRANCH  14  20
ATOM     20  O   UNL     1      47.503  14.531  22.545  1.00  0.00    -0.504 OA
ATOM     21  H   UNL     1      47.154  15.203  21.873  1.00  0.00     0.293 HD
ENDBRANCH  14  20
ENDBRANCH   1  12
BRANCH   2  22
ATOM     22  O   UNL     1      53.582  15.924  22.776  1.00  0.00    -0.502 OA
ATOM     23  H   UNL     1      52.787  16.454  22.439  1.00  0.00     0.293 HD
ENDBRANCH   2  22
BRANCH   6  24
ATOM     24  O   UNL     1      57.509  16.125  26.369  1.00  0.00    -0.507 OA
ATOM     25  H   UNL     1      57.518  16.805  25.623  1.00  0.00     0.293 HD
ENDBRANCH   6  24
BRANCH   8  26
ATOM     26  O   UNL     1      55.385  13.909  30.061  1.00  0.00    -0.508 OA
ATOM     27  H   UNL     1      55.217  14.504  30.864  1.00  0.00     0.293 HD
ENDBRANCH   8  26
TORSDOF 6
ENDMDL
MODEL 7
REMARK VINA RESULT:    -4.788      1.422      3.555
REMARK INTER + INTRA:          -6.231
REMARK INTER:                  -5.980
REMARK INTRA:                  -0.250
REMARK UNBOUND:                -0.323
REMARK SMILES COc1cc(-c2oc3cc(O)cc(O)c3c(=O)c2O)ccc1O
REMARK SMILES IDX 6 1 18 2 16 3 17 4 15 5 13 6 12 7 10 8 9 9 8 10 7 11 5 12
REMARK SMILES IDX 3 13 22 14 4 15 21 16 20 17 2 18 1 19 23 20 19 22 14 24
REMARK SMILES IDX 11 26
REMARK H PARENT 23 21 19 23 14 25 11 27
REMARK Flexibility Score: inf
ROOT
ATOM      1  C   UNL     1      51.840  14.535  25.606  1.00  0.00     0.180 A 
ATOM      2  C   UNL     1      52.329  14.821  24.319  1.00  0.00     0.208 A 
ATOM      3  C   UNL     1      51.435  15.285  23.340  1.00  0.00     0.238 A 
ATOM      4  O   UNL     1      51.887  15.591  22.206  1.00  0.00    -0.285 OA
ATOM      5  C   UNL     1      50.064  15.442  23.656  1.00  0.00     0.111 A 
ATOM      6  C   UNL     1      49.063  15.867  22.731  1.00  0.00     0.134 A 
ATOM      7  C   UNL     1      47.762  16.114  23.185  1.00  0.00     0.093 A 
ATOM      8  C   UNL     1      47.410  15.887  24.519  1.00  0.00     0.123 A 
ATOM      9  C   UNL     1      48.365  15.415  25.416  1.00  0.00     0.094 A 
ATOM     10  C   UNL     1      49.681  15.195  24.999  1.00  0.00     0.146 A 
ATOM     11  O   UNL     1      50.563  14.756  25.890  1.00  0.00    -0.452 OA
ENDROOT
BRANCH   1  12
ATOM     12  C   UNL     1      52.716  14.019  26.683  1.00  0.00     0.025 A 
ATOM     13  C   UNL     1      53.384  12.251  28.236  1.00  0.00     0.161 A 
ATOM     14  C   UNL     1      54.366  13.098  28.768  1.00  0.00     0.157 A 
ATOM     15  C   UNL     1      52.555  12.719  27.197  1.00  0.00     0.062 A 
ATOM     16  C   UNL     1      54.512  14.400  28.273  1.00  0.00     0.051 A 
ATOM     17  C   UNL     1      53.689  14.859  27.244  1.00  0.00     0.016 A 
BRANCH  13  18
ATOM     18  O   UNL     1      53.261  10.957  28.765  1.00  0.00    -0.493 OA
ATOM     19  C   UNL     1      52.361   9.967  28.277  1.00  0.00     0.278 C 
ENDBRANCH  13  18
BRANCH  14  20
ATOM     20  O   UNL     1      55.191  12.640  29.794  1.00  0.00    -0.504 OA
ATOM     21  H   UNL     1      55.164  11.676  30.104  1.00  0.00     0.293 HD
ENDBRANCH  14  20
ENDBRANCH   1  12
BRANCH   2  22
ATOM     22  O   UNL     1      53.689  14.679  24.036  1.00  0.00    -0.502 OA
ATOM     23  H   UNL     1      54.103  13.790  23.782  1.00  0.00     0.293 HD
ENDBRANCH   2  22
BRANCH   6  24
ATOM     24  O   UNL     1      49.287  16.034  21.361  1.00  0.00    -0.507 OA
ATOM     25  H   UNL     1      49.745  16.833  20.947  1.00  0.00     0.293 HD
ENDBRANCH   6  24
BRANCH   8  26
ATOM     26  O   UNL     1      46.109  16.120  24.959  1.00  0.00    -0.508 OA
ATOM     27  H   UNL     1      45.648  15.492  25.607  1.00  0.00     0.293 HD
ENDBRANCH   8  26
TORSDOF 6
ENDMDL
MODEL 8
REMARK VINA RESULT:    -4.594      2.029      2.991
REMARK INTER + INTRA:          -5.991
REMARK INTER:                  -7.338
REMARK INTRA:                   1.347
REMARK UNBOUND:                -0.323
REMARK SMILES COc1cc(-c2oc3cc(O)cc(O)c3c(=O)c2O)ccc1O
REMARK SMILES IDX 6 1 18 2 16 3 17 4 15 5 13 6 12 7 10 8 9 9 8 10 7 11 5 12
REMARK SMILES IDX 3 13 22 14 4 15 21 16 20 17 2 18 1 19 23 20 19 22 14 24
REMARK SMILES IDX 11 26
REMARK H PARENT 23 21 19 23 14 25 11 27
REMARK Flexibility Score: inf
ROOT
ATOM      1  C   UNL     1      52.569  14.648  26.135  1.00  0.00     0.180 A 
ATOM      2  C   UNL     1      51.576  14.077  26.950  1.00  0.00     0.208 A 
ATOM      3  C   UNL     1      50.264  13.985  26.460  1.00  0.00     0.238 A 
ATOM      4  O   UNL     1      49.391  13.424  27.172  1.00  0.00    -0.285 OA
ATOM      5  C   UNL     1      49.958  14.479  25.168  1.00  0.00     0.111 A 
ATOM      6  C   UNL     1      48.654  14.474  24.587  1.00  0.00     0.134 A 
ATOM      7  C   UNL     1      48.491  14.867  23.253  1.00  0.00     0.093 A 
ATOM      8  C   UNL     1      49.575  15.329  22.501  1.00  0.00     0.123 A 
ATOM      9  C   UNL     1      50.840  15.394  23.079  1.00  0.00     0.094 A 
ATOM     10  C   UNL     1      51.040  14.973  24.396  1.00  0.00     0.146 A 
ATOM     11  O   UNL     1      52.265  15.042  24.905  1.00  0.00    -0.452 OA
ENDROOT
BRANCH   1  12
ATOM     12  C   UNL     1      53.970  14.803  26.592  1.00  0.00     0.025 A 
ATOM     13  C   UNL     1      56.277  15.523  26.216  1.00  0.00     0.161 A 
ATOM     14  C   UNL     1      56.630  15.024  27.478  1.00  0.00     0.157 A 
ATOM     15  C   UNL     1      54.945  15.402  25.774  1.00  0.00     0.062 A 
ATOM     16  C   UNL     1      55.666  14.407  28.285  1.00  0.00     0.051 A 
ATOM     17  C   UNL     1      54.348  14.291  27.842  1.00  0.00     0.016 A 
BRANCH  13  18
ATOM     18  O   UNL     1      57.274  16.124  25.433  1.00  0.00    -0.493 OA
ATOM     19  C   UNL     1      58.661  15.811  25.511  1.00  0.00     0.278 C 
ENDBRANCH  13  18
BRANCH  14  20
ATOM     20  O   UNL     1      57.946  15.144  27.923  1.00  0.00    -0.504 OA
ATOM     21  H   UNL     1      58.352  14.472  28.563  1.00  0.00     0.293 HD
ENDBRANCH  14  20
ENDBRANCH   1  12
BRANCH   2  22
ATOM     22  O   UNL     1      51.905  13.577  28.213  1.00  0.00    -0.502 OA
ATOM     23  H   UNL     1      52.840  13.268  28.450  1.00  0.00     0.293 HD
ENDBRANCH   2  22
BRANCH   6  24
ATOM     24  O   UNL     1      47.493  14.119  25.279  1.00  0.00    -0.507 OA
ATOM     25  H   UNL     1      47.475  13.603  26.146  1.00  0.00     0.293 HD
ENDBRANCH   6  24
BRANCH   8  26
ATOM     26  O   UNL     1      49.401  15.733  21.179  1.00  0.00    -0.508 OA
ATOM     27  H   UNL     1      49.597  16.683  20.885  1.00  0.00     0.293 HD
ENDBRANCH   8  26
TORSDOF 6
ENDMDL
MODEL 9
REMARK VINA RESULT:    -4.414      2.435      6.848
REMARK INTER + INTRA:          -5.769
REMARK INTER:                  -6.039
REMARK INTRA:                   0.269
REMARK UNBOUND:                -0.323
REMARK SMILES COc1cc(-c2oc3cc(O)cc(O)c3c(=O)c2O)ccc1O
REMARK SMILES IDX 6 1 18 2 16 3 17 4 15 5 13 6 12 7 10 8 9 9 8 10 7 11 5 12
REMARK SMILES IDX 3 13 22 14 4 15 21 16 20 17 2 18 1 19 23 20 19 22 14 24
REMARK SMILES IDX 11 26
REMARK H PARENT 23 21 19 23 14 25 11 27
REMARK Flexibility Score: inf
ROOT
ATOM      1  C   UNL     1      51.775  14.573  25.840  1.00  0.00     0.180 A 
ATOM      2  C   UNL     1      52.300  14.961  24.595  1.00  0.00     0.208 A 
ATOM      3  C   UNL     1      53.666  15.274  24.501  1.00  0.00     0.238 A 
ATOM      4  O   UNL     1      54.141  15.568  23.373  1.00  0.00    -0.285 OA
ATOM      5  C   UNL     1      54.484  15.212  25.655  1.00  0.00     0.111 A 
ATOM      6  C   UNL     1      55.871  15.547  25.683  1.00  0.00     0.134 A 
ATOM      7  C   UNL     1      56.613  15.323  26.850  1.00  0.00     0.093 A 
ATOM      8  C   UNL     1      56.001  14.837  28.009  1.00  0.00     0.123 A 
ATOM      9  C   UNL     1      54.636  14.564  28.009  1.00  0.00     0.094 A 
ATOM     10  C   UNL     1      53.878  14.744  26.849  1.00  0.00     0.146 A 
ATOM     11  O   UNL     1      52.581  14.460  26.889  1.00  0.00    -0.452 OA
ENDROOT
BRANCH   1  12
ATOM     12  C   UNL     1      50.340  14.252  26.023  1.00  0.00     0.025 A 
ATOM     13  C   UNL     1      48.345  14.093  27.429  1.00  0.00     0.161 A 
ATOM     14  C   UNL     1      47.628  13.575  26.341  1.00  0.00     0.157 A 
ATOM     15  C   UNL     1      49.705  14.422  27.267  1.00  0.00     0.062 A 
ATOM     16  C   UNL     1      48.265  13.383  25.108  1.00  0.00     0.051 A 
ATOM     17  C   UNL     1      49.612  13.712  24.953  1.00  0.00     0.016 A 
BRANCH  13  18
ATOM     18  O   UNL     1      47.675  14.260  28.651  1.00  0.00    -0.493 OA
ATOM     19  C   UNL     1      47.944  13.506  29.829  1.00  0.00     0.278 C 
ENDBRANCH  13  18
BRANCH  14  20
ATOM     20  O   UNL     1      46.282  13.250  26.494  1.00  0.00    -0.504 OA
ATOM     21  H   UNL     1      45.619  13.908  26.885  1.00  0.00     0.293 HD
ENDBRANCH  14  20
ENDBRANCH   1  12
BRANCH   2  22
ATOM     22  O   UNL     1      51.479  14.995  23.465  1.00  0.00    -0.502 OA
ATOM     23  H   UNL     1      50.547  14.599  23.457  1.00  0.00     0.293 HD
ENDBRANCH   2  22
BRANCH   6  24
ATOM     24  O   UNL     1      56.557  16.123  24.610  1.00  0.00    -0.507 OA
ATOM     25  H   UNL     1      57.292  15.669  24.087  1.00  0.00     0.293 HD
ENDBRANCH   6  24
BRANCH   8  26
ATOM     26  O   UNL     1      56.743  14.633  29.170  1.00  0.00    -0.508 OA
ATOM     27  H   UNL     1      56.638  15.232  29.980  1.00  0.00     0.293 HD
ENDBRANCH   8  26
TORSDOF 6
ENDMDL
