MODEL 1
REMARK VINA RESULT:    -6.391      0.000      0.000
REMARK INTER + INTRA:         -11.277
REMARK INTER:                  -9.193
REMARK INTRA:                  -2.085
REMARK UNBOUND:                -2.085
REMARK SMILES O=c1c(O[C@H]2O[C@@H](CO)[C@@H](O)[C@@H](O)[C@H]2O)c(-c2ccc(O)cc2)oc2cc(O)cc(O)c12
REMARK SMILES IDX 4 1 3 2 16 3 24 4 2 5 25 6 1 7 32 8 26 9 30 10 27 11 29 12
REMARK SMILES IDX 17 13 18 14 19 15 20 16 23 17 22 18 21 19 31 21 28 23 5 25
REMARK SMILES IDX 14 26 6 27 12 28 7 29 10 30 15 31 13 33 8 35 9 36 11 38
REMARK H PARENT 21 20 31 22 28 24 15 32 13 34 9 37 11 39
REMARK Flexibility Score: inf
ROOT
ATOM      1  O   UNL     1     -38.061   6.268  81.753  1.00  0.00    -0.454 OA
ENDROOT
BRANCH   1   2
ATOM      2  C   UNL     1     -38.440   5.308  80.791  1.00  0.00     0.214 A 
ATOM      3  C   UNL     1     -37.826   5.150  79.526  1.00  0.00     0.180 A 
ATOM      4  O   UNL     1     -38.479   4.548  78.543  1.00  0.00    -0.452 OA
ATOM      5  C   UNL     1     -39.555   4.516  81.076  1.00  0.00     0.239 A 
ATOM      6  C   UNL     1     -39.676   3.983  78.718  1.00  0.00     0.146 A 
ATOM      7  O   UNL     1     -39.996   4.482  82.259  1.00  0.00    -0.285 OA
ATOM      8  C   UNL     1     -40.201   3.821  80.024  1.00  0.00     0.111 A 
ATOM      9  C   UNL     1     -40.376   3.538  77.602  1.00  0.00     0.094 A 
ATOM     10  C   UNL     1     -41.402   3.080  80.183  1.00  0.00     0.134 A 
ATOM     11  C   UNL     1     -41.643   2.960  77.767  1.00  0.00     0.123 A 
ATOM     12  C   UNL     1     -42.145   2.723  79.053  1.00  0.00     0.093 A 
BRANCH   3  13
ATOM     13  C   UNL     1     -36.430   5.503  79.300  1.00  0.00     0.021 A 
ATOM     14  C   UNL     1     -36.101   6.660  78.603  1.00  0.00     0.016 A 
ATOM     15  C   UNL     1     -34.768   6.988  78.386  1.00  0.00     0.047 A 
ATOM     16  C   UNL     1     -33.743   6.133  78.826  1.00  0.00     0.115 A 
ATOM     17  C   UNL     1     -35.417   4.608  79.697  1.00  0.00     0.016 A 
ATOM     18  C   UNL     1     -34.077   4.921  79.451  1.00  0.00     0.047 A 
BRANCH  16  19
ATOM     19  O   UNL     1     -32.399   6.502  78.657  1.00  0.00    -0.508 OA
ATOM     20  H   UNL     1     -31.993   7.230  79.280  1.00  0.00     0.293 HD
ENDBRANCH  16  19
ENDBRANCH   3  13
BRANCH  10  21
ATOM     21  O   UNL     1     -41.854   2.623  81.422  1.00  0.00    -0.507 OA
ATOM     22  H   UNL     1     -42.118   3.254  82.174  1.00  0.00     0.293 HD
ENDBRANCH  10  21
BRANCH  11  23
ATOM     23  O   UNL     1     -42.421   2.668  76.646  1.00  0.00    -0.508 OA
ATOM     24  H   UNL     1     -42.978   1.829  76.582  1.00  0.00     0.293 HD
ENDBRANCH  11  23
ENDBRANCH   1   2
BRANCH   1  25
ATOM     25  C   UNL     1     -37.083   6.099  82.795  1.00  0.00     0.339 C 
ATOM     26  C   UNL     1     -37.681   6.551  84.136  1.00  0.00     0.214 C 
ATOM     27  O   UNL     1     -35.845   6.734  82.460  1.00  0.00    -0.332 OA
ATOM     28  C   UNL     1     -37.747   8.056  84.262  1.00  0.00     0.180 C 
ATOM     29  C   UNL     1     -35.663   8.107  82.822  1.00  0.00     0.179 C 
ATOM     30  C   UNL     1     -36.325   8.582  84.149  1.00  0.00     0.177 C 
BRANCH  26  31
ATOM     31  O   UNL     1     -38.967   6.003  84.314  1.00  0.00    -0.384 OA
ATOM     32  H   UNL     1     -39.379   6.480  85.091  1.00  0.00     0.211 HD
ENDBRANCH  26  31
BRANCH  28  33
ATOM     33  O   UNL     1     -38.577   8.601  83.260  1.00  0.00    -0.387 OA
ATOM     34  H   UNL     1     -39.175   7.873  82.935  1.00  0.00     0.211 HD
ENDBRANCH  28  33
BRANCH  29  35
ATOM     35  C   UNL     1     -35.817   9.057  81.630  1.00  0.00     0.191 C 
BRANCH  35  36
ATOM     36  O   UNL     1     -37.041   8.906  80.985  1.00  0.00    -0.394 OA
ATOM     37  H   UNL     1     -37.276   9.774  80.556  1.00  0.00     0.210 HD
ENDBRANCH  35  36
ENDBRANCH  29  35
BRANCH  30  38
ATOM     38  O   UNL     1     -36.301   9.982  84.312  1.00  0.00    -0.387 OA
ATOM     39  H   UNL     1     -36.244  10.358  83.396  1.00  0.00     0.211 HD
ENDBRANCH  30  38
ENDBRANCH   1  25
TORSDOF 11
ENDMDL
MODEL 2
REMARK VINA RESULT:    -6.240      2.204      6.638
REMARK INTER + INTRA:         -11.061
REMARK INTER:                 -10.061
REMARK INTRA:                  -1.000
REMARK UNBOUND:                -2.085
REMARK SMILES O=c1c(O[C@H]2O[C@@H](CO)[C@@H](O)[C@@H](O)[C@H]2O)c(-c2ccc(O)cc2)oc2cc(O)cc(O)c12
REMARK SMILES IDX 4 1 3 2 16 3 24 4 2 5 25 6 1 7 32 8 26 9 30 10 27 11 29 12
REMARK SMILES IDX 17 13 18 14 19 15 20 16 23 17 22 18 21 19 31 21 28 23 5 25
REMARK SMILES IDX 14 26 6 27 12 28 7 29 10 30 15 31 13 33 8 35 9 36 11 38
REMARK H PARENT 21 20 31 22 28 24 15 32 13 34 9 37 11 39
REMARK Flexibility Score: inf
ROOT
ATOM      1  O   UNL     1     -37.496   3.899  82.374  1.00  0.00    -0.454 OA
ENDROOT
BRANCH   1   2
ATOM      2  C   UNL     1     -36.807   4.854  81.598  1.00  0.00     0.214 A 
ATOM      3  C   UNL     1     -36.792   4.883  80.182  1.00  0.00     0.180 A 
ATOM      4  O   UNL     1     -35.818   5.516  79.544  1.00  0.00    -0.452 OA
ATOM      5  C   UNL     1     -36.016   5.786  82.275  1.00  0.00     0.239 A 
ATOM      6  C   UNL     1     -34.885   6.226  80.181  1.00  0.00     0.146 A 
ATOM      7  O   UNL     1     -36.164   5.923  83.522  1.00  0.00    -0.285 OA
ATOM      8  C   UNL     1     -35.026   6.507  81.563  1.00  0.00     0.111 A 
ATOM      9  C   UNL     1     -33.797   6.703  79.459  1.00  0.00     0.094 A 
ATOM     10  C   UNL     1     -34.098   7.392  82.172  1.00  0.00     0.134 A 
ATOM     11  C   UNL     1     -32.799   7.435  80.117  1.00  0.00     0.123 A 
ATOM     12  C   UNL     1     -32.958   7.786  81.464  1.00  0.00     0.093 A 
BRANCH   3  13
ATOM     13  C   UNL     1     -37.896   4.356  79.392  1.00  0.00     0.021 A 
ATOM     14  C   UNL     1     -37.983   2.994  79.124  1.00  0.00     0.016 A 
ATOM     15  C   UNL     1     -39.036   2.499  78.365  1.00  0.00     0.047 A 
ATOM     16  C   UNL     1     -39.994   3.371  77.820  1.00  0.00     0.115 A 
ATOM     17  C   UNL     1     -38.816   5.248  78.807  1.00  0.00     0.016 A 
ATOM     18  C   UNL     1     -39.858   4.754  78.016  1.00  0.00     0.047 A 
BRANCH  16  19
ATOM     19  O   UNL     1     -41.088   2.855  77.106  1.00  0.00    -0.508 OA
ATOM     20  H   UNL     1     -41.266   1.831  77.126  1.00  0.00     0.293 HD
ENDBRANCH  16  19
ENDBRANCH   3  13
BRANCH  10  21
ATOM     21  O   UNL     1     -34.299   7.954  83.434  1.00  0.00    -0.507 OA
ATOM     22  H   UNL     1     -35.174   7.855  83.942  1.00  0.00     0.293 HD
ENDBRANCH  10  21
BRANCH  11  23
ATOM     23  O   UNL     1     -31.626   7.770  79.440  1.00  0.00    -0.508 OA
ATOM     24  H   UNL     1     -31.078   7.084  78.941  1.00  0.00     0.293 HD
ENDBRANCH  11  23
ENDBRANCH   1   2
BRANCH   1  25
ATOM     25  C   UNL     1     -38.274   4.153  83.557  1.00  0.00     0.339 C 
ATOM     26  C   UNL     1     -38.425   2.852  84.360  1.00  0.00     0.214 C 
ATOM     27  O   UNL     1     -39.513   4.797  83.242  1.00  0.00    -0.332 OA
ATOM     28  C   UNL     1     -39.431   1.906  83.744  1.00  0.00     0.180 C 
ATOM     29  C   UNL     1     -40.649   3.980  82.944  1.00  0.00     0.179 C 
ATOM     30  C   UNL     1     -40.768   2.629  83.710  1.00  0.00     0.177 C 
BRANCH  26  31
ATOM     31  O   UNL     1     -37.181   2.204  84.489  1.00  0.00    -0.384 OA
ATOM     32  H   UNL     1     -37.165   1.472  83.807  1.00  0.00     0.211 HD
ENDBRANCH  26  31
BRANCH  28  33
ATOM     33  O   UNL     1     -39.021   1.523  82.450  1.00  0.00    -0.387 OA
ATOM     34  H   UNL     1     -39.577   2.028  81.795  1.00  0.00     0.211 HD
ENDBRANCH  28  33
BRANCH  29  35
ATOM     35  C   UNL     1     -40.955   3.917  81.444  1.00  0.00     0.191 C 
BRANCH  35  36
ATOM     36  O   UNL     1     -42.305   3.698  81.185  1.00  0.00    -0.394 OA
ATOM     37  H   UNL     1     -42.600   2.912  81.721  1.00  0.00     0.210 HD
ENDBRANCH  35  36
ENDBRANCH  29  35
BRANCH  30  38
ATOM     38  O   UNL     1     -41.773   1.784  83.196  1.00  0.00    -0.387 OA
ATOM     39  H   UNL     1     -41.371   0.877  83.164  1.00  0.00     0.211 HD
ENDBRANCH  30  38
ENDBRANCH   1  25
TORSDOF 11
ENDMDL
MODEL 3
REMARK VINA RESULT:    -6.188      2.537      6.415
REMARK INTER + INTRA:         -10.986
REMARK INTER:                  -9.413
REMARK INTRA:                  -1.573
REMARK UNBOUND:                -2.085
REMARK SMILES O=c1c(O[C@H]2O[C@@H](CO)[C@@H](O)[C@@H](O)[C@H]2O)c(-c2ccc(O)cc2)oc2cc(O)cc(O)c12
REMARK SMILES IDX 4 1 3 2 16 3 24 4 2 5 25 6 1 7 32 8 26 9 30 10 27 11 29 12
REMARK SMILES IDX 17 13 18 14 19 15 20 16 23 17 22 18 21 19 31 21 28 23 5 25
REMARK SMILES IDX 14 26 6 27 12 28 7 29 10 30 15 31 13 33 8 35 9 36 11 38
REMARK H PARENT 21 20 31 22 28 24 15 32 13 34 9 37 11 39
REMARK Flexibility Score: inf
ROOT
ATOM      1  O   UNL     1     -37.984   5.706  78.020  1.00  0.00    -0.454 OA
ENDROOT
BRANCH   1   2
ATOM      2  C   UNL     1     -37.640   4.827  79.067  1.00  0.00     0.214 A 
ATOM      3  C   UNL     1     -38.570   4.102  79.850  1.00  0.00     0.180 A 
ATOM      4  O   UNL     1     -38.220   3.648  81.045  1.00  0.00    -0.452 OA
ATOM      5  C   UNL     1     -36.289   4.730  79.410  1.00  0.00     0.239 A 
ATOM      6  C   UNL     1     -36.977   3.758  81.517  1.00  0.00     0.146 A 
ATOM      7  O   UNL     1     -35.421   5.191  78.616  1.00  0.00    -0.285 OA
ATOM      8  C   UNL     1     -35.926   4.177  80.663  1.00  0.00     0.111 A 
ATOM      9  C   UNL     1     -36.734   3.427  82.846  1.00  0.00     0.094 A 
ATOM     10  C   UNL     1     -34.595   4.134  81.156  1.00  0.00     0.134 A 
ATOM     11  C   UNL     1     -35.437   3.555  83.362  1.00  0.00     0.123 A 
ATOM     12  C   UNL     1     -34.374   3.895  82.516  1.00  0.00     0.093 A 
BRANCH   3  13
ATOM     13  C   UNL     1     -39.872   3.709  79.326  1.00  0.00     0.021 A 
ATOM     14  C   UNL     1     -41.002   3.764  80.134  1.00  0.00     0.016 A 
ATOM     15  C   UNL     1     -42.239   3.382  79.630  1.00  0.00     0.047 A 
ATOM     16  C   UNL     1     -42.353   2.892  78.318  1.00  0.00     0.115 A 
ATOM     17  C   UNL     1     -39.961   3.166  78.029  1.00  0.00     0.016 A 
ATOM     18  C   UNL     1     -41.200   2.752  77.531  1.00  0.00     0.047 A 
BRANCH  16  19
ATOM     19  O   UNL     1     -43.616   2.566  77.797  1.00  0.00    -0.508 OA
ATOM     20  H   UNL     1     -44.435   3.156  78.052  1.00  0.00     0.293 HD
ENDBRANCH  16  19
ENDBRANCH   3  13
BRANCH  10  21
ATOM     21  O   UNL     1     -33.475   4.251  80.331  1.00  0.00    -0.507 OA
ATOM     22  H   UNL     1     -33.067   3.456  79.848  1.00  0.00     0.293 HD
ENDBRANCH  10  21
BRANCH  11  23
ATOM     23  O   UNL     1     -35.218   3.390  84.731  1.00  0.00    -0.508 OA
ATOM     24  H   UNL     1     -35.096   4.174  85.355  1.00  0.00     0.293 HD
ENDBRANCH  11  23
ENDBRANCH   1   2
BRANCH   1  25
ATOM     25  C   UNL     1     -38.809   6.880  78.121  1.00  0.00     0.339 C 
ATOM     26  C   UNL     1     -38.459   7.851  76.982  1.00  0.00     0.214 C 
ATOM     27  O   UNL     1     -38.741   7.459  79.428  1.00  0.00    -0.332 OA
ATOM     28  C   UNL     1     -37.159   8.584  77.227  1.00  0.00     0.180 C 
ATOM     29  C   UNL     1     -37.721   8.427  79.693  1.00  0.00     0.179 C 
ATOM     30  C   UNL     1     -37.319   9.369  78.519  1.00  0.00     0.177 C 
BRANCH  26  31
ATOM     31  O   UNL     1     -38.395   7.168  75.752  1.00  0.00    -0.384 OA
ATOM     32  H   UNL     1     -39.254   6.665  75.656  1.00  0.00     0.211 HD
ENDBRANCH  26  31
BRANCH  28  33
ATOM     33  O   UNL     1     -36.085   7.673  77.308  1.00  0.00    -0.387 OA
ATOM     34  H   UNL     1     -35.735   7.536  76.386  1.00  0.00     0.211 HD
ENDBRANCH  28  33
BRANCH  29  35
ATOM     35  C   UNL     1     -36.557   7.852  80.507  1.00  0.00     0.191 C 
BRANCH  35  36
ATOM     36  O   UNL     1     -35.340   7.957  79.840  1.00  0.00    -0.394 OA
ATOM     37  H   UNL     1     -35.429   7.506  78.957  1.00  0.00     0.210 HD
ENDBRANCH  35  36
ENDBRANCH  29  35
BRANCH  30  38
ATOM     38  O   UNL     1     -36.159  10.124  78.784  1.00  0.00    -0.387 OA
ATOM     39  H   UNL     1     -35.601   9.560  79.381  1.00  0.00     0.211 HD
ENDBRANCH  30  38
ENDBRANCH   1  25
TORSDOF 11
ENDMDL
MODEL 4
REMARK VINA RESULT:    -6.052      2.141      6.326
REMARK INTER + INTRA:         -10.789
REMARK INTER:                  -8.962
REMARK INTRA:                  -1.828
REMARK UNBOUND:                -2.085
REMARK SMILES O=c1c(O[C@H]2O[C@@H](CO)[C@@H](O)[C@@H](O)[C@H]2O)c(-c2ccc(O)cc2)oc2cc(O)cc(O)c12
REMARK SMILES IDX 4 1 3 2 16 3 24 4 2 5 25 6 1 7 32 8 26 9 30 10 27 11 29 12
REMARK SMILES IDX 17 13 18 14 19 15 20 16 23 17 22 18 21 19 31 21 28 23 5 25
REMARK SMILES IDX 14 26 6 27 12 28 7 29 10 30 15 31 13 33 8 35 9 36 11 38
REMARK H PARENT 21 20 31 22 28 24 15 32 13 34 9 37 11 39
REMARK Flexibility Score: inf
ROOT
ATOM      1  O   UNL     1     -37.520   4.790  81.922  1.00  0.00    -0.454 OA
ENDROOT
BRANCH   1   2
ATOM      2  C   UNL     1     -37.270   5.611  80.803  1.00  0.00     0.214 A 
ATOM      3  C   UNL     1     -37.628   5.290  79.471  1.00  0.00     0.180 A 
ATOM      4  O   UNL     1     -37.007   5.876  78.458  1.00  0.00    -0.452 OA
ATOM      5  C   UNL     1     -36.542   6.785  81.014  1.00  0.00     0.239 A 
ATOM      6  C   UNL     1     -36.110   6.849  78.634  1.00  0.00     0.146 A 
ATOM      7  O   UNL     1     -36.388   7.205  82.195  1.00  0.00    -0.285 OA
ATOM      8  C   UNL     1     -35.943   7.440  79.910  1.00  0.00     0.111 A 
ATOM      9  C   UNL     1     -35.370   7.282  77.539  1.00  0.00     0.094 A 
ATOM     10  C   UNL     1     -35.094   8.573  80.026  1.00  0.00     0.134 A 
ATOM     11  C   UNL     1     -34.410   8.289  77.711  1.00  0.00     0.123 A 
ATOM     12  C   UNL     1     -34.284   8.937  78.946  1.00  0.00     0.093 A 
BRANCH   3  13
ATOM     13  C   UNL     1     -38.765   4.430  79.169  1.00  0.00     0.021 A 
ATOM     14  C   UNL     1     -38.600   3.295  78.384  1.00  0.00     0.016 A 
ATOM     15  C   UNL     1     -39.690   2.482  78.094  1.00  0.00     0.047 A 
ATOM     16  C   UNL     1     -40.975   2.826  78.549  1.00  0.00     0.115 A 
ATOM     17  C   UNL     1     -40.055   4.817  79.583  1.00  0.00     0.016 A 
ATOM     18  C   UNL     1     -41.157   4.018  79.265  1.00  0.00     0.047 A 
BRANCH  16  19
ATOM     19  O   UNL     1     -42.059   1.967  78.303  1.00  0.00    -0.508 OA
ATOM     20  H   UNL     1     -42.194   1.586  77.344  1.00  0.00     0.293 HD
ENDBRANCH  16  19
ENDBRANCH   3  13
BRANCH  10  21
ATOM     21  O   UNL     1     -35.073   9.395  81.154  1.00  0.00    -0.507 OA
ATOM     22  H   UNL     1     -34.346  10.087  81.312  1.00  0.00     0.293 HD
ENDBRANCH  10  21
BRANCH  11  23
ATOM     23  O   UNL     1     -33.548   8.610  76.660  1.00  0.00    -0.508 OA
ATOM     24  H   UNL     1     -33.887   8.931  75.766  1.00  0.00     0.293 HD
ENDBRANCH  11  23
ENDBRANCH   1   2
BRANCH   1  25
ATOM     25  C   UNL     1     -38.317   5.125  83.071  1.00  0.00     0.339 C 
ATOM     26  C   UNL     1     -37.537   4.786  84.351  1.00  0.00     0.214 C 
ATOM     27  O   UNL     1     -39.617   4.530  83.001  1.00  0.00    -0.332 OA
ATOM     28  C   UNL     1     -37.513   3.302  84.638  1.00  0.00     0.180 C 
ATOM     29  C   UNL     1     -39.796   3.217  83.541  1.00  0.00     0.179 C 
ATOM     30  C   UNL     1     -38.956   2.850  84.800  1.00  0.00     0.177 C 
BRANCH  26  31
ATOM     31  O   UNL     1     -36.219   5.276  84.271  1.00  0.00    -0.384 OA
ATOM     32  H   UNL     1     -35.614   4.517  84.517  1.00  0.00     0.211 HD
ENDBRANCH  26  31
BRANCH  28  33
ATOM     33  O   UNL     1     -36.871   2.607  83.592  1.00  0.00    -0.387 OA
ATOM     34  H   UNL     1     -35.892   2.771  83.677  1.00  0.00     0.211 HD
ENDBRANCH  28  33
BRANCH  29  35
ATOM     35  C   UNL     1     -39.866   2.137  82.456  1.00  0.00     0.191 C 
BRANCH  35  36
ATOM     36  O   UNL     1     -38.744   2.136  81.633  1.00  0.00    -0.394 OA
ATOM     37  H   UNL     1     -38.909   2.768  80.881  1.00  0.00     0.210 HD
ENDBRANCH  35  36
ENDBRANCH  29  35
BRANCH  30  38
ATOM     38  O   UNL     1     -39.010   1.479  85.125  1.00  0.00    -0.387 OA
ATOM     39  H   UNL     1     -38.067   1.169  85.139  1.00  0.00     0.211 HD
ENDBRANCH  30  38
ENDBRANCH   1  25
TORSDOF 11
ENDMDL
MODEL 5
REMARK VINA RESULT:    -5.856      2.272      7.522
REMARK INTER + INTRA:         -10.508
REMARK INTER:                  -8.917
REMARK INTRA:                  -1.591
REMARK UNBOUND:                -2.085
REMARK SMILES O=c1c(O[C@H]2O[C@@H](CO)[C@@H](O)[C@@H](O)[C@H]2O)c(-c2ccc(O)cc2)oc2cc(O)cc(O)c12
REMARK SMILES IDX 4 1 3 2 16 3 24 4 2 5 25 6 1 7 32 8 26 9 30 10 27 11 29 12
REMARK SMILES IDX 17 13 18 14 19 15 20 16 23 17 22 18 21 19 31 21 28 23 5 25
REMARK SMILES IDX 14 26 6 27 12 28 7 29 10 30 15 31 13 33 8 35 9 36 11 38
REMARK H PARENT 21 20 31 22 28 24 15 32 13 34 9 37 11 39
REMARK Flexibility Score: inf
ROOT
ATOM      1  O   UNL     1     -37.610   5.631  79.874  1.00  0.00    -0.454 OA
ENDROOT
BRANCH   1   2
ATOM      2  C   UNL     1     -36.382   5.827  80.539  1.00  0.00     0.214 A 
ATOM      3  C   UNL     1     -36.197   5.722  81.939  1.00  0.00     0.180 A 
ATOM      4  O   UNL     1     -35.163   6.316  82.517  1.00  0.00    -0.452 OA
ATOM      5  C   UNL     1     -35.290   6.236  79.769  1.00  0.00     0.239 A 
ATOM      6  C   UNL     1     -34.212   6.940  81.819  1.00  0.00     0.146 A 
ATOM      7  O   UNL     1     -35.358   6.141  78.512  1.00  0.00    -0.285 OA
ATOM      8  C   UNL     1     -34.161   6.805  80.409  1.00  0.00     0.111 A 
ATOM      9  C   UNL     1     -33.265   7.694  82.503  1.00  0.00     0.094 A 
ATOM     10  C   UNL     1     -33.049   7.353  79.716  1.00  0.00     0.134 A 
ATOM     11  C   UNL     1     -32.270   8.370  81.783  1.00  0.00     0.123 A 
ATOM     12  C   UNL     1     -32.158   8.189  80.399  1.00  0.00     0.093 A 
BRANCH   3  13
ATOM     13  C   UNL     1     -37.034   4.858  82.760  1.00  0.00     0.021 A 
ATOM     14  C   UNL     1     -37.944   5.406  83.657  1.00  0.00     0.016 A 
ATOM     15  C   UNL     1     -38.736   4.575  84.442  1.00  0.00     0.047 A 
ATOM     16  C   UNL     1     -38.590   3.179  84.373  1.00  0.00     0.115 A 
ATOM     17  C   UNL     1     -36.837   3.463  82.722  1.00  0.00     0.016 A 
ATOM     18  C   UNL     1     -37.610   2.628  83.534  1.00  0.00     0.047 A 
BRANCH  16  19
ATOM     19  O   UNL     1     -39.436   2.347  85.125  1.00  0.00    -0.508 OA
ATOM     20  H   UNL     1     -39.797   1.472  84.693  1.00  0.00     0.293 HD
ENDBRANCH  16  19
ENDBRANCH   3  13
BRANCH  10  21
ATOM     21  O   UNL     1     -32.754   7.044  78.387  1.00  0.00    -0.507 OA
ATOM     22  H   UNL     1     -33.030   6.166  77.957  1.00  0.00     0.293 HD
ENDBRANCH  10  21
BRANCH  11  23
ATOM     23  O   UNL     1     -31.423   9.262  82.443  1.00  0.00    -0.508 OA
ATOM     24  H   UNL     1     -30.420   9.156  82.436  1.00  0.00     0.293 HD
ENDBRANCH  11  23
ENDBRANCH   1   2
BRANCH   1  25
ATOM     25  C   UNL     1     -37.906   4.616  78.899  1.00  0.00     0.339 C 
ATOM     26  C   UNL     1     -38.799   5.208  77.798  1.00  0.00     0.214 C 
ATOM     27  O   UNL     1     -38.434   3.436  79.513  1.00  0.00    -0.332 OA
ATOM     28  C   UNL     1     -40.233   5.379  78.247  1.00  0.00     0.180 C 
ATOM     29  C   UNL     1     -39.849   3.344  79.708  1.00  0.00     0.179 C 
ATOM     30  C   UNL     1     -40.755   4.002  78.625  1.00  0.00     0.177 C 
BRANCH  26  31
ATOM     31  O   UNL     1     -38.289   6.445  77.360  1.00  0.00    -0.384 OA
ATOM     32  H   UNL     1     -37.302   6.424  77.520  1.00  0.00     0.211 HD
ENDBRANCH  26  31
BRANCH  28  33
ATOM     33  O   UNL     1     -40.307   6.273  79.336  1.00  0.00    -0.387 OA
ATOM     34  H   UNL     1     -41.059   6.903  79.158  1.00  0.00     0.211 HD
ENDBRANCH  28  33
BRANCH  29  35
ATOM     35  C   UNL     1     -40.264   3.599  81.160  1.00  0.00     0.191 C 
BRANCH  35  36
ATOM     36  O   UNL     1     -41.278   2.743  81.582  1.00  0.00    -0.394 OA
ATOM     37  H   UNL     1     -40.979   1.806  81.425  1.00  0.00     0.210 HD
ENDBRANCH  35  36
ENDBRANCH  29  35
BRANCH  30  38
ATOM     38  O   UNL     1     -42.111   4.075  79.004  1.00  0.00    -0.387 OA
ATOM     39  H   UNL     1     -42.404   3.135  79.133  1.00  0.00     0.211 HD
ENDBRANCH  30  38
ENDBRANCH   1  25
TORSDOF 11
ENDMDL
MODEL 6
REMARK VINA RESULT:    -5.807      2.056      5.855
REMARK INTER + INTRA:         -10.437
REMARK INTER:                  -8.871
REMARK INTRA:                  -1.566
REMARK UNBOUND:                -2.085
REMARK SMILES O=c1c(O[C@H]2O[C@@H](CO)[C@@H](O)[C@@H](O)[C@H]2O)c(-c2ccc(O)cc2)oc2cc(O)cc(O)c12
REMARK SMILES IDX 4 1 3 2 16 3 24 4 2 5 25 6 1 7 32 8 26 9 30 10 27 11 29 12
REMARK SMILES IDX 17 13 18 14 19 15 20 16 23 17 22 18 21 19 31 21 28 23 5 25
REMARK SMILES IDX 14 26 6 27 12 28 7 29 10 30 15 31 13 33 8 35 9 36 11 38
REMARK H PARENT 21 20 31 22 28 24 15 32 13 34 9 37 11 39
REMARK Flexibility Score: inf
ROOT
ATOM      1  O   UNL     1     -38.621   5.181  81.841  1.00  0.00    -0.454 OA
ENDROOT
BRANCH   1   2
ATOM      2  C   UNL     1     -38.111   5.823  80.693  1.00  0.00     0.214 A 
ATOM      3  C   UNL     1     -38.165   5.291  79.382  1.00  0.00     0.180 A 
ATOM      4  O   UNL     1     -37.323   5.725  78.456  1.00  0.00    -0.452 OA
ATOM      5  C   UNL     1     -37.431   7.029  80.876  1.00  0.00     0.239 A 
ATOM      6  C   UNL     1     -36.472   6.731  78.674  1.00  0.00     0.146 A 
ATOM      7  O   UNL     1     -37.540   7.631  81.981  1.00  0.00    -0.285 OA
ATOM      8  C   UNL     1     -36.588   7.517  79.847  1.00  0.00     0.111 A 
ATOM      9  C   UNL     1     -35.498   7.002  77.720  1.00  0.00     0.094 A 
ATOM     10  C   UNL     1     -35.769   8.670  79.973  1.00  0.00     0.134 A 
ATOM     11  C   UNL     1     -34.585   8.043  77.944  1.00  0.00     0.123 A 
ATOM     12  C   UNL     1     -34.730   8.878  79.059  1.00  0.00     0.093 A 
BRANCH   3  13
ATOM     13  C   UNL     1     -39.219   4.373  78.969  1.00  0.00     0.021 A 
ATOM     14  C   UNL     1     -38.899   3.149  78.393  1.00  0.00     0.016 A 
ATOM     15  C   UNL     1     -39.909   2.280  77.996  1.00  0.00     0.047 A 
ATOM     16  C   UNL     1     -41.259   2.649  78.128  1.00  0.00     0.115 A 
ATOM     17  C   UNL     1     -40.565   4.780  79.054  1.00  0.00     0.016 A 
ATOM     18  C   UNL     1     -41.581   3.921  78.626  1.00  0.00     0.047 A 
BRANCH  16  19
ATOM     19  O   UNL     1     -42.272   1.740  77.781  1.00  0.00    -0.508 OA
ATOM     20  H   UNL     1     -42.493   0.958  78.430  1.00  0.00     0.293 HD
ENDBRANCH  16  19
ENDBRANCH   3  13
BRANCH  10  21
ATOM     21  O   UNL     1     -35.990   9.658  80.934  1.00  0.00    -0.507 OA
ATOM     22  H   UNL     1     -35.568  10.581  80.875  1.00  0.00     0.293 HD
ENDBRANCH  10  21
BRANCH  11  23
ATOM     23  O   UNL     1     -33.504   8.212  77.078  1.00  0.00    -0.508 OA
ATOM     24  H   UNL     1     -33.295   7.554  76.342  1.00  0.00     0.293 HD
ENDBRANCH  11  23
ENDBRANCH   1   2
BRANCH   1  25
ATOM     25  C   UNL     1     -38.415   3.810  82.221  1.00  0.00     0.339 C 
ATOM     26  C   UNL     1     -38.520   3.680  83.748  1.00  0.00     0.214 C 
ATOM     27  O   UNL     1     -37.200   3.289  81.670  1.00  0.00    -0.332 OA
ATOM     28  C   UNL     1     -37.290   4.197  84.459  1.00  0.00     0.180 C 
ATOM     29  C   UNL     1     -35.991   3.443  82.418  1.00  0.00     0.179 C 
ATOM     30  C   UNL     1     -36.107   3.377  83.970  1.00  0.00     0.177 C 
BRANCH  26  31
ATOM     31  O   UNL     1     -39.662   4.353  84.224  1.00  0.00    -0.384 OA
ATOM     32  H   UNL     1     -40.321   4.373  83.470  1.00  0.00     0.211 HD
ENDBRANCH  26  31
BRANCH  28  33
ATOM     33  O   UNL     1     -37.108   5.571  84.194  1.00  0.00    -0.387 OA
ATOM     34  H   UNL     1     -36.942   6.027  85.064  1.00  0.00     0.211 HD
ENDBRANCH  28  33
BRANCH  29  35
ATOM     35  C   UNL     1     -35.094   4.557  81.870  1.00  0.00     0.191 C 
BRANCH  35  36
ATOM     36  O   UNL     1     -33.745   4.215  81.893  1.00  0.00    -0.394 OA
ATOM     37  H   UNL     1     -33.542   3.696  81.068  1.00  0.00     0.210 HD
ENDBRANCH  35  36
ENDBRANCH  29  35
BRANCH  30  38
ATOM     38  O   UNL     1     -34.927   3.769  84.634  1.00  0.00    -0.387 OA
ATOM     39  H   UNL     1     -34.317   2.988  84.581  1.00  0.00     0.211 HD
ENDBRANCH  30  38
ENDBRANCH   1  25
TORSDOF 11
ENDMDL
MODEL 7
REMARK VINA RESULT:    -5.768      2.892      4.814
REMARK INTER + INTRA:         -10.382
REMARK INTER:                  -8.507
REMARK INTRA:                  -1.875
REMARK UNBOUND:                -2.085
REMARK SMILES O=c1c(O[C@H]2O[C@@H](CO)[C@@H](O)[C@@H](O)[C@H]2O)c(-c2ccc(O)cc2)oc2cc(O)cc(O)c12
REMARK SMILES IDX 4 1 3 2 16 3 24 4 2 5 25 6 1 7 32 8 26 9 30 10 27 11 29 12
REMARK SMILES IDX 17 13 18 14 19 15 20 16 23 17 22 18 21 19 31 21 28 23 5 25
REMARK SMILES IDX 14 26 6 27 12 28 7 29 10 30 15 31 13 33 8 35 9 36 11 38
REMARK H PARENT 21 20 31 22 28 24 15 32 13 34 9 37 11 39
REMARK Flexibility Score: inf
ROOT
ATOM      1  O   UNL     1     -38.338   6.052  79.878  1.00  0.00    -0.454 OA
ENDROOT
BRANCH   1   2
ATOM      2  C   UNL     1     -38.001   5.354  81.057  1.00  0.00     0.214 A 
ATOM      3  C   UNL     1     -36.720   4.821  81.340  1.00  0.00     0.180 A 
ATOM      4  O   UNL     1     -36.590   3.846  82.228  1.00  0.00    -0.452 OA
ATOM      5  C   UNL     1     -39.027   5.098  81.971  1.00  0.00     0.239 A 
ATOM      6  C   UNL     1     -37.614   3.399  82.958  1.00  0.00     0.146 A 
ATOM      7  O   UNL     1     -40.118   5.725  81.857  1.00  0.00    -0.285 OA
ATOM      8  C   UNL     1     -38.845   4.101  82.961  1.00  0.00     0.111 A 
ATOM      9  C   UNL     1     -37.438   2.255  83.729  1.00  0.00     0.094 A 
ATOM     10  C   UNL     1     -39.859   3.686  83.864  1.00  0.00     0.134 A 
ATOM     11  C   UNL     1     -38.510   1.762  84.486  1.00  0.00     0.123 A 
ATOM     12  C   UNL     1     -39.708   2.482  84.560  1.00  0.00     0.093 A 
BRANCH   3  13
ATOM     13  C   UNL     1     -35.507   5.407  80.788  1.00  0.00     0.021 A 
ATOM     14  C   UNL     1     -34.640   4.637  80.020  1.00  0.00     0.016 A 
ATOM     15  C   UNL     1     -33.480   5.201  79.501  1.00  0.00     0.047 A 
ATOM     16  C   UNL     1     -33.149   6.537  79.785  1.00  0.00     0.115 A 
ATOM     17  C   UNL     1     -35.159   6.729  81.128  1.00  0.00     0.016 A 
ATOM     18  C   UNL     1     -33.977   7.288  80.632  1.00  0.00     0.047 A 
BRANCH  16  19
ATOM     19  O   UNL     1     -32.007   7.116  79.206  1.00  0.00    -0.508 OA
ATOM     20  H   UNL     1     -31.343   6.508  78.684  1.00  0.00     0.293 HD
ENDBRANCH  16  19
ENDBRANCH   3  13
BRANCH  10  21
ATOM     21  O   UNL     1     -40.985   4.460  84.150  1.00  0.00    -0.507 OA
ATOM     22  H   UNL     1     -40.951   5.474  84.205  1.00  0.00     0.293 HD
ENDBRANCH  10  21
BRANCH  11  23
ATOM     23  O   UNL     1     -38.394   0.526  85.125  1.00  0.00    -0.508 OA
ATOM     24  H   UNL     1     -38.693   0.383  86.078  1.00  0.00     0.293 HD
ENDBRANCH  11  23
ENDBRANCH   1   2
BRANCH   1  25
ATOM     25  C   UNL     1     -38.726   7.433  79.780  1.00  0.00     0.339 C 
ATOM     26  C   UNL     1     -39.928   7.561  78.831  1.00  0.00     0.214 C 
ATOM     27  O   UNL     1     -37.615   8.267  79.436  1.00  0.00    -0.332 OA
ATOM     28  C   UNL     1     -39.533   7.433  77.377  1.00  0.00     0.180 C 
ATOM     29  C   UNL     1     -37.327   8.483  78.051  1.00  0.00     0.179 C 
ATOM     30  C   UNL     1     -38.542   8.546  77.079  1.00  0.00     0.177 C 
BRANCH  26  31
ATOM     31  O   UNL     1     -40.908   6.599  79.143  1.00  0.00    -0.384 OA
ATOM     32  H   UNL     1     -41.758   7.098  79.314  1.00  0.00     0.211 HD
ENDBRANCH  26  31
BRANCH  28  33
ATOM     33  O   UNL     1     -38.970   6.163  77.128  1.00  0.00    -0.387 OA
ATOM     34  H   UNL     1     -37.994   6.291  76.978  1.00  0.00     0.211 HD
ENDBRANCH  28  33
BRANCH  29  35
ATOM     35  C   UNL     1     -36.131   7.660  77.561  1.00  0.00     0.191 C 
BRANCH  35  36
ATOM     36  O   UNL     1     -36.349   6.289  77.671  1.00  0.00    -0.394 OA
ATOM     37  H   UNL     1     -35.942   5.978  78.526  1.00  0.00     0.210 HD
ENDBRANCH  35  36
ENDBRANCH  29  35
BRANCH  30  38
ATOM     38  O   UNL     1     -38.168   8.524  75.719  1.00  0.00    -0.387 OA
ATOM     39  H   UNL     1     -38.900   8.985  75.233  1.00  0.00     0.211 HD
ENDBRANCH  30  38
ENDBRANCH   1  25
TORSDOF 11
ENDMDL
MODEL 8
REMARK VINA RESULT:    -5.675      2.893      6.624
REMARK INTER + INTRA:         -10.248
REMARK INTER:                  -8.877
REMARK INTRA:                  -1.371
REMARK UNBOUND:                -2.085
REMARK SMILES O=c1c(O[C@H]2O[C@@H](CO)[C@@H](O)[C@@H](O)[C@H]2O)c(-c2ccc(O)cc2)oc2cc(O)cc(O)c12
REMARK SMILES IDX 4 1 3 2 16 3 24 4 2 5 25 6 1 7 32 8 26 9 30 10 27 11 29 12
REMARK SMILES IDX 17 13 18 14 19 15 20 16 23 17 22 18 21 19 31 21 28 23 5 25
REMARK SMILES IDX 14 26 6 27 12 28 7 29 10 30 15 31 13 33 8 35 9 36 11 38
REMARK H PARENT 21 20 31 22 28 24 15 32 13 34 9 37 11 39
REMARK Flexibility Score: inf
ROOT
ATOM      1  O   UNL     1     -38.153   6.915  78.480  1.00  0.00    -0.454 OA
ENDROOT
BRANCH   1   2
ATOM      2  C   UNL     1     -37.470   5.855  79.112  1.00  0.00     0.214 A 
ATOM      3  C   UNL     1     -38.098   4.765  79.762  1.00  0.00     0.180 A 
ATOM      4  O   UNL     1     -37.434   4.063  80.669  1.00  0.00    -0.452 OA
ATOM      5  C   UNL     1     -36.076   5.931  79.172  1.00  0.00     0.239 A 
ATOM      6  C   UNL     1     -36.142   4.273  80.934  1.00  0.00     0.146 A 
ATOM      7  O   UNL     1     -35.476   6.764  78.436  1.00  0.00    -0.285 OA
ATOM      8  C   UNL     1     -35.374   5.121  80.098  1.00  0.00     0.111 A 
ATOM      9  C   UNL     1     -35.569   3.626  82.023  1.00  0.00     0.094 A 
ATOM     10  C   UNL     1     -33.973   5.199  80.318  1.00  0.00     0.134 A 
ATOM     11  C   UNL     1     -34.219   3.851  82.326  1.00  0.00     0.123 A 
ATOM     12  C   UNL     1     -33.425   4.624  81.469  1.00  0.00     0.093 A 
BRANCH   3  13
ATOM     13  C   UNL     1     -39.418   4.293  79.367  1.00  0.00     0.021 A 
ATOM     14  C   UNL     1     -40.438   4.189  80.305  1.00  0.00     0.016 A 
ATOM     15  C   UNL     1     -41.694   3.732  79.922  1.00  0.00     0.047 A 
ATOM     16  C   UNL     1     -41.931   3.326  78.598  1.00  0.00     0.115 A 
ATOM     17  C   UNL     1     -39.624   3.836  78.050  1.00  0.00     0.016 A 
ATOM     18  C   UNL     1     -40.877   3.347  77.671  1.00  0.00     0.047 A 
BRANCH  16  19
ATOM     19  O   UNL     1     -43.219   2.924  78.207  1.00  0.00    -0.508 OA
ATOM     20  H   UNL     1     -43.340   1.998  77.749  1.00  0.00     0.293 HD
ENDBRANCH  16  19
ENDBRANCH   3  13
BRANCH  10  21
ATOM     21  O   UNL     1     -33.090   5.769  79.399  1.00  0.00    -0.507 OA
ATOM     22  H   UNL     1     -32.243   5.299  79.092  1.00  0.00     0.293 HD
ENDBRANCH  10  21
BRANCH  11  23
ATOM     23  O   UNL     1     -33.681   3.342  83.509  1.00  0.00    -0.508 OA
ATOM     24  H   UNL     1     -34.055   2.520  83.960  1.00  0.00     0.293 HD
ENDBRANCH  11  23
ENDBRANCH   1   2
BRANCH   1  25
ATOM     25  C   UNL     1     -38.140   8.299  78.871  1.00  0.00     0.339 C 
ATOM     26  C   UNL     1     -39.343   8.584  79.783  1.00  0.00     0.214 C 
ATOM     27  O   UNL     1     -38.046   9.165  77.735  1.00  0.00    -0.332 OA
ATOM     28  C   UNL     1     -40.642   8.679  79.015  1.00  0.00     0.180 C 
ATOM     29  C   UNL     1     -39.255   9.589  77.099  1.00  0.00     0.179 C 
ATOM     30  C   UNL     1     -40.494   9.815  78.015  1.00  0.00     0.177 C 
BRANCH  26  31
ATOM     31  O   UNL     1     -39.452   7.596  80.781  1.00  0.00    -0.384 OA
ATOM     32  H   UNL     1     -38.566   7.555  81.245  1.00  0.00     0.211 HD
ENDBRANCH  26  31
BRANCH  28  33
ATOM     33  O   UNL     1     -40.922   7.457  78.367  1.00  0.00    -0.387 OA
ATOM     34  H   UNL     1     -40.052   7.039  78.123  1.00  0.00     0.211 HD
ENDBRANCH  28  33
BRANCH  29  35
ATOM     35  C   UNL     1     -39.530   8.839  75.791  1.00  0.00     0.191 C 
BRANCH  35  36
ATOM     36  O   UNL     1     -39.183   7.493  75.867  1.00  0.00    -0.394 OA
ATOM     37  H   UNL     1     -39.965   6.991  76.225  1.00  0.00     0.210 HD
ENDBRANCH  35  36
ENDBRANCH  29  35
BRANCH  30  38
ATOM     38  O   UNL     1     -41.692   9.998  77.297  1.00  0.00    -0.387 OA
ATOM     39  H   UNL     1     -41.761   9.219  76.686  1.00  0.00     0.211 HD
ENDBRANCH  30  38
ENDBRANCH   1  25
TORSDOF 11
ENDMDL
