MODEL 1
REMARK VINA RESULT:    -5.976      0.000      0.000
REMARK INTER + INTRA:          -8.830
REMARK INTER:                  -8.071
REMARK INTRA:                  -0.759
REMARK UNBOUND:                -0.759
REMARK SMILES CC(=O)CCC=C(C)CCC=C(C)C
REMARK SMILES IDX 7 1 6 2 8 3 9 4 10 5 11 6 13 7 12 8 14 9 5 10 4 11 2 12 3 13
REMARK SMILES IDX 1 14
REMARK H PARENT
REMARK Flexibility Score: inf
ROOT
ATOM      1  C   UNL     1      10.905  31.756  74.411  1.00  0.00    -0.077 C 
ATOM      2  C   UNL     1      10.018  30.732  74.415  1.00  0.00    -0.028 C 
ATOM      3  C   UNL     1      11.111  32.506  75.704  1.00  0.00     0.039 C 
ENDROOT
BRANCH   1   4
ATOM      4  C   UNL     1      11.633  32.234  73.163  1.00  0.00     0.034 C 
BRANCH   4   5
ATOM      5  C   UNL     1      10.880  33.354  72.425  1.00  0.00     0.032 C 
BRANCH   5   6
ATOM      6  C   UNL     1      11.439  34.721  72.745  1.00  0.00    -0.028 C 
ATOM      7  C   UNL     1      11.627  37.184  72.597  1.00  0.00     0.039 C 
ATOM      8  C   UNL     1      10.943  35.883  72.264  1.00  0.00    -0.080 C 
ATOM      9  C   UNL     1       9.751  35.923  71.339  1.00  0.00     0.039 C 
ENDBRANCH   5   6
ENDBRANCH   4   5
ENDBRANCH   1   4
BRANCH   2  10
ATOM     10  C   UNL     1       9.576  29.938  73.208  1.00  0.00     0.035 C 
BRANCH  10  11
ATOM     11  C   UNL     1      10.179  28.528  73.153  1.00  0.00     0.079 C 
BRANCH  11  12
ATOM     12  C   UNL     1      11.638  28.547  72.769  1.00  0.00     0.130 C 
ATOM     13  O   UNL     1      11.978  29.060  71.714  1.00  0.00    -0.300 OA
ATOM     14  C   UNL     1      12.684  27.930  73.649  1.00  0.00     0.087 C 
ENDBRANCH  11  12
ENDBRANCH  10  11
ENDBRANCH   2  10
TORSDOF 6
ENDMDL
MODEL 2
REMARK VINA RESULT:    -5.961      1.548      1.935
REMARK INTER + INTRA:          -8.811
REMARK INTER:                  -8.173
REMARK INTRA:                  -0.638
REMARK UNBOUND:                -0.759
REMARK SMILES CC(=O)CCC=C(C)CCC=C(C)C
REMARK SMILES IDX 7 1 6 2 8 3 9 4 10 5 11 6 13 7 12 8 14 9 5 10 4 11 2 12 3 13
REMARK SMILES IDX 1 14
REMARK H PARENT
REMARK Flexibility Score: inf
ROOT
ATOM      1  C   UNL     1      10.787  31.074  74.249  1.00  0.00    -0.077 C 
ATOM      2  C   UNL     1       9.872  30.080  74.347  1.00  0.00    -0.028 C 
ATOM      3  C   UNL     1      10.850  32.076  75.376  1.00  0.00     0.039 C 
ENDROOT
BRANCH   1   4
ATOM      4  C   UNL     1      11.687  31.275  73.039  1.00  0.00     0.034 C 
BRANCH   4   5
ATOM      5  C   UNL     1      12.041  32.752  72.797  1.00  0.00     0.032 C 
BRANCH   5   6
ATOM      6  C   UNL     1      10.939  33.490  72.072  1.00  0.00    -0.028 C 
ATOM      7  C   UNL     1       9.561  35.441  71.428  1.00  0.00     0.039 C 
ATOM      8  C   UNL     1      10.737  34.825  72.141  1.00  0.00    -0.080 C 
ATOM      9  C   UNL     1      11.619  35.726  72.969  1.00  0.00     0.039 C 
ENDBRANCH   5   6
ENDBRANCH   4   5
ENDBRANCH   1   4
BRANCH   2  10
ATOM     10  C   UNL     1       9.563  29.054  73.281  1.00  0.00     0.035 C 
BRANCH  10  11
ATOM     11  C   UNL     1       9.468  27.622  73.825  1.00  0.00     0.079 C 
BRANCH  11  12
ATOM     12  C   UNL     1      10.785  27.133  74.375  1.00  0.00     0.130 C 
ATOM     13  O   UNL     1      10.795  26.380  75.337  1.00  0.00    -0.300 OA
ATOM     14  C   UNL     1      12.090  27.569  73.778  1.00  0.00     0.087 C 
ENDBRANCH  11  12
ENDBRANCH  10  11
ENDBRANCH   2  10
TORSDOF 6
ENDMDL
MODEL 3
REMARK VINA RESULT:    -5.931      1.824      2.645
REMARK INTER + INTRA:          -8.770
REMARK INTER:                  -7.750
REMARK INTRA:                  -1.020
REMARK UNBOUND:                -0.759
REMARK SMILES CC(=O)CCC=C(C)CCC=C(C)C
REMARK SMILES IDX 7 1 6 2 8 3 9 4 10 5 11 6 13 7 12 8 14 9 5 10 4 11 2 12 3 13
REMARK SMILES IDX 1 14
REMARK H PARENT
REMARK Flexibility Score: inf
ROOT
ATOM      1  C   UNL     1      10.299  30.589  73.762  1.00  0.00    -0.077 C 
ATOM      2  C   UNL     1      11.236  29.693  74.155  1.00  0.00    -0.028 C 
ATOM      3  C   UNL     1       9.568  31.351  74.839  1.00  0.00     0.039 C 
ENDROOT
BRANCH   1   4
ATOM      4  C   UNL     1       9.895  30.802  72.310  1.00  0.00     0.034 C 
BRANCH   4   5
ATOM      5  C   UNL     1      10.834  31.767  71.566  1.00  0.00     0.032 C 
BRANCH   5   6
ATOM      6  C   UNL     1      10.409  33.209  71.724  1.00  0.00    -0.028 C 
ATOM      7  C   UNL     1      10.466  35.498  72.662  1.00  0.00     0.039 C 
ATOM      8  C   UNL     1      11.021  34.103  72.532  1.00  0.00    -0.080 C 
ATOM      9  C   UNL     1      12.220  33.735  73.371  1.00  0.00     0.039 C 
ENDBRANCH   5   6
ENDBRANCH   4   5
ENDBRANCH   1   4
BRANCH   2  10
ATOM     10  C   UNL     1      11.989  28.744  73.252  1.00  0.00     0.035 C 
BRANCH  10  11
ATOM     11  C   UNL     1      12.253  27.375  73.892  1.00  0.00     0.079 C 
BRANCH  11  12
ATOM     12  C   UNL     1      10.976  26.668  74.273  1.00  0.00     0.130 C 
ATOM     13  O   UNL     1      10.843  26.228  75.405  1.00  0.00    -0.300 OA
ATOM     14  C   UNL     1       9.867  26.472  73.281  1.00  0.00     0.087 C 
ENDBRANCH  11  12
ENDBRANCH  10  11
ENDBRANCH   2  10
TORSDOF 6
ENDMDL
MODEL 4
REMARK VINA RESULT:    -5.849      2.503      4.122
REMARK INTER + INTRA:          -8.659
REMARK INTER:                  -7.508
REMARK INTRA:                  -1.151
REMARK UNBOUND:                -0.759
REMARK SMILES CC(=O)CCC=C(C)CCC=C(C)C
REMARK SMILES IDX 7 1 6 2 8 3 9 4 10 5 11 6 13 7 12 8 14 9 5 10 4 11 2 12 3 13
REMARK SMILES IDX 1 14
REMARK H PARENT
REMARK Flexibility Score: inf
ROOT
ATOM      1  C   UNL     1      10.904  28.849  72.679  1.00  0.00    -0.077 C 
ATOM      2  C   UNL     1      11.248  27.960  73.642  1.00  0.00    -0.028 C 
ATOM      3  C   UNL     1      12.009  29.393  71.807  1.00  0.00     0.039 C 
ENDROOT
BRANCH   1   4
ATOM      4  C   UNL     1       9.491  29.380  72.489  1.00  0.00     0.034 C 
BRANCH   4   5
ATOM      5  C   UNL     1       9.386  30.896  72.728  1.00  0.00     0.032 C 
BRANCH   5   6
ATOM      6  C   UNL     1       9.775  31.277  74.137  1.00  0.00    -0.028 C 
ATOM      7  C   UNL     1      11.139  32.351  75.899  1.00  0.00     0.039 C 
ATOM      8  C   UNL     1      10.802  32.097  74.453  1.00  0.00    -0.080 C 
ATOM      9  C   UNL     1      11.677  32.726  73.397  1.00  0.00     0.039 C 
ENDBRANCH   5   6
ENDBRANCH   4   5
ENDBRANCH   1   4
BRANCH   2  10
ATOM     10  C   UNL     1      10.323  27.392  74.694  1.00  0.00     0.035 C 
BRANCH  10  11
ATOM     11  C   UNL     1      10.303  25.858  74.722  1.00  0.00     0.079 C 
BRANCH  11  12
ATOM     12  C   UNL     1       9.830  25.270  73.415  1.00  0.00     0.130 C 
ATOM     13  O   UNL     1      10.479  24.382  72.883  1.00  0.00    -0.300 OA
ATOM     14  C   UNL     1       8.587  25.768  72.740  1.00  0.00     0.087 C 
ENDBRANCH  11  12
ENDBRANCH  10  11
ENDBRANCH   2  10
TORSDOF 6
ENDMDL
MODEL 5
REMARK VINA RESULT:    -5.828      2.585      6.833
REMARK INTER + INTRA:          -8.631
REMARK INTER:                  -8.170
REMARK INTRA:                  -0.462
REMARK UNBOUND:                -0.759
REMARK SMILES CC(=O)CCC=C(C)CCC=C(C)C
REMARK SMILES IDX 7 1 6 2 8 3 9 4 10 5 11 6 13 7 12 8 14 9 5 10 4 11 2 12 3 13
REMARK SMILES IDX 1 14
REMARK H PARENT
REMARK Flexibility Score: inf
ROOT
ATOM      1  C   UNL     1      11.057  31.425  72.465  1.00  0.00    -0.077 C 
ATOM      2  C   UNL     1      11.152  32.626  71.846  1.00  0.00    -0.028 C 
ATOM      3  C   UNL     1      11.583  30.218  71.729  1.00  0.00     0.039 C 
ENDROOT
BRANCH   1   4
ATOM      4  C   UNL     1      10.381  31.224  73.814  1.00  0.00     0.034 C 
BRANCH   4   5
ATOM      5  C   UNL     1       9.519  29.951  73.865  1.00  0.00     0.032 C 
BRANCH   5   6
ATOM      6  C   UNL     1      10.230  28.810  74.554  1.00  0.00    -0.028 C 
ATOM      7  C   UNL     1      10.766  26.448  75.058  1.00  0.00     0.039 C 
ATOM      8  C   UNL     1      10.052  27.504  74.255  1.00  0.00    -0.080 C 
ATOM      9  C   UNL     1       9.100  27.054  73.174  1.00  0.00     0.039 C 
ENDBRANCH   5   6
ENDBRANCH   4   5
ENDBRANCH   1   4
BRANCH   2  10
ATOM     10  C   UNL     1      10.580  33.931  72.351  1.00  0.00     0.035 C 
BRANCH  10  11
ATOM     11  C   UNL     1      11.650  34.912  72.848  1.00  0.00     0.079 C 
BRANCH  11  12
ATOM     12  C   UNL     1      11.147  36.334  72.883  1.00  0.00     0.130 C 
ATOM     13  O   UNL     1      10.342  36.669  73.738  1.00  0.00    -0.300 OA
ATOM     14  C   UNL     1      11.601  37.346  71.873  1.00  0.00     0.087 C 
ENDBRANCH  11  12
ENDBRANCH  10  11
ENDBRANCH   2  10
TORSDOF 6
ENDMDL
MODEL 6
REMARK VINA RESULT:    -5.789      2.413      6.578
REMARK INTER + INTRA:          -8.578
REMARK INTER:                  -7.941
REMARK INTRA:                  -0.637
REMARK UNBOUND:                -0.759
REMARK SMILES CC(=O)CCC=C(C)CCC=C(C)C
REMARK SMILES IDX 7 1 6 2 8 3 9 4 10 5 11 6 13 7 12 8 14 9 5 10 4 11 2 12 3 13
REMARK SMILES IDX 1 14
REMARK H PARENT
REMARK Flexibility Score: inf
ROOT
ATOM      1  C   UNL     1      10.673  31.779  73.662  1.00  0.00    -0.077 C 
ATOM      2  C   UNL     1      10.961  33.055  74.016  1.00  0.00    -0.028 C 
ATOM      3  C   UNL     1       9.857  30.955  74.627  1.00  0.00     0.039 C 
ENDROOT
BRANCH   1   4
ATOM      4  C   UNL     1      11.193  31.120  72.393  1.00  0.00     0.034 C 
BRANCH   4   5
ATOM      5  C   UNL     1      10.873  29.617  72.327  1.00  0.00     0.032 C 
BRANCH   5   6
ATOM      6  C   UNL     1      12.058  28.765  72.717  1.00  0.00    -0.028 C 
ATOM      7  C   UNL     1      13.290  27.050  74.006  1.00  0.00     0.039 C 
ATOM      8  C   UNL     1      12.026  27.788  73.651  1.00  0.00    -0.080 C 
ATOM      9  C   UNL     1      10.767  27.449  74.410  1.00  0.00     0.039 C 
ENDBRANCH   5   6
ENDBRANCH   4   5
ENDBRANCH   1   4
BRANCH   2  10
ATOM     10  C   UNL     1      11.861  34.003  73.258  1.00  0.00     0.035 C 
BRANCH  10  11
ATOM     11  C   UNL     1      11.103  34.905  72.275  1.00  0.00     0.079 C 
BRANCH  11  12
ATOM     12  C   UNL     1      11.051  36.339  72.740  1.00  0.00     0.130 C 
ATOM     13  O   UNL     1      10.524  36.608  73.809  1.00  0.00    -0.300 OA
ATOM     14  C   UNL     1      11.616  37.450  71.906  1.00  0.00     0.087 C 
ENDBRANCH  11  12
ENDBRANCH  10  11
ENDBRANCH   2  10
TORSDOF 6
ENDMDL
MODEL 7
REMARK VINA RESULT:    -5.788      2.948      7.441
REMARK INTER + INTRA:          -8.578
REMARK INTER:                  -7.813
REMARK INTRA:                  -0.764
REMARK UNBOUND:                -0.759
REMARK SMILES CC(=O)CCC=C(C)CCC=C(C)C
REMARK SMILES IDX 7 1 6 2 8 3 9 4 10 5 11 6 13 7 12 8 14 9 5 10 4 11 2 12 3 13
REMARK SMILES IDX 1 14
REMARK H PARENT
REMARK Flexibility Score: inf
ROOT
ATOM      1  C   UNL     1      11.686  28.157  73.672  1.00  0.00    -0.077 C 
ATOM      2  C   UNL     1      11.748  29.144  72.747  1.00  0.00    -0.028 C 
ATOM      3  C   UNL     1      12.943  27.364  73.932  1.00  0.00     0.039 C 
ENDROOT
BRANCH   1   4
ATOM      4  C   UNL     1      10.407  27.759  74.394  1.00  0.00     0.034 C 
BRANCH   4   5
ATOM      5  C   UNL     1       9.567  26.742  73.602  1.00  0.00     0.032 C 
BRANCH   5   6
ATOM      6  C   UNL     1       9.746  25.333  74.117  1.00  0.00    -0.028 C 
ATOM      7  C   UNL     1       9.398  22.884  74.187  1.00  0.00     0.039 C 
ATOM      8  C   UNL     1       9.208  24.233  73.544  1.00  0.00    -0.080 C 
ATOM      9  C   UNL     1       8.357  24.315  72.301  1.00  0.00     0.039 C 
ENDBRANCH   5   6
ENDBRANCH   4   5
ENDBRANCH   1   4
BRANCH   2  10
ATOM     10  C   UNL     1      10.583  29.969  72.251  1.00  0.00     0.035 C 
BRANCH  10  11
ATOM     11  C   UNL     1      10.587  31.408  72.782  1.00  0.00     0.079 C 
BRANCH  11  12
ATOM     12  C   UNL     1      10.136  31.487  74.220  1.00  0.00     0.130 C 
ATOM     13  O   UNL     1       9.039  31.051  74.534  1.00  0.00    -0.300 OA
ATOM     14  C   UNL     1      11.002  32.110  75.275  1.00  0.00     0.087 C 
ENDBRANCH  11  12
ENDBRANCH  10  11
ENDBRANCH   2  10
TORSDOF 6
ENDMDL
MODEL 8
REMARK VINA RESULT:    -5.672      3.566      8.209
REMARK INTER + INTRA:          -8.421
REMARK INTER:                  -7.793
REMARK INTRA:                  -0.628
REMARK UNBOUND:                -0.759
REMARK SMILES CC(=O)CCC=C(C)CCC=C(C)C
REMARK SMILES IDX 7 1 6 2 8 3 9 4 10 5 11 6 13 7 12 8 14 9 5 10 4 11 2 12 3 13
REMARK SMILES IDX 1 14
REMARK H PARENT
REMARK Flexibility Score: inf
ROOT
ATOM      1  C   UNL     1       9.945  27.191  74.194  1.00  0.00    -0.077 C 
ATOM      2  C   UNL     1      10.132  28.513  74.424  1.00  0.00    -0.028 C 
ATOM      3  C   UNL     1      10.738  26.218  75.032  1.00  0.00     0.039 C 
ENDROOT
BRANCH   1   4
ATOM      4  C   UNL     1       9.048  26.647  73.092  1.00  0.00     0.034 C 
BRANCH   4   5
ATOM      5  C   UNL     1       9.516  25.281  72.562  1.00  0.00     0.032 C 
BRANCH   5   6
ATOM      6  C   UNL     1       8.380  24.289  72.464  1.00  0.00    -0.028 C 
ATOM      7  C   UNL     1       7.118  22.229  72.998  1.00  0.00     0.039 C 
ATOM      8  C   UNL     1       8.260  23.184  73.233  1.00  0.00    -0.080 C 
ATOM      9  C   UNL     1       9.276  22.831  74.291  1.00  0.00     0.039 C 
ENDBRANCH   5   6
ENDBRANCH   4   5
ENDBRANCH   1   4
BRANCH   2  10
ATOM     10  C   UNL     1       9.536  29.645  73.620  1.00  0.00     0.035 C 
BRANCH  10  11
ATOM     11  C   UNL     1       9.420  30.955  74.409  1.00  0.00     0.079 C 
BRANCH  11  12
ATOM     12  C   UNL     1      10.742  31.675  74.517  1.00  0.00     0.130 C 
ATOM     13  O   UNL     1      11.528  31.636  73.583  1.00  0.00    -0.300 OA
ATOM     14  C   UNL     1      11.122  32.425  75.759  1.00  0.00     0.087 C 
ENDBRANCH  11  12
ENDBRANCH  10  11
ENDBRANCH   2  10
TORSDOF 6
ENDMDL
MODEL 9
REMARK VINA RESULT:    -5.587      2.406      6.802
REMARK INTER + INTRA:          -8.306
REMARK INTER:                  -7.451
REMARK INTRA:                  -0.855
REMARK UNBOUND:                -0.759
REMARK SMILES CC(=O)CCC=C(C)CCC=C(C)C
REMARK SMILES IDX 7 1 6 2 8 3 9 4 10 5 11 6 13 7 12 8 14 9 5 10 4 11 2 12 3 13
REMARK SMILES IDX 1 14
REMARK H PARENT
REMARK Flexibility Score: inf
ROOT
ATOM      1  C   UNL     1      11.367  29.313  73.257  1.00  0.00    -0.077 C 
ATOM      2  C   UNL     1      11.594  30.397  74.037  1.00  0.00    -0.028 C 
ATOM      3  C   UNL     1      12.518  28.364  73.030  1.00  0.00     0.039 C 
ENDROOT
BRANCH   1   4
ATOM      4  C   UNL     1      10.050  29.052  72.542  1.00  0.00     0.034 C 
BRANCH   4   5
ATOM      5  C   UNL     1       9.064  28.229  73.389  1.00  0.00     0.032 C 
BRANCH   5   6
ATOM      6  C   UNL     1       9.115  26.757  73.051  1.00  0.00    -0.028 C 
ATOM      7  C   UNL     1       9.810  24.396  73.306  1.00  0.00     0.039 C 
ATOM      8  C   UNL     1       9.771  25.826  73.779  1.00  0.00    -0.080 C 
ATOM      9  C   UNL     1      10.531  26.182  75.034  1.00  0.00     0.039 C 
ENDBRANCH   5   6
ENDBRANCH   4   5
ENDBRANCH   1   4
BRANCH   2  10
ATOM     10  C   UNL     1      10.623  31.527  74.289  1.00  0.00     0.035 C 
BRANCH  10  11
ATOM     11  C   UNL     1      11.295  32.905  74.348  1.00  0.00     0.079 C 
BRANCH  11  12
ATOM     12  C   UNL     1      11.321  33.585  73.002  1.00  0.00     0.130 C 
ATOM     13  O   UNL     1      11.738  34.730  72.912  1.00  0.00    -0.300 OA
ATOM     14  C   UNL     1      10.826  32.891  71.768  1.00  0.00     0.087 C 
ENDBRANCH  11  12
ENDBRANCH  10  11
ENDBRANCH   2  10
TORSDOF 6
ENDMDL
