MODEL 1
REMARK VINA RESULT:    -6.032      0.000      0.000
REMARK INTER + INTRA:          -7.578
REMARK INTER:                  -7.267
REMARK INTRA:                  -0.311
REMARK UNBOUND:                -0.311
REMARK SMILES Oc1cc(O)c2cc(O)c(-c3ccc(O)c(O)c3)[o+]c2c1
REMARK SMILES IDX 10 1 19 2 20 3 21 4 2 5 3 6 4 7 6 8 7 9 8 10 11 11 12 12
REMARK SMILES IDX 13 13 14 14 18 15 16 16 15 17 17 19 9 21 1 23 5 25
REMARK H PARENT 15 18 17 20 9 22 1 24 5 26
REMARK Flexibility Score: inf
ROOT
ATOM      1  C   UNL     1     172.240 174.329 176.859  1.00  0.00     0.402 A 
ATOM      2  O   UNL     1     172.513 175.518 176.324  1.00  0.00    -0.202 OA
ATOM      3  C   UNL     1     171.951 175.958 175.203  1.00  0.00     0.368 A 
ATOM      4  C   UNL     1     172.296 177.219 174.705  1.00  0.00     0.162 A 
ATOM      5  C   UNL     1     171.715 177.693 173.525  1.00  0.00     0.128 A 
ATOM      6  C   UNL     1     170.782 176.904 172.839  1.00  0.00     0.093 A 
ATOM      7  C   UNL     1     170.426 175.639 173.327  1.00  0.00     0.136 A 
ATOM      8  C   UNL     1     171.011 175.162 174.516  1.00  0.00     0.125 A 
ATOM      9  C   UNL     1     170.687 173.911 175.054  1.00  0.00     0.078 A 
ATOM     10  C   UNL     1     171.293 173.487 176.240  1.00  0.00     0.223 A 
ENDROOT
BRANCH   1  11
ATOM     11  C   UNL     1     172.937 173.944 178.107  1.00  0.00     0.087 A 
ATOM     12  C   UNL     1     174.236 173.417 178.037  1.00  0.00     0.022 A 
ATOM     13  C   UNL     1     174.906 173.028 179.199  1.00  0.00     0.051 A 
ATOM     14  C   UNL     1     174.285 173.145 180.446  1.00  0.00     0.157 A 
ATOM     15  C   UNL     1     172.306 174.042 179.360  1.00  0.00     0.068 A 
ATOM     16  C   UNL     1     172.976 173.651 180.528  1.00  0.00     0.158 A 
BRANCH  14  17
ATOM     17  O   UNL     1     174.980 172.751 181.590  1.00  0.00    -0.504 OA
ATOM     18  H   UNL     1     174.670 173.004 182.521  1.00  0.00     0.293 HD
ENDBRANCH  14  17
BRANCH  16  19
ATOM     19  O   UNL     1     172.345 173.756 181.766  1.00  0.00    -0.504 OA
ATOM     20  H   UNL     1     171.496 173.245 181.975  1.00  0.00     0.293 HD
ENDBRANCH  16  19
ENDBRANCH   1  11
BRANCH  10  21
ATOM     21  O   UNL     1     170.937 172.264 176.809  1.00  0.00    -0.500 OA
ATOM     22  H   UNL     1     171.235 172.006 177.742  1.00  0.00     0.294 HD
ENDBRANCH  10  21
BRANCH   5  23
ATOM     23  O   UNL     1     172.072 178.951 173.043  1.00  0.00    -0.507 OA
ATOM     24  H   UNL     1     172.282 179.718 173.670  1.00  0.00     0.293 HD
ENDBRANCH   5  23
BRANCH   7  25
ATOM     25  O   UNL     1     169.494 174.862 172.637  1.00  0.00    -0.507 OA
ATOM     26  H   UNL     1     169.758 174.306 171.831  1.00  0.00     0.293 HD
ENDBRANCH   7  25
TORSDOF 6
ENDMDL
MODEL 2
REMARK VINA RESULT:    -5.972      3.851      5.688
REMARK INTER + INTRA:          -7.506
REMARK INTER:                  -7.156
REMARK INTRA:                  -0.350
REMARK UNBOUND:                -0.311
REMARK SMILES Oc1cc(O)c2cc(O)c(-c3ccc(O)c(O)c3)[o+]c2c1
REMARK SMILES IDX 10 1 19 2 20 3 21 4 2 5 3 6 4 7 6 8 7 9 8 10 11 11 12 12
REMARK SMILES IDX 13 13 14 14 18 15 16 16 15 17 17 19 9 21 1 23 5 25
REMARK H PARENT 15 18 17 20 9 22 1 24 5 26
REMARK Flexibility Score: inf
ROOT
ATOM      1  C   UNL     1     174.530 172.679 176.821  1.00  0.00     0.402 A 
ATOM      2  O   UNL     1     174.621 171.448 176.320  1.00  0.00    -0.202 OA
ATOM      3  C   UNL     1     175.281 171.164 175.202  1.00  0.00     0.368 A 
ATOM      4  C   UNL     1     175.327 169.845 174.740  1.00  0.00     0.162 A 
ATOM      5  C   UNL     1     176.014 169.534 173.563  1.00  0.00     0.128 A 
ATOM      6  C   UNL     1     176.662 170.547 172.843  1.00  0.00     0.093 A 
ATOM      7  C   UNL     1     176.626 171.874 173.295  1.00  0.00     0.136 A 
ATOM      8  C   UNL     1     175.934 172.186 174.480  1.00  0.00     0.125 A 
ATOM      9  C   UNL     1     175.871 173.491 174.982  1.00  0.00     0.078 A 
ATOM     10  C   UNL     1     175.175 173.748 176.167  1.00  0.00     0.223 A 
ENDROOT
BRANCH   1  11
ATOM     11  C   UNL     1     173.758 172.872 178.070  1.00  0.00     0.087 A 
ATOM     12  C   UNL     1     172.393 173.187 177.995  1.00  0.00     0.022 A 
ATOM     13  C   UNL     1     171.649 173.394 179.159  1.00  0.00     0.051 A 
ATOM     14  C   UNL     1     172.259 173.304 180.413  1.00  0.00     0.157 A 
ATOM     15  C   UNL     1     174.375 172.802 179.332  1.00  0.00     0.068 A 
ATOM     16  C   UNL     1     173.631 173.011 180.502  1.00  0.00     0.158 A 
BRANCH  14  17
ATOM     17  O   UNL     1     171.491 173.513 181.559  1.00  0.00    -0.504 OA
ATOM     18  H   UNL     1     171.291 174.442 181.911  1.00  0.00     0.293 HD
ENDBRANCH  14  17
BRANCH  16  19
ATOM     19  O   UNL     1     174.250 172.934 181.748  1.00  0.00    -0.504 OA
ATOM     20  H   UNL     1     174.792 172.124 182.023  1.00  0.00     0.293 HD
ENDBRANCH  16  19
ENDBRANCH   1  11
BRANCH  10  21
ATOM     21  O   UNL     1     175.152 175.037 176.699  1.00  0.00    -0.500 OA
ATOM     22  H   UNL     1     174.901 175.207 177.666  1.00  0.00     0.294 HD
ENDBRANCH  10  21
BRANCH   5  23
ATOM     23  O   UNL     1     176.048 168.214 173.118  1.00  0.00    -0.507 OA
ATOM     24  H   UNL     1     175.819 167.971 172.161  1.00  0.00     0.293 HD
ENDBRANCH   5  23
BRANCH   7  25
ATOM     25  O   UNL     1     177.277 172.874 172.571  1.00  0.00    -0.507 OA
ATOM     26  H   UNL     1     178.254 173.093 172.727  1.00  0.00     0.293 HD
ENDBRANCH   7  25
TORSDOF 6
ENDMDL
MODEL 3
REMARK VINA RESULT:    -5.932      4.194      6.695
REMARK INTER + INTRA:          -7.457
REMARK INTER:                  -7.103
REMARK INTRA:                  -0.354
REMARK UNBOUND:                -0.311
REMARK SMILES Oc1cc(O)c2cc(O)c(-c3ccc(O)c(O)c3)[o+]c2c1
REMARK SMILES IDX 10 1 19 2 20 3 21 4 2 5 3 6 4 7 6 8 7 9 8 10 11 11 12 12
REMARK SMILES IDX 13 13 14 14 18 15 16 16 15 17 17 19 9 21 1 23 5 25
REMARK H PARENT 15 18 17 20 9 22 1 24 5 26
REMARK Flexibility Score: inf
ROOT
ATOM      1  C   UNL     1     174.540 171.793 175.796  1.00  0.00     0.402 A 
ATOM      2  O   UNL     1     174.828 172.200 177.031  1.00  0.00    -0.202 OA
ATOM      3  C   UNL     1     173.903 172.575 177.908  1.00  0.00     0.368 A 
ATOM      4  C   UNL     1     174.288 172.993 179.186  1.00  0.00     0.162 A 
ATOM      5  C   UNL     1     173.326 173.394 180.117  1.00  0.00     0.128 A 
ATOM      6  C   UNL     1     171.967 173.374 179.771  1.00  0.00     0.093 A 
ATOM      7  C   UNL     1     171.565 172.956 178.495  1.00  0.00     0.136 A 
ATOM      8  C   UNL     1     172.536 172.553 177.557  1.00  0.00     0.125 A 
ATOM      9  C   UNL     1     172.192 172.118 176.272  1.00  0.00     0.078 A 
ATOM     10  C   UNL     1     173.194 171.723 175.381  1.00  0.00     0.223 A 
ENDROOT
BRANCH   1  11
ATOM     11  C   UNL     1     175.659 171.409 174.905  1.00  0.00     0.087 A 
ATOM     12  C   UNL     1     176.157 170.098 174.950  1.00  0.00     0.022 A 
ATOM     13  C   UNL     1     177.225 169.718 174.134  1.00  0.00     0.051 A 
ATOM     14  C   UNL     1     177.821 170.644 173.274  1.00  0.00     0.157 A 
ATOM     15  C   UNL     1     176.273 172.345 174.055  1.00  0.00     0.068 A 
ATOM     16  C   UNL     1     177.347 171.967 173.236  1.00  0.00     0.158 A 
BRANCH  14  17
ATOM     17  O   UNL     1     178.885 170.236 172.468  1.00  0.00    -0.504 OA
ATOM     18  H   UNL     1     178.739 169.794 171.569  1.00  0.00     0.293 HD
ENDBRANCH  14  17
BRANCH  16  19
ATOM     19  O   UNL     1     177.946 172.899 172.391  1.00  0.00    -0.504 OA
ATOM     20  H   UNL     1     177.794 173.894 172.505  1.00  0.00     0.293 HD
ENDBRANCH  16  19
ENDBRANCH   1  11
BRANCH  10  21
ATOM     21  O   UNL     1     172.855 171.240 174.117  1.00  0.00    -0.500 OA
ATOM     22  H   UNL     1     171.909 170.956 173.893  1.00  0.00     0.294 HD
ENDBRANCH  10  21
BRANCH   5  23
ATOM     23  O   UNL     1     173.729 173.808 181.385  1.00  0.00    -0.507 OA
ATOM     24  H   UNL     1     173.737 173.172 182.173  1.00  0.00     0.293 HD
ENDBRANCH   5  23
BRANCH   7  25
ATOM     25  O   UNL     1     170.211 172.939 178.162  1.00  0.00    -0.507 OA
ATOM     26  H   UNL     1     169.846 172.317 177.449  1.00  0.00     0.293 HD
ENDBRANCH   7  25
TORSDOF 6
ENDMDL
MODEL 4
REMARK VINA RESULT:    -5.901      1.398      2.524
REMARK INTER + INTRA:          -7.420
REMARK INTER:                  -7.196
REMARK INTRA:                  -0.224
REMARK UNBOUND:                -0.311
REMARK SMILES Oc1cc(O)c2cc(O)c(-c3ccc(O)c(O)c3)[o+]c2c1
REMARK SMILES IDX 10 1 19 2 20 3 21 4 2 5 3 6 4 7 6 8 7 9 8 10 11 11 12 12
REMARK SMILES IDX 13 13 14 14 18 15 16 16 15 17 17 19 9 21 1 23 5 25
REMARK H PARENT 15 18 17 20 9 22 1 24 5 26
REMARK Flexibility Score: inf
ROOT
ATOM      1  C   UNL     1     173.027 175.121 176.736  1.00  0.00     0.402 A 
ATOM      2  O   UNL     1     171.800 175.241 176.233  1.00  0.00    -0.202 OA
ATOM      3  C   UNL     1     171.516 175.994 175.176  1.00  0.00     0.368 A 
ATOM      4  C   UNL     1     170.199 176.069 174.712  1.00  0.00     0.162 A 
ATOM      5  C   UNL     1     169.886 176.860 173.603  1.00  0.00     0.128 A 
ATOM      6  C   UNL     1     170.897 177.580 172.950  1.00  0.00     0.093 A 
ATOM      7  C   UNL     1     172.222 177.514 173.403  1.00  0.00     0.136 A 
ATOM      8  C   UNL     1     172.536 176.717 174.521  1.00  0.00     0.125 A 
ATOM      9  C   UNL     1     173.842 176.606 175.011  1.00  0.00     0.078 A 
ATOM     10  C   UNL     1     174.101 175.796 176.121  1.00  0.00     0.223 A 
ENDROOT
BRANCH   1  11
ATOM     11  C   UNL     1     173.217 174.259 177.925  1.00  0.00     0.087 A 
ATOM     12  C   UNL     1     173.909 173.045 177.793  1.00  0.00     0.022 A 
ATOM     13  C   UNL     1     174.084 172.206 178.895  1.00  0.00     0.051 A 
ATOM     14  C   UNL     1     173.557 172.558 180.142  1.00  0.00     0.157 A 
ATOM     15  C   UNL     1     172.670 174.601 179.175  1.00  0.00     0.068 A 
ATOM     16  C   UNL     1     172.843 173.760 180.283  1.00  0.00     0.158 A 
BRANCH  14  17
ATOM     17  O   UNL     1     173.749 171.701 181.226  1.00  0.00    -0.504 OA
ATOM     18  H   UNL     1     173.791 172.041 182.179  1.00  0.00     0.293 HD
ENDBRANCH  14  17
BRANCH  16  19
ATOM     19  O   UNL     1     172.302 174.110 181.519  1.00  0.00    -0.504 OA
ATOM     20  H   UNL     1     171.422 174.606 181.593  1.00  0.00     0.293 HD
ENDBRANCH  16  19
ENDBRANCH   1  11
BRANCH  10  21
ATOM     21  O   UNL     1     175.408 175.641 176.584  1.00  0.00    -0.500 OA
ATOM     22  H   UNL     1     175.625 175.042 177.371  1.00  0.00     0.294 HD
ENDBRANCH  10  21
BRANCH   5  23
ATOM     23  O   UNL     1     168.568 176.924 173.155  1.00  0.00    -0.507 OA
ATOM     24  H   UNL     1     167.787 176.811 173.790  1.00  0.00     0.293 HD
ENDBRANCH   5  23
BRANCH   7  25
ATOM     25  O   UNL     1     173.220 178.234 172.746  1.00  0.00    -0.507 OA
ATOM     26  H   UNL     1     173.043 179.151 172.352  1.00  0.00     0.293 HD
ENDBRANCH   7  25
TORSDOF 6
ENDMDL
MODEL 5
REMARK VINA RESULT:    -5.883      1.718      7.113
REMARK INTER + INTRA:          -7.398
REMARK INTER:                  -7.044
REMARK INTRA:                  -0.354
REMARK UNBOUND:                -0.311
REMARK SMILES Oc1cc(O)c2cc(O)c(-c3ccc(O)c(O)c3)[o+]c2c1
REMARK SMILES IDX 10 1 19 2 20 3 21 4 2 5 3 6 4 7 6 8 7 9 8 10 11 11 12 12
REMARK SMILES IDX 13 13 14 14 18 15 16 16 15 17 17 19 9 21 1 23 5 25
REMARK H PARENT 15 18 17 20 9 22 1 24 5 26
REMARK Flexibility Score: inf
ROOT
ATOM      1  C   UNL     1     171.933 174.601 175.772  1.00  0.00     0.402 A 
ATOM      2  O   UNL     1     171.639 174.213 177.012  1.00  0.00    -0.202 OA
ATOM      3  C   UNL     1     172.558 173.830 177.892  1.00  0.00     0.368 A 
ATOM      4  C   UNL     1     172.166 173.432 179.174  1.00  0.00     0.162 A 
ATOM      5  C   UNL     1     173.122 173.023 180.108  1.00  0.00     0.128 A 
ATOM      6  C   UNL     1     174.480 173.013 179.761  1.00  0.00     0.093 A 
ATOM      7  C   UNL     1     174.888 173.410 178.479  1.00  0.00     0.136 A 
ATOM      8  C   UNL     1     173.924 173.821 177.538  1.00  0.00     0.125 A 
ATOM      9  C   UNL     1     174.274 174.236 176.249  1.00  0.00     0.078 A 
ATOM     10  C   UNL     1     173.279 174.641 175.354  1.00  0.00     0.223 A 
ENDROOT
BRANCH   1  11
ATOM     11  C   UNL     1     170.820 174.997 174.878  1.00  0.00     0.087 A 
ATOM     12  C   UNL     1     170.341 176.316 174.917  1.00  0.00     0.022 A 
ATOM     13  C   UNL     1     169.280 176.708 174.098  1.00  0.00     0.051 A 
ATOM     14  C   UNL     1     168.671 175.786 173.241  1.00  0.00     0.157 A 
ATOM     15  C   UNL     1     170.193 174.066 174.031  1.00  0.00     0.068 A 
ATOM     16  C   UNL     1     169.126 174.457 173.209  1.00  0.00     0.158 A 
BRANCH  14  17
ATOM     17  O   UNL     1     167.614 176.206 172.433  1.00  0.00    -0.504 OA
ATOM     18  H   UNL     1     166.991 176.956 172.709  1.00  0.00     0.293 HD
ENDBRANCH  14  17
BRANCH  16  19
ATOM     19  O   UNL     1     168.514 173.529 172.369  1.00  0.00    -0.504 OA
ATOM     20  H   UNL     1     167.506 173.439 172.321  1.00  0.00     0.293 HD
ENDBRANCH  16  19
ENDBRANCH   1  11
BRANCH  10  21
ATOM     21  O   UNL     1     173.625 175.103 174.085  1.00  0.00    -0.500 OA
ATOM     22  H   UNL     1     174.239 175.899 173.959  1.00  0.00     0.294 HD
ENDBRANCH  10  21
BRANCH   5  23
ATOM     23  O   UNL     1     172.712 172.630 181.381  1.00  0.00    -0.507 OA
ATOM     24  H   UNL     1     171.816 172.912 181.759  1.00  0.00     0.293 HD
ENDBRANCH   5  23
BRANCH   7  25
ATOM     25  O   UNL     1     176.242 173.397 178.144  1.00  0.00    -0.507 OA
ATOM     26  H   UNL     1     176.744 174.250 177.925  1.00  0.00     0.293 HD
ENDBRANCH   7  25
TORSDOF 6
ENDMDL
MODEL 6
REMARK VINA RESULT:    -5.852      2.111      7.098
REMARK INTER + INTRA:          -7.360
REMARK INTER:                  -7.066
REMARK INTRA:                  -0.294
REMARK UNBOUND:                -0.311
REMARK SMILES Oc1cc(O)c2cc(O)c(-c3ccc(O)c(O)c3)[o+]c2c1
REMARK SMILES IDX 10 1 19 2 20 3 21 4 2 5 3 6 4 7 6 8 7 9 8 10 11 11 12 12
REMARK SMILES IDX 13 13 14 14 18 15 16 16 15 17 17 19 9 21 1 23 5 25
REMARK H PARENT 15 18 17 20 9 22 1 24 5 26
REMARK Flexibility Score: inf
ROOT
ATOM      1  C   UNL     1     171.944 175.987 175.309  1.00  0.00     0.402 A 
ATOM      2  O   UNL     1     171.966 175.040 176.246  1.00  0.00    -0.202 OA
ATOM      3  C   UNL     1     173.087 174.583 176.793  1.00  0.00     0.368 A 
ATOM      4  C   UNL     1     173.024 173.584 177.770  1.00  0.00     0.162 A 
ATOM      5  C   UNL     1     174.196 173.092 178.351  1.00  0.00     0.128 A 
ATOM      6  C   UNL     1     175.440 173.602 177.956  1.00  0.00     0.093 A 
ATOM      7  C   UNL     1     175.519 174.605 176.979  1.00  0.00     0.136 A 
ATOM      8  C   UNL     1     174.338 175.100 176.394  1.00  0.00     0.125 A 
ATOM      9  C   UNL     1     174.356 176.106 175.421  1.00  0.00     0.078 A 
ATOM     10  C   UNL     1     173.154 176.567 174.876  1.00  0.00     0.223 A 
ENDROOT
BRANCH   1  11
ATOM     11  C   UNL     1     170.632 176.408 174.767  1.00  0.00     0.087 A 
ATOM     12  C   UNL     1     170.062 177.615 175.201  1.00  0.00     0.022 A 
ATOM     13  C   UNL     1     168.816 178.023 174.720  1.00  0.00     0.051 A 
ATOM     14  C   UNL     1     168.114 177.226 173.811  1.00  0.00     0.157 A 
ATOM     15  C   UNL     1     169.914 175.597 173.870  1.00  0.00     0.068 A 
ATOM     16  C   UNL     1     168.662 176.004 173.386  1.00  0.00     0.158 A 
BRANCH  14  17
ATOM     17  O   UNL     1     166.872 177.660 173.346  1.00  0.00    -0.504 OA
ATOM     18  H   UNL     1     166.509 178.581 173.560  1.00  0.00     0.293 HD
ENDBRANCH  14  17
BRANCH  16  19
ATOM     19  O   UNL     1     167.961 175.197 172.492  1.00  0.00    -0.504 OA
ATOM     20  H   UNL     1     167.983 174.186 172.559  1.00  0.00     0.293 HD
ENDBRANCH  16  19
ENDBRANCH   1  11
BRANCH  10  21
ATOM     21  O   UNL     1     173.161 177.604 173.943  1.00  0.00    -0.500 OA
ATOM     22  H   UNL     1     173.964 178.212 173.831  1.00  0.00     0.294 HD
ENDBRANCH  10  21
BRANCH   5  23
ATOM     23  O   UNL     1     174.114 172.096 179.322  1.00  0.00    -0.507 OA
ATOM     24  H   UNL     1     174.512 171.176 179.172  1.00  0.00     0.293 HD
ENDBRANCH   5  23
BRANCH   7  25
ATOM     25  O   UNL     1     176.763 175.107 176.594  1.00  0.00    -0.507 OA
ATOM     26  H   UNL     1     176.893 175.583 175.709  1.00  0.00     0.293 HD
ENDBRANCH   7  25
TORSDOF 6
ENDMDL
MODEL 7
REMARK VINA RESULT:    -5.842      2.179      7.157
REMARK INTER + INTRA:          -7.348
REMARK INTER:                  -6.998
REMARK INTRA:                  -0.350
REMARK UNBOUND:                -0.311
REMARK SMILES Oc1cc(O)c2cc(O)c(-c3ccc(O)c(O)c3)[o+]c2c1
REMARK SMILES IDX 10 1 19 2 20 3 21 4 2 5 3 6 4 7 6 8 7 9 8 10 11 11 12 12
REMARK SMILES IDX 13 13 14 14 18 15 16 16 15 17 17 19 9 21 1 23 5 25
REMARK H PARENT 15 18 17 20 9 22 1 24 5 26
REMARK Flexibility Score: inf
ROOT
ATOM      1  C   UNL     1     174.011 174.247 176.630  1.00  0.00     0.402 A 
ATOM      2  O   UNL     1     172.963 174.191 177.450  1.00  0.00    -0.202 OA
ATOM      3  C   UNL     1     173.047 173.784 178.712  1.00  0.00     0.368 A 
ATOM      4  C   UNL     1     171.898 173.751 179.507  1.00  0.00     0.162 A 
ATOM      5  C   UNL     1     171.971 173.321 180.836  1.00  0.00     0.128 A 
ATOM      6  C   UNL     1     173.202 172.923 181.374  1.00  0.00     0.093 A 
ATOM      7  C   UNL     1     174.364 172.951 180.589  1.00  0.00     0.136 A 
ATOM      8  C   UNL     1     174.289 173.385 179.251  1.00  0.00     0.125 A 
ATOM      9  C   UNL     1     175.416 173.442 178.425  1.00  0.00     0.078 A 
ATOM     10  C   UNL     1     175.288 173.885 177.105  1.00  0.00     0.223 A 
ENDROOT
BRANCH   1  11
ATOM     11  C   UNL     1     173.791 174.709 175.240  1.00  0.00     0.087 A 
ATOM     12  C   UNL     1     173.552 173.765 174.229  1.00  0.00     0.022 A 
ATOM     13  C   UNL     1     173.361 174.176 172.908  1.00  0.00     0.051 A 
ATOM     14  C   UNL     1     173.422 175.532 172.574  1.00  0.00     0.157 A 
ATOM     15  C   UNL     1     173.872 176.071 174.899  1.00  0.00     0.068 A 
ATOM     16  C   UNL     1     173.682 176.486 173.573  1.00  0.00     0.158 A 
BRANCH  14  17
ATOM     17  O   UNL     1     173.225 175.913 171.246  1.00  0.00    -0.504 OA
ATOM     18  H   UNL     1     172.330 175.809 170.783  1.00  0.00     0.293 HD
ENDBRANCH  14  17
BRANCH  16  19
ATOM     19  O   UNL     1     173.758 177.838 173.244  1.00  0.00    -0.504 OA
ATOM     20  H   UNL     1     173.173 178.243 172.524  1.00  0.00     0.293 HD
ENDBRANCH  16  19
ENDBRANCH   1  11
BRANCH  10  21
ATOM     21  O   UNL     1     176.416 173.993 176.291  1.00  0.00    -0.500 OA
ATOM     22  H   UNL     1     176.473 173.521 175.397  1.00  0.00     0.294 HD
ENDBRANCH  10  21
BRANCH   5  23
ATOM     23  O   UNL     1     170.815 173.294 181.613  1.00  0.00    -0.507 OA
ATOM     24  H   UNL     1     169.903 173.140 181.199  1.00  0.00     0.293 HD
ENDBRANCH   5  23
BRANCH   7  25
ATOM     25  O   UNL     1     175.585 172.555 181.136  1.00  0.00    -0.507 OA
ATOM     26  H   UNL     1     176.047 173.099 181.856  1.00  0.00     0.293 HD
ENDBRANCH   7  25
TORSDOF 6
ENDMDL
MODEL 8
REMARK VINA RESULT:    -5.743      4.068      5.010
REMARK INTER + INTRA:          -7.230
REMARK INTER:                  -7.051
REMARK INTRA:                  -0.179
REMARK UNBOUND:                -0.311
REMARK SMILES Oc1cc(O)c2cc(O)c(-c3ccc(O)c(O)c3)[o+]c2c1
REMARK SMILES IDX 10 1 19 2 20 3 21 4 2 5 3 6 4 7 6 8 7 9 8 10 11 11 12 12
REMARK SMILES IDX 13 13 14 14 18 15 16 16 15 17 17 19 9 21 1 23 5 25
REMARK H PARENT 15 18 17 20 9 22 1 24 5 26
REMARK Flexibility Score: inf
ROOT
ATOM      1  C   UNL     1     173.645 171.636 176.674  1.00  0.00     0.402 A 
ATOM      2  O   UNL     1     174.705 172.202 176.098  1.00  0.00    -0.202 OA
ATOM      3  C   UNL     1     175.217 171.784 174.946  1.00  0.00     0.368 A 
ATOM      4  C   UNL     1     176.335 172.431 174.410  1.00  0.00     0.162 A 
ATOM      5  C   UNL     1     176.887 171.999 173.200  1.00  0.00     0.128 A 
ATOM      6  C   UNL     1     176.316 170.914 172.519  1.00  0.00     0.093 A 
ATOM      7  C   UNL     1     175.195 170.257 173.044  1.00  0.00     0.136 A 
ATOM      8  C   UNL     1     174.640 170.693 174.263  1.00  0.00     0.125 A 
ATOM      9  C   UNL     1     173.516 170.080 174.829  1.00  0.00     0.078 A 
ATOM     10  C   UNL     1     173.001 170.555 176.038  1.00  0.00     0.223 A 
ENDROOT
BRANCH   1  11
ATOM     11  C   UNL     1     173.171 172.186 177.964  1.00  0.00     0.087 A 
ATOM     12  C   UNL     1     171.911 172.801 178.031  1.00  0.00     0.022 A 
ATOM     13  C   UNL     1     171.451 173.344 179.232  1.00  0.00     0.051 A 
ATOM     14  C   UNL     1     172.247 173.296 180.381  1.00  0.00     0.157 A 
ATOM     15  C   UNL     1     173.979 172.157 179.115  1.00  0.00     0.068 A 
ATOM     16  C   UNL     1     173.520 172.703 180.322  1.00  0.00     0.158 A 
BRANCH  14  17
ATOM     17  O   UNL     1     171.760 173.845 181.568  1.00  0.00    -0.504 OA
ATOM     18  H   UNL     1     170.982 174.493 181.581  1.00  0.00     0.293 HD
ENDBRANCH  14  17
BRANCH  16  19
ATOM     19  O   UNL     1     174.324 172.664 181.459  1.00  0.00    -0.504 OA
ATOM     20  H   UNL     1     174.025 172.196 182.306  1.00  0.00     0.293 HD
ENDBRANCH  16  19
ENDBRANCH   1  11
BRANCH  10  21
ATOM     21  O   UNL     1     171.851 169.982 176.582  1.00  0.00    -0.500 OA
ATOM     22  H   UNL     1     170.994 169.904 176.049  1.00  0.00     0.294 HD
ENDBRANCH  10  21
BRANCH   5  23
ATOM     23  O   UNL     1     178.001 172.655 172.681  1.00  0.00    -0.507 OA
ATOM     24  H   UNL     1     178.370 172.429 171.766  1.00  0.00     0.293 HD
ENDBRANCH   5  23
BRANCH   7  25
ATOM     25  O   UNL     1     174.634 169.179 172.357  1.00  0.00    -0.507 OA
ATOM     26  H   UNL     1     173.643 169.140 172.147  1.00  0.00     0.293 HD
ENDBRANCH   7  25
TORSDOF 6
ENDMDL
MODEL 9
REMARK VINA RESULT:    -5.673      2.815      3.294
REMARK INTER + INTRA:          -7.145
REMARK INTER:                  -6.803
REMARK INTRA:                  -0.343
REMARK UNBOUND:                -0.311
REMARK SMILES Oc1cc(O)c2cc(O)c(-c3ccc(O)c(O)c3)[o+]c2c1
REMARK SMILES IDX 10 1 19 2 20 3 21 4 2 5 3 6 4 7 6 8 7 9 8 10 11 11 12 12
REMARK SMILES IDX 13 13 14 14 18 15 16 16 15 17 17 19 9 21 1 23 5 25
REMARK H PARENT 15 18 17 20 9 22 1 24 5 26
REMARK Flexibility Score: inf
ROOT
ATOM      1  C   UNL     1     173.944 173.557 176.467  1.00  0.00     0.402 A 
ATOM      2  O   UNL     1     174.062 174.775 175.943  1.00  0.00    -0.202 OA
ATOM      3  C   UNL     1     174.456 174.995 174.693  1.00  0.00     0.368 A 
ATOM      4  C   UNL     1     174.558 176.307 174.219  1.00  0.00     0.162 A 
ATOM      5  C   UNL     1     174.974 176.553 172.908  1.00  0.00     0.128 A 
ATOM      6  C   UNL     1     175.288 175.481 172.061  1.00  0.00     0.093 A 
ATOM      7  C   UNL     1     175.189 174.160 172.521  1.00  0.00     0.136 A 
ATOM      8  C   UNL     1     174.770 173.913 173.843  1.00  0.00     0.125 A 
ATOM      9  C   UNL     1     174.645 172.616 174.353  1.00  0.00     0.078 A 
ATOM     10  C   UNL     1     174.219 172.426 175.671  1.00  0.00     0.223 A 
ENDROOT
BRANCH   1  11
ATOM     11  C   UNL     1     173.505 173.439 177.876  1.00  0.00     0.087 A 
ATOM     12  C   UNL     1     172.146 173.592 178.190  1.00  0.00     0.022 A 
ATOM     13  C   UNL     1     171.711 173.505 179.515  1.00  0.00     0.051 A 
ATOM     14  C   UNL     1     172.628 173.280 180.546  1.00  0.00     0.157 A 
ATOM     15  C   UNL     1     174.428 173.233 178.917  1.00  0.00     0.068 A 
ATOM     16  C   UNL     1     173.995 173.147 180.248  1.00  0.00     0.158 A 
BRANCH  14  17
ATOM     17  O   UNL     1     172.165 173.195 181.860  1.00  0.00    -0.504 OA
ATOM     18  H   UNL     1     172.614 173.689 182.621  1.00  0.00     0.293 HD
ENDBRANCH  14  17
BRANCH  16  19
ATOM     19  O   UNL     1     174.916 172.936 181.272  1.00  0.00    -0.504 OA
ATOM     20  H   UNL     1     174.960 173.546 182.080  1.00  0.00     0.293 HD
ENDBRANCH  16  19
ENDBRANCH   1  11
BRANCH  10  21
ATOM     21  O   UNL     1     174.043 171.135 176.169  1.00  0.00    -0.500 OA
ATOM     22  H   UNL     1     174.804 170.467 176.193  1.00  0.00     0.294 HD
ENDBRANCH  10  21
BRANCH   5  23
ATOM     23  O   UNL     1     175.071 177.867 172.454  1.00  0.00    -0.507 OA
ATOM     24  H   UNL     1     175.888 178.195 171.953  1.00  0.00     0.293 HD
ENDBRANCH   5  23
BRANCH   7  25
ATOM     25  O   UNL     1     175.502 173.100 171.670  1.00  0.00    -0.507 OA
ATOM     26  H   UNL     1     174.975 172.925 170.822  1.00  0.00     0.293 HD
ENDBRANCH   7  25
TORSDOF 6
ENDMDL
