MODEL 1
REMARK VINA RESULT:    -3.862      0.000      0.000
REMARK INTER + INTRA:         -10.241
REMARK INTER:                  -7.474
REMARK INTRA:                  -2.767
REMARK UNBOUND:                -2.767
REMARK SMILES CCCCCCCCCCCCCCCCCC(=O)[O-]
REMARK SMILES IDX 10 1 11 2 12 3 13 4 14 5 15 6 16 7 17 8 18 9 19 10 20 11
REMARK SMILES IDX 9 12 8 13 7 14 6 15 5 16 4 17 3 18 2 19 1 20
REMARK H PARENT
REMARK Flexibility Score: inf
ROOT
ATOM      1  C   UNL     1     -10.562  -0.601 -37.155  1.00  0.00     0.000 C 
ENDROOT
BRANCH   1   2
ATOM      2  C   UNL     1     -11.033   0.087 -35.860  1.00  0.00     0.000 C 
BRANCH   2   3
ATOM      3  C   UNL     1     -10.143   1.245 -35.373  1.00  0.00     0.000 C 
BRANCH   3   4
ATOM      4  C   UNL     1     -10.404   2.560 -36.128  1.00  0.00     0.000 C 
BRANCH   4   5
ATOM      5  C   UNL     1      -9.125   3.143 -36.755  1.00  0.00     0.000 C 
BRANCH   5   6
ATOM      6  C   UNL     1      -9.038   2.889 -38.267  1.00  0.00     0.000 C 
BRANCH   6   7
ATOM      7  C   UNL     1     -10.425   2.574 -38.850  1.00  0.00     0.006 C 
BRANCH   7   8
ATOM      8  C   UNL     1     -10.818   3.544 -39.971  1.00  0.00     0.053 C 
BRANCH   8   9
ATOM      9  C   UNL     1     -11.840   4.538 -39.513  1.00  0.00     0.041 C 
ATOM     10  O   UNL     1     -11.651   5.205 -38.462  1.00  0.00    -0.550 OA
ATOM     11  O   UNL     1     -12.987   4.753 -40.267  1.00  0.00    -0.550 OA
ENDBRANCH   8   9
ENDBRANCH   7   8
ENDBRANCH   6   7
ENDBRANCH   5   6
ENDBRANCH   4   5
ENDBRANCH   3   4
ENDBRANCH   2   3
ENDBRANCH   1   2
BRANCH   1  12
ATOM     12  C   UNL     1      -9.035  -0.741 -37.240  1.00  0.00     0.000 C 
BRANCH  12  13
ATOM     13  C   UNL     1      -8.619  -1.447 -38.536  1.00  0.00    -0.000 C 
BRANCH  13  14
ATOM     14  C   UNL     1      -8.411  -0.432 -39.672  1.00  0.00    -0.000 C 
BRANCH  14  15
ATOM     15  C   UNL     1      -8.422  -1.093 -41.059  1.00  0.00    -0.000 C 
BRANCH  15  16
ATOM     16  C   UNL     1      -9.843  -1.250 -41.627  1.00  0.00    -0.000 C 
BRANCH  16  17
ATOM     17  C   UNL     1     -10.690   0.027 -41.434  1.00  0.00    -0.000 C 
BRANCH  17  18
ATOM     18  C   UNL     1     -12.045  -0.231 -40.754  1.00  0.00    -0.000 C 
BRANCH  18  19
ATOM     19  C   UNL     1     -12.105  -1.583 -40.031  1.00  0.00    -0.003 C 
ATOM     20  C   UNL     1     -13.533  -1.925 -39.618  1.00  0.00     0.004 C 
ENDBRANCH  18  19
ENDBRANCH  17  18
ENDBRANCH  16  17
ENDBRANCH  15  16
ENDBRANCH  14  15
ENDBRANCH  13  14
ENDBRANCH  12  13
ENDBRANCH   1  12
TORSDOF 16
ENDMDL
MODEL 2
REMARK VINA RESULT:    -3.817      5.081      8.416
REMARK INTER + INTRA:         -10.154
REMARK INTER:                  -7.841
REMARK INTRA:                  -2.313
REMARK UNBOUND:                -2.767
REMARK SMILES CCCCCCCCCCCCCCCCCC(=O)[O-]
REMARK SMILES IDX 10 1 11 2 12 3 13 4 14 5 15 6 16 7 17 8 18 9 19 10 20 11
REMARK SMILES IDX 9 12 8 13 7 14 6 15 5 16 4 17 3 18 2 19 1 20
REMARK H PARENT
REMARK Flexibility Score: inf
ROOT
ATOM      1  C   UNL     1     -14.457   6.100 -43.221  1.00  0.00     0.000 C 
ENDROOT
BRANCH   1   2
ATOM      2  C   UNL     1     -13.228   5.537 -42.484  1.00  0.00     0.000 C 
BRANCH   2   3
ATOM      3  C   UNL     1     -13.366   5.453 -40.952  1.00  0.00     0.000 C 
BRANCH   3   4
ATOM      4  C   UNL     1     -13.163   4.028 -40.410  1.00  0.00     0.000 C 
BRANCH   4   5
ATOM      5  C   UNL     1     -12.419   3.120 -41.405  1.00  0.00     0.000 C 
BRANCH   5   6
ATOM      6  C   UNL     1     -11.048   2.666 -40.881  1.00  0.00     0.000 C 
BRANCH   6   7
ATOM      7  C   UNL     1     -10.763   1.211 -41.287  1.00  0.00     0.006 C 
BRANCH   7   8
ATOM      8  C   UNL     1     -10.617   0.287 -40.071  1.00  0.00     0.053 C 
BRANCH   8   9
ATOM      9  C   UNL     1     -11.704  -0.742 -40.023  1.00  0.00     0.041 C 
ATOM     10  O   UNL     1     -11.551  -1.797 -39.351  1.00  0.00    -0.550 OA
ATOM     11  O   UNL     1     -12.901  -0.521 -40.692  1.00  0.00    -0.550 OA
ENDBRANCH   8   9
ENDBRANCH   7   8
ENDBRANCH   6   7
ENDBRANCH   5   6
ENDBRANCH   4   5
ENDBRANCH   3   4
ENDBRANCH   2   3
ENDBRANCH   1   2
BRANCH   1  12
ATOM     12  C   UNL     1     -15.168   5.053 -44.090  1.00  0.00     0.000 C 
BRANCH  12  13
ATOM     13  C   UNL     1     -16.626   5.451 -44.348  1.00  0.00    -0.000 C 
BRANCH  13  14
ATOM     14  C   UNL     1     -16.815   6.970 -44.208  1.00  0.00    -0.000 C 
BRANCH  14  15
ATOM     15  C   UNL     1     -18.061   7.333 -43.386  1.00  0.00    -0.000 C 
BRANCH  15  16
ATOM     16  C   UNL     1     -17.747   7.526 -41.892  1.00  0.00    -0.000 C 
BRANCH  16  17
ATOM     17  C   UNL     1     -18.220   6.328 -41.040  1.00  0.00    -0.000 C 
BRANCH  17  18
ATOM     18  C   UNL     1     -17.079   5.619 -40.289  1.00  0.00    -0.000 C 
BRANCH  18  19
ATOM     19  C   UNL     1     -16.842   4.184 -40.778  1.00  0.00    -0.003 C 
ATOM     20  C   UNL     1     -18.089   3.617 -41.450  1.00  0.00     0.004 C 
ENDBRANCH  18  19
ENDBRANCH  17  18
ENDBRANCH  16  17
ENDBRANCH  15  16
ENDBRANCH  14  15
ENDBRANCH  13  14
ENDBRANCH  12  13
ENDBRANCH   1  12
TORSDOF 16
ENDMDL
MODEL 3
REMARK VINA RESULT:    -3.759      4.055      6.604
REMARK INTER + INTRA:         -10.042
REMARK INTER:                  -8.265
REMARK INTRA:                  -1.777
REMARK UNBOUND:                -2.767
REMARK SMILES CCCCCCCCCCCCCCCCCC(=O)[O-]
REMARK SMILES IDX 10 1 11 2 12 3 13 4 14 5 15 6 16 7 17 8 18 9 19 10 20 11
REMARK SMILES IDX 9 12 8 13 7 14 6 15 5 16 4 17 3 18 2 19 1 20
REMARK H PARENT
REMARK Flexibility Score: inf
ROOT
ATOM      1  C   UNL     1     -12.316   5.139 -43.666  1.00  0.00     0.000 C 
ENDROOT
BRANCH   1   2
ATOM      2  C   UNL     1     -13.832   5.078 -43.402  1.00  0.00     0.000 C 
BRANCH   2   3
ATOM      3  C   UNL     1     -14.406   6.264 -42.604  1.00  0.00     0.000 C 
BRANCH   3   4
ATOM      4  C   UNL     1     -14.563   5.956 -41.105  1.00  0.00     0.000 C 
BRANCH   4   5
ATOM      5  C   UNL     1     -14.952   4.491 -40.843  1.00  0.00     0.000 C 
BRANCH   5   6
ATOM      6  C   UNL     1     -16.458   4.313 -40.598  1.00  0.00     0.000 C 
BRANCH   6   7
ATOM      7  C   UNL     1     -17.132   5.666 -40.324  1.00  0.00     0.006 C 
BRANCH   7   8
ATOM      8  C   UNL     1     -18.081   6.083 -41.454  1.00  0.00     0.053 C 
BRANCH   8   9
ATOM      9  C   UNL     1     -17.904   7.523 -41.827  1.00  0.00     0.041 C 
ATOM     10  O   UNL     1     -17.256   8.298 -41.075  1.00  0.00    -0.550 OA
ATOM     11  O   UNL     1     -18.425   8.001 -43.022  1.00  0.00    -0.550 OA
ENDBRANCH   8   9
ENDBRANCH   7   8
ENDBRANCH   6   7
ENDBRANCH   5   6
ENDBRANCH   4   5
ENDBRANCH   3   4
ENDBRANCH   2   3
ENDBRANCH   1   2
BRANCH   1  12
ATOM     12  C   UNL     1     -11.539   4.013 -42.968  1.00  0.00     0.000 C 
BRANCH  12  13
ATOM     13  C   UNL     1     -11.016   4.471 -41.601  1.00  0.00    -0.000 C 
BRANCH  13  14
ATOM     14  C   UNL     1     -11.385   3.460 -40.504  1.00  0.00    -0.000 C 
BRANCH  14  15
ATOM     15  C   UNL     1     -12.093   2.217 -41.066  1.00  0.00    -0.000 C 
BRANCH  15  16
ATOM     16  C   UNL     1     -11.253   0.937 -40.907  1.00  0.00    -0.000 C 
BRANCH  16  17
ATOM     17  C   UNL     1     -12.133  -0.330 -40.836  1.00  0.00    -0.000 C 
BRANCH  17  18
ATOM     18  C   UNL     1     -11.718  -1.304 -39.720  1.00  0.00    -0.000 C 
BRANCH  18  19
ATOM     19  C   UNL     1     -12.893  -2.130 -39.179  1.00  0.00    -0.003 C 
ATOM     20  C   UNL     1     -14.155  -1.899 -40.006  1.00  0.00     0.004 C 
ENDBRANCH  18  19
ENDBRANCH  17  18
ENDBRANCH  16  17
ENDBRANCH  15  16
ENDBRANCH  14  15
ENDBRANCH  13  14
ENDBRANCH  12  13
ENDBRANCH   1  12
TORSDOF 16
ENDMDL
MODEL 4
REMARK VINA RESULT:    -3.747      2.257      4.266
REMARK INTER + INTRA:         -10.019
REMARK INTER:                  -7.682
REMARK INTRA:                  -2.338
REMARK UNBOUND:                -2.767
REMARK SMILES CCCCCCCCCCCCCCCCCC(=O)[O-]
REMARK SMILES IDX 10 1 11 2 12 3 13 4 14 5 15 6 16 7 17 8 18 9 19 10 20 11
REMARK SMILES IDX 9 12 8 13 7 14 6 15 5 16 4 17 3 18 2 19 1 20
REMARK H PARENT
REMARK Flexibility Score: inf
ROOT
ATOM      1  C   UNL     1     -11.694  -1.216 -40.475  1.00  0.00     0.000 C 
ENDROOT
BRANCH   1   2
ATOM      2  C   UNL     1     -12.308   0.165 -40.769  1.00  0.00     0.000 C 
BRANCH   2   3
ATOM      3  C   UNL     1     -11.315   1.231 -41.267  1.00  0.00     0.000 C 
BRANCH   3   4
ATOM      4  C   UNL     1     -11.967   2.609 -41.471  1.00  0.00     0.000 C 
BRANCH   4   5
ATOM      5  C   UNL     1     -11.843   3.509 -40.229  1.00  0.00     0.000 C 
BRANCH   5   6
ATOM      6  C   UNL     1     -12.799   4.710 -40.269  1.00  0.00     0.000 C 
BRANCH   6   7
ATOM      7  C   UNL     1     -13.859   4.529 -41.367  1.00  0.00     0.006 C 
BRANCH   7   8
ATOM      8  C   UNL     1     -14.974   5.578 -41.278  1.00  0.00     0.053 C 
BRANCH   8   9
ATOM      9  C   UNL     1     -16.178   5.050 -40.561  1.00  0.00     0.041 C 
ATOM     10  O   UNL     1     -16.321   3.811 -40.388  1.00  0.00    -0.550 OA
ATOM     11  O   UNL     1     -17.126   5.929 -40.053  1.00  0.00    -0.550 OA
ENDBRANCH   8   9
ENDBRANCH   7   8
ENDBRANCH   6   7
ENDBRANCH   5   6
ENDBRANCH   4   5
ENDBRANCH   3   4
ENDBRANCH   2   3
ENDBRANCH   1   2
BRANCH   1  12
ATOM     12  C   UNL     1     -11.264  -1.384 -39.011  1.00  0.00     0.000 C 
BRANCH  12  13
ATOM     13  C   UNL     1     -10.208  -2.487 -38.870  1.00  0.00    -0.000 C 
BRANCH  13  14
ATOM     14  C   UNL     1      -9.373  -2.615 -40.154  1.00  0.00    -0.000 C 
BRANCH  14  15
ATOM     15  C   UNL     1      -8.061  -1.818 -40.083  1.00  0.00    -0.000 C 
BRANCH  15  16
ATOM     16  C   UNL     1      -8.000  -0.687 -41.125  1.00  0.00    -0.000 C 
BRANCH  16  17
ATOM     17  C   UNL     1      -7.801   0.697 -40.470  1.00  0.00    -0.000 C 
BRANCH  17  18
ATOM     18  C   UNL     1      -8.092   0.710 -38.959  1.00  0.00    -0.000 C 
BRANCH  18  19
ATOM     19  C   UNL     1      -9.132   1.764 -38.559  1.00  0.00    -0.003 C 
ATOM     20  C   UNL     1      -9.794   1.409 -37.231  1.00  0.00     0.004 C 
ENDBRANCH  18  19
ENDBRANCH  17  18
ENDBRANCH  16  17
ENDBRANCH  15  16
ENDBRANCH  14  15
ENDBRANCH  13  14
ENDBRANCH  12  13
ENDBRANCH   1  12
TORSDOF 16
ENDMDL
MODEL 5
REMARK VINA RESULT:    -3.741      5.069      8.416
REMARK INTER + INTRA:         -10.006
REMARK INTER:                  -7.351
REMARK INTRA:                  -2.655
REMARK UNBOUND:                -2.767
REMARK SMILES CCCCCCCCCCCCCCCCCC(=O)[O-]
REMARK SMILES IDX 10 1 11 2 12 3 13 4 14 5 15 6 16 7 17 8 18 9 19 10 20 11
REMARK SMILES IDX 9 12 8 13 7 14 6 15 5 16 4 17 3 18 2 19 1 20
REMARK H PARENT
REMARK Flexibility Score: inf
ROOT
ATOM      1  C   UNL     1     -15.388   5.204 -43.824  1.00  0.00     0.000 C 
ENDROOT
BRANCH   1   2
ATOM      2  C   UNL     1     -16.649   5.848 -44.429  1.00  0.00     0.000 C 
BRANCH   2   3
ATOM      3  C   UNL     1     -16.985   7.255 -43.898  1.00  0.00     0.000 C 
BRANCH   3   4
ATOM      4  C   UNL     1     -15.841   7.873 -43.078  1.00  0.00     0.000 C 
BRANCH   4   5
ATOM      5  C   UNL     1     -16.162   7.937 -41.574  1.00  0.00     0.000 C 
BRANCH   5   6
ATOM      6  C   UNL     1     -17.667   7.825 -41.285  1.00  0.00     0.000 C 
BRANCH   6   7
ATOM      7  C   UNL     1     -17.944   6.724 -40.249  1.00  0.00     0.006 C 
BRANCH   7   8
ATOM      8  C   UNL     1     -16.911   5.592 -40.315  1.00  0.00     0.053 C 
BRANCH   8   9
ATOM      9  C   UNL     1     -17.515   4.318 -40.823  1.00  0.00     0.041 C 
ATOM     10  O   UNL     1     -18.399   4.348 -41.719  1.00  0.00    -0.550 OA
ATOM     11  O   UNL     1     -17.075   3.096 -40.330  1.00  0.00    -0.550 OA
ENDBRANCH   8   9
ENDBRANCH   7   8
ENDBRANCH   6   7
ENDBRANCH   5   6
ENDBRANCH   4   5
ENDBRANCH   3   4
ENDBRANCH   2   3
ENDBRANCH   1   2
BRANCH   1  12
ATOM     12  C   UNL     1     -14.276   4.975 -44.857  1.00  0.00     0.000 C 
BRANCH  12  13
ATOM     13  C   UNL     1     -12.896   4.969 -44.188  1.00  0.00    -0.000 C 
BRANCH  13  14
ATOM     14  C   UNL     1     -12.674   6.254 -43.375  1.00  0.00    -0.000 C 
BRANCH  14  15
ATOM     15  C   UNL     1     -12.130   5.971 -41.966  1.00  0.00    -0.000 C 
BRANCH  15  16
ATOM     16  C   UNL     1     -13.249   5.712 -40.942  1.00  0.00    -0.000 C 
BRANCH  16  17
ATOM     17  C   UNL     1     -13.472   4.204 -40.695  1.00  0.00    -0.000 C 
BRANCH  17  18
ATOM     18  C   UNL     1     -12.169   3.418 -40.472  1.00  0.00    -0.000 C 
BRANCH  18  19
ATOM     19  C   UNL     1     -11.873   2.417 -41.596  1.00  0.00    -0.003 C 
ATOM     20  C   UNL     1     -11.444   1.065 -41.032  1.00  0.00     0.004 C 
ENDBRANCH  18  19
ENDBRANCH  17  18
ENDBRANCH  16  17
ENDBRANCH  15  16
ENDBRANCH  14  15
ENDBRANCH  13  14
ENDBRANCH  12  13
ENDBRANCH   1  12
TORSDOF 16
ENDMDL
MODEL 6
REMARK VINA RESULT:    -3.736      2.259      4.157
REMARK INTER + INTRA:          -9.998
REMARK INTER:                  -7.448
REMARK INTRA:                  -2.550
REMARK UNBOUND:                -2.767
REMARK SMILES CCCCCCCCCCCCCCCCCC(=O)[O-]
REMARK SMILES IDX 10 1 11 2 12 3 13 4 14 5 15 6 16 7 17 8 18 9 19 10 20 11
REMARK SMILES IDX 9 12 8 13 7 14 6 15 5 16 4 17 3 18 2 19 1 20
REMARK H PARENT
REMARK Flexibility Score: inf
ROOT
ATOM      1  C   UNL     1      -7.956   1.187 -40.583  1.00  0.00     0.000 C 
ENDROOT
BRANCH   1   2
ATOM      2  C   UNL     1      -8.621   1.975 -39.440  1.00  0.00     0.000 C 
BRANCH   2   3
ATOM      3  C   UNL     1     -10.051   2.469 -39.731  1.00  0.00     0.000 C 
BRANCH   3   4
ATOM      4  C   UNL     1     -10.335   2.627 -41.234  1.00  0.00     0.000 C 
BRANCH   4   5
ATOM      5  C   UNL     1     -11.840   2.693 -41.545  1.00  0.00     0.000 C 
BRANCH   5   6
ATOM      6  C   UNL     1     -12.436   4.086 -41.296  1.00  0.00     0.000 C 
BRANCH   6   7
ATOM      7  C   UNL     1     -13.788   3.982 -40.573  1.00  0.00     0.006 C 
BRANCH   7   8
ATOM      8  C   UNL     1     -14.842   4.923 -41.171  1.00  0.00     0.053 C 
BRANCH   8   9
ATOM      9  C   UNL     1     -16.187   4.720 -40.546  1.00  0.00     0.041 C 
ATOM     10  O   UNL     1     -16.670   3.562 -40.438  1.00  0.00    -0.550 OA
ATOM     11  O   UNL     1     -16.894   5.808 -40.050  1.00  0.00    -0.550 OA
ENDBRANCH   8   9
ENDBRANCH   7   8
ENDBRANCH   6   7
ENDBRANCH   5   6
ENDBRANCH   4   5
ENDBRANCH   3   4
ENDBRANCH   2   3
ENDBRANCH   1   2
BRANCH   1  12
ATOM     12  C   UNL     1      -7.746  -0.297 -40.248  1.00  0.00     0.000 C 
BRANCH  12  13
ATOM     13  C   UNL     1      -8.140  -1.189 -41.431  1.00  0.00    -0.000 C 
BRANCH  13  14
ATOM     14  C   UNL     1      -9.465  -1.917 -41.154  1.00  0.00    -0.000 C 
BRANCH  14  15
ATOM     15  C   UNL     1     -10.689  -1.021 -41.398  1.00  0.00    -0.000 C 
BRANCH  15  16
ATOM     16  C   UNL     1     -11.632  -0.966 -40.184  1.00  0.00    -0.000 C 
BRANCH  16  17
ATOM     17  C   UNL     1     -11.019  -1.646 -38.941  1.00  0.00    -0.000 C 
BRANCH  17  18
ATOM     18  C   UNL     1     -10.623  -0.656 -37.831  1.00  0.00    -0.000 C 
BRANCH  18  19
ATOM     19  C   UNL     1      -9.468  -1.165 -36.959  1.00  0.00    -0.003 C 
ATOM     20  C   UNL     1      -8.890  -2.464 -37.513  1.00  0.00     0.004 C 
ENDBRANCH  18  19
ENDBRANCH  17  18
ENDBRANCH  16  17
ENDBRANCH  15  16
ENDBRANCH  14  15
ENDBRANCH  13  14
ENDBRANCH  12  13
ENDBRANCH   1  12
TORSDOF 16
ENDMDL
MODEL 7
REMARK VINA RESULT:    -3.724      2.652      5.143
REMARK INTER + INTRA:          -9.975
REMARK INTER:                  -7.307
REMARK INTRA:                  -2.668
REMARK UNBOUND:                -2.767
REMARK SMILES CCCCCCCCCCCCCCCCCC(=O)[O-]
REMARK SMILES IDX 10 1 11 2 12 3 13 4 14 5 15 6 16 7 17 8 18 9 19 10 20 11
REMARK SMILES IDX 9 12 8 13 7 14 6 15 5 16 4 17 3 18 2 19 1 20
REMARK H PARENT
REMARK Flexibility Score: inf
ROOT
ATOM      1  C   UNL     1      -9.364  -1.773 -37.362  1.00  0.00     0.000 C 
ENDROOT
BRANCH   1   2
ATOM      2  C   UNL     1      -7.895  -2.006 -37.760  1.00  0.00     0.000 C 
BRANCH   2   3
ATOM      3  C   UNL     1      -7.575  -1.773 -39.249  1.00  0.00     0.000 C 
BRANCH   3   4
ATOM      4  C   UNL     1      -8.707  -2.232 -40.183  1.00  0.00     0.000 C 
BRANCH   4   5
ATOM      5  C   UNL     1      -8.874  -1.309 -41.403  1.00  0.00     0.000 C 
BRANCH   5   6
ATOM      6  C   UNL     1     -10.310  -0.786 -41.558  1.00  0.00     0.000 C 
BRANCH   6   7
ATOM      7  C   UNL     1     -11.259  -1.496 -40.580  1.00  0.00     0.006 C 
BRANCH   7   8
ATOM      8  C   UNL     1     -12.576  -0.733 -40.393  1.00  0.00     0.053 C 
BRANCH   8   9
ATOM      9  C   UNL     1     -13.693  -1.644 -39.986  1.00  0.00     0.041 C 
ATOM     10  O   UNL     1     -14.869  -1.422 -40.378  1.00  0.00    -0.550 OA
ATOM     11  O   UNL     1     -13.429  -2.759 -39.200  1.00  0.00    -0.550 OA
ENDBRANCH   8   9
ENDBRANCH   7   8
ENDBRANCH   6   7
ENDBRANCH   5   6
ENDBRANCH   4   5
ENDBRANCH   3   4
ENDBRANCH   2   3
ENDBRANCH   1   2
BRANCH   1  12
ATOM     12  C   UNL     1      -9.607  -0.388 -36.745  1.00  0.00     0.000 C 
BRANCH  12  13
ATOM     13  C   UNL     1     -10.198   0.578 -37.778  1.00  0.00    -0.000 C 
BRANCH  13  14
ATOM     14  C   UNL     1      -9.119   1.524 -38.327  1.00  0.00    -0.000 C 
BRANCH  14  15
ATOM     15  C   UNL     1      -9.497   2.114 -39.695  1.00  0.00    -0.000 C 
BRANCH  15  16
ATOM     16  C   UNL     1     -10.189   3.483 -39.576  1.00  0.00    -0.000 C 
BRANCH  16  17
ATOM     17  C   UNL     1     -11.627   3.457 -40.137  1.00  0.00    -0.000 C 
BRANCH  17  18
ATOM     18  C   UNL     1     -11.755   2.695 -41.467  1.00  0.00    -0.000 C 
BRANCH  18  19
ATOM     19  C   UNL     1     -12.047   3.616 -42.659  1.00  0.00    -0.003 C 
ATOM     20  C   UNL     1     -10.761   4.006 -43.383  1.00  0.00     0.004 C 
ENDBRANCH  18  19
ENDBRANCH  17  18
ENDBRANCH  16  17
ENDBRANCH  15  16
ENDBRANCH  14  15
ENDBRANCH  13  14
ENDBRANCH  12  13
ENDBRANCH   1  12
TORSDOF 16
ENDMDL
MODEL 8
REMARK VINA RESULT:    -3.699      3.628      6.436
REMARK INTER + INTRA:          -9.925
REMARK INTER:                  -7.959
REMARK INTRA:                  -1.966
REMARK UNBOUND:                -2.767
REMARK SMILES CCCCCCCCCCCCCCCCCC(=O)[O-]
REMARK SMILES IDX 10 1 11 2 12 3 13 4 14 5 15 6 16 7 17 8 18 9 19 10 20 11
REMARK SMILES IDX 9 12 8 13 7 14 6 15 5 16 4 17 3 18 2 19 1 20
REMARK H PARENT
REMARK Flexibility Score: inf
ROOT
ATOM      1  C   UNL     1     -10.467   2.044 -39.272  1.00  0.00     0.000 C 
ENDROOT
BRANCH   1   2
ATOM      2  C   UNL     1     -10.014   1.711 -40.706  1.00  0.00     0.000 C 
BRANCH   2   3
ATOM      3  C   UNL     1     -10.957   0.778 -41.490  1.00  0.00     0.000 C 
BRANCH   3   4
ATOM      4  C   UNL     1     -12.153   0.295 -40.653  1.00  0.00     0.000 C 
BRANCH   4   5
ATOM      5  C   UNL     1     -12.086  -1.211 -40.344  1.00  0.00     0.000 C 
BRANCH   5   6
ATOM      6  C   UNL     1     -11.076  -1.543 -39.235  1.00  0.00     0.000 C 
BRANCH   6   7
ATOM      7  C   UNL     1      -9.973  -2.475 -39.761  1.00  0.00     0.006 C 
BRANCH   7   8
ATOM      8  C   UNL     1      -8.599  -1.793 -39.788  1.00  0.00     0.053 C 
BRANCH   8   9
ATOM      9  C   UNL     1      -8.172  -1.461 -41.184  1.00  0.00     0.041 C 
ATOM     10  O   UNL     1      -7.168  -0.726 -41.383  1.00  0.00    -0.550 OA
ATOM     11  O   UNL     1      -8.861  -1.991 -42.267  1.00  0.00    -0.550 OA
ENDBRANCH   8   9
ENDBRANCH   7   8
ENDBRANCH   6   7
ENDBRANCH   5   6
ENDBRANCH   4   5
ENDBRANCH   3   4
ENDBRANCH   2   3
ENDBRANCH   1   2
BRANCH   1  12
ATOM     12  C   UNL     1     -10.313   3.532 -38.923  1.00  0.00     0.000 C 
BRANCH  12  13
ATOM     13  C   UNL     1     -11.644   4.276 -39.088  1.00  0.00    -0.000 C 
BRANCH  13  14
ATOM     14  C   UNL     1     -11.694   5.022 -40.431  1.00  0.00    -0.000 C 
BRANCH  14  15
ATOM     15  C   UNL     1     -12.645   4.357 -41.437  1.00  0.00    -0.000 C 
BRANCH  15  16
ATOM     16  C   UNL     1     -14.103   4.331 -40.945  1.00  0.00    -0.000 C 
BRANCH  16  17
ATOM     17  C   UNL     1     -14.854   5.637 -41.284  1.00  0.00    -0.000 C 
BRANCH  17  18
ATOM     18  C   UNL     1     -16.363   5.439 -41.504  1.00  0.00    -0.000 C 
BRANCH  18  19
ATOM     19  C   UNL     1     -17.019   4.582 -40.414  1.00  0.00    -0.003 C 
ATOM     20  C   UNL     1     -17.814   3.430 -41.022  1.00  0.00     0.004 C 
ENDBRANCH  18  19
ENDBRANCH  17  18
ENDBRANCH  16  17
ENDBRANCH  15  16
ENDBRANCH  14  15
ENDBRANCH  13  14
ENDBRANCH  12  13
ENDBRANCH   1  12
TORSDOF 16
ENDMDL
MODEL 9
REMARK VINA RESULT:    -3.658      3.875      6.000
REMARK INTER + INTRA:          -9.846
REMARK INTER:                  -8.508
REMARK INTRA:                  -1.338
REMARK UNBOUND:                -2.767
REMARK SMILES CCCCCCCCCCCCCCCCCC(=O)[O-]
REMARK SMILES IDX 10 1 11 2 12 3 13 4 14 5 15 6 16 7 17 8 18 9 19 10 20 11
REMARK SMILES IDX 9 12 8 13 7 14 6 15 5 16 4 17 3 18 2 19 1 20
REMARK H PARENT
REMARK Flexibility Score: inf
ROOT
ATOM      1  C   UNL     1     -12.429   3.279 -40.496  1.00  0.00     0.000 C 
ENDROOT
BRANCH   1   2
ATOM      2  C   UNL     1     -13.699   4.130 -40.686  1.00  0.00     0.000 C 
BRANCH   2   3
ATOM      3  C   UNL     1     -13.459   5.646 -40.808  1.00  0.00     0.000 C 
BRANCH   3   4
ATOM      4  C   UNL     1     -14.357   6.311 -41.865  1.00  0.00     0.000 C 
BRANCH   4   5
ATOM      5  C   UNL     1     -14.848   5.315 -42.930  1.00  0.00     0.000 C 
BRANCH   5   6
ATOM      6  C   UNL     1     -16.363   5.403 -43.169  1.00  0.00     0.000 C 
BRANCH   6   7
ATOM      7  C   UNL     1     -17.140   5.001 -41.905  1.00  0.00     0.006 C 
BRANCH   7   8
ATOM      8  C   UNL     1     -18.366   5.893 -41.669  1.00  0.00     0.053 C 
BRANCH   8   9
ATOM      9  C   UNL     1     -18.021   7.108 -40.864  1.00  0.00     0.041 C 
ATOM     10  O   UNL     1     -18.282   7.150 -39.633  1.00  0.00    -0.550 OA
ATOM     11  O   UNL     1     -17.380   8.182 -41.468  1.00  0.00    -0.550 OA
ENDBRANCH   8   9
ENDBRANCH   7   8
ENDBRANCH   6   7
ENDBRANCH   5   6
ENDBRANCH   4   5
ENDBRANCH   3   4
ENDBRANCH   2   3
ENDBRANCH   1   2
BRANCH   1  12
ATOM     12  C   UNL     1     -11.713   2.965 -41.817  1.00  0.00     0.000 C 
BRANCH  12  13
ATOM     13  C   UNL     1     -10.712   1.817 -41.640  1.00  0.00    -0.000 C 
BRANCH  13  14
ATOM     14  C   UNL     1     -10.280   1.686 -40.171  1.00  0.00    -0.000 C 
BRANCH  14  15
ATOM     15  C   UNL     1      -9.786   0.271 -39.829  1.00  0.00    -0.000 C 
BRANCH  15  16
ATOM     16  C   UNL     1     -10.446  -0.293 -38.558  1.00  0.00    -0.000 C 
BRANCH  16  17
ATOM     17  C   UNL     1     -11.255  -1.577 -38.846  1.00  0.00    -0.000 C 
BRANCH  17  18
ATOM     18  C   UNL     1     -12.226  -1.439 -40.031  1.00  0.00    -0.000 C 
BRANCH  18  19
ATOM     19  C   UNL     1     -13.636  -1.955 -39.713  1.00  0.00    -0.003 C 
ATOM     20  C   UNL     1     -14.702  -1.102 -40.394  1.00  0.00     0.004 C 
ENDBRANCH  18  19
ENDBRANCH  17  18
ENDBRANCH  16  17
ENDBRANCH  15  16
ENDBRANCH  14  15
ENDBRANCH  13  14
ENDBRANCH  12  13
ENDBRANCH   1  12
TORSDOF 16
ENDMDL
