MODEL 1
REMARK VINA RESULT:     5.871      0.000      0.000
REMARK INTER + INTRA:           5.949
REMARK INTER:                   6.214
REMARK INTRA:                  -0.265
REMARK UNBOUND:                -0.265
REMARK SMILES CC1=C[C@@H]2C(=C(C)CC[C@H]2C(C)C)CC1
REMARK SMILES IDX 1 1 2 2 3 3 4 4 10 5 9 6 8 7 6 8 5 9 14 10 15 11 7 12 11 13
REMARK SMILES IDX 12 14 13 15
REMARK H PARENT
REMARK Flexibility Score: inf
ROOT
ATOM      1  C   UNL     1     137.091 137.509 167.374  1.00  0.00     0.039 C 
ATOM      2  C   UNL     1     136.766 138.186 166.070  1.00  0.00    -0.076 C 
ATOM      3  C   UNL     1     136.989 137.529 164.912  1.00  0.00    -0.020 C 
ATOM      4  C   UNL     1     136.754 138.128 163.528  1.00  0.00     0.041 C 
ATOM      5  C   UNL     1     135.878 137.206 162.621  1.00  0.00     0.003 C 
ATOM      6  C   UNL     1     135.657 137.937 161.283  1.00  0.00     0.009 C 
ATOM      7  C   UNL     1     134.879 139.233 161.490  1.00  0.00     0.031 C 
ATOM      8  C   UNL     1     135.398 140.078 162.632  1.00  0.00    -0.073 C 
ATOM      9  C   UNL     1     136.180 139.549 163.618  1.00  0.00    -0.064 C 
ATOM     10  C   UNL     1     136.603 140.350 164.834  1.00  0.00     0.036 C 
ATOM     11  C   UNL     1     136.187 139.580 166.082  1.00  0.00     0.035 C 
ATOM     12  C   UNL     1     134.875 141.494 162.702  1.00  0.00     0.039 C 
ENDROOT
BRANCH   5  13
ATOM     13  C   UNL     1     136.428 135.760 162.334  1.00  0.00    -0.013 C 
ATOM     14  C   UNL     1     135.508 134.888 161.465  1.00  0.00     0.007 C 
ATOM     15  C   UNL     1     137.874 135.753 161.809  1.00  0.00     0.007 C 
ENDBRANCH   5  13
TORSDOF 1
ENDMDL
MODEL 2
REMARK VINA RESULT:     6.599      1.139      4.195
REMARK INTER + INTRA:           6.720
REMARK INTER:                   6.991
REMARK INTRA:                  -0.271
REMARK UNBOUND:                -0.265
REMARK SMILES CC1=C[C@@H]2C(=C(C)CC[C@H]2C(C)C)CC1
REMARK SMILES IDX 1 1 2 2 3 3 4 4 10 5 9 6 8 7 6 8 5 9 14 10 15 11 7 12 11 13
REMARK SMILES IDX 12 14 13 15
REMARK H PARENT
REMARK Flexibility Score: inf
ROOT
ATOM      1  C   UNL     1     137.606 134.963 161.862  1.00  0.00     0.039 C 
ATOM      2  C   UNL     1     136.899 136.274 162.078  1.00  0.00    -0.076 C 
ATOM      3  C   UNL     1     136.664 136.698 163.339  1.00  0.00    -0.020 C 
ATOM      4  C   UNL     1     135.909 137.978 163.685  1.00  0.00     0.041 C 
ATOM      5  C   UNL     1     136.696 138.881 164.688  1.00  0.00     0.003 C 
ATOM      6  C   UNL     1     135.871 140.162 164.913  1.00  0.00     0.009 C 
ATOM      7  C   UNL     1     135.724 140.952 163.617  1.00  0.00     0.031 C 
ATOM      8  C   UNL     1     135.326 140.105 162.429  1.00  0.00    -0.073 C 
ATOM      9  C   UNL     1     135.499 138.750 162.424  1.00  0.00    -0.064 C 
ATOM     10  C   UNL     1     135.224 137.904 161.197  1.00  0.00     0.036 C 
ATOM     11  C   UNL     1     136.477 137.095 160.884  1.00  0.00     0.035 C 
ATOM     12  C   UNL     1     134.876 140.856 161.197  1.00  0.00     0.039 C 
ENDROOT
BRANCH   5  13
ATOM     13  C   UNL     1     137.058 138.248 166.082  1.00  0.00    -0.013 C 
ATOM     14  C   UNL     1     138.201 138.956 166.827  1.00  0.00     0.007 C 
ATOM     15  C   UNL     1     135.834 138.042 166.992  1.00  0.00     0.007 C 
ENDBRANCH   5  13
TORSDOF 1
ENDMDL
