MODEL 1
REMARK VINA RESULT:    -5.584      0.000      0.000
REMARK INTER + INTRA:         -10.818
REMARK INTER:                  -8.521
REMARK INTRA:                  -2.296
REMARK UNBOUND:                -2.296
REMARK SMILES CC(=O)CCC=C(C)CCC=C(C)CCC=C(C)C
REMARK SMILES IDX 10 1 11 2 12 3 13 4 14 5 15 6 16 7 18 8 17 9 19 10 9 11 7 12
REMARK SMILES IDX 6 13 8 14 5 15 4 16 2 17 3 18 1 19
REMARK H PARENT
REMARK Flexibility Score: inf
ROOT
ATOM      1  C   UNL     1      15.186 -33.910  23.393  1.00  0.00     0.032 C 
ENDROOT
BRANCH   1   2
ATOM      2  C   UNL     1      15.750 -34.520  22.132  1.00  0.00    -0.028 C 
ATOM      3  C   UNL     1      15.386 -34.168  20.878  1.00  0.00    -0.077 C 
ATOM      4  C   UNL     1      14.303 -33.148  20.617  1.00  0.00     0.039 C 
BRANCH   3   5
ATOM      5  C   UNL     1      16.070 -34.830  19.700  1.00  0.00     0.034 C 
BRANCH   5   6
ATOM      6  C   UNL     1      17.227 -33.981  19.154  1.00  0.00     0.032 C 
BRANCH   6   7
ATOM      7  C   UNL     1      18.316 -33.790  20.184  1.00  0.00    -0.028 C 
ATOM      8  C   UNL     1      17.755 -31.381  20.580  1.00  0.00     0.039 C 
ATOM      9  C   UNL     1      18.589 -32.619  20.801  1.00  0.00    -0.080 C 
ATOM     10  C   UNL     1      19.723 -32.541  21.790  1.00  0.00     0.039 C 
ENDBRANCH   6   7
ENDBRANCH   5   6
ENDBRANCH   3   5
ENDBRANCH   1   2
BRANCH   1  11
ATOM     11  C   UNL     1      16.282 -33.263  24.252  1.00  0.00     0.034 C 
BRANCH  11  12
ATOM     12  C   UNL     1      16.409 -31.777  23.980  1.00  0.00    -0.077 C 
ATOM     13  C   UNL     1      15.366 -31.113  23.434  1.00  0.00    -0.028 C 
ATOM     14  C   UNL     1      17.698 -31.070  24.326  1.00  0.00     0.039 C 
BRANCH  13  15
ATOM     15  C   UNL     1      15.397 -29.634  23.136  1.00  0.00     0.035 C 
BRANCH  15  16
ATOM     16  C   UNL     1      14.233 -29.226  22.228  1.00  0.00     0.079 C 
BRANCH  16  17
ATOM     17  C   UNL     1      12.915 -29.400  22.938  1.00  0.00     0.130 C 
ATOM     18  O   UNL     1      12.074 -30.152  22.467  1.00  0.00    -0.300 OA
ATOM     19  C   UNL     1      12.606 -28.661  24.206  1.00  0.00     0.087 C 
ENDBRANCH  16  17
ENDBRANCH  15  16
ENDBRANCH  13  15
ENDBRANCH  11  12
ENDBRANCH   1  11
TORSDOF 9
ENDMDL
MODEL 2
REMARK VINA RESULT:    -5.561      1.152      3.159
REMARK INTER + INTRA:         -10.783
REMARK INTER:                  -8.443
REMARK INTRA:                  -2.340
REMARK UNBOUND:                -2.296
REMARK SMILES CC(=O)CCC=C(C)CCC=C(C)CCC=C(C)C
REMARK SMILES IDX 10 1 11 2 12 3 13 4 14 5 15 6 16 7 18 8 17 9 19 10 9 11 7 12
REMARK SMILES IDX 6 13 8 14 5 15 4 16 2 17 3 18 1 19
REMARK H PARENT
REMARK Flexibility Score: inf
ROOT
ATOM      1  C   UNL     1      18.652 -31.220  21.544  1.00  0.00     0.032 C 
ENDROOT
BRANCH   1   2
ATOM      2  C   UNL     1      18.403 -32.299  20.517  1.00  0.00    -0.028 C 
ATOM      3  C   UNL     1      18.472 -33.627  20.764  1.00  0.00    -0.077 C 
ATOM      4  C   UNL     1      18.882 -34.168  22.113  1.00  0.00     0.039 C 
BRANCH   3   5
ATOM      5  C   UNL     1      18.151 -34.600  19.649  1.00  0.00     0.034 C 
BRANCH   5   6
ATOM      6  C   UNL     1      16.764 -35.236  19.823  1.00  0.00     0.032 C 
BRANCH   6   7
ATOM      7  C   UNL     1      15.656 -34.235  19.592  1.00  0.00    -0.028 C 
ATOM      8  C   UNL     1      15.090 -34.045  22.025  1.00  0.00     0.039 C 
ATOM      9  C   UNL     1      14.871 -33.723  20.567  1.00  0.00    -0.080 C 
ATOM     10  C   UNL     1      13.774 -32.754  20.212  1.00  0.00     0.039 C 
ENDBRANCH   6   7
ENDBRANCH   5   6
ENDBRANCH   3   5
ENDBRANCH   1   2
BRANCH   1  11
ATOM     11  C   UNL     1      17.494 -30.213  21.603  1.00  0.00     0.034 C 
BRANCH  11  12
ATOM     12  C   UNL     1      16.477 -30.584  22.663  1.00  0.00    -0.077 C 
ATOM     13  C   UNL     1      15.178 -30.259  22.477  1.00  0.00    -0.028 C 
ATOM     14  C   UNL     1      16.936 -31.312  23.904  1.00  0.00     0.039 C 
BRANCH  13  15
ATOM     15  C   UNL     1      14.095 -30.596  23.472  1.00  0.00     0.035 C 
BRANCH  15  16
ATOM     16  C   UNL     1      12.703 -30.383  22.870  1.00  0.00     0.079 C 
BRANCH  16  17
ATOM     17  C   UNL     1      12.126 -29.064  23.311  1.00  0.00     0.130 C 
ATOM     18  O   UNL     1      11.186 -28.583  22.695  1.00  0.00    -0.300 OA
ATOM     19  C   UNL     1      12.687 -28.317  24.485  1.00  0.00     0.087 C 
ENDBRANCH  16  17
ENDBRANCH  15  16
ENDBRANCH  13  15
ENDBRANCH  11  12
ENDBRANCH   1  11
TORSDOF 9
ENDMDL
MODEL 3
REMARK VINA RESULT:    -5.409      1.929      4.297
REMARK INTER + INTRA:         -10.550
REMARK INTER:                  -7.968
REMARK INTRA:                  -2.583
REMARK UNBOUND:                -2.296
REMARK SMILES CC(=O)CCC=C(C)CCC=C(C)CCC=C(C)C
REMARK SMILES IDX 10 1 11 2 12 3 13 4 14 5 15 6 16 7 18 8 17 9 19 10 9 11 7 12
REMARK SMILES IDX 6 13 8 14 5 15 4 16 2 17 3 18 1 19
REMARK H PARENT
REMARK Flexibility Score: inf
ROOT
ATOM      1  C   UNL     1      17.634 -37.125  20.771  1.00  0.00     0.032 C 
ENDROOT
BRANCH   1   2
ATOM      2  C   UNL     1      18.818 -36.314  21.243  1.00  0.00    -0.028 C 
ATOM      3  C   UNL     1      18.850 -35.595  22.387  1.00  0.00    -0.077 C 
ATOM      4  C   UNL     1      17.646 -35.479  23.293  1.00  0.00     0.039 C 
BRANCH   3   5
ATOM      5  C   UNL     1      20.123 -34.865  22.762  1.00  0.00     0.034 C 
BRANCH   5   6
ATOM      6  C   UNL     1      19.865 -33.385  23.083  1.00  0.00     0.032 C 
BRANCH   6   7
ATOM      7  C   UNL     1      19.268 -32.653  21.904  1.00  0.00    -0.028 C 
ATOM      8  C   UNL     1      17.654 -31.353  23.311  1.00  0.00     0.039 C 
ATOM      9  C   UNL     1      18.249 -31.768  21.988  1.00  0.00    -0.080 C 
ATOM     10  C   UNL     1      17.714 -31.122  20.737  1.00  0.00     0.039 C 
ENDBRANCH   6   7
ENDBRANCH   5   6
ENDBRANCH   3   5
ENDBRANCH   1   2
BRANCH   1  11
ATOM     11  C   UNL     1      17.096 -36.615  19.425  1.00  0.00     0.034 C 
BRANCH  11  12
ATOM     12  C   UNL     1      16.530 -35.214  19.538  1.00  0.00    -0.077 C 
ATOM     13  C   UNL     1      15.434 -35.002  20.300  1.00  0.00    -0.028 C 
ATOM     14  C   UNL     1      17.204 -34.083  18.797  1.00  0.00     0.039 C 
BRANCH  13  15
ATOM     15  C   UNL     1      14.806 -33.641  20.479  1.00  0.00     0.035 C 
BRANCH  15  16
ATOM     16  C   UNL     1      14.763 -33.239  21.956  1.00  0.00     0.079 C 
BRANCH  16  17
ATOM     17  C   UNL     1      14.080 -31.908  22.127  1.00  0.00     0.130 C 
ATOM     18  O   UNL     1      14.062 -31.379  23.229  1.00  0.00    -0.300 OA
ATOM     19  C   UNL     1      13.408 -31.219  20.977  1.00  0.00     0.087 C 
ENDBRANCH  16  17
ENDBRANCH  15  16
ENDBRANCH  13  15
ENDBRANCH  11  12
ENDBRANCH   1  11
TORSDOF 9
ENDMDL
MODEL 4
REMARK VINA RESULT:    -5.350      2.295      4.894
REMARK INTER + INTRA:         -10.461
REMARK INTER:                  -7.556
REMARK INTRA:                  -2.905
REMARK UNBOUND:                -2.296
REMARK SMILES CC(=O)CCC=C(C)CCC=C(C)CCC=C(C)C
REMARK SMILES IDX 10 1 11 2 12 3 13 4 14 5 15 6 16 7 18 8 17 9 19 10 9 11 7 12
REMARK SMILES IDX 6 13 8 14 5 15 4 16 2 17 3 18 1 19
REMARK H PARENT
REMARK Flexibility Score: inf
ROOT
ATOM      1  C   UNL     1      15.652 -34.759  20.991  1.00  0.00     0.032 C 
ENDROOT
BRANCH   1   2
ATOM      2  C   UNL     1      14.956 -34.003  22.097  1.00  0.00    -0.028 C 
ATOM      3  C   UNL     1      15.408 -33.909  23.368  1.00  0.00    -0.077 C 
ATOM      4  C   UNL     1      16.654 -34.629  23.828  1.00  0.00     0.039 C 
BRANCH   3   5
ATOM      5  C   UNL     1      14.631 -33.076  24.367  1.00  0.00     0.034 C 
BRANCH   5   6
ATOM      6  C   UNL     1      13.811 -31.974  23.680  1.00  0.00     0.032 C 
BRANCH   6   7
ATOM      7  C   UNL     1      14.659 -30.768  23.351  1.00  0.00    -0.028 C 
ATOM      8  C   UNL     1      13.991 -30.746  20.936  1.00  0.00     0.039 C 
ATOM      9  C   UNL     1      14.780 -30.231  22.116  1.00  0.00    -0.080 C 
ATOM     10  C   UNL     1      15.682 -29.044  21.901  1.00  0.00     0.039 C 
ENDBRANCH   6   7
ENDBRANCH   5   6
ENDBRANCH   3   5
ENDBRANCH   1   2
BRANCH   1  11
ATOM     11  C   UNL     1      16.295 -33.809  19.969  1.00  0.00     0.034 C 
BRANCH  11  12
ATOM     12  C   UNL     1      17.646 -33.307  20.437  1.00  0.00    -0.077 C 
ATOM     13  C   UNL     1      17.849 -31.977  20.566  1.00  0.00    -0.028 C 
ATOM     14  C   UNL     1      18.736 -34.304  20.749  1.00  0.00     0.039 C 
BRANCH  13  15
ATOM     15  C   UNL     1      19.157 -31.386  21.033  1.00  0.00     0.035 C 
BRANCH  15  16
ATOM     16  C   UNL     1      18.973 -30.580  22.322  1.00  0.00     0.079 C 
BRANCH  16  17
ATOM     17  C   UNL     1      18.945 -31.490  23.522  1.00  0.00     0.130 C 
ATOM     18  O   UNL     1      19.730 -32.425  23.585  1.00  0.00    -0.300 OA
ATOM     19  C   UNL     1      17.966 -31.282  24.639  1.00  0.00     0.087 C 
ENDBRANCH  16  17
ENDBRANCH  15  16
ENDBRANCH  13  15
ENDBRANCH  11  12
ENDBRANCH   1  11
TORSDOF 9
ENDMDL
MODEL 5
REMARK VINA RESULT:    -5.336      1.967      3.034
REMARK INTER + INTRA:         -10.440
REMARK INTER:                  -9.038
REMARK INTRA:                  -1.402
REMARK UNBOUND:                -2.296
REMARK SMILES CC(=O)CCC=C(C)CCC=C(C)CCC=C(C)C
REMARK SMILES IDX 10 1 11 2 12 3 13 4 14 5 15 6 16 7 18 8 17 9 19 10 9 11 7 12
REMARK SMILES IDX 6 13 8 14 5 15 4 16 2 17 3 18 1 19
REMARK H PARENT
REMARK Flexibility Score: inf
ROOT
ATOM      1  C   UNL     1      14.656 -33.808  20.307  1.00  0.00     0.032 C 
ENDROOT
BRANCH   1   2
ATOM      2  C   UNL     1      15.400 -35.109  20.119  1.00  0.00    -0.028 C 
ATOM      3  C   UNL     1      16.622 -35.221  19.551  1.00  0.00    -0.077 C 
ATOM      4  C   UNL     1      17.349 -34.028  18.976  1.00  0.00     0.039 C 
BRANCH   3   5
ATOM      5  C   UNL     1      17.273 -36.586  19.470  1.00  0.00     0.034 C 
BRANCH   5   6
ATOM      6  C   UNL     1      17.642 -37.131  20.857  1.00  0.00     0.032 C 
BRANCH   6   7
ATOM      7  C   UNL     1      18.792 -36.367  21.472  1.00  0.00    -0.028 C 
ATOM      8  C   UNL     1      17.377 -35.346  23.269  1.00  0.00     0.039 C 
ATOM      9  C   UNL     1      18.679 -35.532  22.529  1.00  0.00    -0.080 C 
ATOM     10  C   UNL     1      19.892 -34.798  23.036  1.00  0.00     0.039 C 
ENDBRANCH   6   7
ENDBRANCH   5   6
ENDBRANCH   3   5
ENDBRANCH   1   2
BRANCH   1  11
ATOM     11  C   UNL     1      14.691 -33.339  21.769  1.00  0.00     0.034 C 
BRANCH  11  12
ATOM     12  C   UNL     1      14.194 -31.915  21.917  1.00  0.00    -0.077 C 
ATOM     13  C   UNL     1      14.669 -31.149  22.923  1.00  0.00    -0.028 C 
ATOM     14  C   UNL     1      13.178 -31.382  20.934  1.00  0.00     0.039 C 
BRANCH  13  15
ATOM     15  C   UNL     1      14.240 -29.719  23.143  1.00  0.00     0.035 C 
BRANCH  15  16
ATOM     16  C   UNL     1      13.038 -29.639  24.089  1.00  0.00     0.079 C 
BRANCH  16  17
ATOM     17  C   UNL     1      12.332 -28.317  23.945  1.00  0.00     0.130 C 
ATOM     18  O   UNL     1      12.720 -27.355  24.591  1.00  0.00    -0.300 OA
ATOM     19  C   UNL     1      11.151 -28.155  23.034  1.00  0.00     0.087 C 
ENDBRANCH  16  17
ENDBRANCH  15  16
ENDBRANCH  13  15
ENDBRANCH  11  12
ENDBRANCH   1  11
TORSDOF 9
ENDMDL
MODEL 6
REMARK VINA RESULT:    -5.307      2.218      5.834
REMARK INTER + INTRA:         -10.395
REMARK INTER:                  -8.147
REMARK INTRA:                  -2.248
REMARK UNBOUND:                -2.296
REMARK SMILES CC(=O)CCC=C(C)CCC=C(C)CCC=C(C)C
REMARK SMILES IDX 10 1 11 2 12 3 13 4 14 5 15 6 16 7 18 8 17 9 19 10 9 11 7 12
REMARK SMILES IDX 6 13 8 14 5 15 4 16 2 17 3 18 1 19
REMARK H PARENT
REMARK Flexibility Score: inf
ROOT
ATOM      1  C   UNL     1      17.777 -31.556  24.150  1.00  0.00     0.032 C 
ENDROOT
BRANCH   1   2
ATOM      2  C   UNL     1      16.308 -31.501  23.804  1.00  0.00    -0.028 C 
ATOM      3  C   UNL     1      15.447 -32.534  23.938  1.00  0.00    -0.077 C 
ATOM      4  C   UNL     1      15.902 -33.900  24.397  1.00  0.00     0.039 C 
BRANCH   3   5
ATOM      5  C   UNL     1      13.986 -32.324  23.597  1.00  0.00     0.034 C 
BRANCH   5   6
ATOM      6  C   UNL     1      13.806 -31.416  22.372  1.00  0.00     0.032 C 
BRANCH   6   7
ATOM      7  C   UNL     1      12.615 -30.499  22.524  1.00  0.00    -0.028 C 
ATOM      8  C   UNL     1      14.008 -28.518  23.166  1.00  0.00     0.039 C 
ATOM      9  C   UNL     1      12.689 -29.208  22.918  1.00  0.00    -0.080 C 
ATOM     10  C   UNL     1      11.428 -28.397  23.065  1.00  0.00     0.039 C 
ENDBRANCH   6   7
ENDBRANCH   5   6
ENDBRANCH   3   5
ENDBRANCH   1   2
BRANCH   1  11
ATOM     11  C   UNL     1      18.661 -31.292  22.921  1.00  0.00     0.034 C 
BRANCH  11  12
ATOM     12  C   UNL     1      18.474 -32.350  21.853  1.00  0.00    -0.077 C 
ATOM     13  C   UNL     1      18.812 -33.631  22.123  1.00  0.00    -0.028 C 
ATOM     14  C   UNL     1      17.911 -31.951  20.509  1.00  0.00     0.039 C 
BRANCH  13  15
ATOM     15  C   UNL     1      18.653 -34.752  21.126  1.00  0.00     0.035 C 
BRANCH  15  16
ATOM     16  C   UNL     1      17.474 -35.659  21.494  1.00  0.00     0.079 C 
BRANCH  16  17
ATOM     17  C   UNL     1      16.355 -35.511  20.496  1.00  0.00     0.130 C 
ATOM     18  O   UNL     1      16.347 -36.212  19.494  1.00  0.00    -0.300 OA
ATOM     19  C   UNL     1      15.254 -34.513  20.697  1.00  0.00     0.087 C 
ENDBRANCH  16  17
ENDBRANCH  15  16
ENDBRANCH  13  15
ENDBRANCH  11  12
ENDBRANCH   1  11
TORSDOF 9
ENDMDL
MODEL 7
REMARK VINA RESULT:    -5.301      2.851      4.297
REMARK INTER + INTRA:         -10.387
REMARK INTER:                  -7.940
REMARK INTRA:                  -2.447
REMARK UNBOUND:                -2.296
REMARK SMILES CC(=O)CCC=C(C)CCC=C(C)CCC=C(C)C
REMARK SMILES IDX 10 1 11 2 12 3 13 4 14 5 15 6 16 7 18 8 17 9 19 10 9 11 7 12
REMARK SMILES IDX 6 13 8 14 5 15 4 16 2 17 3 18 1 19
REMARK H PARENT
REMARK Flexibility Score: inf
ROOT
ATOM      1  C   UNL     1      14.793 -33.675  20.495  1.00  0.00     0.032 C 
ENDROOT
BRANCH   1   2
ATOM      2  C   UNL     1      15.466 -35.018  20.334  1.00  0.00    -0.028 C 
ATOM      3  C   UNL     1      16.574 -35.239  19.592  1.00  0.00    -0.077 C 
ATOM      4  C   UNL     1      17.222 -34.144  18.777  1.00  0.00     0.039 C 
BRANCH   3   5
ATOM      5  C   UNL     1      17.172 -36.630  19.558  1.00  0.00     0.034 C 
BRANCH   5   6
ATOM      6  C   UNL     1      17.781 -37.027  20.910  1.00  0.00     0.032 C 
BRANCH   6   7
ATOM      7  C   UNL     1      18.755 -35.987  21.413  1.00  0.00    -0.028 C 
ATOM      8  C   UNL     1      17.427 -35.496  23.479  1.00  0.00     0.039 C 
ATOM      9  C   UNL     1      18.588 -35.264  22.543  1.00  0.00    -0.080 C 
ATOM     10  C   UNL     1      19.612 -34.230  22.929  1.00  0.00     0.039 C 
ENDBRANCH   6   7
ENDBRANCH   5   6
ENDBRANCH   3   5
ENDBRANCH   1   2
BRANCH   1  11
ATOM     11  C   UNL     1      14.764 -33.225  21.964  1.00  0.00     0.034 C 
BRANCH  11  12
ATOM     12  C   UNL     1      15.869 -32.235  22.272  1.00  0.00    -0.077 C 
ATOM     13  C   UNL     1      16.487 -31.594  21.255  1.00  0.00    -0.028 C 
ATOM     14  C   UNL     1      16.254 -31.983  23.711  1.00  0.00     0.039 C 
BRANCH  13  15
ATOM     15  C   UNL     1      17.590 -30.586  21.466  1.00  0.00     0.035 C 
BRANCH  15  16
ATOM     16  C   UNL     1      18.943 -31.140  21.009  1.00  0.00     0.079 C 
BRANCH  16  17
ATOM     17  C   UNL     1      20.075 -30.386  21.656  1.00  0.00     0.130 C 
ATOM     18  O   UNL     1      20.413 -30.670  22.796  1.00  0.00    -0.300 OA
ATOM     19  C   UNL     1      20.791 -29.282  20.937  1.00  0.00     0.087 C 
ENDBRANCH  16  17
ENDBRANCH  15  16
ENDBRANCH  13  15
ENDBRANCH  11  12
ENDBRANCH   1  11
TORSDOF 9
ENDMDL
MODEL 8
REMARK VINA RESULT:    -5.296      2.132      5.776
REMARK INTER + INTRA:         -10.379
REMARK INTER:                  -9.006
REMARK INTRA:                  -1.372
REMARK UNBOUND:                -2.296
REMARK SMILES CC(=O)CCC=C(C)CCC=C(C)CCC=C(C)C
REMARK SMILES IDX 10 1 11 2 12 3 13 4 14 5 15 6 16 7 18 8 17 9 19 10 9 11 7 12
REMARK SMILES IDX 6 13 8 14 5 15 4 16 2 17 3 18 1 19
REMARK H PARENT
REMARK Flexibility Score: inf
ROOT
ATOM      1  C   UNL     1      15.302 -34.782  20.293  1.00  0.00     0.032 C 
ENDROOT
BRANCH   1   2
ATOM      2  C   UNL     1      14.576 -33.486  20.565  1.00  0.00    -0.028 C 
ATOM      3  C   UNL     1      14.583 -32.834  21.750  1.00  0.00    -0.077 C 
ATOM      4  C   UNL     1      15.283 -33.394  22.966  1.00  0.00     0.039 C 
BRANCH   3   5
ATOM      5  C   UNL     1      13.848 -31.514  21.868  1.00  0.00     0.034 C 
BRANCH   5   6
ATOM      6  C   UNL     1      13.071 -31.406  23.187  1.00  0.00     0.032 C 
BRANCH   6   7
ATOM      7  C   UNL     1      13.363 -30.108  23.904  1.00  0.00    -0.028 C 
ATOM      8  C   UNL     1      11.335 -28.952  22.995  1.00  0.00     0.039 C 
ATOM      9  C   UNL     1      12.614 -28.987  23.795  1.00  0.00    -0.080 C 
ATOM     10  C   UNL     1      13.022 -27.740  24.534  1.00  0.00     0.039 C 
ENDBRANCH   6   7
ENDBRANCH   5   6
ENDBRANCH   3   5
ENDBRANCH   1   2
BRANCH   1  11
ATOM     11  C   UNL     1      16.526 -34.571  19.389  1.00  0.00     0.034 C 
BRANCH  11  12
ATOM     12  C   UNL     1      17.726 -34.076  20.170  1.00  0.00    -0.077 C 
ATOM     13  C   UNL     1      18.001 -32.753  20.194  1.00  0.00    -0.028 C 
ATOM     14  C   UNL     1      18.589 -35.072  20.907  1.00  0.00     0.039 C 
BRANCH  13  15
ATOM     15  C   UNL     1      19.168 -32.167  20.951  1.00  0.00     0.035 C 
BRANCH  15  16
ATOM     16  C   UNL     1      18.730 -30.982  21.816  1.00  0.00     0.079 C 
BRANCH  16  17
ATOM     17  C   UNL     1      19.280 -29.690  21.269  1.00  0.00     0.130 C 
ATOM     18  O   UNL     1      18.509 -28.812  20.912  1.00  0.00    -0.300 OA
ATOM     19  C   UNL     1      20.757 -29.461  21.141  1.00  0.00     0.087 C 
ENDBRANCH  16  17
ENDBRANCH  15  16
ENDBRANCH  13  15
ENDBRANCH  11  12
ENDBRANCH   1  11
TORSDOF 9
ENDMDL
MODEL 9
REMARK VINA RESULT:    -5.256      1.843      3.535
REMARK INTER + INTRA:         -10.317
REMARK INTER:                  -7.878
REMARK INTRA:                  -2.439
REMARK UNBOUND:                -2.296
REMARK SMILES CC(=O)CCC=C(C)CCC=C(C)CCC=C(C)C
REMARK SMILES IDX 10 1 11 2 12 3 13 4 14 5 15 6 16 7 18 8 17 9 19 10 9 11 7 12
REMARK SMILES IDX 6 13 8 14 5 15 4 16 2 17 3 18 1 19
REMARK H PARENT
REMARK Flexibility Score: inf
ROOT
ATOM      1  C   UNL     1      19.737 -33.673  22.643  1.00  0.00     0.032 C 
ENDROOT
BRANCH   1   2
ATOM      2  C   UNL     1      19.483 -35.001  21.972  1.00  0.00    -0.028 C 
ATOM      3  C   UNL     1      18.496 -35.860  22.315  1.00  0.00    -0.077 C 
ATOM      4  C   UNL     1      17.570 -35.591  23.478  1.00  0.00     0.039 C 
BRANCH   3   5
ATOM      5  C   UNL     1      18.326 -37.140  21.523  1.00  0.00     0.034 C 
BRANCH   5   6
ATOM      6  C   UNL     1      17.783 -36.875  20.111  1.00  0.00     0.032 C 
BRANCH   6   7
ATOM      7  C   UNL     1      16.501 -36.075  20.146  1.00  0.00    -0.028 C 
ATOM      8  C   UNL     1      17.487 -34.122  18.925  1.00  0.00     0.039 C 
ATOM      9  C   UNL     1      16.366 -34.823  19.653  1.00  0.00    -0.080 C 
ATOM     10  C   UNL     1      15.045 -34.111  19.773  1.00  0.00     0.039 C 
ENDBRANCH   6   7
ENDBRANCH   5   6
ENDBRANCH   3   5
ENDBRANCH   1   2
BRANCH   1  11
ATOM     11  C   UNL     1      19.469 -32.495  21.694  1.00  0.00     0.034 C 
BRANCH  11  12
ATOM     12  C   UNL     1      18.139 -31.829  21.982  1.00  0.00    -0.077 C 
ATOM     13  C   UNL     1      17.527 -32.057  23.165  1.00  0.00    -0.028 C 
ATOM     14  C   UNL     1      17.526 -30.923  20.940  1.00  0.00     0.039 C 
BRANCH  13  15
ATOM     15  C   UNL     1      16.207 -31.431  23.543  1.00  0.00     0.035 C 
BRANCH  15  16
ATOM     16  C   UNL     1      15.032 -32.322  23.128  1.00  0.00     0.079 C 
BRANCH  16  17
ATOM     17  C   UNL     1      13.838 -31.487  22.746  1.00  0.00     0.130 C 
ATOM     18  O   UNL     1      13.143 -30.995  23.623  1.00  0.00    -0.300 OA
ATOM     19  C   UNL     1      13.473 -31.254  21.309  1.00  0.00     0.087 C 
ENDBRANCH  16  17
ENDBRANCH  15  16
ENDBRANCH  13  15
ENDBRANCH  11  12
ENDBRANCH   1  11
TORSDOF 9
ENDMDL
