MODEL 1
REMARK VINA RESULT:    -5.429      0.000      0.000
REMARK INTER + INTRA:          -8.803
REMARK INTER:                  -8.285
REMARK INTRA:                  -0.518
REMARK UNBOUND:                -0.518
REMARK SMILES O=C([O-])CCCCCCCCC(=O)[O-]
REMARK SMILES IDX 7 1 6 2 5 3 4 4 2 5 1 6 3 7 8 8 9 9 10 10 11 11 12 12 13 13
REMARK SMILES IDX 14 14
REMARK H PARENT
REMARK Flexibility Score: inf
ROOT
ATOM      1  C   UNL     1      13.237   2.630  15.616  1.00  0.00     0.000 C 
ENDROOT
BRANCH   1   2
ATOM      2  C   UNL     1      12.884   3.526  16.809  1.00  0.00     0.000 C 
BRANCH   2   3
ATOM      3  C   UNL     1      14.115   3.788  17.685  1.00  0.00     0.006 C 
BRANCH   3   4
ATOM      4  C   UNL     1      13.965   3.125  19.056  1.00  0.00     0.053 C 
BRANCH   4   5
ATOM      5  C   UNL     1      14.433   1.706  19.007  1.00  0.00     0.041 C 
ATOM      6  O   UNL     1      13.630   0.765  19.248  1.00  0.00    -0.550 OA
ATOM      7  O   UNL     1      15.767   1.423  18.745  1.00  0.00    -0.550 OA
ENDBRANCH   4   5
ENDBRANCH   3   4
ENDBRANCH   2   3
ENDBRANCH   1   2
BRANCH   1   8
ATOM      8  C   UNL     1      14.752   2.591  15.384  1.00  0.00     0.000 C 
BRANCH   8   9
ATOM      9  C   UNL     1      15.102   3.043  13.959  1.00  0.00     0.000 C 
BRANCH   9  10
ATOM     10  C   UNL     1      15.135   1.876  12.960  1.00  0.00     0.006 C 
BRANCH  10  11
ATOM     11  C   UNL     1      15.873   2.230  11.662  1.00  0.00     0.053 C 
BRANCH  11  12
ATOM     12  C   UNL     1      16.971   1.248  11.402  1.00  0.00     0.041 C 
ATOM     13  O   UNL     1      17.400   1.072  10.231  1.00  0.00    -0.550 OA
ATOM     14  O   UNL     1      17.488   0.490  12.445  1.00  0.00    -0.550 OA
ENDBRANCH  11  12
ENDBRANCH  10  11
ENDBRANCH   9  10
ENDBRANCH   8   9
ENDBRANCH   1   8
TORSDOF 9
ENDMDL
MODEL 2
REMARK VINA RESULT:    -5.415      0.711      6.758
REMARK INTER + INTRA:          -8.782
REMARK INTER:                  -8.338
REMARK INTRA:                  -0.444
REMARK UNBOUND:                -0.518
REMARK SMILES O=C([O-])CCCCCCCCC(=O)[O-]
REMARK SMILES IDX 7 1 6 2 5 3 4 4 2 5 1 6 3 7 8 8 9 9 10 10 11 11 12 12 13 13
REMARK SMILES IDX 14 14
REMARK H PARENT
REMARK Flexibility Score: inf
ROOT
ATOM      1  C   UNL     1      14.966   2.646  14.969  1.00  0.00     0.000 C 
ENDROOT
BRANCH   1   2
ATOM      2  C   UNL     1      15.163   2.956  13.480  1.00  0.00     0.000 C 
BRANCH   2   3
ATOM      3  C   UNL     1      15.472   1.681  12.687  1.00  0.00     0.006 C 
BRANCH   3   4
ATOM      4  C   UNL     1      16.147   2.012  11.353  1.00  0.00     0.053 C 
BRANCH   4   5
ATOM      5  C   UNL     1      17.304   1.097  11.110  1.00  0.00     0.041 C 
ATOM      6  O   UNL     1      17.550   0.683   9.945  1.00  0.00    -0.550 OA
ATOM      7  O   UNL     1      18.081   0.659  12.174  1.00  0.00    -0.550 OA
ENDBRANCH   4   5
ENDBRANCH   3   4
ENDBRANCH   2   3
ENDBRANCH   1   2
BRANCH   1   8
ATOM      8  C   UNL     1      13.487   2.394  15.288  1.00  0.00     0.000 C 
BRANCH   8   9
ATOM      9  C   UNL     1      12.972   3.397  16.331  1.00  0.00     0.000 C 
BRANCH   9  10
ATOM     10  C   UNL     1      13.932   3.558  17.520  1.00  0.00     0.006 C 
BRANCH  10  11
ATOM     11  C   UNL     1      13.557   2.661  18.708  1.00  0.00     0.053 C 
BRANCH  11  12
ATOM     12  C   UNL     1      14.752   1.896  19.182  1.00  0.00     0.041 C 
ATOM     13  O   UNL     1      15.628   1.517  18.361  1.00  0.00    -0.550 OA
ATOM     14  O   UNL     1      14.875   1.559  20.524  1.00  0.00    -0.550 OA
ENDBRANCH  11  12
ENDBRANCH  10  11
ENDBRANCH   9  10
ENDBRANCH   8   9
ENDBRANCH   1   8
TORSDOF 9
ENDMDL
MODEL 3
REMARK VINA RESULT:    -5.392      2.285      5.479
REMARK INTER + INTRA:          -8.747
REMARK INTER:                  -8.065
REMARK INTRA:                  -0.682
REMARK UNBOUND:                -0.518
REMARK SMILES O=C([O-])CCCCCCCCC(=O)[O-]
REMARK SMILES IDX 7 1 6 2 5 3 4 4 2 5 1 6 3 7 8 8 9 9 10 10 11 11 12 12 13 13
REMARK SMILES IDX 14 14
REMARK H PARENT
REMARK Flexibility Score: inf
ROOT
ATOM      1  C   UNL     1      13.216   3.327  18.473  1.00  0.00     0.000 C 
ENDROOT
BRANCH   1   2
ATOM      2  C   UNL     1      13.017   3.495  16.962  1.00  0.00     0.000 C 
BRANCH   2   3
ATOM      3  C   UNL     1      13.612   2.310  16.192  1.00  0.00     0.006 C 
BRANCH   3   4
ATOM      4  C   UNL     1      14.912   2.709  15.489  1.00  0.00     0.053 C 
BRANCH   4   5
ATOM      5  C   UNL     1      14.804   2.475  14.015  1.00  0.00     0.041 C 
ATOM      6  O   UNL     1      15.049   3.409  13.206  1.00  0.00    -0.550 OA
ATOM      7  O   UNL     1      14.384   1.241  13.536  1.00  0.00    -0.550 OA
ENDBRANCH   4   5
ENDBRANCH   3   4
ENDBRANCH   2   3
ENDBRANCH   1   2
BRANCH   1   8
ATOM      8  C   UNL     1      13.595   1.883  18.822  1.00  0.00     0.000 C 
BRANCH   8   9
ATOM      9  C   UNL     1      14.765   1.849  19.817  1.00  0.00     0.000 C 
BRANCH   9  10
ATOM     10  C   UNL     1      15.333   0.434  20.013  1.00  0.00     0.006 C 
BRANCH  10  11
ATOM     11  C   UNL     1      16.787   0.310  19.538  1.00  0.00     0.053 C 
BRANCH  11  12
ATOM     12  C   UNL     1      16.886   0.609  18.076  1.00  0.00     0.041 C 
ATOM     13  O   UNL     1      17.596   1.567  17.672  1.00  0.00    -0.550 OA
ATOM     14  O   UNL     1      16.154  -0.138  17.162  1.00  0.00    -0.550 OA
ENDBRANCH  11  12
ENDBRANCH  10  11
ENDBRANCH   9  10
ENDBRANCH   8   9
ENDBRANCH   1   8
TORSDOF 9
ENDMDL
MODEL 4
REMARK VINA RESULT:    -5.387      3.061      4.695
REMARK INTER + INTRA:          -8.739
REMARK INTER:                  -7.843
REMARK INTRA:                  -0.896
REMARK UNBOUND:                -0.518
REMARK SMILES O=C([O-])CCCCCCCCC(=O)[O-]
REMARK SMILES IDX 7 1 6 2 5 3 4 4 2 5 1 6 3 7 8 8 9 9 10 10 11 11 12 12 13 13
REMARK SMILES IDX 14 14
REMARK H PARENT
REMARK Flexibility Score: inf
ROOT
ATOM      1  C   UNL     1      17.395  -0.138  12.799  1.00  0.00     0.000 C 
ENDROOT
BRANCH   1   2
ATOM      2  C   UNL     1      18.449  -0.119  13.913  1.00  0.00     0.000 C 
BRANCH   2   3
ATOM      3  C   UNL     1      17.797   0.088  15.285  1.00  0.00     0.006 C 
BRANCH   3   4
ATOM      4  C   UNL     1      16.398  -0.532  15.329  1.00  0.00     0.053 C 
BRANCH   4   5
ATOM      5  C   UNL     1      16.055  -0.952  16.723  1.00  0.00     0.041 C 
ATOM      6  O   UNL     1      16.004  -0.098  17.648  1.00  0.00    -0.550 OA
ATOM      7  O   UNL     1      15.839  -2.294  17.011  1.00  0.00    -0.550 OA
ENDBRANCH   4   5
ENDBRANCH   3   4
ENDBRANCH   2   3
ENDBRANCH   1   2
BRANCH   1   8
ATOM      8  C   UNL     1      17.800   0.781  11.640  1.00  0.00     0.000 C 
BRANCH   8   9
ATOM      9  C   UNL     1      16.708   1.823  11.358  1.00  0.00     0.000 C 
BRANCH   9  10
ATOM     10  C   UNL     1      15.539   1.737  12.352  1.00  0.00     0.006 C 
BRANCH  10  11
ATOM     11  C   UNL     1      15.418   2.989  13.232  1.00  0.00     0.053 C 
BRANCH  11  12
ATOM     12  C   UNL     1      14.804   2.642  14.551  1.00  0.00     0.041 C 
ATOM     13  O   UNL     1      15.408   2.913  15.622  1.00  0.00    -0.550 OA
ATOM     14  O   UNL     1      13.587   1.973  14.597  1.00  0.00    -0.550 OA
ENDBRANCH  11  12
ENDBRANCH  10  11
ENDBRANCH   9  10
ENDBRANCH   8   9
ENDBRANCH   1   8
TORSDOF 9
ENDMDL
MODEL 5
REMARK VINA RESULT:    -5.365      1.299      6.237
REMARK INTER + INTRA:          -8.705
REMARK INTER:                  -8.174
REMARK INTRA:                  -0.531
REMARK UNBOUND:                -0.518
REMARK SMILES O=C([O-])CCCCCCCCC(=O)[O-]
REMARK SMILES IDX 7 1 6 2 5 3 4 4 2 5 1 6 3 7 8 8 9 9 10 10 11 11 12 12 13 13
REMARK SMILES IDX 14 14
REMARK H PARENT
REMARK Flexibility Score: inf
ROOT
ATOM      1  C   UNL     1      12.976   3.069  16.107  1.00  0.00     0.000 C 
ENDROOT
BRANCH   1   2
ATOM      2  C   UNL     1      13.629   2.184  15.039  1.00  0.00     0.000 C 
BRANCH   2   3
ATOM      3  C   UNL     1      15.054   2.655  14.727  1.00  0.00     0.006 C 
BRANCH   3   4
ATOM      4  C   UNL     1      15.185   3.079  13.262  1.00  0.00     0.053 C 
BRANCH   4   5
ATOM      5  C   UNL     1      15.828   1.995  12.457  1.00  0.00     0.041 C 
ATOM      6  O   UNL     1      16.352   1.004  13.033  1.00  0.00    -0.550 OA
ATOM      7  O   UNL     1      15.893   2.101  11.074  1.00  0.00    -0.550 OA
ENDBRANCH   4   5
ENDBRANCH   3   4
ENDBRANCH   2   3
ENDBRANCH   1   2
BRANCH   1   8
ATOM      8  C   UNL     1      14.012   3.557  17.126  1.00  0.00     0.000 C 
BRANCH   8   9
ATOM      9  C   UNL     1      13.587   3.196  18.557  1.00  0.00     0.000 C 
BRANCH   9  10
ATOM     10  C   UNL     1      13.768   1.701  18.867  1.00  0.00     0.006 C 
BRANCH  10  11
ATOM     11  C   UNL     1      14.759   1.451  20.012  1.00  0.00     0.053 C 
BRANCH  11  12
ATOM     12  C   UNL     1      15.918   0.637  19.529  1.00  0.00     0.041 C 
ATOM     13  O   UNL     1      16.185  -0.469  20.070  1.00  0.00    -0.550 OA
ATOM     14  O   UNL     1      16.735   1.123  18.516  1.00  0.00    -0.550 OA
ENDBRANCH  11  12
ENDBRANCH  10  11
ENDBRANCH   9  10
ENDBRANCH   8   9
ENDBRANCH   1   8
TORSDOF 9
ENDMDL
MODEL 6
REMARK VINA RESULT:    -5.352      2.494      5.720
REMARK INTER + INTRA:          -8.686
REMARK INTER:                  -7.915
REMARK INTRA:                  -0.771
REMARK UNBOUND:                -0.518
REMARK SMILES O=C([O-])CCCCCCCCC(=O)[O-]
REMARK SMILES IDX 7 1 6 2 5 3 4 4 2 5 1 6 3 7 8 8 9 9 10 10 11 11 12 12 13 13
REMARK SMILES IDX 14 14
REMARK H PARENT
REMARK Flexibility Score: inf
ROOT
ATOM      1  C   UNL     1      13.216   3.694  17.167  1.00  0.00     0.000 C 
ENDROOT
BRANCH   1   2
ATOM      2  C   UNL     1      13.270   2.363  16.409  1.00  0.00     0.000 C 
BRANCH   2   3
ATOM      3  C   UNL     1      13.776   2.566  14.975  1.00  0.00     0.006 C 
BRANCH   3   4
ATOM      4  C   UNL     1      15.299   2.723  14.947  1.00  0.00     0.053 C 
BRANCH   4   5
ATOM      5  C   UNL     1      15.960   1.543  15.585  1.00  0.00     0.041 C 
ATOM      6  O   UNL     1      15.794   0.389  15.108  1.00  0.00    -0.550 OA
ATOM      7  O   UNL     1      16.719   1.710  16.735  1.00  0.00    -0.550 OA
ENDBRANCH   4   5
ENDBRANCH   3   4
ENDBRANCH   2   3
ENDBRANCH   1   2
BRANCH   1   8
ATOM      8  C   UNL     1      13.523   3.494  18.656  1.00  0.00     0.000 C 
BRANCH   8   9
ATOM      9  C   UNL     1      13.910   2.035  18.945  1.00  0.00     0.000 C 
BRANCH   9  10
ATOM     10  C   UNL     1      14.701   1.882  20.254  1.00  0.00     0.006 C 
BRANCH  10  11
ATOM     11  C   UNL     1      15.000   0.416  20.595  1.00  0.00     0.053 C 
BRANCH  11  12
ATOM     12  C   UNL     1      16.028  -0.139  19.660  1.00  0.00     0.041 C 
ATOM     13  O   UNL     1      17.218   0.268  19.713  1.00  0.00    -0.550 OA
ATOM     14  O   UNL     1      15.660  -1.068  18.695  1.00  0.00    -0.550 OA
ENDBRANCH  11  12
ENDBRANCH  10  11
ENDBRANCH   9  10
ENDBRANCH   8   9
ENDBRANCH   1   8
TORSDOF 9
ENDMDL
MODEL 7
REMARK VINA RESULT:    -5.323      1.290      2.156
REMARK INTER + INTRA:          -8.642
REMARK INTER:                  -7.993
REMARK INTRA:                  -0.649
REMARK UNBOUND:                -0.518
REMARK SMILES O=C([O-])CCCCCCCCC(=O)[O-]
REMARK SMILES IDX 7 1 6 2 5 3 4 4 2 5 1 6 3 7 8 8 9 9 10 10 11 11 12 12 13 13
REMARK SMILES IDX 14 14
REMARK H PARENT
REMARK Flexibility Score: inf
ROOT
ATOM      1  C   UNL     1      14.094   3.678  17.267  1.00  0.00     0.000 C 
ENDROOT
BRANCH   1   2
ATOM      2  C   UNL     1      13.889   3.322  18.744  1.00  0.00     0.000 C 
BRANCH   2   3
ATOM      3  C   UNL     1      13.839   1.802  18.943  1.00  0.00     0.006 C 
BRANCH   3   4
ATOM      4  C   UNL     1      14.979   1.328  19.847  1.00  0.00     0.053 C 
BRANCH   4   5
ATOM      5  C   UNL     1      16.077   0.722  19.033  1.00  0.00     0.041 C 
ATOM      6  O   UNL     1      15.924   0.543  17.795  1.00  0.00    -0.550 OA
ATOM      7  O   UNL     1      17.252   0.308  19.648  1.00  0.00    -0.550 OA
ENDBRANCH   4   5
ENDBRANCH   3   4
ENDBRANCH   2   3
ENDBRANCH   1   2
BRANCH   1   8
ATOM      8  C   UNL     1      12.892   3.240  16.422  1.00  0.00     0.000 C 
BRANCH   8   9
ATOM      9  C   UNL     1      13.348   2.447  15.188  1.00  0.00     0.000 C 
BRANCH   9  10
ATOM     10  C   UNL     1      14.849   2.613  14.901  1.00  0.00     0.006 C 
BRANCH  10  11
ATOM     11  C   UNL     1      15.126   3.112  13.476  1.00  0.00     0.053 C 
BRANCH  11  12
ATOM     12  C   UNL     1      15.781   2.038  12.666  1.00  0.00     0.041 C 
ATOM     13  O   UNL     1      15.843   2.139  11.412  1.00  0.00    -0.550 OA
ATOM     14  O   UNL     1      16.278   0.901  13.290  1.00  0.00    -0.550 OA
ENDBRANCH  11  12
ENDBRANCH  10  11
ENDBRANCH   9  10
ENDBRANCH   8   9
ENDBRANCH   1   8
TORSDOF 9
ENDMDL
MODEL 8
REMARK VINA RESULT:    -5.282      2.336      3.948
REMARK INTER + INTRA:          -8.579
REMARK INTER:                  -7.896
REMARK INTRA:                  -0.684
REMARK UNBOUND:                -0.518
REMARK SMILES O=C([O-])CCCCCCCCC(=O)[O-]
REMARK SMILES IDX 7 1 6 2 5 3 4 4 2 5 1 6 3 7 8 8 9 9 10 10 11 11 12 12 13 13
REMARK SMILES IDX 14 14
REMARK H PARENT
REMARK Flexibility Score: inf
ROOT
ATOM      1  C   UNL     1      15.535   1.886  12.052  1.00  0.00     0.000 C 
ENDROOT
BRANCH   1   2
ATOM      2  C   UNL     1      15.320   2.945  13.139  1.00  0.00     0.000 C 
BRANCH   2   3
ATOM      3  C   UNL     1      14.629   2.342  14.368  1.00  0.00     0.006 C 
BRANCH   3   4
ATOM      4  C   UNL     1      15.393   2.682  15.650  1.00  0.00     0.053 C 
BRANCH   4   5
ATOM      5  C   UNL     1      14.465   2.703  16.823  1.00  0.00     0.041 C 
ATOM      6  O   UNL     1      14.325   3.756  17.501  1.00  0.00    -0.550 OA
ATOM      7  O   UNL     1      13.794   1.547  17.200  1.00  0.00    -0.550 OA
ENDBRANCH   4   5
ENDBRANCH   3   4
ENDBRANCH   2   3
ENDBRANCH   1   2
BRANCH   1   8
ATOM      8  C   UNL     1      16.891   2.073  11.361  1.00  0.00     0.000 C 
BRANCH   8   9
ATOM      9  C   UNL     1      17.822   0.885  11.647  1.00  0.00     0.000 C 
BRANCH   9  10
ATOM     10  C   UNL     1      17.323   0.010  12.809  1.00  0.00     0.006 C 
BRANCH  10  11
ATOM     11  C   UNL     1      18.407  -0.243  13.865  1.00  0.00     0.053 C 
BRANCH  11  12
ATOM     12  C   UNL     1      17.822  -0.173  15.240  1.00  0.00     0.041 C 
ATOM     13  O   UNL     1      16.711  -0.713  15.485  1.00  0.00    -0.550 OA
ATOM     14  O   UNL     1      18.480   0.532  16.240  1.00  0.00    -0.550 OA
ENDBRANCH  11  12
ENDBRANCH  10  11
ENDBRANCH   9  10
ENDBRANCH   8   9
ENDBRANCH   1   8
TORSDOF 9
ENDMDL
MODEL 9
REMARK VINA RESULT:    -5.235      2.701      4.096
REMARK INTER + INTRA:          -8.506
REMARK INTER:                  -7.630
REMARK INTRA:                  -0.876
REMARK UNBOUND:                -0.518
REMARK SMILES O=C([O-])CCCCCCCCC(=O)[O-]
REMARK SMILES IDX 7 1 6 2 5 3 4 4 2 5 1 6 3 7 8 8 9 9 10 10 11 11 12 12 13 13
REMARK SMILES IDX 14 14
REMARK H PARENT
REMARK Flexibility Score: inf
ROOT
ATOM      1  C   UNL     1      13.643   1.761  18.812  1.00  0.00     0.000 C 
ENDROOT
BRANCH   1   2
ATOM      2  C   UNL     1      14.802   1.510  19.783  1.00  0.00     0.000 C 
BRANCH   2   3
ATOM      3  C   UNL     1      14.918   0.021  20.131  1.00  0.00     0.006 C 
BRANCH   3   4
ATOM      4  C   UNL     1      16.205  -0.579  19.560  1.00  0.00     0.053 C 
BRANCH   4   5
ATOM      5  C   UNL     1      15.902  -1.440  18.375  1.00  0.00     0.041 C 
ATOM      6  O   UNL     1      14.708  -1.645  18.030  1.00  0.00    -0.550 OA
ATOM      7  O   UNL     1      16.935  -2.056  17.681  1.00  0.00    -0.550 OA
ENDBRANCH   4   5
ENDBRANCH   3   4
ENDBRANCH   2   3
ENDBRANCH   1   2
BRANCH   1   8
ATOM      8  C   UNL     1      13.460   3.260  18.547  1.00  0.00     0.000 C 
BRANCH   8   9
ATOM      9  C   UNL     1      13.123   3.520  17.072  1.00  0.00     0.000 C 
BRANCH   9  10
ATOM     10  C   UNL     1      13.567   2.371  16.152  1.00  0.00     0.006 C 
BRANCH  10  11
ATOM     11  C   UNL     1      14.944   2.618  15.522  1.00  0.00     0.053 C 
BRANCH  11  12
ATOM     12  C   UNL     1      15.906   1.549  15.934  1.00  0.00     0.041 C 
ATOM     13  O   UNL     1      16.730   1.761  16.862  1.00  0.00    -0.550 OA
ATOM     14  O   UNL     1      15.928   0.335  15.259  1.00  0.00    -0.550 OA
ENDBRANCH  11  12
ENDBRANCH  10  11
ENDBRANCH   9  10
ENDBRANCH   8   9
ENDBRANCH   1   8
TORSDOF 9
ENDMDL
