MODEL 1
REMARK VINA RESULT:    -4.292      0.000      0.000
REMARK INTER + INTRA:          -7.171
REMARK INTER:                  -6.550
REMARK INTRA:                  -0.621
REMARK UNBOUND:                -0.621
REMARK SMILES O=C([O-])CCCCCCCCC(=O)[O-]
REMARK SMILES IDX 7 1 6 2 5 3 4 4 2 5 1 6 3 7 8 8 9 9 10 10 11 11 12 12 13 13
REMARK SMILES IDX 14 14
REMARK H PARENT
REMARK Flexibility Score: inf
ROOT
ATOM      1  C   UNL     1      31.569   6.282  47.431  1.00  0.00     0.000 C 
ENDROOT
BRANCH   1   2
ATOM      2  C   UNL     1      32.517   5.183  47.936  1.00  0.00     0.000 C 
BRANCH   2   3
ATOM      3  C   UNL     1      33.949   5.695  48.165  1.00  0.00     0.006 C 
BRANCH   3   4
ATOM      4  C   UNL     1      34.999   4.793  47.503  1.00  0.00     0.053 C 
BRANCH   4   5
ATOM      5  C   UNL     1      34.965   4.901  46.009  1.00  0.00     0.041 C 
ATOM      6  O   UNL     1      35.351   3.940  45.295  1.00  0.00    -0.550 OA
ATOM      7  O   UNL     1      34.480   6.055  45.407  1.00  0.00    -0.550 OA
ENDBRANCH   4   5
ENDBRANCH   3   4
ENDBRANCH   2   3
ENDBRANCH   1   2
BRANCH   1   8
ATOM      8  C   UNL     1      30.291   6.397  48.275  1.00  0.00     0.000 C 
BRANCH   8   9
ATOM      9  C   UNL     1      30.104   7.828  48.795  1.00  0.00     0.000 C 
BRANCH   9  10
ATOM     10  C   UNL     1      31.448   8.443  49.213  1.00  0.00     0.006 C 
BRANCH  10  11
ATOM     11  C   UNL     1      31.677   9.822  48.583  1.00  0.00     0.053 C 
BRANCH  11  12
ATOM     12  C   UNL     1      33.086   9.985  48.099  1.00  0.00     0.041 C 
ATOM     13  O   UNL     1      33.583   9.144  47.303  1.00  0.00    -0.550 OA
ATOM     14  O   UNL     1      33.838  11.082  48.499  1.00  0.00    -0.550 OA
ENDBRANCH  11  12
ENDBRANCH  10  11
ENDBRANCH   9  10
ENDBRANCH   8   9
ENDBRANCH   1   8
TORSDOF 9
ENDMDL
MODEL 2
REMARK VINA RESULT:    -4.218      1.060      4.687
REMARK INTER + INTRA:          -7.058
REMARK INTER:                  -6.157
REMARK INTRA:                  -0.901
REMARK UNBOUND:                -0.621
REMARK SMILES O=C([O-])CCCCCCCCC(=O)[O-]
REMARK SMILES IDX 7 1 6 2 5 3 4 4 2 5 1 6 3 7 8 8 9 9 10 10 11 11 12 12 13 13
REMARK SMILES IDX 14 14
REMARK H PARENT
REMARK Flexibility Score: inf
ROOT
ATOM      1  C   UNL     1      30.093   7.617  48.708  1.00  0.00     0.000 C 
ENDROOT
BRANCH   1   2
ATOM      2  C   UNL     1      30.665   8.174  50.020  1.00  0.00     0.000 C 
BRANCH   2   3
ATOM      3  C   UNL     1      31.953   8.988  49.806  1.00  0.00     0.006 C 
BRANCH   3   4
ATOM      4  C   UNL     1      31.877   9.871  48.554  1.00  0.00     0.053 C 
BRANCH   4   5
ATOM      5  C   UNL     1      33.234  10.324  48.108  1.00  0.00     0.041 C 
ATOM      6  O   UNL     1      33.891  11.139  48.807  1.00  0.00    -0.550 OA
ATOM      7  O   UNL     1      33.785   9.821  46.936  1.00  0.00    -0.550 OA
ENDBRANCH   4   5
ENDBRANCH   3   4
ENDBRANCH   2   3
ENDBRANCH   1   2
BRANCH   1   8
ATOM      8  C   UNL     1      30.031   6.082  48.691  1.00  0.00     0.000 C 
BRANCH   8   9
ATOM      9  C   UNL     1      31.353   5.485  48.193  1.00  0.00     0.000 C 
BRANCH   9  10
ATOM     10  C   UNL     1      31.970   6.355  47.089  1.00  0.00     0.006 C 
BRANCH  10  11
ATOM     11  C   UNL     1      33.502   6.380  47.155  1.00  0.00     0.053 C 
BRANCH  11  12
ATOM     12  C   UNL     1      34.121   6.181  45.805  1.00  0.00     0.041 C 
ATOM     13  O   UNL     1      33.903   7.008  44.881  1.00  0.00    -0.550 OA
ATOM     14  O   UNL     1      34.964   5.101  45.578  1.00  0.00    -0.550 OA
ENDBRANCH  11  12
ENDBRANCH  10  11
ENDBRANCH   9  10
ENDBRANCH   8   9
ENDBRANCH   1   8
TORSDOF 9
ENDMDL
MODEL 3
REMARK VINA RESULT:    -4.208      2.577      3.542
REMARK INTER + INTRA:          -7.042
REMARK INTER:                  -6.391
REMARK INTRA:                  -0.652
REMARK UNBOUND:                -0.621
REMARK SMILES O=C([O-])CCCCCCCCC(=O)[O-]
REMARK SMILES IDX 7 1 6 2 5 3 4 4 2 5 1 6 3 7 8 8 9 9 10 10 11 11 12 12 13 13
REMARK SMILES IDX 14 14
REMARK H PARENT
REMARK Flexibility Score: inf
ROOT
ATOM      1  C   UNL     1      33.831   8.086  49.265  1.00  0.00     0.000 C 
ENDROOT
BRANCH   1   2
ATOM      2  C   UNL     1      34.568   6.741  49.188  1.00  0.00     0.000 C 
BRANCH   2   3
ATOM      3  C   UNL     1      33.885   5.745  48.235  1.00  0.00     0.006 C 
BRANCH   3   4
ATOM      4  C   UNL     1      34.888   4.777  47.593  1.00  0.00     0.053 C 
BRANCH   4   5
ATOM      5  C   UNL     1      34.976   4.968  46.110  1.00  0.00     0.041 C 
ATOM      6  O   UNL     1      35.572   4.121  45.395  1.00  0.00    -0.550 OA
ATOM      7  O   UNL     1      34.374   6.069  45.513  1.00  0.00    -0.550 OA
ENDBRANCH   4   5
ENDBRANCH   3   4
ENDBRANCH   2   3
ENDBRANCH   1   2
BRANCH   1   8
ATOM      8  C   UNL     1      32.809   8.269  48.132  1.00  0.00     0.000 C 
BRANCH   8   9
ATOM      9  C   UNL     1      31.604   9.091  48.607  1.00  0.00     0.000 C 
BRANCH   9  10
ATOM     10  C   UNL     1      30.460   8.176  49.068  1.00  0.00     0.006 C 
BRANCH  10  11
ATOM     11  C   UNL     1      30.431   6.848  48.301  1.00  0.00     0.053 C 
BRANCH  11  12
ATOM     12  C   UNL     1      29.281   5.986  48.724  1.00  0.00     0.041 C 
ATOM     13  O   UNL     1      29.204   5.570  49.910  1.00  0.00    -0.550 OA
ATOM     14  O   UNL     1      28.277   5.670  47.817  1.00  0.00    -0.550 OA
ENDBRANCH  11  12
ENDBRANCH  10  11
ENDBRANCH   9  10
ENDBRANCH   8   9
ENDBRANCH   1   8
TORSDOF 9
ENDMDL
MODEL 4
REMARK VINA RESULT:    -4.102      3.511      4.951
REMARK INTER + INTRA:          -6.881
REMARK INTER:                  -6.573
REMARK INTRA:                  -0.308
REMARK UNBOUND:                -0.621
REMARK SMILES O=C([O-])CCCCCCCCC(=O)[O-]
REMARK SMILES IDX 7 1 6 2 5 3 4 4 2 5 1 6 3 7 8 8 9 9 10 10 11 11 12 12 13 13
REMARK SMILES IDX 14 14
REMARK H PARENT
REMARK Flexibility Score: inf
ROOT
ATOM      1  C   UNL     1      33.035   6.716  46.620  1.00  0.00     0.000 C 
ENDROOT
BRANCH   1   2
ATOM      2  C   UNL     1      33.059   5.671  47.747  1.00  0.00     0.000 C 
BRANCH   2   3
ATOM      3  C   UNL     1      31.649   5.274  48.216  1.00  0.00     0.006 C 
BRANCH   3   4
ATOM      4  C   UNL     1      30.637   6.413  48.034  1.00  0.00     0.053 C 
BRANCH   4   5
ATOM      5  C   UNL     1      29.363   6.151  48.779  1.00  0.00     0.041 C 
ATOM      6  O   UNL     1      29.221   6.568  49.958  1.00  0.00    -0.550 OA
ATOM      7  O   UNL     1      28.322   5.473  48.158  1.00  0.00    -0.550 OA
ENDBRANCH   4   5
ENDBRANCH   3   4
ENDBRANCH   2   3
ENDBRANCH   1   2
BRANCH   1   8
ATOM      8  C   UNL     1      34.064   6.423  45.518  1.00  0.00     0.000 C 
BRANCH   8   9
ATOM      9  C   UNL     1      34.033   7.509  44.435  1.00  0.00     0.000 C 
BRANCH   9  10
ATOM     10  C   UNL     1      34.200   8.905  45.050  1.00  0.00     0.006 C 
BRANCH  10  11
ATOM     11  C   UNL     1      34.828   9.902  44.068  1.00  0.00     0.053 C 
BRANCH  11  12
ATOM     12  C   UNL     1      34.809  11.301  44.607  1.00  0.00     0.041 C 
ATOM     13  O   UNL     1      34.246  12.222  43.959  1.00  0.00    -0.550 OA
ATOM     14  O   UNL     1      35.385  11.579  45.841  1.00  0.00    -0.550 OA
ENDBRANCH  11  12
ENDBRANCH  10  11
ENDBRANCH   9  10
ENDBRANCH   8   9
ENDBRANCH   1   8
TORSDOF 9
ENDMDL
MODEL 5
REMARK VINA RESULT:    -4.024      3.488      5.279
REMARK INTER + INTRA:          -6.763
REMARK INTER:                  -6.404
REMARK INTRA:                  -0.359
REMARK UNBOUND:                -0.621
REMARK SMILES O=C([O-])CCCCCCCCC(=O)[O-]
REMARK SMILES IDX 7 1 6 2 5 3 4 4 2 5 1 6 3 7 8 8 9 9 10 10 11 11 12 12 13 13
REMARK SMILES IDX 14 14
REMARK H PARENT
REMARK Flexibility Score: inf
ROOT
ATOM      1  C   UNL     1      33.044   9.230  48.578  1.00  0.00     0.000 C 
ENDROOT
BRANCH   1   2
ATOM      2  C   UNL     1      33.913  10.271  47.855  1.00  0.00     0.000 C 
BRANCH   2   3
ATOM      3  C   UNL     1      34.239   9.867  46.407  1.00  0.00     0.006 C 
BRANCH   3   4
ATOM      4  C   UNL     1      35.072  10.934  45.684  1.00  0.00     0.053 C 
BRANCH   4   5
ATOM      5  C   UNL     1      34.535  11.228  44.317  1.00  0.00     0.041 C 
ATOM      6  O   UNL     1      34.213  10.286  43.546  1.00  0.00    -0.550 OA
ATOM      7  O   UNL     1      34.363  12.544  43.905  1.00  0.00    -0.550 OA
ENDBRANCH   4   5
ENDBRANCH   3   4
ENDBRANCH   2   3
ENDBRANCH   1   2
BRANCH   1   8
ATOM      8  C   UNL     1      31.619   9.735  48.856  1.00  0.00     0.000 C 
BRANCH   8   9
ATOM      9  C   UNL     1      30.644   8.563  49.021  1.00  0.00     0.000 C 
BRANCH   9  10
ATOM     10  C   UNL     1      31.345   7.221  48.764  1.00  0.00     0.006 C 
BRANCH  10  11
ATOM     11  C   UNL     1      30.508   6.286  47.883  1.00  0.00     0.053 C 
BRANCH  11  12
ATOM     12  C   UNL     1      29.238   5.872  48.562  1.00  0.00     0.041 C 
ATOM     13  O   UNL     1      28.186   5.703  47.889  1.00  0.00    -0.550 OA
ATOM     14  O   UNL     1      29.224   5.639  49.931  1.00  0.00    -0.550 OA
ENDBRANCH  11  12
ENDBRANCH  10  11
ENDBRANCH   9  10
ENDBRANCH   8   9
ENDBRANCH   1   8
TORSDOF 9
ENDMDL
MODEL 6
REMARK VINA RESULT:    -3.997      2.567      5.103
REMARK INTER + INTRA:          -6.720
REMARK INTER:                  -6.111
REMARK INTRA:                  -0.609
REMARK UNBOUND:                -0.621
REMARK SMILES O=C([O-])CCCCCCCCC(=O)[O-]
REMARK SMILES IDX 7 1 6 2 5 3 4 4 2 5 1 6 3 7 8 8 9 9 10 10 11 11 12 12 13 13
REMARK SMILES IDX 14 14
REMARK H PARENT
REMARK Flexibility Score: inf
ROOT
ATOM      1  C   UNL     1      31.709   9.344  48.852  1.00  0.00     0.000 C 
ENDROOT
BRANCH   1   2
ATOM      2  C   UNL     1      30.434   8.501  49.005  1.00  0.00     0.000 C 
BRANCH   2   3
ATOM      3  C   UNL     1      30.548   7.452  50.125  1.00  0.00     0.006 C 
BRANCH   3   4
ATOM      4  C   UNL     1      29.450   6.385  50.031  1.00  0.00     0.053 C 
BRANCH   4   5
ATOM      5  C   UNL     1      29.438   5.713  48.692  1.00  0.00     0.041 C 
ATOM      6  O   UNL     1      30.438   5.054  48.304  1.00  0.00    -0.550 OA
ATOM      7  O   UNL     1      28.310   5.791  47.885  1.00  0.00    -0.550 OA
ENDBRANCH   4   5
ENDBRANCH   3   4
ENDBRANCH   2   3
ENDBRANCH   1   2
BRANCH   1   8
ATOM      8  C   UNL     1      32.990   8.497  48.898  1.00  0.00     0.000 C 
BRANCH   8   9
ATOM      9  C   UNL     1      33.509   8.208  47.484  1.00  0.00     0.000 C 
BRANCH   9  10
ATOM     10  C   UNL     1      33.148   6.782  47.044  1.00  0.00     0.006 C 
BRANCH  10  11
ATOM     11  C   UNL     1      34.050   6.276  45.912  1.00  0.00     0.053 C 
BRANCH  11  12
ATOM     12  C   UNL     1      34.895   5.119  46.349  1.00  0.00     0.041 C 
ATOM     13  O   UNL     1      35.419   4.358  45.493  1.00  0.00    -0.550 OA
ATOM     14  O   UNL     1      35.132   4.901  47.700  1.00  0.00    -0.550 OA
ENDBRANCH  11  12
ENDBRANCH  10  11
ENDBRANCH   9  10
ENDBRANCH   8   9
ENDBRANCH   1   8
TORSDOF 9
ENDMDL
MODEL 7
REMARK VINA RESULT:    -3.943      2.309      3.633
REMARK INTER + INTRA:          -6.639
REMARK INTER:                  -5.888
REMARK INTRA:                  -0.751
REMARK UNBOUND:                -0.621
REMARK SMILES O=C([O-])CCCCCCCCC(=O)[O-]
REMARK SMILES IDX 7 1 6 2 5 3 4 4 2 5 1 6 3 7 8 8 9 9 10 10 11 11 12 12 13 13
REMARK SMILES IDX 14 14
REMARK H PARENT
REMARK Flexibility Score: inf
ROOT
ATOM      1  C   UNL     1      31.715   9.568  48.669  1.00  0.00     0.000 C 
ENDROOT
BRANCH   1   2
ATOM      2  C   UNL     1      30.884   8.276  48.645  1.00  0.00     0.000 C 
BRANCH   2   3
ATOM      3  C   UNL     1      31.757   7.010  48.704  1.00  0.00     0.006 C 
BRANCH   3   4
ATOM      4  C   UNL     1      31.956   6.381  47.319  1.00  0.00     0.053 C 
BRANCH   4   5
ATOM      5  C   UNL     1      33.401   6.350  46.923  1.00  0.00     0.041 C 
ATOM      6  O   UNL     1      34.280   6.009  47.758  1.00  0.00    -0.550 OA
ATOM      7  O   UNL     1      33.774   6.669  45.623  1.00  0.00    -0.550 OA
ENDBRANCH   4   5
ENDBRANCH   3   4
ENDBRANCH   2   3
ENDBRANCH   1   2
BRANCH   1   8
ATOM      8  C   UNL     1      33.161   9.337  49.133  1.00  0.00     0.000 C 
BRANCH   8   9
ATOM      9  C   UNL     1      34.140  10.203  48.331  1.00  0.00     0.000 C 
BRANCH   9  10
ATOM     10  C   UNL     1      33.943  10.005  46.822  1.00  0.00     0.006 C 
BRANCH  10  11
ATOM     11  C   UNL     1      35.015  10.727  45.995  1.00  0.00     0.053 C 
BRANCH  11  12
ATOM     12  C   UNL     1      34.624  10.837  44.553  1.00  0.00     0.041 C 
ATOM     13  O   UNL     1      34.528   9.803  43.841  1.00  0.00    -0.550 OA
ATOM     14  O   UNL     1      34.333  12.080  44.004  1.00  0.00    -0.550 OA
ENDBRANCH  11  12
ENDBRANCH  10  11
ENDBRANCH   9  10
ENDBRANCH   8   9
ENDBRANCH   1   8
TORSDOF 9
ENDMDL
MODEL 8
REMARK VINA RESULT:    -3.866      1.831      4.455
REMARK INTER + INTRA:          -6.521
REMARK INTER:                  -5.748
REMARK INTRA:                  -0.773
REMARK UNBOUND:                -0.621
REMARK SMILES O=C([O-])CCCCCCCCC(=O)[O-]
REMARK SMILES IDX 7 1 6 2 5 3 4 4 2 5 1 6 3 7 8 8 9 9 10 10 11 11 12 12 13 13
REMARK SMILES IDX 14 14
REMARK H PARENT
REMARK Flexibility Score: inf
ROOT
ATOM      1  C   UNL     1      31.542   9.243  48.325  1.00  0.00     0.000 C 
ENDROOT
BRANCH   1   2
ATOM      2  C   UNL     1      32.643   9.977  49.105  1.00  0.00     0.000 C 
BRANCH   2   3
ATOM      3  C   UNL     1      33.777  10.482  48.196  1.00  0.00     0.006 C 
BRANCH   3   4
ATOM      4  C   UNL     1      33.806   9.749  46.848  1.00  0.00     0.053 C 
BRANCH   4   5
ATOM      5  C   UNL     1      34.608  10.495  45.826  1.00  0.00     0.041 C 
ATOM      6  O   UNL     1      34.269  10.472  44.614  1.00  0.00    -0.550 OA
ATOM      7  O   UNL     1      35.714  11.241  46.217  1.00  0.00    -0.550 OA
ENDBRANCH   4   5
ENDBRANCH   3   4
ENDBRANCH   2   3
ENDBRANCH   1   2
BRANCH   1   8
ATOM      8  C   UNL     1      30.627   8.408  49.234  1.00  0.00     0.000 C 
BRANCH   8   9
ATOM      9  C   UNL     1      30.253   7.080  48.565  1.00  0.00     0.000 C 
BRANCH   9  10
ATOM     10  C   UNL     1      31.340   6.635  47.576  1.00  0.00     0.006 C 
BRANCH  10  11
ATOM     11  C   UNL     1      32.083   5.382  48.054  1.00  0.00     0.053 C 
BRANCH  11  12
ATOM     12  C   UNL     1      33.561   5.612  48.143  1.00  0.00     0.041 C 
ATOM     13  O   UNL     1      34.363   4.787  47.631  1.00  0.00    -0.550 OA
ATOM     14  O   UNL     1      34.051   6.755  48.763  1.00  0.00    -0.550 OA
ENDBRANCH  11  12
ENDBRANCH  10  11
ENDBRANCH   9  10
ENDBRANCH   8   9
ENDBRANCH   1   8
TORSDOF 9
ENDMDL
