MODEL 1
REMARK VINA RESULT:    -6.827      0.000      0.000
REMARK INTER + INTRA:          -8.327
REMARK INTER:                  -8.024
REMARK INTRA:                  -0.303
REMARK UNBOUND:                -0.303
REMARK SMILES O=c1cc(-c2ccc(O)c(O)c2)oc2cc(O)cc(O)c12
REMARK SMILES IDX 4 1 3 2 2 3 1 4 21 5 19 6 18 7 16 8 15 9 14 10 13 11 5 12
REMARK SMILES IDX 6 13 7 14 8 15 12 16 10 17 9 18 11 20 20 22 17 24
REMARK H PARENT 9 19 11 21 20 23 17 25
REMARK Flexibility Score: inf
ROOT
ATOM      1  C   UNL     1       5.607 -60.990 189.981  1.00  0.00     0.138 A 
ATOM      2  C   UNL     1       6.883 -61.573 189.908  1.00  0.00     0.100 A 
ATOM      3  C   UNL     1       7.077 -62.706 189.117  1.00  0.00     0.197 A 
ATOM      4  O   UNL     1       8.225 -63.223 189.059  1.00  0.00    -0.289 OA
ATOM      5  C   UNL     1       5.989 -63.253 188.407  1.00  0.00     0.107 A 
ATOM      6  C   UNL     1       6.098 -64.398 187.583  1.00  0.00     0.134 A 
ATOM      7  C   UNL     1       4.965 -64.882 186.913  1.00  0.00     0.093 A 
ATOM      8  C   UNL     1       3.729 -64.247 187.051  1.00  0.00     0.123 A 
ATOM      9  C   UNL     1       3.614 -63.114 187.865  1.00  0.00     0.094 A 
ATOM     10  C   UNL     1       4.732 -62.615 188.539  1.00  0.00     0.146 A 
ATOM     11  O   UNL     1       4.599 -61.537 189.305  1.00  0.00    -0.456 OA
ENDROOT
BRANCH   1  12
ATOM     12  C   UNL     1       5.343 -59.785 190.807  1.00  0.00     0.021 A 
ATOM     13  C   UNL     1       6.038 -59.609 192.016  1.00  0.00     0.016 A 
ATOM     14  C   UNL     1       5.804 -58.488 192.814  1.00  0.00     0.051 A 
ATOM     15  C   UNL     1       4.862 -57.527 192.425  1.00  0.00     0.157 A 
ATOM     16  C   UNL     1       4.388 -58.821 190.427  1.00  0.00     0.062 A 
ATOM     17  C   UNL     1       4.149 -57.698 191.227  1.00  0.00     0.158 A 
BRANCH  15  18
ATOM     18  O   UNL     1       4.630 -56.409 193.225  1.00  0.00    -0.504 OA
ATOM     19  H   UNL     1       5.392 -55.889 193.644  1.00  0.00     0.293 HD
ENDBRANCH  15  18
BRANCH  17  20
ATOM     20  O   UNL     1       3.196 -56.765 190.818  1.00  0.00    -0.504 OA
ATOM     21  H   UNL     1       3.028 -56.563 189.839  1.00  0.00     0.293 HD
ENDBRANCH  17  20
ENDBRANCH   1  12
BRANCH   6  22
ATOM     22  O   UNL     1       7.319 -65.054 187.425  1.00  0.00    -0.507 OA
ATOM     23  H   UNL     1       7.447 -65.783 186.734  1.00  0.00     0.293 HD
ENDBRANCH   6  22
BRANCH   8  24
ATOM     24  O   UNL     1       2.620 -64.750 186.375  1.00  0.00    -0.508 OA
ATOM     25  H   UNL     1       2.291 -65.697 186.527  1.00  0.00     0.293 HD
ENDBRANCH   8  24
TORSDOF 5
ENDMDL
MODEL 2
REMARK VINA RESULT:    -6.718      1.448      3.127
REMARK INTER + INTRA:          -8.199
REMARK INTER:                  -7.925
REMARK INTRA:                  -0.274
REMARK UNBOUND:                -0.303
REMARK SMILES O=c1cc(-c2ccc(O)c(O)c2)oc2cc(O)cc(O)c12
REMARK SMILES IDX 4 1 3 2 2 3 1 4 21 5 19 6 18 7 16 8 15 9 14 10 13 11 5 12
REMARK SMILES IDX 6 13 7 14 8 15 12 16 10 17 9 18 11 20 20 22 17 24
REMARK H PARENT 9 19 11 21 20 23 17 25
REMARK Flexibility Score: inf
ROOT
ATOM      1  C   UNL     1       4.805 -60.227 189.920  1.00  0.00     0.138 A 
ATOM      2  C   UNL     1       3.459 -60.478 189.606  1.00  0.00     0.100 A 
ATOM      3  C   UNL     1       3.124 -61.629 188.891  1.00  0.00     0.197 A 
ATOM      4  O   UNL     1       1.913 -61.845 188.613  1.00  0.00    -0.289 OA
ATOM      5  C   UNL     1       4.140 -62.521 188.491  1.00  0.00     0.107 A 
ATOM      6  C   UNL     1       3.887 -63.708 187.766  1.00  0.00     0.134 A 
ATOM      7  C   UNL     1       4.955 -64.540 187.400  1.00  0.00     0.093 A 
ATOM      8  C   UNL     1       6.268 -64.208 187.744  1.00  0.00     0.123 A 
ATOM      9  C   UNL     1       6.524 -63.034 188.462  1.00  0.00     0.094 A 
ATOM     10  C   UNL     1       5.473 -62.193 188.837  1.00  0.00     0.146 A 
ATOM     11  O   UNL     1       5.741 -61.084 189.519  1.00  0.00    -0.456 OA
ENDROOT
BRANCH   1  12
ATOM     12  C   UNL     1       5.220 -59.019 190.677  1.00  0.00     0.021 A 
ATOM     13  C   UNL     1       5.024 -57.747 190.111  1.00  0.00     0.016 A 
ATOM     14  C   UNL     1       5.411 -56.595 190.798  1.00  0.00     0.051 A 
ATOM     15  C   UNL     1       6.013 -56.693 192.060  1.00  0.00     0.157 A 
ATOM     16  C   UNL     1       5.837 -59.111 191.940  1.00  0.00     0.062 A 
ATOM     17  C   UNL     1       6.229 -57.958 192.630  1.00  0.00     0.158 A 
BRANCH  15  18
ATOM     18  O   UNL     1       6.398 -55.541 192.744  1.00  0.00    -0.504 OA
ATOM     19  H   UNL     1       7.338 -55.427 193.104  1.00  0.00     0.293 HD
ENDBRANCH  15  18
BRANCH  17  20
ATOM     20  O   UNL     1       6.835 -58.090 193.879  1.00  0.00    -0.504 OA
ATOM     21  H   UNL     1       7.709 -58.588 194.003  1.00  0.00     0.293 HD
ENDBRANCH  17  20
ENDBRANCH   1  12
BRANCH   6  22
ATOM     22  O   UNL     1       2.587 -64.067 187.407  1.00  0.00    -0.507 OA
ATOM     23  H   UNL     1       1.780 -63.562 187.754  1.00  0.00     0.293 HD
ENDBRANCH   6  22
BRANCH   8  24
ATOM     24  O   UNL     1       7.310 -65.052 187.368  1.00  0.00    -0.508 OA
ATOM     25  H   UNL     1       7.609 -65.126 186.402  1.00  0.00     0.293 HD
ENDBRANCH   8  24
TORSDOF 5
ENDMDL
MODEL 3
REMARK VINA RESULT:    -6.664      2.056      7.601
REMARK INTER + INTRA:          -8.135
REMARK INTER:                  -7.819
REMARK INTRA:                  -0.317
REMARK UNBOUND:                -0.303
REMARK SMILES O=c1cc(-c2ccc(O)c(O)c2)oc2cc(O)cc(O)c12
REMARK SMILES IDX 4 1 3 2 2 3 1 4 21 5 19 6 18 7 16 8 15 9 14 10 13 11 5 12
REMARK SMILES IDX 6 13 7 14 8 15 12 16 10 17 9 18 11 20 20 22 17 24
REMARK H PARENT 9 19 11 21 20 23 17 25
REMARK Flexibility Score: inf
ROOT
ATOM      1  C   UNL     1       5.310 -60.323 190.784  1.00  0.00     0.138 A 
ATOM      2  C   UNL     1       3.949 -60.045 190.577  1.00  0.00     0.100 A 
ATOM      3  C   UNL     1       3.327 -59.051 191.334  1.00  0.00     0.197 A 
ATOM      4  O   UNL     1       2.105 -58.810 191.141  1.00  0.00    -0.289 OA
ATOM      5  C   UNL     1       4.073 -58.343 192.298  1.00  0.00     0.107 A 
ATOM      6  C   UNL     1       3.521 -57.321 193.107  1.00  0.00     0.134 A 
ATOM      7  C   UNL     1       4.330 -56.669 194.049  1.00  0.00     0.093 A 
ATOM      8  C   UNL     1       5.674 -57.017 194.198  1.00  0.00     0.123 A 
ATOM      9  C   UNL     1       6.225 -58.026 193.401  1.00  0.00     0.094 A 
ATOM     10  C   UNL     1       5.437 -58.688 192.456  1.00  0.00     0.146 A 
ATOM     11  O   UNL     1       5.982 -59.643 191.710  1.00  0.00    -0.456 OA
ENDROOT
BRANCH   1  12
ATOM     12  C   UNL     1       6.022 -61.370 190.008  1.00  0.00     0.021 A 
ATOM     13  C   UNL     1       5.394 -61.952 188.894  1.00  0.00     0.016 A 
ATOM     14  C   UNL     1       6.039 -62.943 188.151  1.00  0.00     0.051 A 
ATOM     15  C   UNL     1       7.319 -63.379 188.515  1.00  0.00     0.157 A 
ATOM     16  C   UNL     1       7.305 -61.821 190.376  1.00  0.00     0.062 A 
ATOM     17  C   UNL     1       7.952 -62.816 189.636  1.00  0.00     0.158 A 
BRANCH  15  18
ATOM     18  O   UNL     1       7.960 -64.368 187.772  1.00  0.00    -0.504 OA
ATOM     19  H   UNL     1       8.180 -65.274 188.170  1.00  0.00     0.293 HD
ENDBRANCH  15  18
BRANCH  17  20
ATOM     20  O   UNL     1       9.222 -63.237 190.031  1.00  0.00    -0.504 OA
ATOM     21  H   UNL     1      10.001 -62.593 190.113  1.00  0.00     0.293 HD
ENDBRANCH  17  20
ENDBRANCH   1  12
BRANCH   6  22
ATOM     22  O   UNL     1       2.182 -56.952 192.982  1.00  0.00    -0.507 OA
ATOM     23  H   UNL     1       1.443 -57.456 193.457  1.00  0.00     0.293 HD
ENDBRANCH   6  22
BRANCH   8  24
ATOM     24  O   UNL     1       6.455 -56.352 195.141  1.00  0.00    -0.508 OA
ATOM     25  H   UNL     1       7.179 -56.833 195.663  1.00  0.00     0.293 HD
ENDBRANCH   8  24
TORSDOF 5
ENDMDL
MODEL 4
REMARK VINA RESULT:    -6.217      2.122      3.843
REMARK INTER + INTRA:          -7.610
REMARK INTER:                  -7.313
REMARK INTRA:                  -0.296
REMARK UNBOUND:                -0.303
REMARK SMILES O=c1cc(-c2ccc(O)c(O)c2)oc2cc(O)cc(O)c12
REMARK SMILES IDX 4 1 3 2 2 3 1 4 21 5 19 6 18 7 16 8 15 9 14 10 13 11 5 12
REMARK SMILES IDX 6 13 7 14 8 15 12 16 10 17 9 18 11 20 20 22 17 24
REMARK H PARENT 9 19 11 21 20 23 17 25
REMARK Flexibility Score: inf
ROOT
ATOM      1  C   UNL     1       4.943 -59.387 191.592  1.00  0.00     0.138 A 
ATOM      2  C   UNL     1       3.978 -59.654 190.606  1.00  0.00     0.100 A 
ATOM      3  C   UNL     1       4.222 -60.648 189.658  1.00  0.00     0.197 A 
ATOM      4  O   UNL     1       3.351 -60.880 188.776  1.00  0.00    -0.289 OA
ATOM      5  C   UNL     1       5.434 -61.367 189.699  1.00  0.00     0.107 A 
ATOM      6  C   UNL     1       5.760 -62.390 188.777  1.00  0.00     0.134 A 
ATOM      7  C   UNL     1       6.991 -63.054 188.884  1.00  0.00     0.093 A 
ATOM      8  C   UNL     1       7.899 -62.716 189.889  1.00  0.00     0.123 A 
ATOM      9  C   UNL     1       7.582 -61.705 190.804  1.00  0.00     0.094 A 
ATOM     10  C   UNL     1       6.360 -61.032 190.716  1.00  0.00     0.146 A 
ATOM     11  O   UNL     1       6.081 -60.077 191.597  1.00  0.00    -0.456 OA
ENDROOT
BRANCH   1  12
ATOM     12  C   UNL     1       4.737 -58.341 192.625  1.00  0.00     0.021 A 
ATOM     13  C   UNL     1       3.474 -58.200 193.224  1.00  0.00     0.016 A 
ATOM     14  C   UNL     1       3.252 -57.220 194.194  1.00  0.00     0.051 A 
ATOM     15  C   UNL     1       4.285 -56.355 194.574  1.00  0.00     0.157 A 
ATOM     16  C   UNL     1       5.769 -57.460 193.003  1.00  0.00     0.062 A 
ATOM     17  C   UNL     1       5.549 -56.474 193.973  1.00  0.00     0.158 A 
BRANCH  15  18
ATOM     18  O   UNL     1       4.060 -55.377 195.543  1.00  0.00    -0.504 OA
ATOM     19  H   UNL     1       4.165 -55.575 196.531  1.00  0.00     0.293 HD
ENDBRANCH  15  18
BRANCH  17  20
ATOM     20  O   UNL     1       6.595 -55.621 194.321  1.00  0.00    -0.504 OA
ATOM     21  H   UNL     1       7.231 -55.239 193.630  1.00  0.00     0.293 HD
ENDBRANCH  17  20
ENDBRANCH   1  12
BRANCH   6  22
ATOM     22  O   UNL     1       4.874 -62.749 187.761  1.00  0.00    -0.507 OA
ATOM     23  H   UNL     1       5.199 -63.010 186.838  1.00  0.00     0.293 HD
ENDBRANCH   6  22
BRANCH   8  24
ATOM     24  O   UNL     1       9.115 -63.391 189.972  1.00  0.00    -0.508 OA
ATOM     25  H   UNL     1       9.909 -62.994 190.461  1.00  0.00     0.293 HD
ENDBRANCH   8  24
TORSDOF 5
ENDMDL
MODEL 5
REMARK VINA RESULT:    -5.958     10.113     12.392
REMARK INTER + INTRA:          -7.306
REMARK INTER:                  -7.018
REMARK INTRA:                  -0.289
REMARK UNBOUND:                -0.303
REMARK SMILES O=c1cc(-c2ccc(O)c(O)c2)oc2cc(O)cc(O)c12
REMARK SMILES IDX 4 1 3 2 2 3 1 4 21 5 19 6 18 7 16 8 15 9 14 10 13 11 5 12
REMARK SMILES IDX 6 13 7 14 8 15 12 16 10 17 9 18 11 20 20 22 17 24
REMARK H PARENT 9 19 11 21 20 23 17 25
REMARK Flexibility Score: inf
ROOT
ATOM      1  C   UNL     1      11.245 -56.403 197.417  1.00  0.00     0.138 A 
ATOM      2  C   UNL     1      10.292 -56.181 196.409  1.00  0.00     0.100 A 
ATOM      3  C   UNL     1      10.698 -55.646 195.186  1.00  0.00     0.197 A 
ATOM      4  O   UNL     1       9.835 -55.449 194.288  1.00  0.00    -0.289 OA
ATOM      5  C   UNL     1      12.057 -55.334 194.979  1.00  0.00     0.107 A 
ATOM      6  C   UNL     1      12.552 -54.791 193.771  1.00  0.00     0.134 A 
ATOM      7  C   UNL     1      13.919 -54.502 193.647  1.00  0.00     0.093 A 
ATOM      8  C   UNL     1      14.798 -54.744 194.706  1.00  0.00     0.123 A 
ATOM      9  C   UNL     1      14.313 -55.281 195.904  1.00  0.00     0.094 A 
ATOM     10  C   UNL     1      12.955 -55.577 196.047  1.00  0.00     0.146 A 
ATOM     11  O   UNL     1      12.519 -56.088 197.193  1.00  0.00    -0.456 OA
ENDROOT
BRANCH   1  12
ATOM     12  C   UNL     1      10.870 -56.968 198.738  1.00  0.00     0.021 A 
ATOM     13  C   UNL     1       9.796 -56.408 199.450  1.00  0.00     0.016 A 
ATOM     14  C   UNL     1       9.427 -56.916 200.697  1.00  0.00     0.051 A 
ATOM     15  C   UNL     1      10.132 -57.986 201.261  1.00  0.00     0.157 A 
ATOM     16  C   UNL     1      11.583 -58.036 199.316  1.00  0.00     0.062 A 
ATOM     17  C   UNL     1      11.218 -58.545 200.568  1.00  0.00     0.158 A 
BRANCH  15  18
ATOM     18  O   UNL     1       9.762 -58.491 202.507  1.00  0.00    -0.504 OA
ATOM     19  H   UNL     1      10.427 -58.961 203.109  1.00  0.00     0.293 HD
ENDBRANCH  15  18
BRANCH  17  20
ATOM     20  O   UNL     1      11.948 -59.604 201.108  1.00  0.00    -0.504 OA
ATOM     21  H   UNL     1      12.903 -59.796 200.829  1.00  0.00     0.293 HD
ENDBRANCH  17  20
ENDBRANCH   1  12
BRANCH   6  22
ATOM     22  O   UNL     1      11.700 -54.537 192.695  1.00  0.00    -0.507 OA
ATOM     23  H   UNL     1      11.783 -53.697 192.136  1.00  0.00     0.293 HD
ENDBRANCH   6  22
BRANCH   8  24
ATOM     24  O   UNL     1      16.150 -54.448 194.557  1.00  0.00    -0.508 OA
ATOM     25  H   UNL     1      16.655 -53.909 195.253  1.00  0.00     0.293 HD
ENDBRANCH   8  24
TORSDOF 5
ENDMDL
MODEL 6
REMARK VINA RESULT:    -5.953      1.494      2.214
REMARK INTER + INTRA:          -7.299
REMARK INTER:                  -7.002
REMARK INTRA:                  -0.297
REMARK UNBOUND:                -0.303
REMARK SMILES O=c1cc(-c2ccc(O)c(O)c2)oc2cc(O)cc(O)c12
REMARK SMILES IDX 4 1 3 2 2 3 1 4 21 5 19 6 18 7 16 8 15 9 14 10 13 11 5 12
REMARK SMILES IDX 6 13 7 14 8 15 12 16 10 17 9 18 11 20 20 22 17 24
REMARK H PARENT 9 19 11 21 20 23 17 25
REMARK Flexibility Score: inf
ROOT
ATOM      1  C   UNL     1       5.751 -60.220 191.149  1.00  0.00     0.138 A 
ATOM      2  C   UNL     1       6.951 -60.932 190.986  1.00  0.00     0.100 A 
ATOM      3  C   UNL     1       7.023 -61.950 190.035  1.00  0.00     0.197 A 
ATOM      4  O   UNL     1       8.104 -62.584 189.897  1.00  0.00    -0.289 OA
ATOM      5  C   UNL     1       5.889 -62.253 189.253  1.00  0.00     0.107 A 
ATOM      6  C   UNL     1       5.876 -63.267 188.267  1.00  0.00     0.134 A 
ATOM      7  C   UNL     1       4.705 -63.510 187.536  1.00  0.00     0.093 A 
ATOM      8  C   UNL     1       3.549 -62.761 187.771  1.00  0.00     0.123 A 
ATOM      9  C   UNL     1       3.556 -61.756 188.744  1.00  0.00     0.094 A 
ATOM     10  C   UNL     1       4.714 -61.498 189.483  1.00  0.00     0.146 A 
ATOM     11  O   UNL     1       4.697 -60.538 190.402  1.00  0.00    -0.456 OA
ENDROOT
BRANCH   1  12
ATOM     12  C   UNL     1       5.618 -59.128 192.147  1.00  0.00     0.021 A 
ATOM     13  C   UNL     1       4.403 -58.429 192.247  1.00  0.00     0.016 A 
ATOM     14  C   UNL     1       4.253 -57.393 193.171  1.00  0.00     0.051 A 
ATOM     15  C   UNL     1       5.318 -57.029 194.005  1.00  0.00     0.157 A 
ATOM     16  C   UNL     1       6.689 -58.750 192.979  1.00  0.00     0.062 A 
ATOM     17  C   UNL     1       6.543 -57.710 193.905  1.00  0.00     0.158 A 
BRANCH  15  18
ATOM     18  O   UNL     1       5.165 -55.995 194.927  1.00  0.00    -0.504 OA
ATOM     19  H   UNL     1       5.963 -55.570 195.385  1.00  0.00     0.293 HD
ENDBRANCH  15  18
BRANCH  17  20
ATOM     20  O   UNL     1       7.626 -57.365 194.712  1.00  0.00    -0.504 OA
ATOM     21  H   UNL     1       8.374 -58.017 194.917  1.00  0.00     0.293 HD
ENDBRANCH  17  20
ENDBRANCH   1  12
BRANCH   6  22
ATOM     22  O   UNL     1       7.014 -64.032 188.010  1.00  0.00    -0.507 OA
ATOM     23  H   UNL     1       7.425 -64.630 188.717  1.00  0.00     0.293 HD
ENDBRANCH   6  22
BRANCH   8  24
ATOM     24  O   UNL     1       2.399 -63.023 187.030  1.00  0.00    -0.508 OA
ATOM     25  H   UNL     1       2.448 -63.430 186.102  1.00  0.00     0.293 HD
ENDBRANCH   8  24
TORSDOF 5
ENDMDL
MODEL 7
REMARK VINA RESULT:    -5.877      1.386      7.010
REMARK INTER + INTRA:          -7.211
REMARK INTER:                  -6.918
REMARK INTRA:                  -0.293
REMARK UNBOUND:                -0.303
REMARK SMILES O=c1cc(-c2ccc(O)c(O)c2)oc2cc(O)cc(O)c12
REMARK SMILES IDX 4 1 3 2 2 3 1 4 21 5 19 6 18 7 16 8 15 9 14 10 13 11 5 12
REMARK SMILES IDX 6 13 7 14 8 15 12 16 10 17 9 18 11 20 20 22 17 24
REMARK H PARENT 9 19 11 21 20 23 17 25
REMARK Flexibility Score: inf
ROOT
ATOM      1  C   UNL     1       4.627 -61.136 189.684  1.00  0.00     0.138 A 
ATOM      2  C   UNL     1       5.717 -61.051 190.566  1.00  0.00     0.100 A 
ATOM      3  C   UNL     1       5.836 -59.943 191.406  1.00  0.00     0.197 A 
ATOM      4  O   UNL     1       6.819 -59.875 192.193  1.00  0.00    -0.289 OA
ATOM      5  C   UNL     1       4.864 -58.924 191.355  1.00  0.00     0.107 A 
ATOM      6  C   UNL     1       4.909 -57.769 192.171  1.00  0.00     0.134 A 
ATOM      7  C   UNL     1       3.904 -56.797 192.056  1.00  0.00     0.093 A 
ATOM      8  C   UNL     1       2.860 -56.956 191.142  1.00  0.00     0.123 A 
ATOM      9  C   UNL     1       2.810 -58.096 190.332  1.00  0.00     0.094 A 
ATOM     10  C   UNL     1       3.800 -59.077 190.433  1.00  0.00     0.146 A 
ATOM     11  O   UNL     1       3.731 -60.151 189.654  1.00  0.00    -0.456 OA
ENDROOT
BRANCH   1  12
ATOM     12  C   UNL     1       4.449 -62.291 188.767  1.00  0.00     0.021 A 
ATOM     13  C   UNL     1       3.181 -62.550 188.220  1.00  0.00     0.016 A 
ATOM     14  C   UNL     1       2.986 -63.633 187.360  1.00  0.00     0.051 A 
ATOM     15  C   UNL     1       4.052 -64.484 187.042  1.00  0.00     0.157 A 
ATOM     16  C   UNL     1       5.514 -63.157 188.453  1.00  0.00     0.062 A 
ATOM     17  C   UNL     1       5.321 -64.246 187.594  1.00  0.00     0.158 A 
BRANCH  15  18
ATOM     18  O   UNL     1       3.853 -65.564 186.183  1.00  0.00    -0.504 OA
ATOM     19  H   UNL     1       4.627 -66.128 185.851  1.00  0.00     0.293 HD
ENDBRANCH  15  18
BRANCH  17  20
ATOM     20  O   UNL     1       6.400 -65.081 187.306  1.00  0.00    -0.504 OA
ATOM     21  H   UNL     1       6.275 -65.995 186.885  1.00  0.00     0.293 HD
ENDBRANCH  17  20
ENDBRANCH   1  12
BRANCH   6  22
ATOM     22  O   UNL     1       5.939 -57.581 193.093  1.00  0.00    -0.507 OA
ATOM     23  H   UNL     1       5.752 -57.388 194.070  1.00  0.00     0.293 HD
ENDBRANCH   6  22
BRANCH   8  24
ATOM     24  O   UNL     1       1.875 -55.975 191.048  1.00  0.00    -0.508 OA
ATOM     25  H   UNL     1       1.078 -56.083 190.431  1.00  0.00     0.293 HD
ENDBRANCH   8  24
TORSDOF 5
ENDMDL
MODEL 8
REMARK VINA RESULT:    -5.640     10.296     12.359
REMARK INTER + INTRA:          -6.931
REMARK INTER:                  -6.657
REMARK INTRA:                  -0.275
REMARK UNBOUND:                -0.303
REMARK SMILES O=c1cc(-c2ccc(O)c(O)c2)oc2cc(O)cc(O)c12
REMARK SMILES IDX 4 1 3 2 2 3 1 4 21 5 19 6 18 7 16 8 15 9 14 10 13 11 5 12
REMARK SMILES IDX 6 13 7 14 8 15 12 16 10 17 9 18 11 20 20 22 17 24
REMARK H PARENT 9 19 11 21 20 23 17 25
REMARK Flexibility Score: inf
ROOT
ATOM      1  C   UNL     1      11.923 -56.172 197.797  1.00  0.00     0.138 A 
ATOM      2  C   UNL     1      13.297 -55.899 197.696  1.00  0.00     0.100 A 
ATOM      3  C   UNL     1      13.792 -55.275 196.550  1.00  0.00     0.197 A 
ATOM      4  O   UNL     1      15.027 -55.036 196.469  1.00  0.00    -0.289 OA
ATOM      5  C   UNL     1      12.907 -54.931 195.508  1.00  0.00     0.107 A 
ATOM      6  C   UNL     1      13.324 -54.297 194.315  1.00  0.00     0.134 A 
ATOM      7  C   UNL     1      12.381 -53.993 193.323  1.00  0.00     0.093 A 
ATOM      8  C   UNL     1      11.032 -54.311 193.500  1.00  0.00     0.123 A 
ATOM      9  C   UNL     1      10.613 -54.938 194.678  1.00  0.00     0.094 A 
ATOM     10  C   UNL     1      11.537 -55.248 195.680  1.00  0.00     0.146 A 
ATOM     11  O   UNL     1      11.116 -55.843 196.791  1.00  0.00    -0.456 OA
ENDROOT
BRANCH   1  12
ATOM     12  C   UNL     1      11.341 -56.835 198.992  1.00  0.00     0.021 A 
ATOM     13  C   UNL     1      10.220 -56.266 199.620  1.00  0.00     0.016 A 
ATOM     14  C   UNL     1       9.658 -56.865 200.749  1.00  0.00     0.051 A 
ATOM     15  C   UNL     1      10.213 -58.037 201.278  1.00  0.00     0.157 A 
ATOM     16  C   UNL     1      11.902 -58.006 199.536  1.00  0.00     0.062 A 
ATOM     17  C   UNL     1      11.343 -58.607 200.670  1.00  0.00     0.158 A 
BRANCH  15  18
ATOM     18  O   UNL     1       9.649 -58.632 202.406  1.00  0.00    -0.504 OA
ATOM     19  H   UNL     1       8.661 -58.545 202.614  1.00  0.00     0.293 HD
ENDBRANCH  15  18
BRANCH  17  20
ATOM     20  O   UNL     1      11.926 -59.767 201.179  1.00  0.00    -0.504 OA
ATOM     21  H   UNL     1      12.930 -59.866 201.277  1.00  0.00     0.293 HD
ENDBRANCH  17  20
ENDBRANCH   1  12
BRANCH   6  22
ATOM     22  O   UNL     1      14.664 -53.967 194.109  1.00  0.00    -0.507 OA
ATOM     23  H   UNL     1      14.991 -53.593 193.226  1.00  0.00     0.293 HD
ENDBRANCH   6  22
BRANCH   8  24
ATOM     24  O   UNL     1      10.116 -53.997 192.498  1.00  0.00    -0.508 OA
ATOM     25  H   UNL     1      10.163 -53.119 191.994  1.00  0.00     0.293 HD
ENDBRANCH   8  24
TORSDOF 5
ENDMDL
MODEL 9
REMARK VINA RESULT:    -5.610     10.188     12.398
REMARK INTER + INTRA:          -6.897
REMARK INTER:                  -6.604
REMARK INTRA:                  -0.293
REMARK UNBOUND:                -0.303
REMARK SMILES O=c1cc(-c2ccc(O)c(O)c2)oc2cc(O)cc(O)c12
REMARK SMILES IDX 4 1 3 2 2 3 1 4 21 5 19 6 18 7 16 8 15 9 14 10 13 11 5 12
REMARK SMILES IDX 6 13 7 14 8 15 12 16 10 17 9 18 11 20 20 22 17 24
REMARK H PARENT 9 19 11 21 20 23 17 25
REMARK Flexibility Score: inf
ROOT
ATOM      1  C   UNL     1      11.870 -55.830 196.485  1.00  0.00     0.138 A 
ATOM      2  C   UNL     1      10.574 -55.719 195.956  1.00  0.00     0.100 A 
ATOM      3  C   UNL     1       9.491 -56.220 196.679  1.00  0.00     0.197 A 
ATOM      4  O   UNL     1       8.332 -56.118 196.195  1.00  0.00    -0.289 OA
ATOM      5  C   UNL     1       9.713 -56.833 197.929  1.00  0.00     0.107 A 
ATOM      6  C   UNL     1       8.673 -57.366 198.727  1.00  0.00     0.134 A 
ATOM      7  C   UNL     1       8.978 -57.965 199.957  1.00  0.00     0.093 A 
ATOM      8  C   UNL     1      10.300 -58.043 200.404  1.00  0.00     0.123 A 
ATOM      9  C   UNL     1      11.333 -57.518 199.620  1.00  0.00     0.094 A 
ATOM     10  C   UNL     1      11.049 -56.915 198.391  1.00  0.00     0.146 A 
ATOM     11  O   UNL     1      12.046 -56.423 197.664  1.00  0.00    -0.456 OA
ENDROOT
BRANCH   1  12
ATOM     12  C   UNL     1      13.059 -55.316 195.760  1.00  0.00     0.021 A 
ATOM     13  C   UNL     1      14.240 -55.045 196.472  1.00  0.00     0.016 A 
ATOM     14  C   UNL     1      15.370 -54.554 195.815  1.00  0.00     0.051 A 
ATOM     15  C   UNL     1      15.338 -54.315 194.435  1.00  0.00     0.157 A 
ATOM     16  C   UNL     1      13.029 -55.061 194.375  1.00  0.00     0.062 A 
ATOM     17  C   UNL     1      14.159 -54.567 193.714  1.00  0.00     0.158 A 
BRANCH  15  18
ATOM     18  O   UNL     1      16.468 -53.825 193.782  1.00  0.00    -0.504 OA
ATOM     19  H   UNL     1      17.077 -54.433 193.248  1.00  0.00     0.293 HD
ENDBRANCH  15  18
BRANCH  17  20
ATOM     20  O   UNL     1      14.091 -54.328 192.341  1.00  0.00    -0.504 OA
ATOM     21  H   UNL     1      14.428 -54.999 191.661  1.00  0.00     0.293 HD
ENDBRANCH  17  20
ENDBRANCH   1  12
BRANCH   6  22
ATOM     22  O   UNL     1       7.344 -57.303 198.307  1.00  0.00    -0.507 OA
ATOM     23  H   UNL     1       6.618 -56.908 198.893  1.00  0.00     0.293 HD
ENDBRANCH   6  22
BRANCH   8  24
ATOM     24  O   UNL     1      10.575 -58.644 201.630  1.00  0.00    -0.508 OA
ATOM     25  H   UNL     1      10.607 -59.653 201.730  1.00  0.00     0.293 HD
ENDBRANCH   8  24
TORSDOF 5
ENDMDL
