MODEL 1
REMARK VINA RESULT:    79.867      0.000      0.000
REMARK INTER + INTRA:          88.595
REMARK INTER:                  86.871
REMARK INTRA:                   1.724
REMARK UNBOUND:                 1.724
REMARK SMILES C[C@H]1[C@H](C)CC[C@@]2(C(=O)[O-])CC[C@]3(C)C(=CC[C@@H]4[C@@]5(C)CC[C@H](O)C(C)(C)[C@@H]5CC[C@]43C)[C@H]12
REMARK SMILES IDX 7 1 6 2 11 3 33 4 5 5 12 6 15 7 2 8 3 9 13 10 16 11 1 12
REMARK SMILES IDX 4 13 14 14 31 15 17 16 18 17 30 18 32 19 19 20 29 21 28 22
REMARK SMILES IDX 21 23 20 24 25 25 22 26 23 27 26 28 27 29 8 30 9 31 10 32
REMARK SMILES IDX 24 33
REMARK H PARENT 24 34
REMARK Flexibility Score: inf
ROOT
ATOM      1  C   UNL     1     -17.970  45.621  30.725  1.00  0.00     0.017 C 
ATOM      2  C   UNL     1     -18.241  44.388  31.630  1.00  0.00     0.014 C 
ATOM      3  C   UNL     1     -18.456  46.903  31.412  1.00  0.00     0.014 C 
ATOM      4  C   UNL     1     -16.413  45.716  30.564  1.00  0.00     0.030 C 
ATOM      5  C   UNL     1     -17.720  43.096  30.973  1.00  0.00     0.004 C 
ATOM      6  C   UNL     1     -18.255  48.122  30.492  1.00  0.00     0.013 C 
ATOM      7  C   UNL     1     -15.857  47.141  30.266  1.00  0.00    -0.063 C 
ATOM      8  C   UNL     1     -15.894  44.464  29.751  1.00  0.00    -0.003 C 
ATOM      9  C   UNL     1     -16.223  43.171  30.578  1.00  0.00    -0.011 C 
ATOM     10  C   UNL     1     -16.766  48.379  30.017  1.00  0.00    -0.006 C 
ATOM     11  C   UNL     1     -14.537  47.340  30.517  1.00  0.00    -0.027 C 
ATOM     12  C   UNL     1     -14.405  44.506  29.362  1.00  0.00     0.008 C 
ATOM     13  C   UNL     1     -15.841  41.878  29.833  1.00  0.00     0.008 C 
ATOM     14  C   UNL     1     -16.794  48.554  28.465  1.00  0.00     0.017 C 
ATOM     15  C   UNL     1     -16.149  49.683  30.766  1.00  0.00    -0.020 C 
ATOM     16  C   UNL     1     -13.790  48.640  30.400  1.00  0.00     0.032 C 
ATOM     17  C   UNL     1     -14.670  49.908  30.262  1.00  0.00     0.006 C 
ATOM     18  C   UNL     1     -16.969  50.990  30.459  1.00  0.00     0.008 C 
ATOM     19  C   UNL     1     -16.186  49.446  32.311  1.00  0.00     0.012 C 
ATOM     20  C   UNL     1     -13.945  51.253  30.708  1.00  0.00    -0.025 C 
ATOM     21  C   UNL     1     -16.291  52.302  30.898  1.00  0.00     0.005 C 
ATOM     22  C   UNL     1     -14.881  52.444  30.275  1.00  0.00     0.003 C 
ATOM     23  C   UNL     1     -12.610  51.380  29.906  1.00  0.00     0.010 C 
ATOM     24  C   UNL     1     -13.613  51.259  32.239  1.00  0.00     0.012 C 
ATOM     25  C   UNL     1     -14.246  53.891  30.353  1.00  0.00    -0.006 C 
ATOM     26  C   UNL     1     -11.947  52.761  30.008  1.00  0.00     0.033 C 
ATOM     27  C   UNL     1     -12.894  53.888  29.569  1.00  0.00     0.120 C 
ATOM     28  C   UNL     1     -15.180  54.913  29.642  1.00  0.00     0.014 C 
ATOM     29  C   UNL     1     -14.045  54.398  31.805  1.00  0.00     0.014 C 
ENDROOT
BRANCH   1  30
ATOM     30  C   UNL     1     -18.792  45.430  29.441  1.00  0.00     0.048 C 
ATOM     31  O   UNL     1     -19.125  44.296  29.022  1.00  0.00    -0.550 OA
ATOM     32  O   UNL     1     -19.125  46.539  28.671  1.00  0.00    -0.550 OA
ENDBRANCH   1  30
BRANCH  27  33
ATOM     33  O   UNL     1     -12.239  55.123  29.714  1.00  0.00    -0.393 OA
ATOM     34  H   UNL     1     -12.936  55.829  29.685  1.00  0.00     0.210 HD
ENDBRANCH  27  33
TORSDOF 2
ENDMDL
