MODEL 1
REMARK VINA RESULT:    -5.712      0.000      0.000
REMARK INTER + INTRA:          -5.712
REMARK INTER:                  -5.712
REMARK INTRA:                   0.000
REMARK UNBOUND:                 0.000
REMARK SMILES O=c1ccc2ccc3occc3c2o1
REMARK SMILES IDX 6 1 7 2 8 3 12 4 11 5 10 6 9 7 13 8 5 9 4 10 3 11 2 12 1 13
REMARK SMILES IDX 14 14
REMARK H PARENT
REMARK Flexibility Score: inf
ROOT
ATOM      1  C   UNL     1     -24.763  94.950 -28.182  1.00  0.00     0.016 A 
ATOM      2  C   UNL     1     -24.752  96.159 -28.903  1.00  0.00     0.048 A 
ATOM      3  C   UNL     1     -24.348  96.123 -30.237  1.00  0.00     0.137 A 
ATOM      4  C   UNL     1     -23.969  94.957 -30.847  1.00  0.00     0.064 A 
ATOM      5  C   UNL     1     -23.636  95.274 -32.144  1.00  0.00     0.054 A 
ATOM      6  C   UNL     1     -23.842  96.646 -32.232  1.00  0.00     0.196 A 
ATOM      7  O   UNL     1     -24.267  97.125 -31.077  1.00  0.00    -0.464 OA
ATOM      8  C   UNL     1     -23.966  93.740 -30.167  1.00  0.00     0.149 A 
ATOM      9  C   UNL     1     -24.371  93.741 -28.808  1.00  0.00     0.018 A 
ATOM     10  C   UNL     1     -24.371  92.524 -28.120  1.00  0.00     0.019 A 
ATOM     11  C   UNL     1     -23.976  91.362 -28.786  1.00  0.00     0.094 A 
ATOM     12  C   UNL     1     -23.590  91.442 -30.129  1.00  0.00     0.336 A 
ATOM     13  O   UNL     1     -23.231  90.403 -30.742  1.00  0.00    -0.246 OA
ATOM     14  O   UNL     1     -23.597  92.611 -30.766  1.00  0.00    -0.422 OA
ENDROOT
TORSDOF 0
ENDMDL
MODEL 2
REMARK VINA RESULT:    -5.693      1.852      3.461
REMARK INTER + INTRA:          -5.693
REMARK INTER:                  -5.693
REMARK INTRA:                   0.000
REMARK UNBOUND:                 0.000
REMARK SMILES O=c1ccc2ccc3occc3c2o1
REMARK SMILES IDX 6 1 7 2 8 3 12 4 11 5 10 6 9 7 13 8 5 9 4 10 3 11 2 12 1 13
REMARK SMILES IDX 14 14
REMARK H PARENT
REMARK Flexibility Score: inf
ROOT
ATOM      1  C   UNL     1     -24.368  96.377 -29.716  1.00  0.00     0.016 A 
ATOM      2  C   UNL     1     -25.098  96.475 -28.515  1.00  0.00     0.048 A 
ATOM      3  C   UNL     1     -25.553  95.297 -27.926  1.00  0.00     0.137 A 
ATOM      4  C   UNL     1     -25.309  94.069 -28.481  1.00  0.00     0.064 A 
ATOM      5  C   UNL     1     -25.891  93.134 -27.655  1.00  0.00     0.054 A 
ATOM      6  C   UNL     1     -26.461  93.881 -26.630  1.00  0.00     0.196 A 
ATOM      7  O   UNL     1     -26.242  95.169 -26.819  1.00  0.00    -0.464 OA
ATOM      8  C   UNL     1     -24.592  93.930 -29.667  1.00  0.00     0.149 A 
ATOM      9  C   UNL     1     -24.113  95.109 -30.294  1.00  0.00     0.018 A 
ATOM     10  C   UNL     1     -23.393  94.976 -31.485  1.00  0.00     0.019 A 
ATOM     11  C   UNL     1     -23.170  93.703 -32.011  1.00  0.00     0.094 A 
ATOM     12  C   UNL     1     -23.674  92.586 -31.334  1.00  0.00     0.336 A 
ATOM     13  O   UNL     1     -23.481  91.431 -31.796  1.00  0.00    -0.246 OA
ATOM     14  O   UNL     1     -24.358  92.734 -30.201  1.00  0.00    -0.422 OA
ENDROOT
TORSDOF 0
ENDMDL
MODEL 3
REMARK VINA RESULT:    -5.621      1.625      2.930
REMARK INTER + INTRA:          -5.621
REMARK INTER:                  -5.621
REMARK INTRA:                   0.000
REMARK UNBOUND:                 0.000
REMARK SMILES O=c1ccc2ccc3occc3c2o1
REMARK SMILES IDX 6 1 7 2 8 3 12 4 11 5 10 6 9 7 13 8 5 9 4 10 3 11 2 12 1 13
REMARK SMILES IDX 14 14
REMARK H PARENT
REMARK Flexibility Score: inf
ROOT
ATOM      1  C   UNL     1     -23.318  92.969 -31.519  1.00  0.00     0.016 A 
ATOM      2  C   UNL     1     -23.790  94.292 -31.419  1.00  0.00     0.048 A 
ATOM      3  C   UNL     1     -24.306  94.713 -30.194  1.00  0.00     0.137 A 
ATOM      4  C   UNL     1     -24.363  93.881 -29.108  1.00  0.00     0.064 A 
ATOM      5  C   UNL     1     -24.920  94.605 -28.079  1.00  0.00     0.054 A 
ATOM      6  C   UNL     1     -25.169  95.858 -28.627  1.00  0.00     0.196 A 
ATOM      7  O   UNL     1     -24.791  95.892 -29.893  1.00  0.00    -0.464 OA
ATOM      8  C   UNL     1     -23.906  92.566 -29.167  1.00  0.00     0.149 A 
ATOM      9  C   UNL     1     -23.374  92.104 -30.398  1.00  0.00     0.018 A 
ATOM     10  C   UNL     1     -22.915  90.786 -30.464  1.00  0.00     0.019 A 
ATOM     11  C   UNL     1     -22.993  89.977 -29.329  1.00  0.00     0.094 A 
ATOM     12  C   UNL     1     -23.531  90.505 -28.149  1.00  0.00     0.336 A 
ATOM     13  O   UNL     1     -23.609  89.787 -27.118  1.00  0.00    -0.246 OA
ATOM     14  O   UNL     1     -23.963  91.764 -28.108  1.00  0.00    -0.422 OA
ENDROOT
TORSDOF 0
ENDMDL
MODEL 4
REMARK VINA RESULT:    -5.587      2.071      2.812
REMARK INTER + INTRA:          -5.587
REMARK INTER:                  -5.587
REMARK INTRA:                   0.000
REMARK UNBOUND:                 0.000
REMARK SMILES O=c1ccc2ccc3occc3c2o1
REMARK SMILES IDX 6 1 7 2 8 3 12 4 11 5 10 6 9 7 13 8 5 9 4 10 3 11 2 12 1 13
REMARK SMILES IDX 14 14
REMARK H PARENT
REMARK Flexibility Score: inf
ROOT
ATOM      1  C   UNL     1     -25.079  96.279 -28.676  1.00  0.00     0.016 A 
ATOM      2  C   UNL     1     -24.314  96.381 -29.854  1.00  0.00     0.048 A 
ATOM      3  C   UNL     1     -23.984  95.205 -30.525  1.00  0.00     0.137 A 
ATOM      4  C   UNL     1     -24.381  93.976 -30.070  1.00  0.00     0.064 A 
ATOM      5  C   UNL     1     -23.892  93.043 -30.956  1.00  0.00     0.054 A 
ATOM      6  C   UNL     1     -23.214  93.792 -31.912  1.00  0.00     0.196 A 
ATOM      7  O   UNL     1     -23.287  95.080 -31.628  1.00  0.00    -0.464 OA
ATOM      8  C   UNL     1     -25.138  93.833 -28.909  1.00  0.00     0.149 A 
ATOM      9  C   UNL     1     -25.492  95.010 -28.201  1.00  0.00     0.018 A 
ATOM     10  C   UNL     1     -26.251  94.874 -27.035  1.00  0.00     0.019 A 
ATOM     11  C   UNL     1     -26.633  93.600 -26.612  1.00  0.00     0.094 A 
ATOM     12  C   UNL     1     -26.245  92.485 -27.365  1.00  0.00     0.336 A 
ATOM     13  O   UNL     1     -26.581  91.330 -26.995  1.00  0.00    -0.246 OA
ATOM     14  O   UNL     1     -25.521  92.637 -28.472  1.00  0.00    -0.422 OA
ENDROOT
TORSDOF 0
ENDMDL
MODEL 5
REMARK VINA RESULT:    -5.563     12.485     14.326
REMARK INTER + INTRA:          -5.563
REMARK INTER:                  -5.563
REMARK INTRA:                   0.000
REMARK UNBOUND:                 0.000
REMARK SMILES O=c1ccc2ccc3occc3c2o1
REMARK SMILES IDX 6 1 7 2 8 3 12 4 11 5 10 6 9 7 13 8 5 9 4 10 3 11 2 12 1 13
REMARK SMILES IDX 14 14
REMARK H PARENT
REMARK Flexibility Score: inf
ROOT
ATOM      1  C   UNL     1     -22.348  84.048 -23.951  1.00  0.00     0.016 A 
ATOM      2  C   UNL     1     -22.506  84.845 -22.801  1.00  0.00     0.048 A 
ATOM      3  C   UNL     1     -22.181  84.286 -21.566  1.00  0.00     0.137 A 
ATOM      4  C   UNL     1     -21.720  83.001 -21.452  1.00  0.00     0.064 A 
ATOM      5  C   UNL     1     -21.500  82.773 -20.113  1.00  0.00     0.054 A 
ATOM      6  C   UNL     1     -21.852  83.966 -19.492  1.00  0.00     0.196 A 
ATOM      7  O   UNL     1     -22.255  84.851 -20.386  1.00  0.00    -0.464 OA
ATOM      8  C   UNL     1     -21.550  82.181 -22.566  1.00  0.00     0.149 A 
ATOM      9  C   UNL     1     -21.871  82.719 -23.839  1.00  0.00     0.018 A 
ATOM     10  C   UNL     1     -21.703  81.902 -24.960  1.00  0.00     0.019 A 
ATOM     11  C   UNL     1     -21.230  80.599 -24.793  1.00  0.00     0.094 A 
ATOM     12  C   UNL     1     -20.934  80.140 -23.504  1.00  0.00     0.336 A 
ATOM     13  O   UNL     1     -20.507  78.968 -23.337  1.00  0.00    -0.246 OA
ATOM     14  O   UNL     1     -21.101  80.935 -22.449  1.00  0.00    -0.422 OA
ENDROOT
TORSDOF 0
ENDMDL
MODEL 6
REMARK VINA RESULT:    -5.559      1.825      4.372
REMARK INTER + INTRA:          -5.559
REMARK INTER:                  -5.559
REMARK INTRA:                   0.000
REMARK UNBOUND:                 0.000
REMARK SMILES O=c1ccc2ccc3occc3c2o1
REMARK SMILES IDX 6 1 7 2 8 3 12 4 11 5 10 6 9 7 13 8 5 9 4 10 3 11 2 12 1 13
REMARK SMILES IDX 14 14
REMARK H PARENT
REMARK Flexibility Score: inf
ROOT
ATOM      1  C   UNL     1     -23.477  95.155 -31.615  1.00  0.00     0.016 A 
ATOM      2  C   UNL     1     -23.105  93.919 -32.178  1.00  0.00     0.048 A 
ATOM      3  C   UNL     1     -23.388  92.760 -31.458  1.00  0.00     0.137 A 
ATOM      4  C   UNL     1     -24.007  92.798 -30.237  1.00  0.00     0.064 A 
ATOM      5  C   UNL     1     -24.131  91.496 -29.810  1.00  0.00     0.054 A 
ATOM      6  C   UNL     1     -23.563  90.738 -30.828  1.00  0.00     0.196 A 
ATOM      7  O   UNL     1     -23.128  91.521 -31.799  1.00  0.00    -0.464 OA
ATOM      8  C   UNL     1     -24.390  94.001 -29.647  1.00  0.00     0.149 A 
ATOM      9  C   UNL     1     -24.118  95.201 -30.352  1.00  0.00     0.018 A 
ATOM     10  C   UNL     1     -24.499  96.411 -29.766  1.00  0.00     0.019 A 
ATOM     11  C   UNL     1     -25.129  96.399 -28.520  1.00  0.00     0.094 A 
ATOM     12  C   UNL     1     -25.364  95.173 -27.885  1.00  0.00     0.336 A 
ATOM     13  O   UNL     1     -25.930  95.147 -26.761  1.00  0.00    -0.246 OA
ATOM     14  O   UNL     1     -24.992  94.032 -28.461  1.00  0.00    -0.422 OA
ENDROOT
TORSDOF 0
ENDMDL
MODEL 7
REMARK VINA RESULT:    -5.460      1.985      4.297
REMARK INTER + INTRA:          -5.460
REMARK INTER:                  -5.460
REMARK INTRA:                   0.000
REMARK UNBOUND:                 0.000
REMARK SMILES O=c1ccc2ccc3occc3c2o1
REMARK SMILES IDX 6 1 7 2 8 3 12 4 11 5 10 6 9 7 13 8 5 9 4 10 3 11 2 12 1 13
REMARK SMILES IDX 14 14
REMARK H PARENT
REMARK Flexibility Score: inf
ROOT
ATOM      1  C   UNL     1     -24.186  92.296 -29.899  1.00  0.00     0.016 A 
ATOM      2  C   UNL     1     -24.856  92.292 -28.661  1.00  0.00     0.048 A 
ATOM      3  C   UNL     1     -25.266  93.515 -28.134  1.00  0.00     0.137 A 
ATOM      4  C   UNL     1     -25.031  94.698 -28.782  1.00  0.00     0.064 A 
ATOM      5  C   UNL     1     -25.558  95.697 -27.995  1.00  0.00     0.054 A 
ATOM      6  C   UNL     1     -26.089  95.032 -26.895  1.00  0.00     0.196 A 
ATOM      7  O   UNL     1     -25.898  93.730 -27.006  1.00  0.00    -0.464 OA
ATOM      8  C   UNL     1     -24.371  94.744 -30.008  1.00  0.00     0.149 A 
ATOM      9  C   UNL     1     -23.941  93.517 -30.575  1.00  0.00     0.018 A 
ATOM     10  C   UNL     1     -23.278  93.556 -31.804  1.00  0.00     0.019 A 
ATOM     11  C   UNL     1     -23.063  94.787 -32.428  1.00  0.00     0.094 A 
ATOM     12  C   UNL     1     -23.518  95.956 -31.806  1.00  0.00     0.336 A 
ATOM     13  O   UNL     1     -23.332  97.073 -32.355  1.00  0.00    -0.246 OA
ATOM     14  O   UNL     1     -24.148  95.896 -30.634  1.00  0.00    -0.422 OA
ENDROOT
TORSDOF 0
ENDMDL
MODEL 8
REMARK VINA RESULT:    -5.450      1.060      4.248
REMARK INTER + INTRA:          -5.450
REMARK INTER:                  -5.450
REMARK INTRA:                   0.000
REMARK UNBOUND:                 0.000
REMARK SMILES O=c1ccc2ccc3occc3c2o1
REMARK SMILES IDX 6 1 7 2 8 3 12 4 11 5 10 6 9 7 13 8 5 9 4 10 3 11 2 12 1 13
REMARK SMILES IDX 14 14
REMARK H PARENT
REMARK Flexibility Score: inf
ROOT
ATOM      1  C   UNL     1     -24.383  92.689 -28.132  1.00  0.00     0.016 A 
ATOM      2  C   UNL     1     -24.025  91.452 -28.701  1.00  0.00     0.048 A 
ATOM      3  C   UNL     1     -23.643  91.434 -30.042  1.00  0.00     0.137 A 
ATOM      4  C   UNL     1     -23.611  92.573 -30.801  1.00  0.00     0.064 A 
ATOM      5  C   UNL     1     -23.196  92.203 -32.060  1.00  0.00     0.054 A 
ATOM      6  C   UNL     1     -23.001  90.829 -31.974  1.00  0.00     0.196 A 
ATOM      7  O   UNL     1     -23.276  90.399 -30.756  1.00  0.00    -0.464 OA
ATOM      8  C   UNL     1     -23.958  93.816 -30.274  1.00  0.00     0.149 A 
ATOM      9  C   UNL     1     -24.351  93.871 -28.913  1.00  0.00     0.018 A 
ATOM     10  C   UNL     1     -24.701  95.114 -28.378  1.00  0.00     0.019 A 
ATOM     11  C   UNL     1     -24.652  96.247 -29.192  1.00  0.00     0.094 A 
ATOM     12  C   UNL     1     -24.253  96.112 -30.527  1.00  0.00     0.336 A 
ATOM     13  O   UNL     1     -24.204  97.125 -31.273  1.00  0.00    -0.246 OA
ATOM     14  O   UNL     1     -23.924  94.919 -31.017  1.00  0.00    -0.422 OA
ENDROOT
TORSDOF 0
ENDMDL
MODEL 9
REMARK VINA RESULT:    -5.401      2.163      3.183
REMARK INTER + INTRA:          -5.401
REMARK INTER:                  -5.401
REMARK INTRA:                   0.000
REMARK UNBOUND:                 0.000
REMARK SMILES O=c1ccc2ccc3occc3c2o1
REMARK SMILES IDX 6 1 7 2 8 3 12 4 11 5 10 6 9 7 13 8 5 9 4 10 3 11 2 12 1 13
REMARK SMILES IDX 14 14
REMARK H PARENT
REMARK Flexibility Score: inf
ROOT
ATOM      1  C   UNL     1     -23.581  92.910 -31.120  1.00  0.00     0.016 A 
ATOM      2  C   UNL     1     -23.208  93.690 -32.232  1.00  0.00     0.048 A 
ATOM      3  C   UNL     1     -23.470  95.059 -32.190  1.00  0.00     0.137 A 
ATOM      4  C   UNL     1     -24.073  95.648 -31.111  1.00  0.00     0.064 A 
ATOM      5  C   UNL     1     -24.180  96.990 -31.395  1.00  0.00     0.054 A 
ATOM      6  C   UNL     1     -23.620  97.124 -32.661  1.00  0.00     0.196 A 
ATOM      7  O   UNL     1     -23.205  95.953 -33.110  1.00  0.00    -0.464 OA
ATOM      8  C   UNL     1     -24.457  94.910 -29.992  1.00  0.00     0.149 A 
ATOM      9  C   UNL     1     -24.205  93.515 -30.001  1.00  0.00     0.018 A 
ATOM     10  C   UNL     1     -24.588  92.769 -28.883  1.00  0.00     0.019 A 
ATOM     11  C   UNL     1     -25.199  93.415 -27.806  1.00  0.00     0.094 A 
ATOM     12  C   UNL     1     -25.414  94.797 -27.872  1.00  0.00     0.336 A 
ATOM     13  O   UNL     1     -25.964  95.393 -26.909  1.00  0.00    -0.246 OA
ATOM     14  O   UNL     1     -25.041  95.488 -28.947  1.00  0.00    -0.422 OA
ENDROOT
TORSDOF 0
ENDMDL
