MODEL 1
REMARK VINA RESULT:    26.895      0.000      0.000
REMARK INTER + INTRA:          66.975
REMARK INTER:                  67.775
REMARK INTRA:                  -0.800
REMARK UNBOUND:                -0.800
REMARK SMILES CCCCCCCCCCCCCCCCCCCCCCCCCCCC(=O)[O-]
REMARK SMILES IDX 15 1 16 2 17 3 18 4 19 5 20 6 21 7 22 8 23 9 24 10 25 11
REMARK SMILES IDX 26 12 27 13 28 14 29 15 30 16 14 17 13 18 12 19 11 20 10 21
REMARK SMILES IDX 9 22 8 23 7 24 6 25 5 26 4 27 3 28 2 29 1 30
REMARK H PARENT
REMARK Flexibility Score: inf
ROOT
ATOM      1  C   UNL     1      57.059  48.440  16.926  1.00  0.00     0.000 C 
ENDROOT
BRANCH   1   2
ATOM      2  C   UNL     1      56.722  49.607  15.982  1.00  0.00     0.000 C 
BRANCH   2   3
ATOM      3  C   UNL     1      55.263  50.076  16.111  1.00  0.00     0.000 C 
BRANCH   3   4
ATOM      4  C   UNL     1      55.146  51.537  16.576  1.00  0.00     0.000 C 
BRANCH   4   5
ATOM      5  C   UNL     1      54.590  51.666  18.004  1.00  0.00     0.000 C 
BRANCH   5   6
ATOM      6  C   UNL     1      55.106  52.924  18.726  1.00  0.00     0.000 C 
BRANCH   6   7
ATOM      7  C   UNL     1      54.933  52.837  20.258  1.00  0.00     0.000 C 
BRANCH   7   8
ATOM      8  C   UNL     1      53.955  53.877  20.833  1.00  0.00     0.000 C 
BRANCH   8   9
ATOM      9  C   UNL     1      53.873  53.832  22.368  1.00  0.00     0.000 C 
BRANCH   9  10
ATOM     10  C   UNL     1      53.462  55.179  22.991  1.00  0.00     0.000 C 
BRANCH  10  11
ATOM     11  C   UNL     1      53.911  55.399  24.451  1.00  0.00     0.000 C 
BRANCH  11  12
ATOM     12  C   UNL     1      54.207  56.860  24.835  1.00  0.00     0.006 C 
BRANCH  12  13
ATOM     13  C   UNL     1      55.334  56.984  25.868  1.00  0.00     0.053 C 
BRANCH  13  14
ATOM     14  C   UNL     1      56.607  56.410  25.329  1.00  0.00     0.041 C 
ATOM     15  O   UNL     1      56.578  55.571  24.391  1.00  0.00    -0.550 OA
ATOM     16  O   UNL     1      57.827  56.797  25.873  1.00  0.00    -0.550 OA
ENDBRANCH  13  14
ENDBRANCH  12  13
ENDBRANCH  11  12
ENDBRANCH  10  11
ENDBRANCH   9  10
ENDBRANCH   8   9
ENDBRANCH   7   8
ENDBRANCH   6   7
ENDBRANCH   5   6
ENDBRANCH   4   5
ENDBRANCH   3   4
ENDBRANCH   2   3
ENDBRANCH   1   2
BRANCH   1  17
ATOM     17  C   UNL     1      56.145  48.403  18.161  1.00  0.00     0.000 C 
BRANCH  17  18
ATOM     18  C   UNL     1      56.719  47.530  19.285  1.00  0.00     0.000 C 
BRANCH  18  19
ATOM     19  C   UNL     1      55.970  47.768  20.604  1.00  0.00     0.000 C 
BRANCH  19  20
ATOM     20  C   UNL     1      56.948  48.105  21.737  1.00  0.00     0.000 C 
BRANCH  20  21
ATOM     21  C   UNL     1      57.595  46.857  22.356  1.00  0.00     0.000 C 
BRANCH  21  22
ATOM     22  C   UNL     1      56.587  45.722  22.599  1.00  0.00    -0.000 C 
BRANCH  22  23
ATOM     23  C   UNL     1      57.274  44.362  22.825  1.00  0.00    -0.000 C 
BRANCH  23  24
ATOM     24  C   UNL     1      57.323  43.486  21.553  1.00  0.00    -0.000 C 
BRANCH  24  25
ATOM     25  C   UNL     1      55.924  43.036  21.095  1.00  0.00    -0.000 C 
BRANCH  25  26
ATOM     26  C   UNL     1      55.522  41.672  21.698  1.00  0.00    -0.000 C 
BRANCH  26  27
ATOM     27  C   UNL     1      54.581  40.851  20.798  1.00  0.00    -0.000 C 
BRANCH  27  28
ATOM     28  C   UNL     1      55.238  39.578  20.249  1.00  0.00    -0.000 C 
BRANCH  28  29
ATOM     29  C   UNL     1      56.699  39.469  20.696  1.00  0.00    -0.003 C 
ATOM     30  C   UNL     1      57.008  38.070  21.221  1.00  0.00     0.004 C 
ENDBRANCH  28  29
ENDBRANCH  27  28
ENDBRANCH  26  27
ENDBRANCH  25  26
ENDBRANCH  24  25
ENDBRANCH  23  24
ENDBRANCH  22  23
ENDBRANCH  21  22
ENDBRANCH  20  21
ENDBRANCH  19  20
ENDBRANCH  18  19
ENDBRANCH  17  18
ENDBRANCH   1  17
TORSDOF 26
ENDMDL
MODEL 2
REMARK VINA RESULT:    28.077      4.253     11.636
REMARK INTER + INTRA:          69.954
REMARK INTER:                  71.632
REMARK INTRA:                  -1.679
REMARK UNBOUND:                -0.800
REMARK SMILES CCCCCCCCCCCCCCCCCCCCCCCCCCCC(=O)[O-]
REMARK SMILES IDX 15 1 16 2 17 3 18 4 19 5 20 6 21 7 22 8 23 9 24 10 25 11
REMARK SMILES IDX 26 12 27 13 28 14 29 15 30 16 14 17 13 18 12 19 11 20 10 21
REMARK SMILES IDX 9 22 8 23 7 24 6 25 5 26 4 27 3 28 2 29 1 30
REMARK H PARENT
REMARK Flexibility Score: inf
ROOT
ATOM      1  C   UNL     1      57.001  48.194  17.174  1.00  0.00     0.000 C 
ENDROOT
BRANCH   1   2
ATOM      2  C   UNL     1      57.224  47.776  18.637  1.00  0.00     0.000 C 
BRANCH   2   3
ATOM      3  C   UNL     1      55.925  47.774  19.461  1.00  0.00     0.000 C 
BRANCH   3   4
ATOM      4  C   UNL     1      56.112  47.175  20.865  1.00  0.00     0.000 C 
BRANCH   4   5
ATOM      5  C   UNL     1      57.052  48.011  21.749  1.00  0.00     0.000 C 
BRANCH   5   6
ATOM      6  C   UNL     1      57.675  47.188  22.891  1.00  0.00     0.000 C 
BRANCH   6   7
ATOM      7  C   UNL     1      56.608  46.535  23.797  1.00  0.00     0.000 C 
BRANCH   7   8
ATOM      8  C   UNL     1      56.526  45.005  23.656  1.00  0.00     0.000 C 
BRANCH   8   9
ATOM      9  C   UNL     1      57.676  44.420  22.820  1.00  0.00     0.000 C 
BRANCH   9  10
ATOM     10  C   UNL     1      57.206  43.813  21.486  1.00  0.00     0.000 C 
BRANCH  10  11
ATOM     11  C   UNL     1      56.099  42.743  21.598  1.00  0.00     0.000 C 
BRANCH  11  12
ATOM     12  C   UNL     1      56.104  41.673  20.492  1.00  0.00     0.006 C 
BRANCH  12  13
ATOM     13  C   UNL     1      55.504  40.340  20.955  1.00  0.00     0.053 C 
BRANCH  13  14
ATOM     14  C   UNL     1      54.020  40.459  21.114  1.00  0.00     0.041 C 
ATOM     15  O   UNL     1      53.256  40.211  20.144  1.00  0.00    -0.550 OA
ATOM     16  O   UNL     1      53.483  40.855  22.334  1.00  0.00    -0.550 OA
ENDBRANCH  13  14
ENDBRANCH  12  13
ENDBRANCH  11  12
ENDBRANCH  10  11
ENDBRANCH   9  10
ENDBRANCH   8   9
ENDBRANCH   7   8
ENDBRANCH   6   7
ENDBRANCH   5   6
ENDBRANCH   4   5
ENDBRANCH   3   4
ENDBRANCH   2   3
ENDBRANCH   1   2
BRANCH   1  17
ATOM     17  C   UNL     1      55.705  49.000  16.986  1.00  0.00     0.000 C 
BRANCH  17  18
ATOM     18  C   UNL     1      55.679  49.758  15.651  1.00  0.00     0.000 C 
BRANCH  18  19
ATOM     19  C   UNL     1      55.422  51.255  15.875  1.00  0.00     0.000 C 
BRANCH  19  20
ATOM     20  C   UNL     1      54.953  51.522  17.311  1.00  0.00     0.000 C 
BRANCH  20  21
ATOM     21  C   UNL     1      55.704  52.684  17.978  1.00  0.00     0.000 C 
BRANCH  21  22
ATOM     22  C   UNL     1      54.883  53.369  19.082  1.00  0.00    -0.000 C 
BRANCH  22  23
ATOM     23  C   UNL     1      55.016  52.659  20.442  1.00  0.00    -0.000 C 
BRANCH  23  24
ATOM     24  C   UNL     1      54.017  53.178  21.500  1.00  0.00    -0.000 C 
BRANCH  24  25
ATOM     25  C   UNL     1      54.684  54.100  22.535  1.00  0.00    -0.000 C 
BRANCH  25  26
ATOM     26  C   UNL     1      53.696  55.135  23.119  1.00  0.00    -0.000 C 
BRANCH  26  27
ATOM     27  C   UNL     1      54.172  55.768  24.438  1.00  0.00    -0.000 C 
BRANCH  27  28
ATOM     28  C   UNL     1      55.558  56.416  24.326  1.00  0.00    -0.000 C 
BRANCH  28  29
ATOM     29  C   UNL     1      56.046  56.924  25.686  1.00  0.00    -0.003 C 
ATOM     30  C   UNL     1      57.529  56.623  25.884  1.00  0.00     0.004 C 
ENDBRANCH  28  29
ENDBRANCH  27  28
ENDBRANCH  26  27
ENDBRANCH  25  26
ENDBRANCH  24  25
ENDBRANCH  23  24
ENDBRANCH  22  23
ENDBRANCH  21  22
ENDBRANCH  20  21
ENDBRANCH  19  20
ENDBRANCH  18  19
ENDBRANCH  17  18
ENDBRANCH   1  17
TORSDOF 26
ENDMDL
MODEL 3
REMARK VINA RESULT:    28.279      1.018      1.803
REMARK INTER + INTRA:          70.463
REMARK INTER:                  70.151
REMARK INTRA:                   0.312
REMARK UNBOUND:                -0.800
REMARK SMILES CCCCCCCCCCCCCCCCCCCCCCCCCCCC(=O)[O-]
REMARK SMILES IDX 15 1 16 2 17 3 18 4 19 5 20 6 21 7 22 8 23 9 24 10 25 11
REMARK SMILES IDX 26 12 27 13 28 14 29 15 30 16 14 17 13 18 12 19 11 20 10 21
REMARK SMILES IDX 9 22 8 23 7 24 6 25 5 26 4 27 3 28 2 29 1 30
REMARK H PARENT
REMARK Flexibility Score: inf
ROOT
ATOM      1  C   UNL     1      54.209  49.682  16.126  1.00  0.00     0.000 C 
ENDROOT
BRANCH   1   2
ATOM      2  C   UNL     1      55.118  50.516  15.208  1.00  0.00     0.000 C 
BRANCH   2   3
ATOM      3  C   UNL     1      56.259  51.211  15.971  1.00  0.00     0.000 C 
BRANCH   3   4
ATOM      4  C   UNL     1      55.770  52.391  16.827  1.00  0.00     0.000 C 
BRANCH   4   5
ATOM      5  C   UNL     1      55.608  52.024  18.312  1.00  0.00     0.000 C 
BRANCH   5   6
ATOM      6  C   UNL     1      54.786  53.067  19.091  1.00  0.00     0.000 C 
BRANCH   6   7
ATOM      7  C   UNL     1      55.264  53.223  20.551  1.00  0.00     0.000 C 
BRANCH   7   8
ATOM      8  C   UNL     1      54.414  52.444  21.570  1.00  0.00     0.000 C 
BRANCH   8   9
ATOM      9  C   UNL     1      53.206  53.249  22.078  1.00  0.00     0.000 C 
BRANCH   9  10
ATOM     10  C   UNL     1      53.521  54.741  22.293  1.00  0.00     0.000 C 
BRANCH  10  11
ATOM     11  C   UNL     1      53.420  55.236  23.752  1.00  0.00     0.000 C 
BRANCH  11  12
ATOM     12  C   UNL     1      54.416  56.343  24.140  1.00  0.00     0.006 C 
BRANCH  12  13
ATOM     13  C   UNL     1      55.875  55.872  24.088  1.00  0.00     0.053 C 
BRANCH  13  14
ATOM     14  C   UNL     1      56.611  56.305  25.317  1.00  0.00     0.041 C 
ATOM     15  O   UNL     1      56.018  56.959  26.215  1.00  0.00    -0.550 OA
ATOM     16  O   UNL     1      57.959  55.995  25.463  1.00  0.00    -0.550 OA
ENDBRANCH  13  14
ENDBRANCH  12  13
ENDBRANCH  11  12
ENDBRANCH  10  11
ENDBRANCH   9  10
ENDBRANCH   8   9
ENDBRANCH   7   8
ENDBRANCH   6   7
ENDBRANCH   5   6
ENDBRANCH   4   5
ENDBRANCH   3   4
ENDBRANCH   2   3
ENDBRANCH   1   2
BRANCH   1  17
ATOM     17  C   UNL     1      54.959  49.131  17.349  1.00  0.00     0.000 C 
BRANCH  17  18
ATOM     18  C   UNL     1      56.346  48.580  16.985  1.00  0.00     0.000 C 
BRANCH  18  19
ATOM     19  C   UNL     1      57.068  48.044  18.228  1.00  0.00     0.000 C 
BRANCH  19  20
ATOM     20  C   UNL     1      56.207  48.228  19.485  1.00  0.00     0.000 C 
BRANCH  20  21
ATOM     21  C   UNL     1      56.362  47.076  20.488  1.00  0.00     0.000 C 
BRANCH  21  22
ATOM     22  C   UNL     1      56.860  47.546  21.864  1.00  0.00    -0.000 C 
BRANCH  22  23
ATOM     23  C   UNL     1      56.455  46.584  22.997  1.00  0.00    -0.000 C 
BRANCH  23  24
ATOM     24  C   UNL     1      57.067  45.173  22.846  1.00  0.00    -0.000 C 
BRANCH  24  25
ATOM     25  C   UNL     1      56.670  44.499  21.521  1.00  0.00    -0.000 C 
BRANCH  25  26
ATOM     26  C   UNL     1      56.636  42.959  21.635  1.00  0.00    -0.000 C 
BRANCH  26  27
ATOM     27  C   UNL     1      55.702  42.284  20.615  1.00  0.00    -0.000 C 
BRANCH  27  28
ATOM     28  C   UNL     1      54.675  41.351  21.270  1.00  0.00    -0.000 C 
BRANCH  28  29
ATOM     29  C   UNL     1      55.048  39.880  21.062  1.00  0.00    -0.003 C 
ATOM     30  C   UNL     1      56.514  39.738  20.663  1.00  0.00     0.004 C 
ENDBRANCH  28  29
ENDBRANCH  27  28
ENDBRANCH  26  27
ENDBRANCH  25  26
ENDBRANCH  24  25
ENDBRANCH  23  24
ENDBRANCH  22  23
ENDBRANCH  21  22
ENDBRANCH  20  21
ENDBRANCH  19  20
ENDBRANCH  18  19
ENDBRANCH  17  18
ENDBRANCH   1  17
TORSDOF 26
ENDMDL
MODEL 4
REMARK VINA RESULT:    28.882      4.279     11.439
REMARK INTER + INTRA:          71.983
REMARK INTER:                  74.416
REMARK INTRA:                  -2.433
REMARK UNBOUND:                -0.800
REMARK SMILES CCCCCCCCCCCCCCCCCCCCCCCCCCCC(=O)[O-]
REMARK SMILES IDX 15 1 16 2 17 3 18 4 19 5 20 6 21 7 22 8 23 9 24 10 25 11
REMARK SMILES IDX 26 12 27 13 28 14 29 15 30 16 14 17 13 18 12 19 11 20 10 21
REMARK SMILES IDX 9 22 8 23 7 24 6 25 5 26 4 27 3 28 2 29 1 30
REMARK H PARENT
REMARK Flexibility Score: inf
ROOT
ATOM      1  C   UNL     1      56.841  48.073  17.109  1.00  0.00     0.000 C 
ENDROOT
BRANCH   1   2
ATOM      2  C   UNL     1      57.200  48.121  18.603  1.00  0.00     0.000 C 
BRANCH   2   3
ATOM      3  C   UNL     1      55.959  48.117  19.514  1.00  0.00     0.000 C 
BRANCH   3   4
ATOM      4  C   UNL     1      56.140  47.238  20.762  1.00  0.00     0.000 C 
BRANCH   4   5
ATOM      5  C   UNL     1      56.953  47.932  21.868  1.00  0.00     0.000 C 
BRANCH   5   6
ATOM      6  C   UNL     1      57.541  46.933  22.882  1.00  0.00     0.000 C 
BRANCH   6   7
ATOM      7  C   UNL     1      56.522  45.853  23.304  1.00  0.00     0.000 C 
BRANCH   7   8
ATOM      8  C   UNL     1      57.055  44.414  23.178  1.00  0.00     0.000 C 
BRANCH   8   9
ATOM      9  C   UNL     1      57.326  44.004  21.721  1.00  0.00     0.000 C 
BRANCH   9  10
ATOM     10  C   UNL     1      56.077  43.462  21.003  1.00  0.00     0.000 C 
BRANCH  10  11
ATOM     11  C   UNL     1      55.901  43.922  19.540  1.00  0.00     0.000 C 
BRANCH  11  12
ATOM     12  C   UNL     1      57.194  44.365  18.831  1.00  0.00     0.006 C 
BRANCH  12  13
ATOM     13  C   UNL     1      57.276  43.865  17.383  1.00  0.00     0.053 C 
BRANCH  13  14
ATOM     14  C   UNL     1      58.606  43.231  17.122  1.00  0.00     0.041 C 
ATOM     15  O   UNL     1      59.368  42.935  18.080  1.00  0.00    -0.550 OA
ATOM     16  O   UNL     1      59.009  42.977  15.815  1.00  0.00    -0.550 OA
ENDBRANCH  13  14
ENDBRANCH  12  13
ENDBRANCH  11  12
ENDBRANCH  10  11
ENDBRANCH   9  10
ENDBRANCH   8   9
ENDBRANCH   7   8
ENDBRANCH   6   7
ENDBRANCH   5   6
ENDBRANCH   4   5
ENDBRANCH   3   4
ENDBRANCH   2   3
ENDBRANCH   1   2
BRANCH   1  17
ATOM     17  C   UNL     1      56.625  49.473  16.513  1.00  0.00     0.000 C 
BRANCH  17  18
ATOM     18  C   UNL     1      55.137  49.806  16.330  1.00  0.00     0.000 C 
BRANCH  18  19
ATOM     19  C   UNL     1      54.812  51.197  16.891  1.00  0.00     0.000 C 
BRANCH  19  20
ATOM     20  C   UNL     1      55.397  51.371  18.299  1.00  0.00     0.000 C 
BRANCH  20  21
ATOM     21  C   UNL     1      55.206  52.791  18.853  1.00  0.00     0.000 C 
BRANCH  21  22
ATOM     22  C   UNL     1      54.966  52.811  20.371  1.00  0.00    -0.000 C 
BRANCH  22  23
ATOM     23  C   UNL     1      53.896  53.838  20.785  1.00  0.00    -0.000 C 
BRANCH  23  24
ATOM     24  C   UNL     1      53.173  53.469  22.100  1.00  0.00    -0.000 C 
BRANCH  24  25
ATOM     25  C   UNL     1      53.722  54.245  23.310  1.00  0.00    -0.000 C 
BRANCH  25  26
ATOM     26  C   UNL     1      53.294  55.729  23.295  1.00  0.00    -0.000 C 
BRANCH  26  27
ATOM     27  C   UNL     1      54.042  56.598  24.322  1.00  0.00    -0.000 C 
BRANCH  27  28
ATOM     28  C   UNL     1      55.424  56.040  24.686  1.00  0.00    -0.000 C 
BRANCH  28  29
ATOM     29  C   UNL     1      56.312  57.118  25.313  1.00  0.00    -0.003 C 
ATOM     30  C   UNL     1      57.629  56.526  25.805  1.00  0.00     0.004 C 
ENDBRANCH  28  29
ENDBRANCH  27  28
ENDBRANCH  26  27
ENDBRANCH  25  26
ENDBRANCH  24  25
ENDBRANCH  23  24
ENDBRANCH  22  23
ENDBRANCH  21  22
ENDBRANCH  20  21
ENDBRANCH  19  20
ENDBRANCH  18  19
ENDBRANCH  17  18
ENDBRANCH   1  17
TORSDOF 26
ENDMDL
MODEL 5
REMARK VINA RESULT:    29.300      3.893      6.838
REMARK INTER + INTRA:          73.036
REMARK INTER:                  73.361
REMARK INTRA:                  -0.325
REMARK UNBOUND:                -0.800
REMARK SMILES CCCCCCCCCCCCCCCCCCCCCCCCCCCC(=O)[O-]
REMARK SMILES IDX 15 1 16 2 17 3 18 4 19 5 20 6 21 7 22 8 23 9 24 10 25 11
REMARK SMILES IDX 26 12 27 13 28 14 29 15 30 16 14 17 13 18 12 19 11 20 10 21
REMARK SMILES IDX 9 22 8 23 7 24 6 25 5 26 4 27 3 28 2 29 1 30
REMARK H PARENT
REMARK Flexibility Score: inf
ROOT
ATOM      1  C   UNL     1      54.696  52.980  21.314  1.00  0.00     0.000 C 
ENDROOT
BRANCH   1   2
ATOM      2  C   UNL     1      53.434  53.725  21.780  1.00  0.00     0.000 C 
BRANCH   2   3
ATOM      3  C   UNL     1      53.535  54.215  23.235  1.00  0.00     0.000 C 
BRANCH   3   4
ATOM      4  C   UNL     1      53.487  55.748  23.352  1.00  0.00     0.000 C 
BRANCH   4   5
ATOM      5  C   UNL     1      54.783  56.423  22.873  1.00  0.00     0.000 C 
BRANCH   5   6
ATOM      6  C   UNL     1      56.023  55.926  23.637  1.00  0.00     0.000 C 
BRANCH   6   7
ATOM      7  C   UNL     1      56.248  56.692  24.959  1.00  0.00     0.000 C 
BRANCH   7   8
ATOM      8  C   UNL     1      55.631  56.003  26.189  1.00  0.00     0.000 C 
BRANCH   8   9
ATOM      9  C   UNL     1      54.215  55.465  25.924  1.00  0.00     0.000 C 
BRANCH   9  10
ATOM     10  C   UNL     1      53.120  56.255  26.664  1.00  0.00     0.000 C 
BRANCH  10  11
ATOM     11  C   UNL     1      52.259  55.431  27.646  1.00  0.00     0.000 C 
BRANCH  11  12
ATOM     12  C   UNL     1      52.974  54.240  28.308  1.00  0.00     0.006 C 
BRANCH  12  13
ATOM     13  C   UNL     1      52.361  52.890  27.916  1.00  0.00     0.053 C 
BRANCH  13  14
ATOM     14  C   UNL     1      51.211  52.555  28.813  1.00  0.00     0.041 C 
ATOM     15  O   UNL     1      50.877  53.341  29.738  1.00  0.00    -0.550 OA
ATOM     16  O   UNL     1      50.513  51.365  28.632  1.00  0.00    -0.550 OA
ENDBRANCH  13  14
ENDBRANCH  12  13
ENDBRANCH  11  12
ENDBRANCH  10  11
ENDBRANCH   9  10
ENDBRANCH   8   9
ENDBRANCH   7   8
ENDBRANCH   6   7
ENDBRANCH   5   6
ENDBRANCH   4   5
ENDBRANCH   3   4
ENDBRANCH   2   3
ENDBRANCH   1   2
BRANCH   1  17
ATOM     17  C   UNL     1      54.593  52.510  19.854  1.00  0.00     0.000 C 
BRANCH  17  18
ATOM     18  C   UNL     1      55.245  53.498  18.876  1.00  0.00     0.000 C 
BRANCH  18  19
ATOM     19  C   UNL     1      55.947  52.755  17.731  1.00  0.00     0.000 C 
BRANCH  19  20
ATOM     20  C   UNL     1      55.005  51.731  17.083  1.00  0.00     0.000 C 
BRANCH  20  21
ATOM     21  C   UNL     1      55.624  51.044  15.857  1.00  0.00     0.000 C 
BRANCH  21  22
ATOM     22  C   UNL     1      55.429  49.519  15.866  1.00  0.00    -0.000 C 
BRANCH  22  23
ATOM     23  C   UNL     1      55.672  48.903  17.256  1.00  0.00    -0.000 C 
BRANCH  23  24
ATOM     24  C   UNL     1      57.110  48.365  17.441  1.00  0.00    -0.000 C 
BRANCH  24  25
ATOM     25  C   UNL     1      57.266  47.536  18.727  1.00  0.00    -0.000 C 
BRANCH  25  26
ATOM     26  C   UNL     1      55.977  47.527  19.577  1.00  0.00    -0.000 C 
BRANCH  26  27
ATOM     27  C   UNL     1      56.155  46.883  20.964  1.00  0.00    -0.000 C 
BRANCH  27  28
ATOM     28  C   UNL     1      56.711  47.858  22.010  1.00  0.00    -0.000 C 
BRANCH  28  29
ATOM     29  C   UNL     1      57.996  47.318  22.645  1.00  0.00    -0.003 C 
ATOM     30  C   UNL     1      59.225  47.763  21.857  1.00  0.00     0.004 C 
ENDBRANCH  28  29
ENDBRANCH  27  28
ENDBRANCH  26  27
ENDBRANCH  25  26
ENDBRANCH  24  25
ENDBRANCH  23  24
ENDBRANCH  22  23
ENDBRANCH  21  22
ENDBRANCH  20  21
ENDBRANCH  19  20
ENDBRANCH  18  19
ENDBRANCH  17  18
ENDBRANCH   1  17
TORSDOF 26
ENDMDL
