MODEL 1
REMARK VINA RESULT:    11.150      0.000      0.000
REMARK INTER + INTRA:          19.228
REMARK INTER:                  17.017
REMARK INTRA:                   2.211
REMARK UNBOUND:                 2.211
REMARK SMILES CC1=CCC[C@@H](C)C(=O)C[C@H](C(C)C)C(=O)C1
REMARK SMILES IDX 8 1 9 2 6 3 7 4 5 5 4 6 3 7 2 8 1 9 10 11 11 12 15 13 16 14
REMARK SMILES IDX 17 15 12 17 13 18 14 19
REMARK H PARENT
REMARK Flexibility Score: 70.00
ROOT
ATOM      1  C   UNL     1      -2.405   8.560  -0.019  1.00  0.00     0.136 C 
ATOM      2  O   UNL     1      -3.007   7.502  -0.135  1.00  0.00    -0.299 OA
ENDROOT
BRANCH   1   3
ATOM      3  C   UNL     1      -3.138   9.781   0.507  1.00  0.00     0.053 C 
ATOM      4  C   UNL     1      -2.888   9.949   2.013  1.00  0.00     0.016 C 
BRANCH   3   5
ATOM      5  C   UNL     1      -4.651   9.677   0.208  1.00  0.00     0.015 C 
BRANCH   5   6
ATOM      6  C   UNL     1      -4.977  10.125  -1.230  1.00  0.00     0.028 C 
BRANCH   6   7
ATOM      7  C   UNL     1      -4.969   8.989  -2.223  1.00  0.00    -0.028 C 
ATOM      8  C   UNL     1      -3.894   8.579  -2.940  1.00  0.00    -0.070 CG0
ATOM      9  C   UNL     1      -4.109   7.487  -3.959  1.00  0.00     0.039 C 
ATOM     10  G   UNL     1      -2.486   9.127  -2.739  1.00  0.00     0.000 G0
ENDBRANCH   6   7
ENDBRANCH   5   6
ENDBRANCH   3   5
ENDBRANCH   1   3
BRANCH   1  11
ATOM     11  C   UNL     1      -0.941   8.617  -0.389  1.00  0.00     0.087 C 
BRANCH  11  12
ATOM     12  C   UNL     1      -0.595   7.667  -1.567  1.00  0.00     0.066 C 
BRANCH  12  13
ATOM     13  C   UNL     1      -1.369   8.043  -2.824  1.00  0.00     0.140 C 
ATOM     14  O   UNL     1      -1.158   7.460  -3.877  1.00  0.00    -0.299 OA
BRANCH  13  15
ATOM     15  C   UNL     1      -2.446   9.098  -2.758  1.00  0.00     0.106 CG0
ATOM     16  G   UNL     1      -3.854   8.560  -2.976  1.00  0.00     0.000 G0
ENDBRANCH  13  15
ENDBRANCH  12  13
BRANCH  12  17
ATOM     17  C   UNL     1       0.941   7.550  -1.843  1.00  0.00    -0.006 C 
ATOM     18  C   UNL     1       1.560   6.363  -1.085  1.00  0.00     0.008 C 
ATOM     19  C   UNL     1       1.729   8.835  -1.530  1.00  0.00     0.008 C 
ENDBRANCH  12  17
ENDBRANCH  11  12
ENDBRANCH   1  11
TORSDOF 1
ENDMDL
MODEL 2
REMARK VINA RESULT:    12.534      9.078     11.198
REMARK INTER + INTRA:          21.339
REMARK INTER:                  19.069
REMARK INTRA:                   2.270
REMARK UNBOUND:                 2.211
REMARK SMILES CC1=CCC[C@@H](C)C(=O)C[C@H](C(C)C)C(=O)C1
REMARK SMILES IDX 8 1 9 2 6 3 7 4 5 5 4 6 3 7 2 8 1 9 10 11 11 12 15 13 16 14
REMARK SMILES IDX 17 15 12 17 13 18 14 19
REMARK H PARENT
REMARK Flexibility Score: 70.00
ROOT
ATOM      1  C   UNL     1      -3.476   2.920   6.094  1.00  0.00     0.136 C 
ATOM      2  O   UNL     1      -3.333   2.155   5.151  1.00  0.00    -0.299 OA
ENDROOT
BRANCH   1   3
ATOM      3  C   UNL     1      -3.936   2.376   7.434  1.00  0.00     0.053 C 
ATOM      4  C   UNL     1      -3.452   0.931   7.620  1.00  0.00     0.016 C 
BRANCH   3   5
ATOM      5  C   UNL     1      -5.475   2.462   7.556  1.00  0.00     0.015 C 
BRANCH   5   6
ATOM      6  C   UNL     1      -5.915   2.715   9.011  1.00  0.00     0.028 C 
BRANCH   6   7
ATOM      7  C   UNL     1      -5.984   4.179   9.366  1.00  0.00    -0.028 C 
ATOM      8  C   UNL     1      -4.926   4.957   9.705  1.00  0.00    -0.070 CG0
ATOM      9  C   UNL     1      -5.209   6.378  10.125  1.00  0.00     0.039 C 
ATOM     10  G   UNL     1      -3.478   4.488   9.638  1.00  0.00     0.000 G0
ENDBRANCH   6   7
ENDBRANCH   5   6
ENDBRANCH   3   5
ENDBRANCH   1   3
BRANCH   1  11
ATOM     11  C   UNL     1      -3.175   4.389   5.899  1.00  0.00     0.087 C 
BRANCH  11  12
ATOM     12  C   UNL     1      -3.639   5.249   7.104  1.00  0.00     0.066 C 
BRANCH  12  13
ATOM     13  C   UNL     1      -2.813   4.948   8.348  1.00  0.00     0.140 C 
ATOM     14  O   UNL     1      -1.609   5.153   8.355  1.00  0.00    -0.299 OA
BRANCH  13  15
ATOM     15  C   UNL     1      -3.493   4.450   9.600  1.00  0.00     0.106 CG0
ATOM     16  G   UNL     1      -4.907   4.985   9.790  1.00  0.00     0.000 G0
ENDBRANCH  13  15
ENDBRANCH  12  13
BRANCH  12  17
ATOM     17  C   UNL     1      -3.685   6.783   6.793  1.00  0.00    -0.006 C 
ATOM     18  C   UNL     1      -3.675   7.051   5.279  1.00  0.00     0.008 C 
ATOM     19  C   UNL     1      -2.562   7.589   7.472  1.00  0.00     0.008 C 
ENDBRANCH  12  17
ENDBRANCH  11  12
ENDBRANCH   1  11
TORSDOF 1
ENDMDL
MODEL 3
REMARK VINA RESULT:    12.724      9.136     10.991
REMARK INTER + INTRA:          21.629
REMARK INTER:                  14.104
REMARK INTRA:                   7.524
REMARK UNBOUND:                 2.211
REMARK SMILES CC1=CCC[C@@H](C)C(=O)C[C@H](C(C)C)C(=O)C1
REMARK SMILES IDX 8 1 9 2 6 3 7 4 5 5 4 6 3 7 2 8 1 9 10 11 11 12 15 13 16 14
REMARK SMILES IDX 17 15 12 17 13 18 14 19
REMARK H PARENT
REMARK Flexibility Score: 70.00
ROOT
ATOM      1  C   UNL     1      -5.109   4.738   9.374  1.00  0.00     0.136 C 
ATOM      2  O   UNL     1      -5.942   5.633   9.370  1.00  0.00    -0.299 OA
ENDROOT
BRANCH   1   3
ATOM      3  C   UNL     1      -5.496   3.356   8.880  1.00  0.00     0.053 C 
ATOM      4  C   UNL     1      -6.931   3.016   9.308  1.00  0.00     0.016 C 
BRANCH   3   5
ATOM      5  C   UNL     1      -4.500   2.295   9.401  1.00  0.00     0.015 C 
BRANCH   5   6
ATOM      6  C   UNL     1      -3.082   2.525   8.841  1.00  0.00     0.028 C 
BRANCH   6   7
ATOM      7  C   UNL     1      -3.023   2.477   7.335  1.00  0.00    -0.028 C 
ATOM      8  C   UNL     1      -3.666   3.326   6.495  1.00  0.00    -0.070 CG0
ATOM      9  C   UNL     1      -3.563   3.054   5.014  1.00  0.00     0.039 C 
ATOM     10  G   UNL     1      -4.439   4.552   6.963  1.00  0.00     0.000 G0
ENDBRANCH   6   7
ENDBRANCH   5   6
ENDBRANCH   3   5
ENDBRANCH   1   3
BRANCH   1  11
ATOM     11  C   UNL     1      -3.709   5.040   9.858  1.00  0.00     0.087 C 
BRANCH  11  12
ATOM     12  C   UNL     1      -2.805   5.601   8.729  1.00  0.00     0.066 C 
BRANCH  12  13
ATOM     13  C   UNL     1      -3.541   5.629   7.395  1.00  0.00     0.140 C 
ATOM     14  O   UNL     1      -3.355   6.543   6.605  1.00  0.00    -0.299 OA
BRANCH  13  15
ATOM     15  C   UNL     1      -4.460   4.494   7.019  1.00  0.00     0.106 CG0
ATOM     16  G   UNL     1      -3.751   3.314   6.366  1.00  0.00     0.000 G0
ENDBRANCH  13  15
ENDBRANCH  12  13
BRANCH  12  17
ATOM     17  C   UNL     1      -2.168   6.989   9.071  1.00  0.00    -0.006 C 
ATOM     18  C   UNL     1      -1.750   7.745   7.799  1.00  0.00     0.008 C 
ATOM     19  C   UNL     1      -0.976   6.904  10.042  1.00  0.00     0.008 C 
ENDBRANCH  12  17
ENDBRANCH  11  12
ENDBRANCH   1  11
TORSDOF 1
ENDMDL
