MODEL 1
REMARK VINA RESULT:    -1.322      0.000      0.000
REMARK INTER + INTRA:          -3.361
REMARK INTER:                  -1.940
REMARK INTRA:                  -1.422
REMARK UNBOUND:                -1.422
REMARK SMILES Cc1cc2c(C(C)C)c(O)c(O)c(C=O)c2c(O)c1-c1c(C)cc2c(C(C)C)c(O)c(O)c(C=O)c2c1O
REMARK SMILES IDX 1 1 2 2 3 3 4 4 16 5 13 6 11 7 9 8 5 9 17 10 19 11 20 12
REMARK SMILES IDX 37 13 21 14 36 15 23 16 22 17 24 18 33 19 25 20 31 21 29 22
REMARK SMILES IDX 38 23 34 25 35 26 26 27 27 28 28 29 32 30 30 32 18 34 6 36
REMARK SMILES IDX 7 37 8 38 14 39 15 40 10 41 12 43
REMARK H PARENT 38 24 32 31 30 33 18 35 10 42 12 44
REMARK Flexibility Score: inf
ROOT
ATOM      1  C   UNL     1     102.428  54.313 120.995  1.00  0.00     0.045 C 
ATOM      2  C   UNL     1     103.650  55.118 120.621  1.00  0.00    -0.039 A 
ATOM      3  C   UNL     1     103.721  55.713 119.360  1.00  0.00     0.013 A 
ATOM      4  C   UNL     1     104.848  56.460 118.953  1.00  0.00    -0.006 A 
ATOM      5  C   UNL     1     105.997  56.476 119.794  1.00  0.00     0.039 A 
ATOM      6  C   UNL     1     107.213  57.024 119.291  1.00  0.00     0.072 A 
ATOM      7  C   UNL     1     107.251  57.594 118.004  1.00  0.00     0.169 A 
ATOM      8  C   UNL     1     106.093  57.628 117.203  1.00  0.00     0.162 A 
ATOM      9  C   UNL     1     104.859  57.160 117.708  1.00  0.00     0.008 A 
ATOM     10  C   UNL     1     105.882  55.964 121.121  1.00  0.00     0.132 A 
ATOM     11  C   UNL     1     104.716  55.278 121.522  1.00  0.00     0.031 A 
ENDROOT
BRANCH  11  12
ATOM     12  C   UNL     1     104.615  54.715 122.894  1.00  0.00     0.031 A 
ATOM     13  C   UNL     1     103.975  55.448 123.917  1.00  0.00     0.132 A 
ATOM     14  C   UNL     1     105.192  53.467 123.179  1.00  0.00    -0.039 A 
ATOM     15  C   UNL     1     103.852  54.903 125.231  1.00  0.00     0.039 A 
ATOM     16  C   UNL     1     105.142  52.966 124.480  1.00  0.00     0.013 A 
ATOM     17  C   UNL     1     105.916  52.683 122.112  1.00  0.00     0.045 C 
ATOM     18  C   UNL     1     104.449  53.636 125.514  1.00  0.00    -0.006 A 
ATOM     19  C   UNL     1     103.200  55.608 126.287  1.00  0.00     0.072 A 
ATOM     20  C   UNL     1     104.375  53.085 126.830  1.00  0.00     0.008 A 
ATOM     21  C   UNL     1     103.310  55.141 127.611  1.00  0.00     0.169 A 
ATOM     22  C   UNL     1     103.923  53.913 127.881  1.00  0.00     0.162 A 
BRANCH  13  23
ATOM     23  O   UNL     1     103.496  56.733 123.637  1.00  0.00    -0.507 OA
ATOM     24  H   UNL     1     103.409  57.115 122.704  1.00  0.00     0.293 HD
ENDBRANCH  13  23
BRANCH  19  25
ATOM     25  C   UNL     1     102.369  56.805 126.045  1.00  0.00     0.264 C 
ATOM     26  O   UNL     1     102.786  57.946 126.373  1.00  0.00    -0.298 OA
ENDBRANCH  19  25
BRANCH  20  27
ATOM     27  C   UNL     1     104.804  51.638 127.132  1.00  0.00     0.017 C 
ATOM     28  C   UNL     1     106.119  51.613 127.917  1.00  0.00     0.012 C 
ATOM     29  C   UNL     1     103.719  50.798 127.831  1.00  0.00     0.012 C 
ENDBRANCH  20  27
BRANCH  21  30
ATOM     30  O   UNL     1     102.787  55.866 128.689  1.00  0.00    -0.504 OA
ATOM     31  H   UNL     1     102.449  56.817 128.623  1.00  0.00     0.293 HD
ENDBRANCH  21  30
BRANCH  22  32
ATOM     32  O   UNL     1     104.079  53.505 129.207  1.00  0.00    -0.504 OA
ATOM     33  H   UNL     1     104.982  53.435 129.661  1.00  0.00     0.293 HD
ENDBRANCH  22  32
ENDBRANCH  11  12
BRANCH  10  34
ATOM     34  O   UNL     1     106.907  56.173 122.050  1.00  0.00    -0.507 OA
ATOM     35  H   UNL     1     107.811  55.719 122.006  1.00  0.00     0.293 HD
ENDBRANCH  10  34
BRANCH   9  36
ATOM     36  C   UNL     1     103.566  57.397 116.908  1.00  0.00     0.017 C 
ATOM     37  C   UNL     1     102.518  58.125 117.757  1.00  0.00     0.012 C 
ATOM     38  C   UNL     1     102.986  56.118 116.275  1.00  0.00     0.012 C 
ENDBRANCH   9  36
BRANCH   6  39
ATOM     39  C   UNL     1     108.495  56.904 120.026  1.00  0.00     0.264 C 
ATOM     40  O   UNL     1     109.026  57.909 120.573  1.00  0.00    -0.298 OA
ENDBRANCH   6  39
BRANCH   8  41
ATOM     41  O   UNL     1     106.149  58.087 115.884  1.00  0.00    -0.504 OA
ATOM     42  H   UNL     1     106.159  59.059 115.612  1.00  0.00     0.293 HD
ENDBRANCH   8  41
BRANCH   7  43
ATOM     43  O   UNL     1     108.466  58.115 117.544  1.00  0.00    -0.504 OA
ATOM     44  H   UNL     1     108.989  58.846 118.004  1.00  0.00     0.293 HD
ENDBRANCH   7  43
TORSDOF 11
ENDMDL
MODEL 2
REMARK VINA RESULT:    -1.236      4.262      7.187
REMARK INTER + INTRA:          -3.236
REMARK INTER:                  -1.926
REMARK INTRA:                  -1.311
REMARK UNBOUND:                -1.422
REMARK SMILES Cc1cc2c(C(C)C)c(O)c(O)c(C=O)c2c(O)c1-c1c(C)cc2c(C(C)C)c(O)c(O)c(C=O)c2c1O
REMARK SMILES IDX 1 1 2 2 3 3 4 4 16 5 13 6 11 7 9 8 5 9 17 10 19 11 20 12
REMARK SMILES IDX 37 13 21 14 36 15 23 16 22 17 24 18 33 19 25 20 31 21 29 22
REMARK SMILES IDX 38 23 34 25 35 26 26 27 27 28 28 29 32 30 30 32 18 34 6 36
REMARK SMILES IDX 7 37 8 38 14 39 15 40 10 41 12 43
REMARK H PARENT 38 24 32 31 30 33 18 35 10 42 12 44
REMARK Flexibility Score: inf
ROOT
ATOM      1  C   UNL     1     103.401  55.103 122.193  1.00  0.00     0.045 C 
ATOM      2  C   UNL     1     103.964  55.469 120.840  1.00  0.00    -0.039 A 
ATOM      3  C   UNL     1     105.253  55.999 120.753  1.00  0.00     0.013 A 
ATOM      4  C   UNL     1     105.820  56.375 119.516  1.00  0.00    -0.006 A 
ATOM      5  C   UNL     1     104.999  56.352 118.352  1.00  0.00     0.039 A 
ATOM      6  C   UNL     1     105.485  56.947 117.152  1.00  0.00     0.072 A 
ATOM      7  C   UNL     1     106.781  57.494 117.110  1.00  0.00     0.169 A 
ATOM      8  C   UNL     1     107.609  57.458 118.249  1.00  0.00     0.162 A 
ATOM      9  C   UNL     1     107.179  56.806 119.427  1.00  0.00     0.008 A 
ATOM     10  C   UNL     1     103.727  55.708 118.425  1.00  0.00     0.132 A 
ATOM     11  C   UNL     1     103.213  55.282 119.668  1.00  0.00     0.031 A 
ENDROOT
BRANCH  11  12
ATOM     12  C   UNL     1     101.872  54.645 119.743  1.00  0.00     0.031 A 
ATOM     13  C   UNL     1     101.745  53.243 119.630  1.00  0.00     0.132 A 
ATOM     14  C   UNL     1     100.728  55.445 119.890  1.00  0.00    -0.039 A 
ATOM     15  C   UNL     1     100.463  52.622 119.726  1.00  0.00     0.039 A 
ATOM     16  C   UNL     1      99.467  54.848 119.906  1.00  0.00     0.013 A 
ATOM     17  C   UNL     1     100.835  56.948 119.974  1.00  0.00     0.045 C 
ATOM     18  C   UNL     1      99.303  53.445 119.867  1.00  0.00    -0.006 A 
ATOM     19  C   UNL     1     100.296  51.208 119.630  1.00  0.00     0.072 A 
ATOM     20  C   UNL     1      98.005  52.851 119.927  1.00  0.00     0.008 A 
ATOM     21  C   UNL     1      99.004  50.664 119.493  1.00  0.00     0.169 A 
ATOM     22  C   UNL     1      97.876  51.483 119.603  1.00  0.00     0.162 A 
BRANCH  13  23
ATOM     23  O   UNL     1     102.887  52.473 119.383  1.00  0.00    -0.507 OA
ATOM     24  H   UNL     1     102.880  51.592 118.885  1.00  0.00     0.293 HD
ENDBRANCH  13  23
BRANCH  19  25
ATOM     25  C   UNL     1     101.434  50.269 119.706  1.00  0.00     0.264 C 
ATOM     26  O   UNL     1     101.844  49.680 118.672  1.00  0.00    -0.298 OA
ENDBRANCH  19  25
BRANCH  20  27
ATOM     27  C   UNL     1      96.753  53.668 120.297  1.00  0.00     0.017 C 
ATOM     28  C   UNL     1      95.853  53.868 119.074  1.00  0.00     0.012 C 
ATOM     29  C   UNL     1      95.962  53.091 121.486  1.00  0.00     0.012 C 
ENDBRANCH  20  27
BRANCH  21  30
ATOM     30  O   UNL     1      98.805  49.295 119.277  1.00  0.00    -0.504 OA
ATOM     31  H   UNL     1      98.616  48.885 118.371  1.00  0.00     0.293 HD
ENDBRANCH  21  30
BRANCH  22  32
ATOM     32  O   UNL     1      96.609  50.932 119.397  1.00  0.00    -0.504 OA
ATOM     33  H   UNL     1      95.817  51.128 119.997  1.00  0.00     0.293 HD
ENDBRANCH  22  32
ENDBRANCH  11  12
BRANCH  10  34
ATOM     34  O   UNL     1     102.996  55.456 117.259  1.00  0.00    -0.507 OA
ATOM     35  H   UNL     1     103.237  54.740 116.585  1.00  0.00     0.293 HD
ENDBRANCH  10  34
BRANCH   9  36
ATOM     36  C   UNL     1     108.168  56.589 120.586  1.00  0.00     0.017 C 
ATOM     37  C   UNL     1     108.271  55.104 120.951  1.00  0.00     0.012 C 
ATOM     38  C   UNL     1     107.870  57.453 121.825  1.00  0.00     0.012 C 
ENDBRANCH   9  36
BRANCH   6  39
ATOM     39  C   UNL     1     104.622  57.135 115.960  1.00  0.00     0.264 C 
ATOM     40  O   UNL     1     103.840  58.119 115.875  1.00  0.00    -0.298 OA
ENDBRANCH   6  39
BRANCH   8  41
ATOM     41  O   UNL     1     108.852  58.099 118.251  1.00  0.00    -0.504 OA
ATOM     42  H   UNL     1     108.996  59.076 118.043  1.00  0.00     0.293 HD
ENDBRANCH   8  41
BRANCH   7  43
ATOM     43  O   UNL     1     107.218  58.077 115.915  1.00  0.00    -0.504 OA
ATOM     44  H   UNL     1     108.126  57.924 115.500  1.00  0.00     0.293 HD
ENDBRANCH   7  43
TORSDOF 11
ENDMDL
MODEL 3
REMARK VINA RESULT:    -1.229      3.745      6.417
REMARK INTER + INTRA:          -3.225
REMARK INTER:                  -1.819
REMARK INTRA:                  -1.406
REMARK UNBOUND:                -1.422
REMARK SMILES Cc1cc2c(C(C)C)c(O)c(O)c(C=O)c2c(O)c1-c1c(C)cc2c(C(C)C)c(O)c(O)c(C=O)c2c1O
REMARK SMILES IDX 1 1 2 2 3 3 4 4 16 5 13 6 11 7 9 8 5 9 17 10 19 11 20 12
REMARK SMILES IDX 37 13 21 14 36 15 23 16 22 17 24 18 33 19 25 20 31 21 29 22
REMARK SMILES IDX 38 23 34 25 35 26 26 27 27 28 28 29 32 30 30 32 18 34 6 36
REMARK SMILES IDX 7 37 8 38 14 39 15 40 10 41 12 43
REMARK H PARENT 38 24 32 31 30 33 18 35 10 42 12 44
REMARK Flexibility Score: inf
ROOT
ATOM      1  C   UNL     1     103.850  56.080 123.307  1.00  0.00     0.045 C 
ATOM      2  C   UNL     1     104.288  56.284 121.876  1.00  0.00    -0.039 A 
ATOM      3  C   UNL     1     105.614  56.627 121.606  1.00  0.00     0.013 A 
ATOM      4  C   UNL     1     106.072  56.847 120.288  1.00  0.00    -0.006 A 
ATOM      5  C   UNL     1     105.120  56.866 119.229  1.00  0.00     0.039 A 
ATOM      6  C   UNL     1     105.530  57.316 117.940  1.00  0.00     0.072 A 
ATOM      7  C   UNL     1     106.871  57.678 117.713  1.00  0.00     0.169 A 
ATOM      8  C   UNL     1     107.819  57.597 118.752  1.00  0.00     0.162 A 
ATOM      9  C   UNL     1     107.454  57.082 120.016  1.00  0.00     0.008 A 
ATOM     10  C   UNL     1     103.794  56.408 119.491  1.00  0.00     0.132 A 
ATOM     11  C   UNL     1     103.383  56.131 120.813  1.00  0.00     0.031 A 
ENDROOT
BRANCH  11  12
ATOM     12  C   UNL     1     101.990  55.689 121.085  1.00  0.00     0.031 A 
ATOM     13  C   UNL     1     101.672  54.313 121.097  1.00  0.00     0.132 A 
ATOM     14  C   UNL     1     100.984  56.645 121.293  1.00  0.00    -0.039 A 
ATOM     15  C   UNL     1     100.342  53.880 121.382  1.00  0.00     0.039 A 
ATOM     16  C   UNL     1      99.668  56.228 121.495  1.00  0.00     0.013 A 
ATOM     17  C   UNL     1     101.292  58.122 121.246  1.00  0.00     0.045 C 
ATOM     18  C   UNL     1      99.323  54.861 121.585  1.00  0.00    -0.006 A 
ATOM     19  C   UNL     1      99.985  52.499 121.417  1.00  0.00     0.072 A 
ATOM     20  C   UNL     1      97.976  54.455 121.834  1.00  0.00     0.008 A 
ATOM     21  C   UNL     1      98.627  52.128 121.467  1.00  0.00     0.169 A 
ATOM     22  C   UNL     1      97.634  53.099 121.635  1.00  0.00     0.162 A 
BRANCH  13  23
ATOM     23  O   UNL     1     102.668  53.381 120.787  1.00  0.00    -0.507 OA
ATOM     24  H   UNL     1     103.647  53.613 120.674  1.00  0.00     0.293 HD
ENDBRANCH  13  23
BRANCH  19  25
ATOM     25  C   UNL     1     100.994  51.421 121.442  1.00  0.00     0.264 C 
ATOM     26  O   UNL     1     101.173  50.693 120.430  1.00  0.00    -0.298 OA
ENDBRANCH  19  25
BRANCH  20  27
ATOM     27  C   UNL     1      96.892  55.456 122.274  1.00  0.00     0.017 C 
ATOM     28  C   UNL     1      97.275  56.127 123.596  1.00  0.00     0.012 C 
ATOM     29  C   UNL     1      96.534  56.500 121.199  1.00  0.00     0.012 C 
ENDBRANCH  20  27
BRANCH  21  30
ATOM     30  O   UNL     1      98.230  50.789 121.382  1.00  0.00    -0.504 OA
ATOM     31  H   UNL     1      98.697  50.027 121.856  1.00  0.00     0.293 HD
ENDBRANCH  21  30
BRANCH  22  32
ATOM     32  O   UNL     1      96.292  52.713 121.614  1.00  0.00    -0.504 OA
ATOM     33  H   UNL     1      95.993  51.748 121.692  1.00  0.00     0.293 HD
ENDBRANCH  22  32
ENDBRANCH  11  12
BRANCH  10  34
ATOM     34  O   UNL     1     102.901  56.188 118.436  1.00  0.00    -0.507 OA
ATOM     35  H   UNL     1     102.203  56.857 118.139  1.00  0.00     0.293 HD
ENDBRANCH  10  34
BRANCH   9  36
ATOM     36  C   UNL     1     108.540  56.802 121.070  1.00  0.00     0.017 C 
ATOM     37  C   UNL     1     108.549  55.323 121.471  1.00  0.00     0.012 C 
ATOM     38  C   UNL     1     108.455  57.719 122.305  1.00  0.00     0.012 C 
ENDBRANCH   9  36
BRANCH   6  39
ATOM     39  C   UNL     1     104.561  57.548 116.841  1.00  0.00     0.264 C 
ATOM     40  O   UNL     1     104.462  56.736 115.883  1.00  0.00    -0.298 OA
ENDBRANCH   6  39
BRANCH   8  41
ATOM     41  O   UNL     1     109.125  58.062 118.567  1.00  0.00    -0.504 OA
ATOM     42  H   UNL     1     109.387  59.034 118.501  1.00  0.00     0.293 HD
ENDBRANCH   8  41
BRANCH   7  43
ATOM     43  O   UNL     1     107.232  58.122 116.435  1.00  0.00    -0.504 OA
ATOM     44  H   UNL     1     106.929  57.696 115.571  1.00  0.00     0.293 HD
ENDBRANCH   7  43
TORSDOF 11
ENDMDL
MODEL 4
REMARK VINA RESULT:    -1.228      4.347      8.638
REMARK INTER + INTRA:          -3.224
REMARK INTER:                  -1.879
REMARK INTRA:                  -1.345
REMARK UNBOUND:                -1.422
REMARK SMILES Cc1cc2c(C(C)C)c(O)c(O)c(C=O)c2c(O)c1-c1c(C)cc2c(C(C)C)c(O)c(O)c(C=O)c2c1O
REMARK SMILES IDX 1 1 2 2 3 3 4 4 16 5 13 6 11 7 9 8 5 9 17 10 19 11 20 12
REMARK SMILES IDX 37 13 21 14 36 15 23 16 22 17 24 18 33 19 25 20 31 21 29 22
REMARK SMILES IDX 38 23 34 25 35 26 26 27 27 28 28 29 32 30 30 32 18 34 6 36
REMARK SMILES IDX 7 37 8 38 14 39 15 40 10 41 12 43
REMARK H PARENT 38 24 32 31 30 33 18 35 10 42 12 44
REMARK Flexibility Score: inf
ROOT
ATOM      1  C   UNL     1     102.772  51.889 118.988  1.00  0.00     0.045 C 
ATOM      2  C   UNL     1     101.546  52.752 118.805  1.00  0.00    -0.039 A 
ATOM      3  C   UNL     1     100.279  52.187 118.964  1.00  0.00     0.013 A 
ATOM      4  C   UNL     1      99.101  52.944 118.786  1.00  0.00    -0.006 A 
ATOM      5  C   UNL     1      99.211  54.273 118.286  1.00  0.00     0.039 A 
ATOM      6  C   UNL     1      98.029  54.959 117.882  1.00  0.00     0.072 A 
ATOM      7  C   UNL     1      96.771  54.347 118.035  1.00  0.00     0.169 A 
ATOM      8  C   UNL     1      96.666  53.056 118.588  1.00  0.00     0.162 A 
ATOM      9  C   UNL     1      97.816  52.387 119.066  1.00  0.00     0.008 A 
ATOM     10  C   UNL     1     100.502  54.879 118.231  1.00  0.00     0.132 A 
ATOM     11  C   UNL     1     101.661  54.113 118.479  1.00  0.00     0.031 A 
ENDROOT
BRANCH  11  12
ATOM     12  C   UNL     1     103.005  54.741 118.385  1.00  0.00     0.031 A 
ATOM     13  C   UNL     1     103.607  55.304 119.532  1.00  0.00     0.132 A 
ATOM     14  C   UNL     1     103.659  54.804 117.145  1.00  0.00    -0.039 A 
ATOM     15  C   UNL     1     104.908  55.886 119.454  1.00  0.00     0.039 A 
ATOM     16  C   UNL     1     104.897  55.441 117.051  1.00  0.00     0.013 A 
ATOM     17  C   UNL     1     103.019  54.243 115.898  1.00  0.00     0.045 C 
ATOM     18  C   UNL     1     105.563  55.953 118.186  1.00  0.00    -0.006 A 
ATOM     19  C   UNL     1     105.554  56.453 120.594  1.00  0.00     0.072 A 
ATOM     20  C   UNL     1     106.849  56.565 118.075  1.00  0.00     0.008 A 
ATOM     21  C   UNL     1     106.723  57.220 120.425  1.00  0.00     0.169 A 
ATOM     22  C   UNL     1     107.340  57.305 119.173  1.00  0.00     0.162 A 
BRANCH  13  23
ATOM     23  O   UNL     1     102.895  55.320 120.736  1.00  0.00    -0.507 OA
ATOM     24  H   UNL     1     103.321  55.209 121.648  1.00  0.00     0.293 HD
ENDBRANCH  13  23
BRANCH  19  25
ATOM     25  C   UNL     1     105.065  56.237 121.971  1.00  0.00     0.264 C 
ATOM     26  O   UNL     1     104.502  57.171 122.600  1.00  0.00    -0.298 OA
ENDBRANCH  19  25
BRANCH  20  27
ATOM     27  C   UNL     1     107.687  56.468 116.787  1.00  0.00     0.017 C 
ATOM     28  C   UNL     1     107.685  57.802 116.033  1.00  0.00     0.012 C 
ATOM     29  C   UNL     1     109.122  55.957 117.013  1.00  0.00     0.012 C 
ENDBRANCH  20  27
BRANCH  21  30
ATOM     30  O   UNL     1     107.320  57.891 121.499  1.00  0.00    -0.504 OA
ATOM     31  H   UNL     1     108.301  57.824 121.735  1.00  0.00     0.293 HD
ENDBRANCH  21  30
BRANCH  22  32
ATOM     32  O   UNL     1     108.459  58.125 119.017  1.00  0.00    -0.504 OA
ATOM     33  H   UNL     1     108.431  59.010 118.524  1.00  0.00     0.293 HD
ENDBRANCH  22  32
ENDBRANCH  11  12
BRANCH  10  34
ATOM     34  O   UNL     1     100.629  56.249 117.972  1.00  0.00    -0.507 OA
ATOM     35  H   UNL     1     100.081  56.963 118.435  1.00  0.00     0.293 HD
ENDBRANCH  10  34
BRANCH   9  36
ATOM     36  C   UNL     1      97.664  51.075 119.857  1.00  0.00     0.017 C 
ATOM     37  C   UNL     1      98.331  51.181 121.233  1.00  0.00     0.012 C 
ATOM     38  C   UNL     1      98.149  49.830 119.091  1.00  0.00     0.012 C 
ENDBRANCH   9  36
BRANCH   6  39
ATOM     39  C   UNL     1      98.076  56.262 117.175  1.00  0.00     0.264 C 
ATOM     40  O   UNL     1      98.120  56.315 115.916  1.00  0.00    -0.298 OA
ENDBRANCH   6  39
BRANCH   8  41
ATOM     41  O   UNL     1      95.435  52.396 118.639  1.00  0.00    -0.504 OA
ATOM     42  H   UNL     1      95.319  51.394 118.662  1.00  0.00     0.293 HD
ENDBRANCH   8  41
BRANCH   7  43
ATOM     43  O   UNL     1      95.634  55.051 117.619  1.00  0.00    -0.504 OA
ATOM     44  H   UNL     1      94.684  54.788 117.838  1.00  0.00     0.293 HD
ENDBRANCH   7  43
TORSDOF 11
ENDMDL
MODEL 5
REMARK VINA RESULT:    -1.211      2.039      8.733
REMARK INTER + INTRA:          -3.200
REMARK INTER:                  -1.860
REMARK INTRA:                  -1.339
REMARK UNBOUND:                -1.422
REMARK SMILES Cc1cc2c(C(C)C)c(O)c(O)c(C=O)c2c(O)c1-c1c(C)cc2c(C(C)C)c(O)c(O)c(C=O)c2c1O
REMARK SMILES IDX 1 1 2 2 3 3 4 4 16 5 13 6 11 7 9 8 5 9 17 10 19 11 20 12
REMARK SMILES IDX 37 13 21 14 36 15 23 16 22 17 24 18 33 19 25 20 31 21 29 22
REMARK SMILES IDX 38 23 34 25 35 26 26 27 27 28 28 29 32 30 30 32 18 34 6 36
REMARK SMILES IDX 7 37 8 38 14 39 15 40 10 41 12 43
REMARK H PARENT 38 24 32 31 30 33 18 35 10 42 12 44
REMARK Flexibility Score: inf
ROOT
ATOM      1  C   UNL     1     103.218  52.901 121.295  1.00  0.00     0.045 C 
ATOM      2  C   UNL     1     103.126  53.741 122.547  1.00  0.00    -0.039 A 
ATOM      3  C   UNL     1     102.415  53.259 123.647  1.00  0.00     0.013 A 
ATOM      4  C   UNL     1     102.283  54.011 124.835  1.00  0.00    -0.006 A 
ATOM      5  C   UNL     1     102.759  55.353 124.850  1.00  0.00     0.039 A 
ATOM      6  C   UNL     1     102.424  56.192 125.952  1.00  0.00     0.072 A 
ATOM      7  C   UNL     1     101.683  55.677 127.032  1.00  0.00     0.169 A 
ATOM      8  C   UNL     1     101.269  54.331 127.036  1.00  0.00     0.162 A 
ATOM      9  C   UNL     1     101.654  53.460 125.992  1.00  0.00     0.008 A 
ATOM     10  C   UNL     1     103.578  55.802 123.771  1.00  0.00     0.132 A 
ATOM     11  C   UNL     1     103.747  54.999 122.622  1.00  0.00     0.031 A 
ENDROOT
BRANCH  11  12
ATOM     12  C   UNL     1     104.572  55.486 121.485  1.00  0.00     0.031 A 
ATOM     13  C   UNL     1     103.960  56.136 120.391  1.00  0.00     0.132 A 
ATOM     14  C   UNL     1     105.958  55.264 121.486  1.00  0.00    -0.039 A 
ATOM     15  C   UNL     1     104.749  56.628 119.308  1.00  0.00     0.039 A 
ATOM     16  C   UNL     1     106.721  55.675 120.393  1.00  0.00     0.013 A 
ATOM     17  C   UNL     1     106.630  54.537 122.625  1.00  0.00     0.045 C 
ATOM     18  C   UNL     1     106.158  56.391 119.313  1.00  0.00    -0.006 A 
ATOM     19  C   UNL     1     104.167  57.302 118.192  1.00  0.00     0.072 A 
ATOM     20  C   UNL     1     106.965  56.839 118.222  1.00  0.00     0.008 A 
ATOM     21  C   UNL     1     104.947  57.557 117.047  1.00  0.00     0.169 A 
ATOM     22  C   UNL     1     106.320  57.293 117.051  1.00  0.00     0.162 A 
BRANCH  13  23
ATOM     23  O   UNL     1     102.566  56.257 120.363  1.00  0.00    -0.507 OA
ATOM     24  H   UNL     1     101.997  56.451 121.178  1.00  0.00     0.293 HD
ENDBRANCH  13  23
BRANCH  19  25
ATOM     25  C   UNL     1     102.772  57.786 118.198  1.00  0.00     0.264 C 
ATOM     26  O   UNL     1     101.921  57.284 117.419  1.00  0.00    -0.298 OA
ENDBRANCH  19  25
BRANCH  20  27
ATOM     27  C   UNL     1     108.503  56.805 118.281  1.00  0.00     0.017 C 
ATOM     28  C   UNL     1     109.023  57.667 119.435  1.00  0.00     0.012 C 
ATOM     29  C   UNL     1     109.093  55.384 118.334  1.00  0.00     0.012 C 
ENDBRANCH  20  27
BRANCH  21  30
ATOM     30  O   UNL     1     104.386  58.107 115.887  1.00  0.00    -0.504 OA
ATOM     31  H   UNL     1     104.880  58.726 115.257  1.00  0.00     0.293 HD
ENDBRANCH  21  30
BRANCH  22  32
ATOM     32  O   UNL     1     107.057  57.492 115.882  1.00  0.00    -0.504 OA
ATOM     33  H   UNL     1     108.069  57.447 115.852  1.00  0.00     0.293 HD
ENDBRANCH  22  32
ENDBRANCH  11  12
BRANCH  10  34
ATOM     34  O   UNL     1     104.256  57.022 123.858  1.00  0.00    -0.507 OA
ATOM     35  H   UNL     1     103.821  57.891 124.143  1.00  0.00     0.293 HD
ENDBRANCH  10  34
BRANCH   9  36
ATOM     36  C   UNL     1     101.376  51.950 126.114  1.00  0.00     0.017 C 
ATOM     37  C   UNL     1      99.902  51.638 125.833  1.00  0.00     0.012 C 
ATOM     38  C   UNL     1     101.835  51.342 127.452  1.00  0.00     0.012 C 
ENDBRANCH   9  36
BRANCH   6  39
ATOM     39  C   UNL     1     102.714  57.647 125.952  1.00  0.00     0.264 C 
ATOM     40  O   UNL     1     103.630  58.125 126.674  1.00  0.00    -0.298 OA
ENDBRANCH   6  39
BRANCH   8  41
ATOM     41  O   UNL     1     100.437  53.841 128.048  1.00  0.00    -0.504 OA
ATOM     42  H   UNL     1     100.264  54.306 128.927  1.00  0.00     0.293 HD
ENDBRANCH   8  41
BRANCH   7  43
ATOM     43  O   UNL     1     101.367  56.535 128.092  1.00  0.00    -0.504 OA
ATOM     44  H   UNL     1     100.746  57.329 128.023  1.00  0.00     0.293 HD
ENDBRANCH   7  43
TORSDOF 11
ENDMDL
MODEL 6
REMARK VINA RESULT:    -1.198      1.208      9.124
REMARK INTER + INTRA:          -3.180
REMARK INTER:                  -1.895
REMARK INTRA:                  -1.285
REMARK UNBOUND:                -1.422
REMARK SMILES Cc1cc2c(C(C)C)c(O)c(O)c(C=O)c2c(O)c1-c1c(C)cc2c(C(C)C)c(O)c(O)c(C=O)c2c1O
REMARK SMILES IDX 1 1 2 2 3 3 4 4 16 5 13 6 11 7 9 8 5 9 17 10 19 11 20 12
REMARK SMILES IDX 37 13 21 14 36 15 23 16 22 17 24 18 33 19 25 20 31 21 29 22
REMARK SMILES IDX 38 23 34 25 35 26 26 27 27 28 28 29 32 30 30 32 18 34 6 36
REMARK SMILES IDX 7 37 8 38 14 39 15 40 10 41 12 43
REMARK H PARENT 38 24 32 31 30 33 18 35 10 42 12 44
REMARK Flexibility Score: inf
ROOT
ATOM      1  C   UNL     1     105.151  52.677 122.585  1.00  0.00     0.045 C 
ATOM      2  C   UNL     1     105.188  53.711 123.686  1.00  0.00    -0.039 A 
ATOM      3  C   UNL     1     105.396  53.303 125.005  1.00  0.00     0.013 A 
ATOM      4  C   UNL     1     105.421  54.225 126.073  1.00  0.00    -0.006 A 
ATOM      5  C   UNL     1     105.076  55.582 125.812  1.00  0.00     0.039 A 
ATOM      6  C   UNL     1     104.870  56.465 126.912  1.00  0.00     0.072 A 
ATOM      7  C   UNL     1     105.065  56.010 128.229  1.00  0.00     0.169 A 
ATOM      8  C   UNL     1     105.466  54.682 128.474  1.00  0.00     0.162 A 
ATOM      9  C   UNL     1     105.750  53.810 127.400  1.00  0.00     0.008 A 
ATOM     10  C   UNL     1     104.975  56.015 124.456  1.00  0.00     0.132 A 
ATOM     11  C   UNL     1     105.020  55.076 123.403  1.00  0.00     0.031 A 
ENDROOT
BRANCH  11  12
ATOM     12  C   UNL     1     104.877  55.528 121.994  1.00  0.00     0.031 A 
ATOM     13  C   UNL     1     106.015  55.926 121.258  1.00  0.00     0.132 A 
ATOM     14  C   UNL     1     103.604  55.591 121.408  1.00  0.00    -0.039 A 
ATOM     15  C   UNL     1     105.889  56.337 119.897  1.00  0.00     0.039 A 
ATOM     16  C   UNL     1     103.468  56.066 120.103  1.00  0.00     0.013 A 
ATOM     17  C   UNL     1     102.369  55.207 122.187  1.00  0.00     0.045 C 
ATOM     18  C   UNL     1     104.588  56.407 119.311  1.00  0.00    -0.006 A 
ATOM     19  C   UNL     1     107.017  56.734 119.117  1.00  0.00     0.072 A 
ATOM     20  C   UNL     1     104.430  56.851 117.963  1.00  0.00     0.008 A 
ATOM     21  C   UNL     1     106.820  57.352 117.867  1.00  0.00     0.169 A 
ATOM     22  C   UNL     1     105.538  57.442 117.315  1.00  0.00     0.162 A 
BRANCH  13  23
ATOM     23  O   UNL     1     107.262  55.952 121.892  1.00  0.00    -0.507 OA
ATOM     24  H   UNL     1     108.140  55.769 121.423  1.00  0.00     0.293 HD
ENDBRANCH  13  23
BRANCH  19  25
ATOM     25  C   UNL     1     108.407  56.489 119.553  1.00  0.00     0.264 C 
ATOM     26  O   UNL     1     109.125  57.441 119.958  1.00  0.00    -0.298 OA
ENDBRANCH  19  25
BRANCH  20  27
ATOM     27  C   UNL     1     103.087  56.736 117.219  1.00  0.00     0.017 C 
ATOM     28  C   UNL     1     102.443  58.114 117.041  1.00  0.00     0.012 C 
ATOM     29  C   UNL     1     103.179  55.983 115.879  1.00  0.00     0.012 C 
ENDBRANCH  20  27
BRANCH  21  30
ATOM     30  O   UNL     1     107.892  57.863 117.125  1.00  0.00    -0.504 OA
ATOM     31  H   UNL     1     107.802  58.267 116.202  1.00  0.00     0.293 HD
ENDBRANCH  21  30
BRANCH  22  32
ATOM     32  O   UNL     1     105.360  58.118 116.107  1.00  0.00    -0.504 OA
ATOM     33  H   UNL     1     106.074  58.705 115.692  1.00  0.00     0.293 HD
ENDBRANCH  22  32
ENDBRANCH  11  12
BRANCH  10  34
ATOM     34  O   UNL     1     104.873  57.377 124.155  1.00  0.00    -0.507 OA
ATOM     35  H   UNL     1     104.817  57.745 123.214  1.00  0.00     0.293 HD
ENDBRANCH  10  34
BRANCH   9  36
ATOM     36  C   UNL     1     106.388  52.437 127.677  1.00  0.00     0.017 C 
ATOM     37  C   UNL     1     105.472  51.572 128.551  1.00  0.00     0.012 C 
ATOM     38  C   UNL     1     107.809  52.520 128.264  1.00  0.00     0.012 C 
ENDBRANCH   9  36
BRANCH   6  39
ATOM     39  C   UNL     1     104.324  57.833 126.732  1.00  0.00     0.264 C 
ATOM     40  O   UNL     1     103.164  58.125 127.130  1.00  0.00    -0.298 OA
ENDBRANCH   6  39
BRANCH   8  41
ATOM     41  O   UNL     1     105.551  54.190 129.781  1.00  0.00    -0.504 OA
ATOM     42  H   UNL     1     105.019  54.540 130.564  1.00  0.00     0.293 HD
ENDBRANCH   8  41
BRANCH   7  43
ATOM     43  O   UNL     1     104.845  56.907 129.282  1.00  0.00    -0.504 OA
ATOM     44  H   UNL     1     104.944  56.679 130.261  1.00  0.00     0.293 HD
ENDBRANCH   7  43
TORSDOF 11
ENDMDL
MODEL 7
REMARK VINA RESULT:    -1.194      1.641      1.844
REMARK INTER + INTRA:          -3.174
REMARK INTER:                  -1.706
REMARK INTRA:                  -1.468
REMARK UNBOUND:                -1.422
REMARK SMILES Cc1cc2c(C(C)C)c(O)c(O)c(C=O)c2c(O)c1-c1c(C)cc2c(C(C)C)c(O)c(O)c(C=O)c2c1O
REMARK SMILES IDX 1 1 2 2 3 3 4 4 16 5 13 6 11 7 9 8 5 9 17 10 19 11 20 12
REMARK SMILES IDX 37 13 21 14 36 15 23 16 22 17 24 18 33 19 25 20 31 21 29 22
REMARK SMILES IDX 38 23 34 25 35 26 26 27 27 28 28 29 32 30 30 32 18 34 6 36
REMARK SMILES IDX 7 37 8 38 14 39 15 40 10 41 12 43
REMARK H PARENT 38 24 32 31 30 33 18 35 10 42 12 44
REMARK Flexibility Score: inf
ROOT
ATOM      1  C   UNL     1     103.505  53.574 121.760  1.00  0.00     0.045 C 
ATOM      2  C   UNL     1     104.450  54.542 121.088  1.00  0.00    -0.039 A 
ATOM      3  C   UNL     1     104.106  55.092 119.852  1.00  0.00     0.013 A 
ATOM      4  C   UNL     1     104.960  55.987 119.172  1.00  0.00    -0.006 A 
ATOM      5  C   UNL     1     106.267  56.212 119.693  1.00  0.00     0.039 A 
ATOM      6  C   UNL     1     107.213  56.922 118.898  1.00  0.00     0.072 A 
ATOM      7  C   UNL     1     106.836  57.441 117.645  1.00  0.00     0.169 A 
ATOM      8  C   UNL     1     105.523  57.265 117.166  1.00  0.00     0.162 A 
ATOM      9  C   UNL     1     104.546  56.632 117.967  1.00  0.00     0.008 A 
ATOM     10  C   UNL     1     106.572  55.740 121.004  1.00  0.00     0.132 A 
ATOM     11  C   UNL     1     105.669  54.899 121.688  1.00  0.00     0.031 A 
ENDROOT
BRANCH  11  12
ATOM     12  C   UNL     1     106.008  54.381 123.040  1.00  0.00     0.031 A 
ATOM     13  C   UNL     1     105.636  55.107 124.192  1.00  0.00     0.132 A 
ATOM     14  C   UNL     1     106.731  53.185 123.165  1.00  0.00    -0.039 A 
ATOM     15  C   UNL     1     105.936  54.603 125.493  1.00  0.00     0.039 A 
ATOM     16  C   UNL     1     107.094  52.729 124.433  1.00  0.00     0.013 A 
ATOM     17  C   UNL     1     107.174  52.411 121.947  1.00  0.00     0.045 C 
ATOM     18  C   UNL     1     106.680  53.389 125.612  1.00  0.00    -0.006 A 
ATOM     19  C   UNL     1     105.564  55.301 126.682  1.00  0.00     0.072 A 
ATOM     20  C   UNL     1     107.027  52.882 126.902  1.00  0.00     0.008 A 
ATOM     21  C   UNL     1     106.083  54.891 127.925  1.00  0.00     0.169 A 
ATOM     22  C   UNL     1     106.836  53.716 128.026  1.00  0.00     0.162 A 
BRANCH  13  23
ATOM     23  O   UNL     1     105.004  56.346 124.042  1.00  0.00    -0.507 OA
ATOM     24  H   UNL     1     105.388  57.222 124.373  1.00  0.00     0.293 HD
ENDBRANCH  13  23
BRANCH  19  25
ATOM     25  C   UNL     1     104.613  56.431 126.671  1.00  0.00     0.264 C 
ATOM     26  O   UNL     1     105.023  57.609 126.848  1.00  0.00    -0.298 OA
ENDBRANCH  19  25
BRANCH  20  27
ATOM     27  C   UNL     1     107.630  51.478 127.090  1.00  0.00     0.017 C 
ATOM     28  C   UNL     1     109.108  51.568 127.480  1.00  0.00     0.012 C 
ATOM     29  C   UNL     1     106.845  50.589 128.073  1.00  0.00     0.012 C 
ENDBRANCH  20  27
BRANCH  21  30
ATOM     30  O   UNL     1     105.840  55.618 129.096  1.00  0.00    -0.504 OA
ATOM     31  H   UNL     1     105.077  55.429 129.733  1.00  0.00     0.293 HD
ENDBRANCH  21  30
BRANCH  22  32
ATOM     32  O   UNL     1     107.396  53.367 129.256  1.00  0.00    -0.504 OA
ATOM     33  H   UNL     1     107.347  52.430 129.639  1.00  0.00     0.293 HD
ENDBRANCH  22  32
ENDBRANCH  11  12
BRANCH  10  34
ATOM     34  O   UNL     1     107.752  56.141 121.642  1.00  0.00    -0.507 OA
ATOM     35  H   UNL     1     107.821  56.329 122.634  1.00  0.00     0.293 HD
ENDBRANCH  10  34
BRANCH   9  36
ATOM     36  C   UNL     1     103.072  56.636 117.523  1.00  0.00     0.017 C 
ATOM     37  C   UNL     1     102.177  57.269 118.593  1.00  0.00     0.012 C 
ATOM     38  C   UNL     1     102.549  55.251 117.100  1.00  0.00     0.012 C 
ENDBRANCH   9  36
BRANCH   6  39
ATOM     39  C   UNL     1     108.642  57.030 119.282  1.00  0.00     0.264 C 
ATOM     40  O   UNL     1     109.102  58.094 119.776  1.00  0.00    -0.298 OA
ENDBRANCH   6  39
BRANCH   8  41
ATOM     41  O   UNL     1     105.171  57.676 115.876  1.00  0.00    -0.504 OA
ATOM     42  H   UNL     1     105.313  58.606 115.509  1.00  0.00     0.293 HD
ENDBRANCH   8  41
BRANCH   7  43
ATOM     43  O   UNL     1     107.797  58.125 116.891  1.00  0.00    -0.504 OA
ATOM     44  H   UNL     1     108.774  58.199 117.137  1.00  0.00     0.293 HD
ENDBRANCH   7  43
TORSDOF 11
ENDMDL
MODEL 8
REMARK VINA RESULT:    -1.188      2.260      3.737
REMARK INTER + INTRA:          -3.166
REMARK INTER:                  -1.768
REMARK INTRA:                  -1.398
REMARK UNBOUND:                -1.422
REMARK SMILES Cc1cc2c(C(C)C)c(O)c(O)c(C=O)c2c(O)c1-c1c(C)cc2c(C(C)C)c(O)c(O)c(C=O)c2c1O
REMARK SMILES IDX 1 1 2 2 3 3 4 4 16 5 13 6 11 7 9 8 5 9 17 10 19 11 20 12
REMARK SMILES IDX 37 13 21 14 36 15 23 16 22 17 24 18 33 19 25 20 31 21 29 22
REMARK SMILES IDX 38 23 34 25 35 26 26 27 27 28 28 29 32 30 30 32 18 34 6 36
REMARK SMILES IDX 7 37 8 38 14 39 15 40 10 41 12 43
REMARK H PARENT 38 24 32 31 30 33 18 35 10 42 12 44
REMARK Flexibility Score: inf
ROOT
ATOM      1  C   UNL     1     103.689  52.947 121.236  1.00  0.00     0.045 C 
ATOM      2  C   UNL     1     104.647  54.031 120.801  1.00  0.00    -0.039 A 
ATOM      3  C   UNL     1     104.497  54.616 119.542  1.00  0.00     0.013 A 
ATOM      4  C   UNL     1     105.375  55.619 119.078  1.00  0.00    -0.006 A 
ATOM      5  C   UNL     1     106.528  55.930 119.855  1.00  0.00     0.039 A 
ATOM      6  C   UNL     1     107.536  56.763 119.290  1.00  0.00     0.072 A 
ATOM      7  C   UNL     1     107.360  57.315 118.007  1.00  0.00     0.169 A 
ATOM      8  C   UNL     1     106.188  57.051 117.271  1.00  0.00     0.162 A 
ATOM      9  C   UNL     1     105.141  56.291 117.840  1.00  0.00     0.008 A 
ATOM     10  C   UNL     1     106.618  55.415 121.183  1.00  0.00     0.132 A 
ATOM     11  C   UNL     1     105.686  54.461 121.643  1.00  0.00     0.031 A 
ENDROOT
BRANCH  11  12
ATOM     12  C   UNL     1     105.806  53.900 123.015  1.00  0.00     0.031 A 
ATOM     13  C   UNL     1     106.532  52.709 123.233  1.00  0.00     0.132 A 
ATOM     14  C   UNL     1     105.164  54.540 124.086  1.00  0.00    -0.039 A 
ATOM     15  C   UNL     1     106.672  52.179 124.552  1.00  0.00     0.039 A 
ATOM     16  C   UNL     1     105.234  53.981 125.363  1.00  0.00     0.013 A 
ATOM     17  C   UNL     1     104.349  55.792 123.871  1.00  0.00     0.045 C 
ATOM     18  C   UNL     1     106.008  52.831 125.635  1.00  0.00    -0.006 A 
ATOM     19  C   UNL     1     107.409  50.985 124.814  1.00  0.00     0.072 A 
ATOM     20  C   UNL     1     106.101  52.300 126.958  1.00  0.00     0.008 A 
ATOM     21  C   UNL     1     107.323  50.375 126.081  1.00  0.00     0.169 A 
ATOM     22  C   UNL     1     106.645  51.008 127.128  1.00  0.00     0.162 A 
BRANCH  13  23
ATOM     23  O   UNL     1     107.079  52.033 122.137  1.00  0.00    -0.507 OA
ATOM     24  H   UNL     1     106.563  51.804 121.298  1.00  0.00     0.293 HD
ENDBRANCH  13  23
BRANCH  19  25
ATOM     25  C   UNL     1     108.304  50.370 123.813  1.00  0.00     0.264 C 
ATOM     26  O   UNL     1     107.968  49.307 123.227  1.00  0.00    -0.298 OA
ENDBRANCH  19  25
BRANCH  20  27
ATOM     27  C   UNL     1     105.593  53.078 128.186  1.00  0.00     0.017 C 
ATOM     28  C   UNL     1     106.272  54.448 128.281  1.00  0.00     0.012 C 
ATOM     29  C   UNL     1     104.060  53.208 128.251  1.00  0.00     0.012 C 
ENDBRANCH  20  27
BRANCH  21  30
ATOM     30  O   UNL     1     107.934  49.142 126.343  1.00  0.00    -0.504 OA
ATOM     31  H   UNL     1     108.868  48.897 126.044  1.00  0.00     0.293 HD
ENDBRANCH  21  30
BRANCH  22  32
ATOM     32  O   UNL     1     106.517  50.352 128.353  1.00  0.00    -0.504 OA
ATOM     33  H   UNL     1     105.985  50.729 129.129  1.00  0.00     0.293 HD
ENDBRANCH  22  32
ENDBRANCH  11  12
BRANCH  10  34
ATOM     34  O   UNL     1     107.607  55.882 122.056  1.00  0.00    -0.507 OA
ATOM     35  H   UNL     1     108.379  56.471 121.771  1.00  0.00     0.293 HD
ENDBRANCH  10  34
BRANCH   9  36
ATOM     36  C   UNL     1     103.788  56.189 117.113  1.00  0.00     0.017 C 
ATOM     37  C   UNL     1     103.894  55.289 115.877  1.00  0.00     0.012 C 
ATOM     38  C   UNL     1     103.168  57.554 116.763  1.00  0.00     0.012 C 
ENDBRANCH   9  36
BRANCH   6  39
ATOM     39  C   UNL     1     108.846  56.975 119.953  1.00  0.00     0.264 C 
ATOM     40  O   UNL     1     109.062  58.004 120.648  1.00  0.00    -0.298 OA
ENDBRANCH   6  39
BRANCH   8  41
ATOM     41  O   UNL     1     106.054  57.500 115.954  1.00  0.00    -0.504 OA
ATOM     42  H   UNL     1     106.325  58.415 115.627  1.00  0.00     0.293 HD
ENDBRANCH   8  41
BRANCH   7  43
ATOM     43  O   UNL     1     108.377  58.122 117.484  1.00  0.00    -0.504 OA
ATOM     44  H   UNL     1     108.321  59.125 117.385  1.00  0.00     0.293 HD
ENDBRANCH   7  43
TORSDOF 11
ENDMDL
