MODEL 1
REMARK VINA RESULT:    -3.852      0.000      0.000
REMARK INTER + INTRA:          -5.184
REMARK INTER:                  -4.979
REMARK INTRA:                  -0.205
REMARK UNBOUND:                -0.205
REMARK SMILES CCCCCCC(=O)[O-]
REMARK SMILES IDX 5 1 6 2 7 3 8 4 9 5 4 6 3 7 2 8 1 9
REMARK H PARENT
REMARK Flexibility Score: inf
ROOT
ATOM      1  C   UNL     1      -7.209 -23.320  47.517  1.00  0.00     0.006 C 
ENDROOT
BRANCH   1   2
ATOM      2  C   UNL     1      -6.048 -23.445  48.512  1.00  0.00     0.053 C 
BRANCH   2   3
ATOM      3  C   UNL     1      -4.806 -23.964  47.855  1.00  0.00     0.041 C 
ATOM      4  O   UNL     1      -4.458 -25.164  48.016  1.00  0.00    -0.550 OA
ATOM      5  O   UNL     1      -4.013 -23.114  47.094  1.00  0.00    -0.550 OA
ENDBRANCH   2   3
ENDBRANCH   1   2
BRANCH   1   6
ATOM      6  C   UNL     1      -7.393 -21.878  47.017  1.00  0.00     0.000 C 
BRANCH   6   7
ATOM      7  C   UNL     1      -8.856 -21.435  47.144  1.00  0.00    -0.000 C 
BRANCH   7   8
ATOM      8  C   UNL     1      -9.735 -22.580  47.659  1.00  0.00    -0.003 C 
ATOM      9  C   UNL     1     -11.201 -22.162  47.727  1.00  0.00     0.004 C 
ENDBRANCH   7   8
ENDBRANCH   6   7
ENDBRANCH   1   6
TORSDOF 5
ENDMDL
MODEL 2
REMARK VINA RESULT:    -3.792      1.371      2.330
REMARK INTER + INTRA:          -5.105
REMARK INTER:                  -4.773
REMARK INTRA:                  -0.331
REMARK UNBOUND:                -0.205
REMARK SMILES CCCCCCC(=O)[O-]
REMARK SMILES IDX 5 1 6 2 7 3 8 4 9 5 4 6 3 7 2 8 1 9
REMARK H PARENT
REMARK Flexibility Score: inf
ROOT
ATOM      1  C   UNL     1      -7.166 -24.462  48.622  1.00  0.00     0.006 C 
ENDROOT
BRANCH   1   2
ATOM      2  C   UNL     1      -5.856 -23.697  48.848  1.00  0.00     0.053 C 
BRANCH   2   3
ATOM      3  C   UNL     1      -4.757 -24.201  47.963  1.00  0.00     0.041 C 
ATOM      4  O   UNL     1      -4.201 -23.427  47.141  1.00  0.00    -0.550 OA
ATOM      5  O   UNL     1      -4.372 -25.535  48.021  1.00  0.00    -0.550 OA
ENDBRANCH   2   3
ENDBRANCH   1   2
BRANCH   1   6
ATOM      6  C   UNL     1      -8.322 -23.531  48.224  1.00  0.00     0.000 C 
BRANCH   6   7
ATOM      7  C   UNL     1      -8.046 -22.858  46.874  1.00  0.00    -0.000 C 
BRANCH   7   8
ATOM      8  C   UNL     1      -8.112 -21.332  46.996  1.00  0.00    -0.003 C 
ATOM      9  C   UNL     1      -6.734 -20.703  46.804  1.00  0.00     0.004 C 
ENDBRANCH   7   8
ENDBRANCH   6   7
ENDBRANCH   1   6
TORSDOF 5
ENDMDL
MODEL 3
REMARK VINA RESULT:    -3.791      0.837      1.482
REMARK INTER + INTRA:          -5.104
REMARK INTER:                  -4.871
REMARK INTRA:                  -0.232
REMARK UNBOUND:                -0.205
REMARK SMILES CCCCCCC(=O)[O-]
REMARK SMILES IDX 5 1 6 2 7 3 8 4 9 5 4 6 3 7 2 8 1 9
REMARK H PARENT
REMARK Flexibility Score: inf
ROOT
ATOM      1  C   UNL     1      -6.784 -22.335  47.364  1.00  0.00     0.006 C 
ENDROOT
BRANCH   1   2
ATOM      2  C   UNL     1      -6.101 -23.299  48.343  1.00  0.00     0.053 C 
BRANCH   2   3
ATOM      3  C   UNL     1      -4.907 -23.963  47.728  1.00  0.00     0.041 C 
ATOM      4  O   UNL     1      -3.982 -23.268  47.231  1.00  0.00    -0.550 OA
ATOM      5  O   UNL     1      -4.833 -25.350  47.673  1.00  0.00    -0.550 OA
ENDBRANCH   2   3
ENDBRANCH   1   2
BRANCH   1   6
ATOM      6  C   UNL     1      -8.135 -22.872  46.867  1.00  0.00     0.000 C 
BRANCH   6   7
ATOM      7  C   UNL     1      -9.275 -21.912  47.228  1.00  0.00    -0.000 C 
BRANCH   7   8
ATOM      8  C   UNL     1     -10.417 -22.653  47.931  1.00  0.00    -0.003 C 
ATOM      9  C   UNL     1      -9.903 -23.887  48.668  1.00  0.00     0.004 C 
ENDBRANCH   7   8
ENDBRANCH   6   7
ENDBRANCH   1   6
TORSDOF 5
ENDMDL
MODEL 4
REMARK VINA RESULT:    -3.647     11.013     12.321
REMARK INTER + INTRA:          -4.918
REMARK INTER:                  -4.509
REMARK INTRA:                  -0.409
REMARK UNBOUND:                -0.205
REMARK SMILES CCCCCCC(=O)[O-]
REMARK SMILES IDX 5 1 6 2 7 3 8 4 9 5 4 6 3 7 2 8 1 9
REMARK H PARENT
REMARK Flexibility Score: inf
ROOT
ATOM      1  C   UNL     1      -5.048 -36.231  45.239  1.00  0.00     0.006 C 
ENDROOT
BRANCH   1   2
ATOM      2  C   UNL     1      -3.537 -36.146  45.494  1.00  0.00     0.053 C 
BRANCH   2   3
ATOM      3  C   UNL     1      -3.177 -34.939  46.305  1.00  0.00     0.041 C 
ATOM      4  O   UNL     1      -2.399 -34.068  45.834  1.00  0.00    -0.550 OA
ATOM      5  O   UNL     1      -3.674 -34.793  47.595  1.00  0.00    -0.550 OA
ENDBRANCH   2   3
ENDBRANCH   1   2
BRANCH   1   6
ATOM      6  C   UNL     1      -5.515 -35.227  44.174  1.00  0.00     0.000 C 
BRANCH   6   7
ATOM      7  C   UNL     1      -6.416 -34.151  44.791  1.00  0.00    -0.000 C 
BRANCH   7   8
ATOM      8  C   UNL     1      -6.932 -34.588  46.166  1.00  0.00    -0.003 C 
ATOM      9  C   UNL     1      -6.946 -33.419  47.147  1.00  0.00     0.004 C 
ENDBRANCH   7   8
ENDBRANCH   6   7
ENDBRANCH   1   6
TORSDOF 5
ENDMDL
MODEL 5
REMARK VINA RESULT:    -3.613      3.199      5.028
REMARK INTER + INTRA:          -4.875
REMARK INTER:                  -4.670
REMARK INTRA:                  -0.205
REMARK UNBOUND:                -0.205
REMARK SMILES CCCCCCC(=O)[O-]
REMARK SMILES IDX 5 1 6 2 7 3 8 4 9 5 4 6 3 7 2 8 1 9
REMARK H PARENT
REMARK Flexibility Score: inf
ROOT
ATOM      1  C   UNL     1      -7.841 -22.420  46.564  1.00  0.00     0.006 C 
ENDROOT
BRANCH   1   2
ATOM      2  C   UNL     1      -8.983 -21.658  47.248  1.00  0.00     0.053 C 
BRANCH   2   3
ATOM      3  C   UNL     1     -10.101 -22.571  47.646  1.00  0.00     0.041 C 
ATOM      4  O   UNL     1      -9.873 -23.569  48.380  1.00  0.00    -0.550 OA
ATOM      5  O   UNL     1     -11.389 -22.341  47.179  1.00  0.00    -0.550 OA
ENDBRANCH   2   3
ENDBRANCH   1   2
BRANCH   1   6
ATOM      6  C   UNL     1      -6.487 -22.175  47.248  1.00  0.00     0.000 C 
BRANCH   6   7
ATOM      7  C   UNL     1      -6.065 -23.390  48.082  1.00  0.00    -0.000 C 
BRANCH   7   8
ATOM      8  C   UNL     1      -4.718 -23.943  47.607  1.00  0.00    -0.003 C 
ATOM      9  C   UNL     1      -3.904 -22.871  46.886  1.00  0.00     0.004 C 
ENDBRANCH   7   8
ENDBRANCH   6   7
ENDBRANCH   1   6
TORSDOF 5
ENDMDL
MODEL 6
REMARK VINA RESULT:    -3.572     10.247     12.597
REMARK INTER + INTRA:          -4.821
REMARK INTER:                  -4.583
REMARK INTRA:                  -0.238
REMARK UNBOUND:                -0.205
REMARK SMILES CCCCCCC(=O)[O-]
REMARK SMILES IDX 5 1 6 2 7 3 8 4 9 5 4 6 3 7 2 8 1 9
REMARK H PARENT
REMARK Flexibility Score: inf
ROOT
ATOM      1  C   UNL     1       3.804 -22.495  47.535  1.00  0.00     0.006 C 
ENDROOT
BRANCH   1   2
ATOM      2  C   UNL     1       2.560 -21.732  47.062  1.00  0.00     0.053 C 
BRANCH   2   3
ATOM      3  C   UNL     1       2.901 -20.354  46.583  1.00  0.00     0.041 C 
ATOM      4  O   UNL     1       3.625 -19.600  47.285  1.00  0.00    -0.550 OA
ATOM      5  O   UNL     1       2.392 -19.890  45.376  1.00  0.00    -0.550 OA
ENDBRANCH   2   3
ENDBRANCH   1   2
BRANCH   1   6
ATOM      6  C   UNL     1       4.759 -22.825  46.378  1.00  0.00     0.000 C 
BRANCH   6   7
ATOM      7  C   UNL     1       6.221 -22.652  46.805  1.00  0.00    -0.000 C 
BRANCH   7   8
ATOM      8  C   UNL     1       6.418 -23.058  48.270  1.00  0.00    -0.003 C 
ATOM      9  C   UNL     1       7.754 -23.767  48.471  1.00  0.00     0.004 C 
ENDBRANCH   7   8
ENDBRANCH   6   7
ENDBRANCH   1   6
TORSDOF 5
ENDMDL
MODEL 7
REMARK VINA RESULT:    -3.527     10.839     12.064
REMARK INTER + INTRA:          -4.763
REMARK INTER:                  -4.422
REMARK INTRA:                  -0.340
REMARK UNBOUND:                -0.205
REMARK SMILES CCCCCCC(=O)[O-]
REMARK SMILES IDX 5 1 6 2 7 3 8 4 9 5 4 6 3 7 2 8 1 9
REMARK H PARENT
REMARK Flexibility Score: inf
ROOT
ATOM      1  C   UNL     1       4.708 -22.813  46.490  1.00  0.00     0.006 C 
ENDROOT
BRANCH   1   2
ATOM      2  C   UNL     1       6.172 -22.560  46.876  1.00  0.00     0.053 C 
BRANCH   2   3
ATOM      3  C   UNL     1       6.400 -21.139  47.290  1.00  0.00     0.041 C 
ATOM      4  O   UNL     1       6.261 -20.206  46.455  1.00  0.00    -0.550 OA
ATOM      5  O   UNL     1       6.801 -20.847  48.588  1.00  0.00    -0.550 OA
ENDBRANCH   2   3
ENDBRANCH   1   2
BRANCH   1   6
ATOM      6  C   UNL     1       3.733 -22.402  47.604  1.00  0.00     0.000 C 
BRANCH   6   7
ATOM      7  C   UNL     1       2.501 -21.698  47.023  1.00  0.00    -0.000 C 
BRANCH   7   8
ATOM      8  C   UNL     1       2.818 -20.243  46.662  1.00  0.00    -0.003 C 
ATOM      9  C   UNL     1       2.397 -19.926  45.229  1.00  0.00     0.004 C 
ENDBRANCH   7   8
ENDBRANCH   6   7
ENDBRANCH   1   6
TORSDOF 5
ENDMDL
MODEL 8
REMARK VINA RESULT:    -3.475     10.931     12.665
REMARK INTER + INTRA:          -4.696
REMARK INTER:                  -4.352
REMARK INTRA:                  -0.344
REMARK UNBOUND:                -0.205
REMARK SMILES CCCCCCC(=O)[O-]
REMARK SMILES IDX 5 1 6 2 7 3 8 4 9 5 4 6 3 7 2 8 1 9
REMARK H PARENT
REMARK Flexibility Score: inf
ROOT
ATOM      1  C   UNL     1      -6.182 -34.071  44.793  1.00  0.00     0.006 C 
ENDROOT
BRANCH   1   2
ATOM      2  C   UNL     1      -6.723 -34.416  46.187  1.00  0.00     0.053 C 
BRANCH   2   3
ATOM      3  C   UNL     1      -6.180 -33.496  47.238  1.00  0.00     0.041 C 
ATOM      4  O   UNL     1      -5.126 -33.796  47.858  1.00  0.00    -0.550 OA
ATOM      5  O   UNL     1      -6.857 -32.325  47.556  1.00  0.00    -0.550 OA
ENDBRANCH   2   3
ENDBRANCH   1   2
BRANCH   1   6
ATOM      6  C   UNL     1      -5.557 -35.289  44.095  1.00  0.00     0.000 C 
BRANCH   6   7
ATOM      7  C   UNL     1      -5.046 -36.308  45.120  1.00  0.00    -0.000 C 
BRANCH   7   8
ATOM      8  C   UNL     1      -3.521 -36.246  45.245  1.00  0.00    -0.003 C 
ATOM      9  C   UNL     1      -3.079 -36.388  46.700  1.00  0.00     0.004 C 
ENDBRANCH   7   8
ENDBRANCH   6   7
ENDBRANCH   1   6
TORSDOF 5
ENDMDL
MODEL 9
REMARK VINA RESULT:    -3.407     10.273     12.438
REMARK INTER + INTRA:          -4.608
REMARK INTER:                  -4.276
REMARK INTRA:                  -0.332
REMARK UNBOUND:                -0.205
REMARK SMILES CCCCCCC(=O)[O-]
REMARK SMILES IDX 5 1 6 2 7 3 8 4 9 5 4 6 3 7 2 8 1 9
REMARK H PARENT
REMARK Flexibility Score: inf
ROOT
ATOM      1  C   UNL     1       4.957 -19.512  46.388  1.00  0.00     0.006 C 
ENDROOT
BRANCH   1   2
ATOM      2  C   UNL     1       3.766 -19.948  47.251  1.00  0.00     0.053 C 
BRANCH   2   3
ATOM      3  C   UNL     1       2.618 -20.424  46.415  1.00  0.00     0.041 C 
ATOM      4  O   UNL     1       1.940 -21.420  46.778  1.00  0.00    -0.550 OA
ATOM      5  O   UNL     1       2.319 -19.788  45.216  1.00  0.00    -0.550 OA
ENDBRANCH   2   3
ENDBRANCH   1   2
BRANCH   1   6
ATOM      6  C   UNL     1       6.253 -20.241  46.774  1.00  0.00     0.000 C 
BRANCH   6   7
ATOM      7  C   UNL     1       5.985 -21.309  47.841  1.00  0.00    -0.000 C 
BRANCH   7   8
ATOM      8  C   UNL     1       6.296 -22.711  47.307  1.00  0.00    -0.003 C 
ATOM      9  C   UNL     1       5.165 -23.227  46.422  1.00  0.00     0.004 C 
ENDBRANCH   7   8
ENDBRANCH   6   7
ENDBRANCH   1   6
TORSDOF 5
ENDMDL
