MODEL 1
REMARK VINA RESULT:    -4.509      0.000      0.000
REMARK INTER + INTRA:          -6.587
REMARK INTER:                  -6.090
REMARK INTRA:                  -0.497
REMARK UNBOUND:                -0.497
REMARK SMILES CCCCCCCC(=O)[O-]
REMARK SMILES IDX 5 1 6 2 7 3 8 4 9 5 10 6 4 7 3 8 2 9 1 10
REMARK H PARENT
REMARK Flexibility Score: inf
ROOT
ATOM      1  C   UNL     1       9.841 -13.201  38.122  1.00  0.00     0.000 C 
ENDROOT
BRANCH   1   2
ATOM      2  C   UNL     1      10.223 -14.675  37.945  1.00  0.00     0.006 C 
BRANCH   2   3
ATOM      3  C   UNL     1      10.934 -14.901  36.607  1.00  0.00     0.053 C 
BRANCH   3   4
ATOM      4  C   UNL     1      12.169 -14.060  36.521  1.00  0.00     0.041 C 
ATOM      5  O   UNL     1      12.287 -13.198  35.611  1.00  0.00    -0.550 OA
ATOM      6  O   UNL     1      13.212 -14.265  37.415  1.00  0.00    -0.550 OA
ENDBRANCH   3   4
ENDBRANCH   2   3
ENDBRANCH   1   2
BRANCH   1   7
ATOM      7  C   UNL     1       8.359 -13.057  38.487  1.00  0.00     0.000 C 
BRANCH   7   8
ATOM      8  C   UNL     1       7.464 -13.707  37.424  1.00  0.00    -0.000 C 
BRANCH   8   9
ATOM      9  C   UNL     1       7.215 -12.749  36.253  1.00  0.00    -0.003 C 
ATOM     10  C   UNL     1       7.855 -13.269  34.969  1.00  0.00     0.004 C 
ENDBRANCH   8   9
ENDBRANCH   7   8
ENDBRANCH   1   7
TORSDOF 6
ENDMDL
MODEL 2
REMARK VINA RESULT:    -4.400      3.001      4.771
REMARK INTER + INTRA:          -6.440
REMARK INTER:                  -5.889
REMARK INTRA:                  -0.552
REMARK UNBOUND:                -0.497
REMARK SMILES CCCCCCCC(=O)[O-]
REMARK SMILES IDX 5 1 6 2 7 3 8 4 9 5 10 6 4 7 3 8 2 9 1 10
REMARK H PARENT
REMARK Flexibility Score: inf
ROOT
ATOM      1  C   UNL     1      12.540 -12.149  35.495  1.00  0.00     0.000 C 
ENDROOT
BRANCH   1   2
ATOM      2  C   UNL     1      13.227 -13.476  35.835  1.00  0.00     0.006 C 
BRANCH   2   3
ATOM      3  C   UNL     1      12.817 -13.966  37.228  1.00  0.00     0.053 C 
BRANCH   3   4
ATOM      4  C   UNL     1      11.362 -14.315  37.253  1.00  0.00     0.041 C 
ATOM      5  O   UNL     1      10.569 -13.671  37.988  1.00  0.00    -0.550 OA
ATOM      6  O   UNL     1      10.891 -15.386  36.503  1.00  0.00    -0.550 OA
ENDBRANCH   3   4
ENDBRANCH   2   3
ENDBRANCH   1   2
BRANCH   1   7
ATOM      7  C   UNL     1      13.570 -11.027  35.317  1.00  0.00     0.000 C 
BRANCH   7   8
ATOM      8  C   UNL     1      13.694 -10.185  36.593  1.00  0.00    -0.000 C 
BRANCH   8   9
ATOM      9  C   UNL     1      12.419 -10.276  37.439  1.00  0.00    -0.003 C 
ATOM     10  C   UNL     1      12.749 -10.493  38.912  1.00  0.00     0.004 C 
ENDBRANCH   8   9
ENDBRANCH   7   8
ENDBRANCH   1   7
TORSDOF 6
ENDMDL
MODEL 3
REMARK VINA RESULT:    -4.354      3.989      5.324
REMARK INTER + INTRA:          -6.378
REMARK INTER:                  -5.791
REMARK INTRA:                  -0.587
REMARK UNBOUND:                -0.497
REMARK SMILES CCCCCCCC(=O)[O-]
REMARK SMILES IDX 5 1 6 2 7 3 8 4 9 5 10 6 4 7 3 8 2 9 1 10
REMARK H PARENT
REMARK Flexibility Score: inf
ROOT
ATOM      1  C   UNL     1      12.407 -10.829  35.139  1.00  0.00     0.000 C 
ENDROOT
BRANCH   1   2
ATOM      2  C   UNL     1      12.226  -9.883  36.331  1.00  0.00     0.006 C 
BRANCH   2   3
ATOM      3  C   UNL     1      13.261 -10.170  37.423  1.00  0.00     0.053 C 
BRANCH   3   4
ATOM      4  C   UNL     1      12.583 -10.466  38.723  1.00  0.00     0.041 C 
ATOM      5  O   UNL     1      11.387 -10.858  38.740  1.00  0.00    -0.550 OA
ATOM      6  O   UNL     1      13.257 -10.261  39.921  1.00  0.00    -0.550 OA
ENDBRANCH   3   4
ENDBRANCH   2   3
ENDBRANCH   1   2
BRANCH   1   7
ATOM      7  C   UNL     1      13.793 -11.484  35.163  1.00  0.00     0.000 C 
BRANCH   7   8
ATOM      8  C   UNL     1      13.682 -13.011  35.071  1.00  0.00    -0.000 C 
BRANCH   8   9
ATOM      9  C   UNL     1      12.496 -13.528  35.893  1.00  0.00    -0.003 C 
ATOM     10  C   UNL     1      12.927 -13.905  37.306  1.00  0.00     0.004 C 
ENDBRANCH   8   9
ENDBRANCH   7   8
ENDBRANCH   1   7
TORSDOF 6
ENDMDL
MODEL 4
REMARK VINA RESULT:    -4.342      2.649      4.448
REMARK INTER + INTRA:          -6.362
REMARK INTER:                  -6.021
REMARK INTRA:                  -0.341
REMARK UNBOUND:                -0.497
REMARK SMILES CCCCCCCC(=O)[O-]
REMARK SMILES IDX 5 1 6 2 7 3 8 4 9 5 10 6 4 7 3 8 2 9 1 10
REMARK H PARENT
REMARK Flexibility Score: inf
ROOT
ATOM      1  C   UNL     1       9.477 -13.530  38.028  1.00  0.00     0.000 C 
ENDROOT
BRANCH   1   2
ATOM      2  C   UNL     1       7.953 -13.412  38.150  1.00  0.00     0.006 C 
BRANCH   2   3
ATOM      3  C   UNL     1       7.280 -13.547  36.781  1.00  0.00     0.053 C 
BRANCH   3   4
ATOM      4  C   UNL     1       7.400 -12.272  36.009  1.00  0.00     0.041 C 
ATOM      5  O   UNL     1       7.229 -11.165  36.583  1.00  0.00    -0.550 OA
ATOM      6  O   UNL     1       7.652 -12.308  34.643  1.00  0.00    -0.550 OA
ENDBRANCH   3   4
ENDBRANCH   2   3
ENDBRANCH   1   2
BRANCH   1   7
ATOM      7  C   UNL     1       9.925 -14.992  38.136  1.00  0.00     0.000 C 
BRANCH   7   8
ATOM      8  C   UNL     1      10.840 -15.376  36.967  1.00  0.00    -0.000 C 
BRANCH   8   9
ATOM      9  C   UNL     1      11.711 -14.190  36.537  1.00  0.00    -0.003 C 
ATOM     10  C   UNL     1      13.069 -14.223  37.231  1.00  0.00     0.004 C 
ENDBRANCH   8   9
ENDBRANCH   7   8
ENDBRANCH   1   7
TORSDOF 6
ENDMDL
MODEL 5
REMARK VINA RESULT:    -4.306      2.725      4.503
REMARK INTER + INTRA:          -6.314
REMARK INTER:                  -5.937
REMARK INTRA:                  -0.376
REMARK UNBOUND:                -0.497
REMARK SMILES CCCCCCCC(=O)[O-]
REMARK SMILES IDX 5 1 6 2 7 3 8 4 9 5 10 6 4 7 3 8 2 9 1 10
REMARK H PARENT
REMARK Flexibility Score: inf
ROOT
ATOM      1  C   UNL     1      12.328 -14.199  37.123  1.00  0.00     0.000 C 
ENDROOT
BRANCH   1   2
ATOM      2  C   UNL     1      11.100 -14.968  36.622  1.00  0.00     0.006 C 
BRANCH   2   3
ATOM      3  C   UNL     1       9.878 -14.050  36.527  1.00  0.00     0.053 C 
BRANCH   3   4
ATOM      4  C   UNL     1       9.395 -13.676  37.892  1.00  0.00     0.041 C 
ATOM      5  O   UNL     1       9.508 -12.492  38.303  1.00  0.00    -0.550 OA
ATOM      6  O   UNL     1       8.864 -14.648  38.731  1.00  0.00    -0.550 OA
ENDBRANCH   3   4
ENDBRANCH   2   3
ENDBRANCH   1   2
BRANCH   1   7
ATOM      7  C   UNL     1      12.711 -13.080  36.148  1.00  0.00     0.000 C 
BRANCH   7   8
ATOM      8  C   UNL     1      12.890 -11.746  36.884  1.00  0.00    -0.000 C 
BRANCH   8   9
ATOM      9  C   UNL     1      13.549 -10.701  35.976  1.00  0.00    -0.003 C 
ATOM     10  C   UNL     1      14.011 -11.324  34.663  1.00  0.00     0.004 C 
ENDBRANCH   8   9
ENDBRANCH   7   8
ENDBRANCH   1   7
TORSDOF 6
ENDMDL
MODEL 6
REMARK VINA RESULT:    -4.265      2.760      4.471
REMARK INTER + INTRA:          -6.259
REMARK INTER:                  -5.796
REMARK INTRA:                  -0.462
REMARK UNBOUND:                -0.497
REMARK SMILES CCCCCCCC(=O)[O-]
REMARK SMILES IDX 5 1 6 2 7 3 8 4 9 5 10 6 4 7 3 8 2 9 1 10
REMARK H PARENT
REMARK Flexibility Score: inf
ROOT
ATOM      1  C   UNL     1      10.301 -14.686  37.992  1.00  0.00     0.000 C 
ENDROOT
BRANCH   1   2
ATOM      2  C   UNL     1       9.265 -13.700  37.442  1.00  0.00     0.006 C 
BRANCH   2   3
ATOM      3  C   UNL     1       9.180 -13.786  35.915  1.00  0.00     0.053 C 
BRANCH   3   4
ATOM      4  C   UNL     1       7.814 -13.398  35.443  1.00  0.00     0.041 C 
ATOM      5  O   UNL     1       7.623 -13.093  34.237  1.00  0.00    -0.550 OA
ATOM      6  O   UNL     1       6.761 -13.324  36.346  1.00  0.00    -0.550 OA
ENDBRANCH   3   4
ENDBRANCH   2   3
ENDBRANCH   1   2
BRANCH   1   7
ATOM      7  C   UNL     1      11.371 -15.003  36.940  1.00  0.00     0.000 C 
BRANCH   7   8
ATOM      8  C   UNL     1      12.741 -14.462  37.366  1.00  0.00    -0.000 C 
BRANCH   8   9
ATOM      9  C   UNL     1      12.878 -12.975  37.017  1.00  0.00    -0.003 C 
ATOM     10  C   UNL     1      12.933 -12.766  35.507  1.00  0.00     0.004 C 
ENDBRANCH   8   9
ENDBRANCH   7   8
ENDBRANCH   1   7
TORSDOF 6
ENDMDL
MODEL 7
REMARK VINA RESULT:    -4.230      1.293      1.534
REMARK INTER + INTRA:          -6.211
REMARK INTER:                  -5.619
REMARK INTRA:                  -0.592
REMARK UNBOUND:                -0.497
REMARK SMILES CCCCCCCC(=O)[O-]
REMARK SMILES IDX 5 1 6 2 7 3 8 4 9 5 10 6 4 7 3 8 2 9 1 10
REMARK H PARENT
REMARK Flexibility Score: inf
ROOT
ATOM      1  C   UNL     1       8.902 -12.091  37.925  1.00  0.00     0.000 C 
ENDROOT
BRANCH   1   2
ATOM      2  C   UNL     1      10.433 -12.177  37.920  1.00  0.00     0.006 C 
BRANCH   2   3
ATOM      3  C   UNL     1      10.915 -13.346  37.056  1.00  0.00     0.053 C 
BRANCH   3   4
ATOM      4  C   UNL     1      11.624 -12.842  35.839  1.00  0.00     0.041 C 
ATOM      5  O   UNL     1      11.089 -11.964  35.113  1.00  0.00    -0.550 OA
ATOM      6  O   UNL     1      12.853 -13.379  35.478  1.00  0.00    -0.550 OA
ENDBRANCH   3   4
ENDBRANCH   2   3
ENDBRANCH   1   2
BRANCH   1   7
ATOM      7  C   UNL     1       8.273 -13.483  37.795  1.00  0.00     0.000 C 
BRANCH   7   8
ATOM      8  C   UNL     1       7.190 -13.499  36.709  1.00  0.00    -0.000 C 
BRANCH   8   9
ATOM      9  C   UNL     1       7.523 -12.511  35.585  1.00  0.00    -0.003 C 
ATOM     10  C   UNL     1       7.876 -13.243  34.294  1.00  0.00     0.004 C 
ENDBRANCH   8   9
ENDBRANCH   7   8
ENDBRANCH   1   7
TORSDOF 6
ENDMDL
MODEL 8
REMARK VINA RESULT:    -4.219      2.172      3.318
REMARK INTER + INTRA:          -6.196
REMARK INTER:                  -5.813
REMARK INTRA:                  -0.383
REMARK UNBOUND:                -0.497
REMARK SMILES CCCCCCCC(=O)[O-]
REMARK SMILES IDX 5 1 6 2 7 3 8 4 9 5 10 6 4 7 3 8 2 9 1 10
REMARK H PARENT
REMARK Flexibility Score: inf
ROOT
ATOM      1  C   UNL     1      12.595 -14.463  37.258  1.00  0.00     0.000 C 
ENDROOT
BRANCH   1   2
ATOM      2  C   UNL     1      12.701 -12.954  37.011  1.00  0.00     0.006 C 
BRANCH   2   3
ATOM      3  C   UNL     1      12.615 -12.634  35.516  1.00  0.00     0.053 C 
BRANCH   3   4
ATOM      4  C   UNL     1      11.517 -11.654  35.251  1.00  0.00     0.041 C 
ATOM      5  O   UNL     1      11.686 -10.431  35.497  1.00  0.00    -0.550 OA
ATOM      6  O   UNL     1      10.288 -12.098  34.779  1.00  0.00    -0.550 OA
ENDBRANCH   3   4
ENDBRANCH   2   3
ENDBRANCH   1   2
BRANCH   1   7
ATOM      7  C   UNL     1      11.241 -15.004  36.785  1.00  0.00     0.000 C 
BRANCH   7   8
ATOM      8  C   UNL     1      10.203 -14.958  37.913  1.00  0.00    -0.000 C 
BRANCH   8   9
ATOM      9  C   UNL     1       9.074 -13.975  37.583  1.00  0.00    -0.003 C 
ATOM     10  C   UNL     1       7.960 -14.046  38.623  1.00  0.00     0.004 C 
ENDBRANCH   8   9
ENDBRANCH   7   8
ENDBRANCH   1   7
TORSDOF 6
ENDMDL
MODEL 9
REMARK VINA RESULT:    -4.213      1.896      2.947
REMARK INTER + INTRA:          -6.188
REMARK INTER:                  -5.930
REMARK INTRA:                  -0.258
REMARK UNBOUND:                -0.497
REMARK SMILES CCCCCCCC(=O)[O-]
REMARK SMILES IDX 5 1 6 2 7 3 8 4 9 5 10 6 4 7 3 8 2 9 1 10
REMARK H PARENT
REMARK Flexibility Score: inf
ROOT
ATOM      1  C   UNL     1      12.220 -14.570  37.306  1.00  0.00     0.000 C 
ENDROOT
BRANCH   1   2
ATOM      2  C   UNL     1      12.666 -13.150  36.938  1.00  0.00     0.006 C 
BRANCH   2   3
ATOM      3  C   UNL     1      13.205 -13.096  35.506  1.00  0.00     0.053 C 
BRANCH   3   4
ATOM      4  C   UNL     1      13.206 -11.689  34.997  1.00  0.00     0.041 C 
ATOM      5  O   UNL     1      12.168 -10.983  35.087  1.00  0.00    -0.550 OA
ATOM      6  O   UNL     1      14.338 -11.175  34.378  1.00  0.00    -0.550 OA
ENDBRANCH   3   4
ENDBRANCH   2   3
ENDBRANCH   1   2
BRANCH   1   7
ATOM      7  C   UNL     1      10.922 -14.943  36.580  1.00  0.00     0.000 C 
BRANCH   7   8
ATOM      8  C   UNL     1       9.784 -13.987  36.957  1.00  0.00    -0.000 C 
BRANCH   8   9
ATOM      9  C   UNL     1       8.768 -13.863  35.816  1.00  0.00    -0.003 C 
ATOM     10  C   UNL     1       7.382 -13.513  36.349  1.00  0.00     0.004 C 
ENDBRANCH   8   9
ENDBRANCH   7   8
ENDBRANCH   1   7
TORSDOF 6
ENDMDL
