MODEL 1
REMARK VINA RESULT:    -4.212      0.000      0.000
REMARK INTER + INTRA:          -8.691
REMARK INTER:                  -8.151
REMARK INTRA:                  -0.540
REMARK UNBOUND:                -0.540
REMARK SMILES CCCCCCCCCCCCCCCCCC(=O)[O-]
REMARK SMILES IDX 10 1 11 2 12 3 13 4 14 5 15 6 16 7 17 8 18 9 19 10 20 11
REMARK SMILES IDX 9 12 8 13 7 14 6 15 5 16 4 17 3 18 2 19 1 20
REMARK H PARENT
REMARK Flexibility Score: inf
ROOT
ATOM      1  C   UNL     1       0.370  16.021  21.781  1.00  0.00     0.000 C 
ENDROOT
BRANCH   1   2
ATOM      2  C   UNL     1      -0.913  16.389  22.540  1.00  0.00     0.000 C 
BRANCH   2   3
ATOM      3  C   UNL     1      -2.067  16.780  21.602  1.00  0.00     0.000 C 
BRANCH   3   4
ATOM      4  C   UNL     1      -3.449  16.565  22.243  1.00  0.00     0.000 C 
BRANCH   4   5
ATOM      5  C   UNL     1      -4.340  15.605  21.433  1.00  0.00     0.000 C 
BRANCH   5   6
ATOM      6  C   UNL     1      -5.671  15.215  22.108  1.00  0.00     0.000 C 
BRANCH   6   7
ATOM      7  C   UNL     1      -6.847  14.978  21.144  1.00  0.00     0.006 C 
BRANCH   7   8
ATOM      8  C   UNL     1      -8.103  15.768  21.532  1.00  0.00     0.053 C 
BRANCH   8   9
ATOM      9  C   UNL     1      -8.015  17.172  21.022  1.00  0.00     0.041 C 
ATOM     10  O   UNL     1      -7.637  18.100  21.783  1.00  0.00    -0.550 OA
ATOM     11  O   UNL     1      -8.303  17.448  19.691  1.00  0.00    -0.550 OA
ENDBRANCH   8   9
ENDBRANCH   7   8
ENDBRANCH   6   7
ENDBRANCH   5   6
ENDBRANCH   4   5
ENDBRANCH   3   4
ENDBRANCH   2   3
ENDBRANCH   1   2
BRANCH   1  12
ATOM     12  C   UNL     1       1.581  16.004  22.729  1.00  0.00     0.000 C 
BRANCH  12  13
ATOM     13  C   UNL     1       2.897  16.356  22.016  1.00  0.00    -0.000 C 
BRANCH  13  14
ATOM     14  C   UNL     1       4.116  15.654  22.640  1.00  0.00    -0.000 C 
BRANCH  14  15
ATOM     15  C   UNL     1       5.406  15.856  21.813  1.00  0.00    -0.000 C 
BRANCH  15  16
ATOM     16  C   UNL     1       6.366  14.652  21.862  1.00  0.00    -0.000 C 
BRANCH  16  17
ATOM     17  C   UNL     1       7.847  15.016  21.662  1.00  0.00    -0.000 C 
BRANCH  17  18
ATOM     18  C   UNL     1       8.179  16.479  22.044  1.00  0.00    -0.000 C 
BRANCH  18  19
ATOM     19  C   UNL     1       8.688  17.334  20.872  1.00  0.00    -0.003 C 
ATOM     20  C   UNL     1       9.966  16.774  20.246  1.00  0.00     0.004 C 
ENDBRANCH  18  19
ENDBRANCH  17  18
ENDBRANCH  16  17
ENDBRANCH  15  16
ENDBRANCH  14  15
ENDBRANCH  13  14
ENDBRANCH  12  13
ENDBRANCH   1  12
TORSDOF 16
ENDMDL
MODEL 2
REMARK VINA RESULT:    -4.145      1.144      1.585
REMARK INTER + INTRA:          -8.562
REMARK INTER:                  -7.833
REMARK INTRA:                  -0.729
REMARK UNBOUND:                -0.540
REMARK SMILES CCCCCCCCCCCCCCCCCC(=O)[O-]
REMARK SMILES IDX 10 1 11 2 12 3 13 4 14 5 15 6 16 7 17 8 18 9 19 10 20 11
REMARK SMILES IDX 9 12 8 13 7 14 6 15 5 16 4 17 3 18 2 19 1 20
REMARK H PARENT
REMARK Flexibility Score: inf
ROOT
ATOM      1  C   UNL     1       1.299  16.004  21.889  1.00  0.00     0.000 C 
ENDROOT
BRANCH   1   2
ATOM      2  C   UNL     1      -0.080  16.037  22.566  1.00  0.00     0.000 C 
BRANCH   2   3
ATOM      3  C   UNL     1      -1.206  16.441  21.600  1.00  0.00     0.000 C 
BRANCH   3   4
ATOM      4  C   UNL     1      -1.968  17.692  22.071  1.00  0.00     0.000 C 
BRANCH   4   5
ATOM      5  C   UNL     1      -3.452  17.409  22.372  1.00  0.00     0.000 C 
BRANCH   5   6
ATOM      6  C   UNL     1      -3.949  16.005  21.971  1.00  0.00     0.000 C 
BRANCH   6   7
ATOM      7  C   UNL     1      -5.412  15.700  22.339  1.00  0.00     0.006 C 
BRANCH   7   8
ATOM      8  C   UNL     1      -6.205  15.095  21.174  1.00  0.00     0.053 C 
BRANCH   8   9
ATOM      9  C   UNL     1      -7.622  15.575  21.203  1.00  0.00     0.041 C 
ATOM     10  O   UNL     1      -8.477  14.983  21.911  1.00  0.00    -0.550 OA
ATOM     11  O   UNL     1      -7.987  16.708  20.486  1.00  0.00    -0.550 OA
ENDBRANCH   8   9
ENDBRANCH   7   8
ENDBRANCH   6   7
ENDBRANCH   5   6
ENDBRANCH   4   5
ENDBRANCH   3   4
ENDBRANCH   2   3
ENDBRANCH   1   2
BRANCH   1  12
ATOM     12  C   UNL     1       2.419  16.238  22.917  1.00  0.00     0.000 C 
BRANCH  12  13
ATOM     13  C   UNL     1       3.808  15.867  22.375  1.00  0.00    -0.000 C 
BRANCH  13  14
ATOM     14  C   UNL     1       4.250  16.767  21.208  1.00  0.00    -0.000 C 
BRANCH  14  15
ATOM     15  C   UNL     1       5.783  16.776  21.011  1.00  0.00    -0.000 C 
BRANCH  15  16
ATOM     16  C   UNL     1       6.526  15.760  21.900  1.00  0.00    -0.000 C 
BRANCH  16  17
ATOM     17  C   UNL     1       8.057  15.909  21.885  1.00  0.00    -0.000 C 
BRANCH  17  18
ATOM     18  C   UNL     1       8.541  17.236  21.253  1.00  0.00    -0.000 C 
BRANCH  18  19
ATOM     19  C   UNL     1       9.571  17.055  20.126  1.00  0.00    -0.003 C 
ATOM     20  C   UNL     1      10.318  15.724  20.219  1.00  0.00     0.004 C 
ENDBRANCH  18  19
ENDBRANCH  17  18
ENDBRANCH  16  17
ENDBRANCH  15  16
ENDBRANCH  14  15
ENDBRANCH  13  14
ENDBRANCH  12  13
ENDBRANCH   1  12
TORSDOF 16
ENDMDL
MODEL 3
REMARK VINA RESULT:    -4.144      5.532     12.405
REMARK INTER + INTRA:          -8.561
REMARK INTER:                  -7.820
REMARK INTRA:                  -0.741
REMARK UNBOUND:                -0.540
REMARK SMILES CCCCCCCCCCCCCCCCCC(=O)[O-]
REMARK SMILES IDX 10 1 11 2 12 3 13 4 14 5 15 6 16 7 17 8 18 9 19 10 20 11
REMARK SMILES IDX 9 12 8 13 7 14 6 15 5 16 4 17 3 18 2 19 1 20
REMARK H PARENT
REMARK Flexibility Score: inf
ROOT
ATOM      1  C   UNL     1      -0.512  15.311  21.365  1.00  0.00     0.000 C 
ENDROOT
BRANCH   1   2
ATOM      2  C   UNL     1       0.193  16.439  22.134  1.00  0.00     0.000 C 
BRANCH   2   3
ATOM      3  C   UNL     1       1.510  15.983  22.784  1.00  0.00     0.000 C 
BRANCH   3   4
ATOM      4  C   UNL     1       2.745  16.377  21.956  1.00  0.00     0.000 C 
BRANCH   4   5
ATOM      5  C   UNL     1       4.010  15.601  22.365  1.00  0.00     0.000 C 
BRANCH   5   6
ATOM      6  C   UNL     1       5.339  16.186  21.842  1.00  0.00     0.000 C 
BRANCH   6   7
ATOM      7  C   UNL     1       6.609  15.488  22.362  1.00  0.00     0.006 C 
BRANCH   7   8
ATOM      8  C   UNL     1       7.847  16.392  22.310  1.00  0.00     0.053 C 
BRANCH   8   9
ATOM      9  C   UNL     1       8.764  15.957  21.210  1.00  0.00     0.041 C 
ATOM     10  O   UNL     1       9.018  14.736  21.041  1.00  0.00    -0.550 OA
ATOM     11  O   UNL     1       9.299  16.898  20.338  1.00  0.00    -0.550 OA
ENDBRANCH   8   9
ENDBRANCH   7   8
ENDBRANCH   6   7
ENDBRANCH   5   6
ENDBRANCH   4   5
ENDBRANCH   3   4
ENDBRANCH   2   3
ENDBRANCH   1   2
BRANCH   1  12
ATOM     12  C   UNL     1      -1.999  15.638  21.154  1.00  0.00     0.000 C 
BRANCH  12  13
ATOM     13  C   UNL     1      -2.569  16.548  22.254  1.00  0.00    -0.000 C 
BRANCH  13  14
ATOM     14  C   UNL     1      -3.963  16.104  22.729  1.00  0.00    -0.000 C 
BRANCH  14  15
ATOM     15  C   UNL     1      -4.877  15.665  21.561  1.00  0.00    -0.000 C 
BRANCH  15  16
ATOM     16  C   UNL     1      -5.956  14.646  21.972  1.00  0.00    -0.000 C 
BRANCH  16  17
ATOM     17  C   UNL     1      -7.258  14.742  21.157  1.00  0.00    -0.000 C 
BRANCH  17  18
ATOM     18  C   UNL     1      -8.446  15.324  21.960  1.00  0.00    -0.000 C 
BRANCH  18  19
ATOM     19  C   UNL     1      -8.778  16.786  21.619  1.00  0.00    -0.003 C 
ATOM     20  C   UNL     1      -8.117  17.252  20.322  1.00  0.00     0.004 C 
ENDBRANCH  18  19
ENDBRANCH  17  18
ENDBRANCH  16  17
ENDBRANCH  15  16
ENDBRANCH  14  15
ENDBRANCH  13  14
ENDBRANCH  12  13
ENDBRANCH   1  12
TORSDOF 16
ENDMDL
MODEL 4
REMARK VINA RESULT:    -4.035      1.464      3.961
REMARK INTER + INTRA:          -8.349
REMARK INTER:                  -7.490
REMARK INTRA:                  -0.859
REMARK UNBOUND:                -0.540
REMARK SMILES CCCCCCCCCCCCCCCCCC(=O)[O-]
REMARK SMILES IDX 10 1 11 2 12 3 13 4 14 5 15 6 16 7 17 8 18 9 19 10 20 11
REMARK SMILES IDX 9 12 8 13 7 14 6 15 5 16 4 17 3 18 2 19 1 20
REMARK H PARENT
REMARK Flexibility Score: inf
ROOT
ATOM      1  C   UNL     1       4.373  15.634  22.453  1.00  0.00     0.000 C 
ENDROOT
BRANCH   1   2
ATOM      2  C   UNL     1       3.197  16.502  21.979  1.00  0.00     0.000 C 
BRANCH   2   3
ATOM      3  C   UNL     1       1.869  16.126  22.655  1.00  0.00     0.000 C 
BRANCH   3   4
ATOM      4  C   UNL     1       0.702  16.038  21.657  1.00  0.00     0.000 C 
BRANCH   4   5
ATOM      5  C   UNL     1      -0.672  16.216  22.329  1.00  0.00     0.000 C 
BRANCH   5   6
ATOM      6  C   UNL     1      -1.646  17.161  21.596  1.00  0.00     0.000 C 
BRANCH   6   7
ATOM      7  C   UNL     1      -3.110  17.085  22.067  1.00  0.00     0.006 C 
BRANCH   7   8
ATOM      8  C   UNL     1      -3.777  15.747  21.720  1.00  0.00     0.053 C 
BRANCH   8   9
ATOM      9  C   UNL     1      -5.266  15.877  21.777  1.00  0.00     0.041 C 
ATOM     10  O   UNL     1      -5.991  14.849  21.822  1.00  0.00    -0.550 OA
ATOM     11  O   UNL     1      -5.853  17.135  21.832  1.00  0.00    -0.550 OA
ENDBRANCH   8   9
ENDBRANCH   7   8
ENDBRANCH   6   7
ENDBRANCH   5   6
ENDBRANCH   4   5
ENDBRANCH   3   4
ENDBRANCH   2   3
ENDBRANCH   1   2
BRANCH   1  12
ATOM     12  C   UNL     1       5.693  16.109  21.825  1.00  0.00     0.000 C 
BRANCH  12  13
ATOM     13  C   UNL     1       6.921  15.397  22.414  1.00  0.00    -0.000 C 
BRANCH  13  14
ATOM     14  C   UNL     1       8.221  16.197  22.220  1.00  0.00    -0.000 C 
BRANCH  14  15
ATOM     15  C   UNL     1       8.243  16.982  20.888  1.00  0.00    -0.000 C 
BRANCH  15  16
ATOM     16  C   UNL     1       9.643  17.489  20.493  1.00  0.00    -0.000 C 
BRANCH  16  17
ATOM     17  C   UNL     1      10.741  16.413  20.545  1.00  0.00    -0.000 C 
BRANCH  17  18
ATOM     18  C   UNL     1      10.625  15.358  19.419  1.00  0.00    -0.000 C 
BRANCH  18  19
ATOM     19  C   UNL     1      10.865  13.913  19.886  1.00  0.00    -0.003 C 
ATOM     20  C   UNL     1       9.660  13.324  20.620  1.00  0.00     0.004 C 
ENDBRANCH  18  19
ENDBRANCH  17  18
ENDBRANCH  16  17
ENDBRANCH  15  16
ENDBRANCH  14  15
ENDBRANCH  13  14
ENDBRANCH  12  13
ENDBRANCH   1  12
TORSDOF 16
ENDMDL
MODEL 5
REMARK VINA RESULT:    -4.021      5.921     12.668
REMARK INTER + INTRA:          -8.321
REMARK INTER:                  -7.611
REMARK INTRA:                  -0.710
REMARK UNBOUND:                -0.540
REMARK SMILES CCCCCCCCCCCCCCCCCC(=O)[O-]
REMARK SMILES IDX 10 1 11 2 12 3 13 4 14 5 15 6 16 7 17 8 18 9 19 10 20 11
REMARK SMILES IDX 9 12 8 13 7 14 6 15 5 16 4 17 3 18 2 19 1 20
REMARK H PARENT
REMARK Flexibility Score: inf
ROOT
ATOM      1  C   UNL     1       4.458  15.159  22.896  1.00  0.00     0.000 C 
ENDROOT
BRANCH   1   2
ATOM      2  C   UNL     1       5.844  15.801  23.063  1.00  0.00     0.000 C 
BRANCH   2   3
ATOM      3  C   UNL     1       6.637  15.852  21.748  1.00  0.00     0.000 C 
BRANCH   3   4
ATOM      4  C   UNL     1       8.029  16.485  21.921  1.00  0.00     0.000 C 
BRANCH   4   5
ATOM      5  C   UNL     1       8.545  17.154  20.634  1.00  0.00     0.000 C 
BRANCH   5   6
ATOM      6  C   UNL     1      10.080  17.264  20.518  1.00  0.00     0.000 C 
BRANCH   6   7
ATOM      7  C   UNL     1      10.839  15.929  20.620  1.00  0.00     0.006 C 
BRANCH   7   8
ATOM      8  C   UNL     1      10.698  15.067  19.359  1.00  0.00     0.053 C 
BRANCH   8   9
ATOM      9  C   UNL     1      10.155  13.717  19.708  1.00  0.00     0.041 C 
ATOM     10  O   UNL     1       9.531  13.545  20.787  1.00  0.00    -0.550 OA
ATOM     11  O   UNL     1      10.295  12.660  18.817  1.00  0.00    -0.550 OA
ENDBRANCH   8   9
ENDBRANCH   7   8
ENDBRANCH   6   7
ENDBRANCH   5   6
ENDBRANCH   4   5
ENDBRANCH   3   4
ENDBRANCH   2   3
ENDBRANCH   1   2
BRANCH   1  12
ATOM     12  C   UNL     1       3.479  16.137  22.227  1.00  0.00     0.000 C 
BRANCH  12  13
ATOM     13  C   UNL     1       2.091  16.133  22.889  1.00  0.00    -0.000 C 
BRANCH  13  14
ATOM     14  C   UNL     1       0.945  16.080  21.864  1.00  0.00    -0.000 C 
BRANCH  14  15
ATOM     15  C   UNL     1      -0.419  16.472  22.477  1.00  0.00    -0.000 C 
BRANCH  15  16
ATOM     16  C   UNL     1      -1.511  16.751  21.426  1.00  0.00    -0.000 C 
BRANCH  16  17
ATOM     17  C   UNL     1      -2.839  17.255  22.015  1.00  0.00    -0.000 C 
BRANCH  17  18
ATOM     18  C   UNL     1      -3.533  16.227  22.942  1.00  0.00    -0.000 C 
BRANCH  18  19
ATOM     19  C   UNL     1      -5.054  16.129  22.743  1.00  0.00    -0.003 C 
ATOM     20  C   UNL     1      -5.436  15.272  21.536  1.00  0.00     0.004 C 
ENDBRANCH  18  19
ENDBRANCH  17  18
ENDBRANCH  16  17
ENDBRANCH  15  16
ENDBRANCH  14  15
ENDBRANCH  13  14
ENDBRANCH  12  13
ENDBRANCH   1  12
TORSDOF 16
ENDMDL
MODEL 6
REMARK VINA RESULT:    -4.019      5.423     12.415
REMARK INTER + INTRA:          -8.318
REMARK INTER:                  -7.599
REMARK INTRA:                  -0.719
REMARK UNBOUND:                -0.540
REMARK SMILES CCCCCCCCCCCCCCCCCC(=O)[O-]
REMARK SMILES IDX 10 1 11 2 12 3 13 4 14 5 15 6 16 7 17 8 18 9 19 10 20 11
REMARK SMILES IDX 9 12 8 13 7 14 6 15 5 16 4 17 3 18 2 19 1 20
REMARK H PARENT
REMARK Flexibility Score: inf
ROOT
ATOM      1  C   UNL     1      -0.819  15.678  21.372  1.00  0.00     0.000 C 
ENDROOT
BRANCH   1   2
ATOM      2  C   UNL     1       0.286  16.016  22.384  1.00  0.00     0.000 C 
BRANCH   2   3
ATOM      3  C   UNL     1       1.688  16.023  21.753  1.00  0.00     0.000 C 
BRANCH   3   4
ATOM      4  C   UNL     1       2.809  16.080  22.805  1.00  0.00     0.000 C 
BRANCH   4   5
ATOM      5  C   UNL     1       4.216  16.022  22.181  1.00  0.00     0.000 C 
BRANCH   5   6
ATOM      6  C   UNL     1       5.200  15.052  22.865  1.00  0.00     0.000 C 
BRANCH   6   7
ATOM      7  C   UNL     1       6.685  15.439  22.750  1.00  0.00     0.006 C 
BRANCH   7   8
ATOM      8  C   UNL     1       6.961  16.403  21.589  1.00  0.00     0.053 C 
BRANCH   8   9
ATOM      9  C   UNL     1       8.432  16.624  21.432  1.00  0.00     0.041 C 
ATOM     10  O   UNL     1       8.868  17.737  21.038  1.00  0.00    -0.550 OA
ATOM     11  O   UNL     1       9.327  15.616  21.770  1.00  0.00    -0.550 OA
ENDBRANCH   8   9
ENDBRANCH   7   8
ENDBRANCH   6   7
ENDBRANCH   5   6
ENDBRANCH   4   5
ENDBRANCH   3   4
ENDBRANCH   2   3
ENDBRANCH   1   2
BRANCH   1  12
ATOM     12  C   UNL     1      -1.991  16.667  21.489  1.00  0.00     0.000 C 
BRANCH  12  13
ATOM     13  C   UNL     1      -3.035  16.230  22.529  1.00  0.00    -0.000 C 
BRANCH  13  14
ATOM     14  C   UNL     1      -4.474  16.567  22.102  1.00  0.00    -0.000 C 
BRANCH  14  15
ATOM     15  C   UNL     1      -5.118  15.452  21.246  1.00  0.00    -0.000 C 
BRANCH  15  16
ATOM     16  C   UNL     1      -6.194  14.643  21.994  1.00  0.00    -0.000 C 
BRANCH  16  17
ATOM     17  C   UNL     1      -7.604  14.759  21.390  1.00  0.00    -0.000 C 
BRANCH  17  18
ATOM     18  C   UNL     1      -8.523  15.745  22.153  1.00  0.00    -0.000 C 
BRANCH  18  19
ATOM     19  C   UNL     1      -9.123  16.852  21.271  1.00  0.00    -0.003 C 
ATOM     20  C   UNL     1      -8.079  17.525  20.379  1.00  0.00     0.004 C 
ENDBRANCH  18  19
ENDBRANCH  17  18
ENDBRANCH  16  17
ENDBRANCH  15  16
ENDBRANCH  14  15
ENDBRANCH  13  14
ENDBRANCH  12  13
ENDBRANCH   1  12
TORSDOF 16
ENDMDL
MODEL 7
REMARK VINA RESULT:    -3.895      5.838     12.713
REMARK INTER + INTRA:          -8.077
REMARK INTER:                  -7.546
REMARK INTRA:                  -0.531
REMARK UNBOUND:                -0.540
REMARK SMILES CCCCCCCCCCCCCCCCCC(=O)[O-]
REMARK SMILES IDX 10 1 11 2 12 3 13 4 14 5 15 6 16 7 17 8 18 9 19 10 20 11
REMARK SMILES IDX 9 12 8 13 7 14 6 15 5 16 4 17 3 18 2 19 1 20
REMARK H PARENT
REMARK Flexibility Score: inf
ROOT
ATOM      1  C   UNL     1       2.088  16.051  22.965  1.00  0.00     0.000 C 
ENDROOT
BRANCH   1   2
ATOM      2  C   UNL     1       3.396  16.070  22.160  1.00  0.00     0.000 C 
BRANCH   2   3
ATOM      3  C   UNL     1       4.566  15.413  22.912  1.00  0.00     0.000 C 
BRANCH   3   4
ATOM      4  C   UNL     1       5.748  15.077  21.987  1.00  0.00     0.000 C 
BRANCH   4   5
ATOM      5  C   UNL     1       6.422  16.330  21.399  1.00  0.00     0.000 C 
BRANCH   5   6
ATOM      6  C   UNL     1       7.835  16.633  21.939  1.00  0.00     0.000 C 
BRANCH   6   7
ATOM      7  C   UNL     1       8.887  16.964  20.866  1.00  0.00     0.006 C 
BRANCH   7   8
ATOM      8  C   UNL     1      10.165  16.127  21.007  1.00  0.00     0.053 C 
BRANCH   8   9
ATOM      9  C   UNL     1      10.103  14.927  20.116  1.00  0.00     0.041 C 
ATOM     10  O   UNL     1       9.361  13.955  20.411  1.00  0.00    -0.550 OA
ATOM     11  O   UNL     1      10.828  14.903  18.931  1.00  0.00    -0.550 OA
ENDBRANCH   8   9
ENDBRANCH   7   8
ENDBRANCH   6   7
ENDBRANCH   5   6
ENDBRANCH   4   5
ENDBRANCH   3   4
ENDBRANCH   2   3
ENDBRANCH   1   2
BRANCH   1  12
ATOM     12  C   UNL     1       0.870  15.974  22.029  1.00  0.00     0.000 C 
BRANCH  12  13
ATOM     13  C   UNL     1      -0.421  16.478  22.693  1.00  0.00    -0.000 C 
BRANCH  13  14
ATOM     14  C   UNL     1      -1.593  16.589  21.702  1.00  0.00    -0.000 C 
BRANCH  14  15
ATOM     15  C   UNL     1      -2.964  16.345  22.373  1.00  0.00    -0.000 C 
BRANCH  15  16
ATOM     16  C   UNL     1      -4.017  17.418  22.035  1.00  0.00    -0.000 C 
BRANCH  16  17
ATOM     17  C   UNL     1      -5.472  16.939  22.172  1.00  0.00    -0.000 C 
BRANCH  17  18
ATOM     18  C   UNL     1      -5.608  15.401  22.284  1.00  0.00    -0.000 C 
BRANCH  18  19
ATOM     19  C   UNL     1      -6.541  14.776  21.234  1.00  0.00    -0.003 C 
ATOM     20  C   UNL     1      -8.007  14.787  21.668  1.00  0.00     0.004 C 
ENDBRANCH  18  19
ENDBRANCH  17  18
ENDBRANCH  16  17
ENDBRANCH  15  16
ENDBRANCH  14  15
ENDBRANCH  13  14
ENDBRANCH  12  13
ENDBRANCH   1  12
TORSDOF 16
ENDMDL
MODEL 8
REMARK VINA RESULT:    -3.853      1.412      3.130
REMARK INTER + INTRA:          -7.996
REMARK INTER:                  -7.179
REMARK INTRA:                  -0.817
REMARK UNBOUND:                -0.540
REMARK SMILES CCCCCCCCCCCCCCCCCC(=O)[O-]
REMARK SMILES IDX 10 1 11 2 12 3 13 4 14 5 15 6 16 7 17 8 18 9 19 10 20 11
REMARK SMILES IDX 9 12 8 13 7 14 6 15 5 16 4 17 3 18 2 19 1 20
REMARK H PARENT
REMARK Flexibility Score: inf
ROOT
ATOM      1  C   UNL     1       3.625  16.370  21.819  1.00  0.00     0.000 C 
ENDROOT
BRANCH   1   2
ATOM      2  C   UNL     1       2.304  16.392  22.604  1.00  0.00     0.000 C 
BRANCH   2   3
ATOM      3  C   UNL     1       1.087  16.057  21.727  1.00  0.00     0.000 C 
BRANCH   3   4
ATOM      4  C   UNL     1      -0.239  16.126  22.505  1.00  0.00     0.000 C 
BRANCH   4   5
ATOM      5  C   UNL     1      -1.362  16.819  21.712  1.00  0.00     0.000 C 
BRANCH   5   6
ATOM      6  C   UNL     1      -2.396  17.583  22.565  1.00  0.00     0.000 C 
BRANCH   6   7
ATOM      7  C   UNL     1      -3.862  17.393  22.138  1.00  0.00     0.006 C 
BRANCH   7   8
ATOM      8  C   UNL     1      -4.435  16.035  22.565  1.00  0.00     0.053 C 
BRANCH   8   9
ATOM      9  C   UNL     1      -5.767  15.806  21.924  1.00  0.00     0.041 C 
ATOM     10  O   UNL     1      -6.484  16.783  21.585  1.00  0.00    -0.550 OA
ATOM     11  O   UNL     1      -6.195  14.512  21.654  1.00  0.00    -0.550 OA
ENDBRANCH   8   9
ENDBRANCH   7   8
ENDBRANCH   6   7
ENDBRANCH   5   6
ENDBRANCH   4   5
ENDBRANCH   3   4
ENDBRANCH   2   3
ENDBRANCH   1   2
BRANCH   1  12
ATOM     12  C   UNL     1       4.646  15.438  22.491  1.00  0.00     0.000 C 
BRANCH  12  13
ATOM     13  C   UNL     1       6.100  15.846  22.205  1.00  0.00    -0.000 C 
BRANCH  13  14
ATOM     14  C   UNL     1       7.119  14.824  22.737  1.00  0.00    -0.000 C 
BRANCH  14  15
ATOM     15  C   UNL     1       7.898  14.116  21.604  1.00  0.00    -0.000 C 
BRANCH  15  16
ATOM     16  C   UNL     1       9.360  13.793  21.969  1.00  0.00    -0.000 C 
BRANCH  16  17
ATOM     17  C   UNL     1      10.338  14.959  21.750  1.00  0.00    -0.000 C 
BRANCH  17  18
ATOM     18  C   UNL     1      10.317  15.519  20.307  1.00  0.00    -0.000 C 
BRANCH  18  19
ATOM     19  C   UNL     1      10.231  17.052  20.229  1.00  0.00    -0.003 C 
ATOM     20  C   UNL     1       8.931  17.599  20.821  1.00  0.00     0.004 C 
ENDBRANCH  18  19
ENDBRANCH  17  18
ENDBRANCH  16  17
ENDBRANCH  15  16
ENDBRANCH  14  15
ENDBRANCH  13  14
ENDBRANCH  12  13
ENDBRANCH   1  12
TORSDOF 16
ENDMDL
MODEL 9
REMARK VINA RESULT:    -3.787      5.241     12.054
REMARK INTER + INTRA:          -7.868
REMARK INTER:                  -6.789
REMARK INTRA:                  -1.079
REMARK UNBOUND:                -0.540
REMARK SMILES CCCCCCCCCCCCCCCCCC(=O)[O-]
REMARK SMILES IDX 10 1 11 2 12 3 13 4 14 5 15 6 16 7 17 8 18 9 19 10 20 11
REMARK SMILES IDX 9 12 8 13 7 14 6 15 5 16 4 17 3 18 2 19 1 20
REMARK H PARENT
REMARK Flexibility Score: inf
ROOT
ATOM      1  C   UNL     1      -2.100  16.057  21.629  1.00  0.00     0.000 C 
ENDROOT
BRANCH   1   2
ATOM      2  C   UNL     1      -0.734  16.759  21.579  1.00  0.00     0.000 C 
BRANCH   2   3
ATOM      3  C   UNL     1       0.346  16.015  22.380  1.00  0.00     0.000 C 
BRANCH   3   4
ATOM      4  C   UNL     1       1.767  16.300  21.864  1.00  0.00     0.000 C 
BRANCH   4   5
ATOM      5  C   UNL     1       2.853  16.024  22.920  1.00  0.00     0.000 C 
BRANCH   5   6
ATOM      6  C   UNL     1       4.094  15.267  22.406  1.00  0.00     0.000 C 
BRANCH   6   7
ATOM      7  C   UNL     1       5.429  15.689  23.046  1.00  0.00     0.006 C 
BRANCH   7   8
ATOM      8  C   UNL     1       6.508  16.021  22.007  1.00  0.00     0.053 C 
BRANCH   8   9
ATOM      9  C   UNL     1       7.636  15.042  22.096  1.00  0.00     0.041 C 
ATOM     10  O   UNL     1       8.794  15.435  22.394  1.00  0.00    -0.550 OA
ATOM     11  O   UNL     1       7.398  13.687  21.900  1.00  0.00    -0.550 OA
ENDBRANCH   8   9
ENDBRANCH   7   8
ENDBRANCH   6   7
ENDBRANCH   5   6
ENDBRANCH   4   5
ENDBRANCH   3   4
ENDBRANCH   2   3
ENDBRANCH   1   2
BRANCH   1  12
ATOM     12  C   UNL     1      -2.973  16.638  22.754  1.00  0.00     0.000 C 
BRANCH  12  13
ATOM     13  C   UNL     1      -4.279  15.852  22.958  1.00  0.00    -0.000 C 
BRANCH  13  14
ATOM     14  C   UNL     1      -5.020  15.581  21.638  1.00  0.00    -0.000 C 
BRANCH  14  15
ATOM     15  C   UNL     1      -6.224  14.628  21.817  1.00  0.00    -0.000 C 
BRANCH  15  16
ATOM     16  C   UNL     1      -7.547  15.193  21.265  1.00  0.00    -0.000 C 
BRANCH  16  17
ATOM     17  C   UNL     1      -7.470  16.666  20.829  1.00  0.00    -0.000 C 
BRANCH  17  18
ATOM     18  C   UNL     1      -8.296  17.619  21.727  1.00  0.00    -0.000 C 
BRANCH  18  19
ATOM     19  C   UNL     1      -7.647  17.919  23.087  1.00  0.00    -0.003 C 
ATOM     20  C   UNL     1      -6.423  18.828  22.968  1.00  0.00     0.004 C 
ENDBRANCH  18  19
ENDBRANCH  17  18
ENDBRANCH  16  17
ENDBRANCH  15  16
ENDBRANCH  14  15
ENDBRANCH  13  14
ENDBRANCH  12  13
ENDBRANCH   1  12
TORSDOF 16
ENDMDL
