MODEL 1
REMARK VINA RESULT:    -4.845      0.000      0.000
REMARK INTER + INTRA:          -5.859
REMARK INTER:                  -5.695
REMARK INTRA:                  -0.164
REMARK UNBOUND:                -0.164
REMARK SMILES COc1ccc(C=CC(=O)[O-])cc1
REMARK SMILES IDX 6 1 5 2 12 3 4 4 13 5 3 6 7 7 8 8 9 9 10 10 11 11 2 12 1 13
REMARK H PARENT
REMARK Flexibility Score: inf
ROOT
ATOM      1  C   UNL     1       4.017   5.311   0.284  1.00  0.00    -0.025 A 
ATOM      2  C   UNL     1       4.799   4.148   0.388  1.00  0.00     0.012 A 
ATOM      3  C   UNL     1       2.968   5.341  -0.656  1.00  0.00     0.012 A 
ATOM      4  C   UNL     1       4.526   3.031  -0.407  1.00  0.00     0.047 A 
ATOM      5  C   UNL     1       2.697   4.223  -1.451  1.00  0.00     0.047 A 
ATOM      6  C   UNL     1       3.467   3.061  -1.333  1.00  0.00     0.118 A 
ENDROOT
BRANCH   1   7
ATOM      7  C   UNL     1       4.354   6.473   1.143  1.00  0.00     0.010 C 
ATOM      8  C   UNL     1       5.378   7.303   0.906  1.00  0.00     0.025 C 
BRANCH   8   9
ATOM      9  C   UNL     1       5.669   8.451   1.780  1.00  0.00     0.064 C 
ATOM     10  O   UNL     1       4.843   8.778   2.671  1.00  0.00    -0.545 OA
ATOM     11  O   UNL     1       6.842   9.182   1.637  1.00  0.00    -0.545 OA
ENDBRANCH   8   9
ENDBRANCH   1   7
BRANCH   6  12
ATOM     12  O   UNL     1       3.153   1.967  -2.153  1.00  0.00    -0.497 OA
ATOM     13  C   UNL     1       4.106   1.030  -2.645  1.00  0.00     0.278 C 
ENDBRANCH   6  12
TORSDOF 3
ENDMDL
MODEL 2
REMARK VINA RESULT:    -4.841      0.058      1.344
REMARK INTER + INTRA:          -5.854
REMARK INTER:                  -5.693
REMARK INTRA:                  -0.161
REMARK UNBOUND:                -0.164
REMARK SMILES COc1ccc(C=CC(=O)[O-])cc1
REMARK SMILES IDX 6 1 5 2 12 3 4 4 13 5 3 6 7 7 8 8 9 9 10 10 11 11 2 12 1 13
REMARK H PARENT
REMARK Flexibility Score: inf
ROOT
ATOM      1  C   UNL     1       4.066   5.296   0.242  1.00  0.00    -0.025 A 
ATOM      2  C   UNL     1       2.990   5.336  -0.660  1.00  0.00     0.012 A 
ATOM      3  C   UNL     1       4.813   4.107   0.355  1.00  0.00     0.012 A 
ATOM      4  C   UNL     1       2.680   4.226  -1.451  1.00  0.00     0.047 A 
ATOM      5  C   UNL     1       4.500   2.997  -0.436  1.00  0.00     0.047 A 
ATOM      6  C   UNL     1       3.438   3.046  -1.345  1.00  0.00     0.118 A 
ENDROOT
BRANCH   1   7
ATOM      7  C   UNL     1       4.348   6.499   1.066  1.00  0.00     0.010 C 
ATOM      8  C   UNL     1       5.450   7.249   0.936  1.00  0.00     0.025 C 
BRANCH   8   9
ATOM      9  C   UNL     1       5.683   8.440   1.767  1.00  0.00     0.064 C 
ATOM     10  O   UNL     1       4.849   8.750   2.656  1.00  0.00    -0.545 OA
ATOM     11  O   UNL     1       6.811   9.232   1.585  1.00  0.00    -0.545 OA
ENDBRANCH   8   9
ENDBRANCH   1   7
BRANCH   6  12
ATOM     12  O   UNL     1       3.168   1.905  -2.116  1.00  0.00    -0.497 OA
ATOM     13  C   UNL     1       4.165   1.035  -2.641  1.00  0.00     0.278 C 
ENDBRANCH   6  12
TORSDOF 3
ENDMDL
MODEL 3
REMARK VINA RESULT:    -4.558      1.973      6.794
REMARK INTER + INTRA:          -5.521
REMARK INTER:                  -5.359
REMARK INTRA:                  -0.163
REMARK UNBOUND:                -0.164
REMARK SMILES COc1ccc(C=CC(=O)[O-])cc1
REMARK SMILES IDX 6 1 5 2 12 3 4 4 13 5 3 6 7 7 8 8 9 9 10 10 11 11 2 12 1 13
REMARK H PARENT
REMARK Flexibility Score: inf
ROOT
ATOM      1  C   UNL     1       5.215   7.234   1.324  1.00  0.00    -0.025 A 
ATOM      2  C   UNL     1       4.438   7.648   2.419  1.00  0.00     0.012 A 
ATOM      3  C   UNL     1       6.335   8.005   0.958  1.00  0.00     0.012 A 
ATOM      4  C   UNL     1       4.784   8.790   3.148  1.00  0.00     0.047 A 
ATOM      5  C   UNL     1       6.679   9.147   1.687  1.00  0.00     0.047 A 
ATOM      6  C   UNL     1       5.912   9.548   2.787  1.00  0.00     0.118 A 
ENDROOT
BRANCH   1   7
ATOM      7  C   UNL     1       4.800   6.021   0.577  1.00  0.00     0.010 C 
ATOM      8  C   UNL     1       3.604   5.880  -0.009  1.00  0.00     0.025 C 
BRANCH   8   9
ATOM      9  C   UNL     1       3.239   4.662  -0.750  1.00  0.00     0.064 C 
ATOM     10  O   UNL     1       2.108   4.582  -1.296  1.00  0.00    -0.545 OA
ATOM     11  O   UNL     1       4.124   3.595  -0.855  1.00  0.00    -0.545 OA
ENDBRANCH   8   9
ENDBRANCH   1   7
BRANCH   6  12
ATOM     12  O   UNL     1       6.301  10.700   3.487  1.00  0.00    -0.497 OA
ATOM     13  C   UNL     1       5.556  11.913   3.515  1.00  0.00     0.278 C 
ENDBRANCH   6  12
TORSDOF 3
ENDMDL
MODEL 4
REMARK VINA RESULT:    -4.491      1.240      6.337
REMARK INTER + INTRA:          -5.443
REMARK INTER:                  -5.285
REMARK INTRA:                  -0.158
REMARK UNBOUND:                -0.164
REMARK SMILES COc1ccc(C=CC(=O)[O-])cc1
REMARK SMILES IDX 6 1 5 2 12 3 4 4 13 5 3 6 7 7 8 8 9 9 10 10 11 11 2 12 1 13
REMARK H PARENT
REMARK Flexibility Score: inf
ROOT
ATOM      1  C   UNL     1       4.035   4.208  -0.161  1.00  0.00    -0.025 A 
ATOM      2  C   UNL     1       3.531   5.404  -0.696  1.00  0.00     0.012 A 
ATOM      3  C   UNL     1       5.000   4.277   0.863  1.00  0.00     0.012 A 
ATOM      4  C   UNL     1       3.957   6.642  -0.205  1.00  0.00     0.047 A 
ATOM      5  C   UNL     1       5.426   5.515   1.353  1.00  0.00     0.047 A 
ATOM      6  C   UNL     1       4.909   6.705   0.829  1.00  0.00     0.118 A 
ENDROOT
BRANCH   1   7
ATOM      7  C   UNL     1       3.558   2.920  -0.724  1.00  0.00     0.010 C 
ATOM      8  C   UNL     1       4.132   2.304  -1.766  1.00  0.00     0.025 C 
BRANCH   8   9
ATOM      9  C   UNL     1       3.631   1.022  -2.284  1.00  0.00     0.064 C 
ATOM     10  O   UNL     1       2.422   0.916  -2.619  1.00  0.00    -0.545 OA
ATOM     11  O   UNL     1       4.471  -0.079  -2.410  1.00  0.00    -0.545 OA
ENDBRANCH   8   9
ENDBRANCH   1   7
BRANCH   6  12
ATOM     12  O   UNL     1       5.368   7.921   1.356  1.00  0.00    -0.497 OA
ATOM     13  C   UNL     1       6.691   8.421   1.190  1.00  0.00     0.278 C 
ENDBRANCH   6  12
TORSDOF 3
ENDMDL
MODEL 5
REMARK VINA RESULT:    -4.356      5.135      7.901
REMARK INTER + INTRA:          -5.284
REMARK INTER:                  -5.122
REMARK INTRA:                  -0.162
REMARK UNBOUND:                -0.164
REMARK SMILES COc1ccc(C=CC(=O)[O-])cc1
REMARK SMILES IDX 6 1 5 2 12 3 4 4 13 5 3 6 7 7 8 8 9 9 10 10 11 11 2 12 1 13
REMARK H PARENT
REMARK Flexibility Score: inf
ROOT
ATOM      1  C   UNL     1       3.199  10.117   5.133  1.00  0.00    -0.025 A 
ATOM      2  C   UNL     1       4.081  11.087   4.628  1.00  0.00     0.012 A 
ATOM      3  C   UNL     1       3.241   8.817   4.594  1.00  0.00     0.012 A 
ATOM      4  C   UNL     1       5.001  10.764   3.627  1.00  0.00     0.047 A 
ATOM      5  C   UNL     1       4.161   8.495   3.591  1.00  0.00     0.047 A 
ATOM      6  C   UNL     1       5.048   9.459   3.102  1.00  0.00     0.118 A 
ENDROOT
BRANCH   1   7
ATOM      7  C   UNL     1       2.235  10.514   6.190  1.00  0.00     0.010 C 
ATOM      8  C   UNL     1       2.518  10.502   7.499  1.00  0.00     0.025 C 
BRANCH   8   9
ATOM      9  C   UNL     1       1.534  10.915   8.511  1.00  0.00     0.064 C 
ATOM     10  O   UNL     1       1.840  10.868   9.731  1.00  0.00    -0.545 OA
ATOM     11  O   UNL     1       0.268  11.357   8.143  1.00  0.00    -0.545 OA
ENDBRANCH   8   9
ENDBRANCH   1   7
BRANCH   6  12
ATOM     12  O   UNL     1       5.953   9.084   2.098  1.00  0.00    -0.497 OA
ATOM     13  C   UNL     1       5.809   7.929   1.276  1.00  0.00     0.278 C 
ENDBRANCH   6  12
TORSDOF 3
ENDMDL
MODEL 6
REMARK VINA RESULT:    -4.348      4.640      8.335
REMARK INTER + INTRA:          -5.275
REMARK INTER:                  -5.106
REMARK INTRA:                  -0.168
REMARK UNBOUND:                -0.164
REMARK SMILES COc1ccc(C=CC(=O)[O-])cc1
REMARK SMILES IDX 6 1 5 2 12 3 4 4 13 5 3 6 7 7 8 8 9 9 10 10 11 11 2 12 1 13
REMARK H PARENT
REMARK Flexibility Score: inf
ROOT
ATOM      1  C   UNL     1       4.351  10.173   3.996  1.00  0.00    -0.025 A 
ATOM      2  C   UNL     1       4.405  11.538   4.324  1.00  0.00     0.012 A 
ATOM      3  C   UNL     1       3.404   9.357   4.646  1.00  0.00     0.012 A 
ATOM      4  C   UNL     1       3.520  12.083   5.260  1.00  0.00     0.047 A 
ATOM      5  C   UNL     1       2.522   9.903   5.582  1.00  0.00     0.047 A 
ATOM      6  C   UNL     1       2.567  11.266   5.895  1.00  0.00     0.118 A 
ENDROOT
BRANCH   1   7
ATOM      7  C   UNL     1       5.318   9.642   3.003  1.00  0.00     0.010 C 
ATOM      8  C   UNL     1       5.151   8.488   2.345  1.00  0.00     0.025 C 
BRANCH   8   9
ATOM      9  C   UNL     1       6.132   8.005   1.360  1.00  0.00     0.064 C 
ATOM     10  O   UNL     1       7.020   8.788   0.932  1.00  0.00    -0.545 OA
ATOM     11  O   UNL     1       6.094   6.697   0.891  1.00  0.00    -0.545 OA
ENDBRANCH   8   9
ENDBRANCH   1   7
BRANCH   6  12
ATOM     12  O   UNL     1       1.658  11.764   6.839  1.00  0.00    -0.497 OA
ATOM     13  C   UNL     1       1.185  11.031   7.965  1.00  0.00     0.278 C 
ENDBRANCH   6  12
TORSDOF 3
ENDMDL
MODEL 7
REMARK VINA RESULT:    -4.315      3.894      6.022
REMARK INTER + INTRA:          -5.237
REMARK INTER:                  -5.059
REMARK INTRA:                  -0.177
REMARK UNBOUND:                -0.164
REMARK SMILES COc1ccc(C=CC(=O)[O-])cc1
REMARK SMILES IDX 6 1 5 2 12 3 4 4 13 5 3 6 7 7 8 8 9 9 10 10 11 11 2 12 1 13
REMARK H PARENT
REMARK Flexibility Score: inf
ROOT
ATOM      1  C   UNL     1       4.122   9.286   3.922  1.00  0.00    -0.025 A 
ATOM      2  C   UNL     1       3.536   8.009   3.911  1.00  0.00     0.012 A 
ATOM      3  C   UNL     1       5.114   9.584   2.968  1.00  0.00     0.012 A 
ATOM      4  C   UNL     1       3.912   7.059   2.956  1.00  0.00     0.047 A 
ATOM      5  C   UNL     1       5.490   8.633   2.015  1.00  0.00     0.047 A 
ATOM      6  C   UNL     1       4.893   7.368   1.997  1.00  0.00     0.118 A 
ENDROOT
BRANCH   1   7
ATOM      7  C   UNL     1       3.695  10.254   4.962  1.00  0.00     0.010 C 
ATOM      8  C   UNL     1       2.543  10.161   5.639  1.00  0.00     0.025 C 
BRANCH   8   9
ATOM      9  C   UNL     1       2.165  11.139   6.671  1.00  0.00     0.064 C 
ATOM     10  O   UNL     1       2.884  12.154   6.858  1.00  0.00    -0.545 OA
ATOM     11  O   UNL     1       1.026  10.959   7.447  1.00  0.00    -0.545 OA
ENDBRANCH   8   9
ENDBRANCH   1   7
BRANCH   6  12
ATOM     12  O   UNL     1       5.304   6.451   1.018  1.00  0.00    -0.497 OA
ATOM     13  C   UNL     1       4.466   5.446   0.455  1.00  0.00     0.278 C 
ENDBRANCH   6  12
TORSDOF 3
ENDMDL
MODEL 8
REMARK VINA RESULT:    -4.280      1.325      6.361
REMARK INTER + INTRA:          -5.195
REMARK INTER:                  -5.025
REMARK INTRA:                  -0.170
REMARK UNBOUND:                -0.164
REMARK SMILES COc1ccc(C=CC(=O)[O-])cc1
REMARK SMILES IDX 6 1 5 2 12 3 4 4 13 5 3 6 7 7 8 8 9 9 10 10 11 11 2 12 1 13
REMARK H PARENT
REMARK Flexibility Score: inf
ROOT
ATOM      1  C   UNL     1       4.051   5.864   0.443  1.00  0.00    -0.025 A 
ATOM      2  C   UNL     1       3.596   5.733   1.766  1.00  0.00     0.012 A 
ATOM      3  C   UNL     1       4.921   6.926   0.129  1.00  0.00     0.012 A 
ATOM      4  C   UNL     1       4.017   6.623   2.758  1.00  0.00     0.047 A 
ATOM      5  C   UNL     1       5.340   7.816   1.121  1.00  0.00     0.047 A 
ATOM      6  C   UNL     1       4.898   7.673   2.441  1.00  0.00     0.118 A 
ENDROOT
BRANCH   1   7
ATOM      7  C   UNL     1       3.566   4.898  -0.574  1.00  0.00     0.010 C 
ATOM      8  C   UNL     1       3.413   3.588  -0.343  1.00  0.00     0.025 C 
BRANCH   8   9
ATOM      9  C   UNL     1       2.918   2.668  -1.379  1.00  0.00     0.064 C 
ATOM     10  O   UNL     1       3.426   2.697  -2.530  1.00  0.00    -0.545 OA
ATOM     11  O   UNL     1       1.894   1.766  -1.109  1.00  0.00    -0.545 OA
ENDBRANCH   8   9
ENDBRANCH   1   7
BRANCH   6  12
ATOM     12  O   UNL     1       5.350   8.592   3.399  1.00  0.00    -0.497 OA
ATOM     13  C   UNL     1       5.251  10.007   3.266  1.00  0.00     0.278 C 
ENDBRANCH   6  12
TORSDOF 3
ENDMDL
MODEL 9
REMARK VINA RESULT:    -4.243      3.275      5.233
REMARK INTER + INTRA:          -5.151
REMARK INTER:                  -4.981
REMARK INTRA:                  -0.171
REMARK UNBOUND:                -0.164
REMARK SMILES COc1ccc(C=CC(=O)[O-])cc1
REMARK SMILES IDX 6 1 5 2 12 3 4 4 13 5 3 6 7 7 8 8 9 9 10 10 11 11 2 12 1 13
REMARK H PARENT
REMARK Flexibility Score: inf
ROOT
ATOM      1  C   UNL     1       4.674   9.164   3.465  1.00  0.00    -0.025 A 
ATOM      2  C   UNL     1       5.511   9.128   2.337  1.00  0.00     0.012 A 
ATOM      3  C   UNL     1       3.826   8.067   3.714  1.00  0.00     0.012 A 
ATOM      4  C   UNL     1       5.522   8.016   1.490  1.00  0.00     0.047 A 
ATOM      5  C   UNL     1       3.836   6.956   2.866  1.00  0.00     0.047 A 
ATOM      6  C   UNL     1       4.683   6.917   1.752  1.00  0.00     0.118 A 
ENDROOT
BRANCH   1   7
ATOM      7  C   UNL     1       4.694  10.372   4.327  1.00  0.00     0.010 C 
ATOM      8  C   UNL     1       4.984  11.601   3.879  1.00  0.00     0.025 C 
BRANCH   8   9
ATOM      9  C   UNL     1       4.980  12.773   4.768  1.00  0.00     0.064 C 
ATOM     10  O   UNL     1       3.988  12.986   5.513  1.00  0.00    -0.545 OA
ATOM     11  O   UNL     1       6.056  13.654   4.799  1.00  0.00    -0.545 OA
ENDBRANCH   8   9
ENDBRANCH   1   7
BRANCH   6  12
ATOM     12  O   UNL     1       4.657   5.778   0.934  1.00  0.00    -0.497 OA
ATOM     13  C   UNL     1       3.581   5.436   0.066  1.00  0.00     0.278 C 
ENDBRANCH   6  12
TORSDOF 3
ENDMDL
