MODEL 1
REMARK VINA RESULT:    -4.921      0.000      0.000
REMARK INTER + INTRA:          -5.532
REMARK INTER:                  -5.209
REMARK INTRA:                  -0.323
REMARK UNBOUND:                -0.323
REMARK SMILES c1ccc(-c2ccccc2)cc1
REMARK SMILES IDX 1 1 2 2 3 3 4 4 11 5 12 6 5 7 6 8 10 9 7 10 9 11 8 12
REMARK H PARENT
REMARK Flexibility Score: inf
ROOT
ATOM      1  C   UNL     1       1.725  -4.938   8.924  1.00  0.00     0.000 A 
ATOM      2  C   UNL     1       2.629  -4.017   9.459  1.00  0.00     0.001 A 
ATOM      3  C   UNL     1       2.385  -2.646   9.340  1.00  0.00     0.009 A 
ATOM      4  C   UNL     1       1.231  -2.181   8.682  1.00  0.00    -0.018 A 
ATOM      5  C   UNL     1       0.327  -3.120   8.147  1.00  0.00     0.009 A 
ATOM      6  C   UNL     1       0.577  -4.490   8.269  1.00  0.00     0.001 A 
ENDROOT
BRANCH   4   7
ATOM      7  C   UNL     1       0.968  -0.723   8.554  1.00  0.00    -0.018 A 
ATOM      8  C   UNL     1       1.925   0.216   8.984  1.00  0.00     0.009 A 
ATOM      9  C   UNL     1      -0.240  -0.259   8.001  1.00  0.00     0.009 A 
ATOM     10  C   UNL     1       1.676   1.586   8.862  1.00  0.00     0.001 A 
ATOM     11  C   UNL     1      -0.484   1.112   7.882  1.00  0.00     0.001 A 
ATOM     12  C   UNL     1       0.473   2.034   8.312  1.00  0.00     0.000 A 
ENDBRANCH   4   7
TORSDOF 1
ENDMDL
MODEL 2
REMARK VINA RESULT:    -4.921      0.044      1.399
REMARK INTER + INTRA:          -5.531
REMARK INTER:                  -5.208
REMARK INTRA:                  -0.323
REMARK UNBOUND:                -0.323
REMARK SMILES c1ccc(-c2ccccc2)cc1
REMARK SMILES IDX 1 1 2 2 3 3 4 4 11 5 12 6 5 7 6 8 10 9 7 10 9 11 8 12
REMARK H PARENT
REMARK Flexibility Score: inf
ROOT
ATOM      1  C   UNL     1       1.780  -4.904   8.944  1.00  0.00     0.000 A 
ATOM      2  C   UNL     1       0.629  -4.469   8.284  1.00  0.00     0.001 A 
ATOM      3  C   UNL     1       0.368  -3.102   8.156  1.00  0.00     0.009 A 
ATOM      4  C   UNL     1       1.260  -2.153   8.689  1.00  0.00    -0.018 A 
ATOM      5  C   UNL     1       2.418  -2.605   9.353  1.00  0.00     0.009 A 
ATOM      6  C   UNL     1       2.672  -3.974   9.479  1.00  0.00     0.001 A 
ENDROOT
BRANCH   4   7
ATOM      7  C   UNL     1       0.987  -0.698   8.554  1.00  0.00    -0.018 A 
ATOM      8  C   UNL     1       1.938   0.250   8.975  1.00  0.00     0.009 A 
ATOM      9  C   UNL     1      -0.227  -0.246   8.005  1.00  0.00     0.009 A 
ATOM     10  C   UNL     1       1.679   1.618   8.847  1.00  0.00     0.001 A 
ATOM     11  C   UNL     1      -0.482   1.123   7.880  1.00  0.00     0.001 A 
ATOM     12  C   UNL     1       0.471   2.055   8.301  1.00  0.00     0.000 A 
ENDBRANCH   4   7
TORSDOF 1
ENDMDL
MODEL 3
REMARK VINA RESULT:    -4.920      0.230      1.987
REMARK INTER + INTRA:          -5.531
REMARK INTER:                  -5.208
REMARK INTRA:                  -0.323
REMARK UNBOUND:                -0.323
REMARK SMILES c1ccc(-c2ccccc2)cc1
REMARK SMILES IDX 1 1 2 2 3 3 4 4 11 5 12 6 5 7 6 8 10 9 7 10 9 11 8 12
REMARK H PARENT
REMARK Flexibility Score: inf
ROOT
ATOM      1  C   UNL     1       1.430  -5.019   8.697  1.00  0.00     0.000 A 
ATOM      2  C   UNL     1       0.335  -4.472   8.024  1.00  0.00     0.001 A 
ATOM      3  C   UNL     1       0.170  -3.086   7.963  1.00  0.00     0.009 A 
ATOM      4  C   UNL     1       1.105  -2.229   8.575  1.00  0.00    -0.018 A 
ATOM      5  C   UNL     1       2.205  -2.793   9.250  1.00  0.00     0.009 A 
ATOM      6  C   UNL     1       2.363  -4.181   9.309  1.00  0.00     0.001 A 
ENDROOT
BRANCH   4   7
ATOM      7  C   UNL     1       0.934  -0.754   8.512  1.00  0.00    -0.018 A 
ATOM      8  C   UNL     1      -0.221  -0.192   7.935  1.00  0.00     0.009 A 
ATOM      9  C   UNL     1       1.923   0.104   9.027  1.00  0.00     0.009 A 
ATOM     10  C   UNL     1      -0.379   1.196   7.877  1.00  0.00     0.001 A 
ATOM     11  C   UNL     1       1.759   1.491   8.966  1.00  0.00     0.001 A 
ATOM     12  C   UNL     1       0.609   2.037   8.391  1.00  0.00     0.000 A 
ENDBRANCH   4   7
TORSDOF 1
ENDMDL
MODEL 4
REMARK VINA RESULT:    -4.919      0.129      1.403
REMARK INTER + INTRA:          -5.530
REMARK INTER:                  -5.207
REMARK INTRA:                  -0.322
REMARK UNBOUND:                -0.323
REMARK SMILES c1ccc(-c2ccccc2)cc1
REMARK SMILES IDX 1 1 2 2 3 3 4 4 11 5 12 6 5 7 6 8 10 9 7 10 9 11 8 12
REMARK H PARENT
REMARK Flexibility Score: inf
ROOT
ATOM      1  C   UNL     1       1.849  -4.832   8.995  1.00  0.00     0.000 A 
ATOM      2  C   UNL     1       2.727  -3.872   9.500  1.00  0.00     0.001 A 
ATOM      3  C   UNL     1       2.439  -2.512   9.355  1.00  0.00     0.009 A 
ATOM      4  C   UNL     1       1.264  -2.098   8.700  1.00  0.00    -0.018 A 
ATOM      5  C   UNL     1       0.386  -3.076   8.195  1.00  0.00     0.009 A 
ATOM      6  C   UNL     1       0.680  -4.435   8.342  1.00  0.00     0.001 A 
ENDROOT
BRANCH   4   7
ATOM      7  C   UNL     1       0.954  -0.652   8.544  1.00  0.00    -0.018 A 
ATOM      8  C   UNL     1      -0.291  -0.239   8.033  1.00  0.00     0.009 A 
ATOM      9  C   UNL     1       1.899   0.326   8.905  1.00  0.00     0.009 A 
ATOM     10  C   UNL     1      -0.581   1.121   7.888  1.00  0.00     0.001 A 
ATOM     11  C   UNL     1       1.605   1.684   8.757  1.00  0.00     0.001 A 
ATOM     12  C   UNL     1       0.366   2.082   8.248  1.00  0.00     0.000 A 
ENDBRANCH   4   7
TORSDOF 1
ENDMDL
MODEL 5
REMARK VINA RESULT:    -4.915      0.177      5.139
REMARK INTER + INTRA:          -5.525
REMARK INTER:                  -5.203
REMARK INTRA:                  -0.323
REMARK UNBOUND:                -0.323
REMARK SMILES c1ccc(-c2ccccc2)cc1
REMARK SMILES IDX 1 1 2 2 3 3 4 4 11 5 12 6 5 7 6 8 10 9 7 10 9 11 8 12
REMARK H PARENT
REMARK Flexibility Score: inf
ROOT
ATOM      1  C   UNL     1       0.552   1.993   8.417  1.00  0.00     0.000 A 
ATOM      2  C   UNL     1      -0.412   1.128   7.894  1.00  0.00     0.001 A 
ATOM      3  C   UNL     1      -0.221  -0.255   7.957  1.00  0.00     0.009 A 
ATOM      4  C   UNL     1       0.940  -0.788   8.548  1.00  0.00    -0.018 A 
ATOM      5  C   UNL     1       1.904   0.095   9.071  1.00  0.00     0.009 A 
ATOM      6  C   UNL     1       1.708   1.478   9.004  1.00  0.00     0.001 A 
ENDROOT
BRANCH   4   7
ATOM      7  C   UNL     1       1.147  -2.259   8.617  1.00  0.00    -0.018 A 
ATOM      8  C   UNL     1       0.223  -3.139   8.023  1.00  0.00     0.009 A 
ATOM      9  C   UNL     1       2.268  -2.794   9.278  1.00  0.00     0.009 A 
ATOM     10  C   UNL     1       0.419  -4.522   8.090  1.00  0.00     0.001 A 
ATOM     11  C   UNL     1       2.459  -4.177   9.343  1.00  0.00     0.001 A 
ATOM     12  C   UNL     1       1.535  -5.041   8.749  1.00  0.00     0.000 A 
ENDBRANCH   4   7
TORSDOF 1
ENDMDL
MODEL 6
REMARK VINA RESULT:    -4.876      0.836      4.722
REMARK INTER + INTRA:          -5.484
REMARK INTER:                  -5.161
REMARK INTRA:                  -0.323
REMARK UNBOUND:                -0.323
REMARK SMILES c1ccc(-c2ccccc2)cc1
REMARK SMILES IDX 1 1 2 2 3 3 4 4 11 5 12 6 5 7 6 8 10 9 7 10 9 11 8 12
REMARK H PARENT
REMARK Flexibility Score: inf
ROOT
ATOM      1  C   UNL     1      -0.028   1.629   8.054  1.00  0.00     0.000 A 
ATOM      2  C   UNL     1       1.216   1.660   8.687  1.00  0.00     0.001 A 
ATOM      3  C   UNL     1       1.871   0.467   9.007  1.00  0.00     0.009 A 
ATOM      4  C   UNL     1       1.284  -0.774   8.695  1.00  0.00    -0.018 A 
ATOM      5  C   UNL     1       0.029  -0.792   8.056  1.00  0.00     0.009 A 
ATOM      6  C   UNL     1      -0.621   0.405   7.740  1.00  0.00     0.001 A 
ENDROOT
BRANCH   4   7
ATOM      7  C   UNL     1       1.977  -2.045   9.033  1.00  0.00    -0.018 A 
ATOM      8  C   UNL     1       3.257  -2.027   9.619  1.00  0.00     0.009 A 
ATOM      9  C   UNL     1       1.365  -3.285   8.774  1.00  0.00     0.009 A 
ATOM     10  C   UNL     1       3.907  -3.224   9.936  1.00  0.00     0.001 A 
ATOM     11  C   UNL     1       2.019  -4.478   9.093  1.00  0.00     0.001 A 
ATOM     12  C   UNL     1       3.289  -4.448   9.674  1.00  0.00     0.000 A 
ENDBRANCH   4   7
TORSDOF 1
ENDMDL
MODEL 7
REMARK VINA RESULT:    -4.726      1.282      4.923
REMARK INTER + INTRA:          -5.325
REMARK INTER:                  -5.031
REMARK INTRA:                  -0.294
REMARK UNBOUND:                -0.323
REMARK SMILES c1ccc(-c2ccccc2)cc1
REMARK SMILES IDX 1 1 2 2 3 3 4 4 11 5 12 6 5 7 6 8 10 9 7 10 9 11 8 12
REMARK H PARENT
REMARK Flexibility Score: inf
ROOT
ATOM      1  C   UNL     1      -1.961   0.669   8.403  1.00  0.00     0.000 A 
ATOM      2  C   UNL     1      -2.388  -0.477   9.078  1.00  0.00     0.001 A 
ATOM      3  C   UNL     1      -1.558  -1.599   9.148  1.00  0.00     0.009 A 
ATOM      4  C   UNL     1      -0.287  -1.586   8.542  1.00  0.00    -0.018 A 
ATOM      5  C   UNL     1       0.131  -0.424   7.864  1.00  0.00     0.009 A 
ATOM      6  C   UNL     1      -0.704   0.695   7.796  1.00  0.00     0.001 A 
ENDROOT
BRANCH   4   7
ATOM      7  C   UNL     1       0.598  -2.778   8.615  1.00  0.00    -0.018 A 
ATOM      8  C   UNL     1       1.847  -2.702   9.261  1.00  0.00     0.009 A 
ATOM      9  C   UNL     1       0.203  -4.000   8.040  1.00  0.00     0.009 A 
ATOM     10  C   UNL     1       2.678  -3.824   9.329  1.00  0.00     0.001 A 
ATOM     11  C   UNL     1       1.038  -5.118   8.110  1.00  0.00     0.001 A 
ATOM     12  C   UNL     1       2.275  -5.031   8.754  1.00  0.00     0.000 A 
ENDBRANCH   4   7
TORSDOF 1
ENDMDL
MODEL 8
REMARK VINA RESULT:    -4.592     12.311     13.146
REMARK INTER + INTRA:          -5.183
REMARK INTER:                  -4.888
REMARK INTRA:                  -0.295
REMARK UNBOUND:                -0.323
REMARK SMILES c1ccc(-c2ccccc2)cc1
REMARK SMILES IDX 1 1 2 2 3 3 4 4 11 5 12 6 5 7 6 8 10 9 7 10 9 11 8 12
REMARK H PARENT
REMARK Flexibility Score: inf
ROOT
ATOM      1  C   UNL     1       5.441   1.071  -5.102  1.00  0.00     0.000 A 
ATOM      2  C   UNL     1       5.883   0.365  -3.981  1.00  0.00     0.001 A 
ATOM      3  C   UNL     1       5.057  -0.592  -3.384  1.00  0.00     0.009 A 
ATOM      4  C   UNL     1       3.776  -0.854  -3.906  1.00  0.00    -0.018 A 
ATOM      5  C   UNL     1       3.342  -0.134  -5.037  1.00  0.00     0.009 A 
ATOM      6  C   UNL     1       4.172   0.822  -5.629  1.00  0.00     0.001 A 
ENDROOT
BRANCH   4   7
ATOM      7  C   UNL     1       2.895  -1.871  -3.274  1.00  0.00    -0.018 A 
ATOM      8  C   UNL     1       3.291  -3.220  -3.211  1.00  0.00     0.009 A 
ATOM      9  C   UNL     1       1.651  -1.501  -2.729  1.00  0.00     0.009 A 
ATOM     10  C   UNL     1       2.461  -4.175  -2.617  1.00  0.00     0.001 A 
ATOM     11  C   UNL     1       0.825  -2.460  -2.136  1.00  0.00     0.001 A 
ATOM     12  C   UNL     1       1.229  -3.796  -2.080  1.00  0.00     0.000 A 
ENDBRANCH   4   7
TORSDOF 1
ENDMDL
MODEL 9
REMARK VINA RESULT:    -4.585     12.308     13.239
REMARK INTER + INTRA:          -5.176
REMARK INTER:                  -4.882
REMARK INTRA:                  -0.294
REMARK UNBOUND:                -0.323
REMARK SMILES c1ccc(-c2ccccc2)cc1
REMARK SMILES IDX 1 1 2 2 3 3 4 4 11 5 12 6 5 7 6 8 10 9 7 10 9 11 8 12
REMARK H PARENT
REMARK Flexibility Score: inf
ROOT
ATOM      1  C   UNL     1       5.419   1.080  -5.108  1.00  0.00     0.000 A 
ATOM      2  C   UNL     1       4.150   0.828  -5.635  1.00  0.00     0.001 A 
ATOM      3  C   UNL     1       3.322  -0.129  -5.041  1.00  0.00     0.009 A 
ATOM      4  C   UNL     1       3.756  -0.845  -3.910  1.00  0.00    -0.018 A 
ATOM      5  C   UNL     1       5.038  -0.581  -3.388  1.00  0.00     0.009 A 
ATOM      6  C   UNL     1       5.862   0.376  -3.987  1.00  0.00     0.001 A 
ENDROOT
BRANCH   4   7
ATOM      7  C   UNL     1       2.878  -1.863  -3.276  1.00  0.00    -0.018 A 
ATOM      8  C   UNL     1       1.640  -1.491  -2.718  1.00  0.00     0.009 A 
ATOM      9  C   UNL     1       3.270  -3.214  -3.222  1.00  0.00     0.009 A 
ATOM     10  C   UNL     1       0.815  -2.450  -2.122  1.00  0.00     0.001 A 
ATOM     11  C   UNL     1       2.442  -4.168  -2.625  1.00  0.00     0.001 A 
ATOM     12  C   UNL     1       1.215  -3.787  -2.075  1.00  0.00     0.000 A 
ENDBRANCH   4   7
TORSDOF 1
ENDMDL
