MODEL 1
REMARK VINA RESULT:    -4.839      0.000      0.000
REMARK INTER + INTRA:          -8.900
REMARK INTER:                  -7.667
REMARK INTRA:                  -1.233
REMARK UNBOUND:                -1.233
REMARK SMILES CCCCCCCCCCCC(=O)[O-]
REMARK SMILES IDX 7 1 8 2 9 3 10 4 11 5 12 6 13 7 14 8 6 9 5 10 4 11 3 12 2 13
REMARK SMILES IDX 1 14
REMARK H PARENT
REMARK Flexibility Score: inf
ROOT
ATOM      1  C   UNL     1      15.087  -7.408  14.618  1.00  0.00     0.000 C 
ENDROOT
BRANCH   1   2
ATOM      2  C   UNL     1      14.214  -6.685  13.584  1.00  0.00     0.000 C 
BRANCH   2   3
ATOM      3  C   UNL     1      15.078  -6.046  12.485  1.00  0.00     0.000 C 
BRANCH   3   4
ATOM      4  C   UNL     1      16.545  -6.498  12.548  1.00  0.00     0.006 C 
BRANCH   4   5
ATOM      5  C   UNL     1      17.464  -5.647  11.662  1.00  0.00     0.053 C 
BRANCH   5   6
ATOM      6  C   UNL     1      18.409  -4.849  12.503  1.00  0.00     0.041 C 
ATOM      7  O   UNL     1      18.033  -3.767  13.026  1.00  0.00    -0.550 OA
ATOM      8  O   UNL     1      19.722  -5.275  12.668  1.00  0.00    -0.550 OA
ENDBRANCH   5   6
ENDBRANCH   4   5
ENDBRANCH   3   4
ENDBRANCH   2   3
ENDBRANCH   1   2
BRANCH   1   9
ATOM      9  C   UNL     1      15.014  -6.710  15.984  1.00  0.00     0.000 C 
BRANCH   9  10
ATOM     10  C   UNL     1      16.157  -5.705  16.198  1.00  0.00    -0.000 C 
BRANCH  10  11
ATOM     11  C   UNL     1      15.775  -4.273  15.782  1.00  0.00    -0.000 C 
BRANCH  11  12
ATOM     12  C   UNL     1      14.831  -3.602  16.803  1.00  0.00    -0.000 C 
BRANCH  12  13
ATOM     13  C   UNL     1      13.376  -3.492  16.316  1.00  0.00    -0.003 C 
ATOM     14  C   UNL     1      13.264  -3.294  14.806  1.00  0.00     0.004 C 
ENDBRANCH  12  13
ENDBRANCH  11  12
ENDBRANCH  10  11
ENDBRANCH   9  10
ENDBRANCH   1   9
TORSDOF 10
ENDMDL
MODEL 2
REMARK VINA RESULT:    -4.797      1.506      2.091
REMARK INTER + INTRA:          -8.835
REMARK INTER:                  -7.829
REMARK INTRA:                  -1.006
REMARK UNBOUND:                -1.233
REMARK SMILES CCCCCCCCCCCC(=O)[O-]
REMARK SMILES IDX 7 1 8 2 9 3 10 4 11 5 12 6 13 7 14 8 6 9 5 10 4 11 3 12 2 13
REMARK SMILES IDX 1 14
REMARK H PARENT
REMARK Flexibility Score: inf
ROOT
ATOM      1  C   UNL     1      15.148  -7.486  15.139  1.00  0.00     0.000 C 
ENDROOT
BRANCH   1   2
ATOM      2  C   UNL     1      15.734  -7.615  13.727  1.00  0.00     0.000 C 
BRANCH   2   3
ATOM      3  C   UNL     1      15.676  -6.273  12.982  1.00  0.00     0.000 C 
BRANCH   3   4
ATOM      4  C   UNL     1      17.037  -5.857  12.406  1.00  0.00     0.006 C 
BRANCH   4   5
ATOM      5  C   UNL     1      17.384  -4.393  12.707  1.00  0.00     0.053 C 
BRANCH   5   6
ATOM      6  C   UNL     1      18.868  -4.200  12.726  1.00  0.00     0.041 C 
ATOM      7  O   UNL     1      19.357  -3.043  12.640  1.00  0.00    -0.550 OA
ATOM      8  O   UNL     1      19.711  -5.303  12.787  1.00  0.00    -0.550 OA
ENDBRANCH   5   6
ENDBRANCH   4   5
ENDBRANCH   3   4
ENDBRANCH   2   3
ENDBRANCH   1   2
BRANCH   1   9
ATOM      9  C   UNL     1      15.424  -6.092  15.723  1.00  0.00     0.000 C 
BRANCH   9  10
ATOM     10  C   UNL     1      16.833  -5.969  16.323  1.00  0.00    -0.000 C 
BRANCH  10  11
ATOM     11  C   UNL     1      17.305  -4.509  16.438  1.00  0.00    -0.000 C 
BRANCH  11  12
ATOM     12  C   UNL     1      16.128  -3.529  16.633  1.00  0.00    -0.000 C 
BRANCH  12  13
ATOM     13  C   UNL     1      16.282  -2.619  17.863  1.00  0.00    -0.003 C 
ATOM     14  C   UNL     1      17.479  -2.990  18.736  1.00  0.00     0.004 C 
ENDBRANCH  12  13
ENDBRANCH  11  12
ENDBRANCH  10  11
ENDBRANCH   9  10
ENDBRANCH   1   9
TORSDOF 10
ENDMDL
MODEL 3
REMARK VINA RESULT:    -4.792      2.814      5.130
REMARK INTER + INTRA:          -8.826
REMARK INTER:                  -7.268
REMARK INTRA:                  -1.557
REMARK UNBOUND:                -1.233
REMARK SMILES CCCCCCCCCCCC(=O)[O-]
REMARK SMILES IDX 7 1 8 2 9 3 10 4 11 5 12 6 13 7 14 8 6 9 5 10 4 11 3 12 2 13
REMARK SMILES IDX 1 14
REMARK H PARENT
REMARK Flexibility Score: inf
ROOT
ATOM      1  C   UNL     1      16.743  -5.931  11.003  1.00  0.00     0.000 C 
ENDROOT
BRANCH   1   2
ATOM      2  C   UNL     1      16.940  -5.713  12.508  1.00  0.00     0.000 C 
BRANCH   2   3
ATOM      3  C   UNL     1      16.352  -4.365  12.951  1.00  0.00     0.000 C 
BRANCH   3   4
ATOM      4  C   UNL     1      16.256  -4.234  14.479  1.00  0.00     0.006 C 
BRANCH   4   5
ATOM      5  C   UNL     1      14.977  -3.517  14.932  1.00  0.00     0.053 C 
BRANCH   5   6
ATOM      6  C   UNL     1      14.238  -4.349  15.932  1.00  0.00     0.041 C 
ATOM      7  O   UNL     1      14.534  -5.563  16.088  1.00  0.00    -0.550 OA
ATOM      8  O   UNL     1      13.187  -3.797  16.654  1.00  0.00    -0.550 OA
ENDBRANCH   5   6
ENDBRANCH   4   5
ENDBRANCH   3   4
ENDBRANCH   2   3
ENDBRANCH   1   2
BRANCH   1   9
ATOM      9  C   UNL     1      15.723  -4.933  10.432  1.00  0.00     0.000 C 
BRANCH   9  10
ATOM     10  C   UNL     1      14.718  -5.595   9.476  1.00  0.00    -0.000 C 
BRANCH  10  11
ATOM     11  C   UNL     1      13.301  -5.681  10.069  1.00  0.00    -0.000 C 
BRANCH  11  12
ATOM     12  C   UNL     1      13.087  -4.670  11.215  1.00  0.00    -0.000 C 
BRANCH  12  13
ATOM     13  C   UNL     1      12.666  -5.323  12.542  1.00  0.00    -0.003 C 
ATOM     14  C   UNL     1      13.431  -6.609  12.845  1.00  0.00     0.004 C 
ENDBRANCH  12  13
ENDBRANCH  11  12
ENDBRANCH  10  11
ENDBRANCH   9  10
ENDBRANCH   1   9
TORSDOF 10
ENDMDL
MODEL 4
REMARK VINA RESULT:    -4.776      2.491      3.169
REMARK INTER + INTRA:          -8.801
REMARK INTER:                  -7.697
REMARK INTRA:                  -1.104
REMARK UNBOUND:                -1.233
REMARK SMILES CCCCCCCCCCCC(=O)[O-]
REMARK SMILES IDX 7 1 8 2 9 3 10 4 11 5 12 6 13 7 14 8 6 9 5 10 4 11 3 12 2 13
REMARK SMILES IDX 1 14
REMARK H PARENT
REMARK Flexibility Score: inf
ROOT
ATOM      1  C   UNL     1      15.387  -7.817  14.733  1.00  0.00     0.000 C 
ENDROOT
BRANCH   1   2
ATOM      2  C   UNL     1      15.308  -7.174  13.343  1.00  0.00     0.000 C 
BRANCH   2   3
ATOM      3  C   UNL     1      13.906  -6.603  13.079  1.00  0.00     0.000 C 
BRANCH   3   4
ATOM      4  C   UNL     1      13.945  -5.168  12.534  1.00  0.00     0.006 C 
BRANCH   4   5
ATOM      5  C   UNL     1      13.034  -4.973  11.315  1.00  0.00     0.053 C 
BRANCH   5   6
ATOM      6  C   UNL     1      13.720  -5.437  10.070  1.00  0.00     0.041 C 
ATOM      7  O   UNL     1      13.076  -6.067   9.190  1.00  0.00    -0.550 OA
ATOM      8  O   UNL     1      15.082  -5.220   9.904  1.00  0.00    -0.550 OA
ENDBRANCH   5   6
ENDBRANCH   4   5
ENDBRANCH   3   4
ENDBRANCH   2   3
ENDBRANCH   1   2
BRANCH   1   9
ATOM      9  C   UNL     1      15.341  -6.749  15.837  1.00  0.00     0.000 C 
BRANCH   9  10
ATOM     10  C   UNL     1      16.716  -6.120  16.110  1.00  0.00    -0.000 C 
BRANCH  10  11
ATOM     11  C   UNL     1      16.625  -4.627  16.472  1.00  0.00    -0.000 C 
BRANCH  11  12
ATOM     12  C   UNL     1      15.505  -3.906  15.693  1.00  0.00    -0.000 C 
BRANCH  12  13
ATOM     13  C   UNL     1      14.351  -3.419  16.586  1.00  0.00    -0.003 C 
ATOM     14  C   UNL     1      12.989  -3.500  15.900  1.00  0.00     0.004 C 
ENDBRANCH  12  13
ENDBRANCH  11  12
ENDBRANCH  10  11
ENDBRANCH   9  10
ENDBRANCH   1   9
TORSDOF 10
ENDMDL
MODEL 5
REMARK VINA RESULT:    -4.766      2.681      4.704
REMARK INTER + INTRA:          -8.785
REMARK INTER:                  -7.655
REMARK INTRA:                  -1.130
REMARK UNBOUND:                -1.233
REMARK SMILES CCCCCCCCCCCC(=O)[O-]
REMARK SMILES IDX 7 1 8 2 9 3 10 4 11 5 12 6 13 7 14 8 6 9 5 10 4 11 3 12 2 13
REMARK SMILES IDX 1 14
REMARK H PARENT
REMARK Flexibility Score: inf
ROOT
ATOM      1  C   UNL     1      14.884  -7.069  15.570  1.00  0.00     0.000 C 
ENDROOT
BRANCH   1   2
ATOM      2  C   UNL     1      15.369  -5.684  16.015  1.00  0.00     0.000 C 
BRANCH   2   3
ATOM      3  C   UNL     1      16.904  -5.628  16.063  1.00  0.00     0.000 C 
BRANCH   3   4
ATOM      4  C   UNL     1      17.467  -4.323  15.478  1.00  0.00     0.006 C 
BRANCH   4   5
ATOM      5  C   UNL     1      18.382  -3.581  16.460  1.00  0.00     0.053 C 
BRANCH   5   6
ATOM      6  C   UNL     1      17.597  -3.087  17.634  1.00  0.00     0.041 C 
ATOM      7  O   UNL     1      16.530  -2.441  17.457  1.00  0.00    -0.550 OA
ATOM      8  O   UNL     1      18.070  -3.295  18.924  1.00  0.00    -0.550 OA
ENDBRANCH   5   6
ENDBRANCH   4   5
ENDBRANCH   3   4
ENDBRANCH   2   3
ENDBRANCH   1   2
BRANCH   1   9
ATOM      9  C   UNL     1      15.083  -7.262  14.059  1.00  0.00     0.000 C 
BRANCH   9  10
ATOM     10  C   UNL     1      13.875  -6.787  13.237  1.00  0.00    -0.000 C 
BRANCH  10  11
ATOM     11  C   UNL     1      14.275  -5.869  12.068  1.00  0.00    -0.000 C 
BRANCH  11  12
ATOM     12  C   UNL     1      15.655  -5.214  12.288  1.00  0.00    -0.000 C 
BRANCH  12  13
ATOM     13  C   UNL     1      16.696  -5.603  11.225  1.00  0.00    -0.003 C 
ATOM     14  C   UNL     1      17.965  -6.209  11.822  1.00  0.00     0.004 C 
ENDBRANCH  12  13
ENDBRANCH  11  12
ENDBRANCH  10  11
ENDBRANCH   9  10
ENDBRANCH   1   9
TORSDOF 10
ENDMDL
MODEL 6
REMARK VINA RESULT:    -4.708      1.673      2.251
REMARK INTER + INTRA:          -8.693
REMARK INTER:                  -7.462
REMARK INTRA:                  -1.231
REMARK UNBOUND:                -1.233
REMARK SMILES CCCCCCCCCCCC(=O)[O-]
REMARK SMILES IDX 7 1 8 2 9 3 10 4 11 5 12 6 13 7 14 8 6 9 5 10 4 11 3 12 2 13
REMARK SMILES IDX 1 14
REMARK H PARENT
REMARK Flexibility Score: inf
ROOT
ATOM      1  C   UNL     1      15.238  -6.970  15.240  1.00  0.00     0.000 C 
ENDROOT
BRANCH   1   2
ATOM      2  C   UNL     1      15.067  -7.327  13.758  1.00  0.00     0.000 C 
BRANCH   2   3
ATOM      3  C   UNL     1      13.797  -6.682  13.180  1.00  0.00     0.000 C 
BRANCH   3   4
ATOM      4  C   UNL     1      14.081  -5.837  11.929  1.00  0.00     0.006 C 
BRANCH   4   5
ATOM      5  C   UNL     1      15.435  -5.119  11.994  1.00  0.00     0.053 C 
BRANCH   5   6
ATOM      6  C   UNL     1      16.362  -5.657  10.951  1.00  0.00     0.041 C 
ATOM      7  O   UNL     1      17.513  -6.056  11.271  1.00  0.00    -0.550 OA
ATOM      8  O   UNL     1      15.975  -5.669   9.617  1.00  0.00    -0.550 OA
ENDBRANCH   5   6
ENDBRANCH   4   5
ENDBRANCH   3   4
ENDBRANCH   2   3
ENDBRANCH   1   2
BRANCH   1   9
ATOM      9  C   UNL     1      16.258  -5.835  15.418  1.00  0.00     0.000 C 
BRANCH   9  10
ATOM     10  C   UNL     1      15.689  -4.645  16.208  1.00  0.00    -0.000 C 
BRANCH  10  11
ATOM     11  C   UNL     1      14.150  -4.646  16.258  1.00  0.00    -0.000 C 
BRANCH  11  12
ATOM     12  C   UNL     1      13.553  -3.282  15.854  1.00  0.00    -0.000 C 
BRANCH  12  13
ATOM     13  C   UNL     1      12.660  -3.346  14.605  1.00  0.00    -0.003 C 
ATOM     14  C   UNL     1      12.806  -2.125  13.700  1.00  0.00     0.004 C 
ENDBRANCH  12  13
ENDBRANCH  11  12
ENDBRANCH  10  11
ENDBRANCH   9  10
ENDBRANCH   1   9
TORSDOF 10
ENDMDL
MODEL 7
REMARK VINA RESULT:    -4.689      2.761      5.249
REMARK INTER + INTRA:          -8.662
REMARK INTER:                  -7.522
REMARK INTRA:                  -1.141
REMARK UNBOUND:                -1.233
REMARK SMILES CCCCCCCCCCCC(=O)[O-]
REMARK SMILES IDX 7 1 8 2 9 3 10 4 11 5 12 6 13 7 14 8 6 9 5 10 4 11 3 12 2 13
REMARK SMILES IDX 1 14
REMARK H PARENT
REMARK Flexibility Score: inf
ROOT
ATOM      1  C   UNL     1      15.103  -7.214  15.139  1.00  0.00     0.000 C 
ENDROOT
BRANCH   1   2
ATOM      2  C   UNL     1      15.551  -5.771  15.402  1.00  0.00     0.000 C 
BRANCH   2   3
ATOM      3  C   UNL     1      14.507  -5.014  16.238  1.00  0.00     0.000 C 
BRANCH   3   4
ATOM      4  C   UNL     1      14.208  -3.613  15.685  1.00  0.00     0.006 C 
BRANCH   4   5
ATOM      5  C   UNL     1      12.705  -3.334  15.562  1.00  0.00     0.053 C 
BRANCH   5   6
ATOM      6  C   UNL     1      12.359  -2.936  14.162  1.00  0.00     0.041 C 
ATOM      7  O   UNL     1      11.650  -3.692  13.446  1.00  0.00    -0.550 OA
ATOM      8  O   UNL     1      12.863  -1.756  13.630  1.00  0.00    -0.550 OA
ENDBRANCH   5   6
ENDBRANCH   4   5
ENDBRANCH   3   4
ENDBRANCH   2   3
ENDBRANCH   1   2
BRANCH   1   9
ATOM      9  C   UNL     1      14.849  -7.447  13.642  1.00  0.00     0.000 C 
BRANCH   9  10
ATOM     10  C   UNL     1      13.711  -6.573  13.091  1.00  0.00    -0.000 C 
BRANCH  10  11
ATOM     11  C   UNL     1      14.061  -5.925  11.740  1.00  0.00    -0.000 C 
BRANCH  11  12
ATOM     12  C   UNL     1      15.377  -5.121  11.802  1.00  0.00    -0.000 C 
BRANCH  12  13
ATOM     13  C   UNL     1      16.502  -5.714  10.938  1.00  0.00    -0.003 C 
ATOM     14  C   UNL     1      17.748  -6.076  11.742  1.00  0.00     0.004 C 
ENDBRANCH  12  13
ENDBRANCH  11  12
ENDBRANCH  10  11
ENDBRANCH   9  10
ENDBRANCH   1   9
TORSDOF 10
ENDMDL
MODEL 8
REMARK VINA RESULT:    -4.679      1.175      2.450
REMARK INTER + INTRA:          -8.646
REMARK INTER:                  -7.337
REMARK INTRA:                  -1.309
REMARK UNBOUND:                -1.233
REMARK SMILES CCCCCCCCCCCC(=O)[O-]
REMARK SMILES IDX 7 1 8 2 9 3 10 4 11 5 12 6 13 7 14 8 6 9 5 10 4 11 3 12 2 13
REMARK SMILES IDX 1 14
REMARK H PARENT
REMARK Flexibility Score: inf
ROOT
ATOM      1  C   UNL     1      13.983  -6.020  11.732  1.00  0.00     0.000 C 
ENDROOT
BRANCH   1   2
ATOM      2  C   UNL     1      15.154  -5.030  11.683  1.00  0.00     0.000 C 
BRANCH   2   3
ATOM      3  C   UNL     1      16.323  -5.602  10.866  1.00  0.00     0.000 C 
BRANCH   3   4
ATOM      4  C   UNL     1      17.601  -5.770  11.700  1.00  0.00     0.006 C 
BRANCH   4   5
ATOM      5  C   UNL     1      17.773  -4.663  12.748  1.00  0.00     0.053 C 
BRANCH   5   6
ATOM      6  C   UNL     1      19.137  -4.730  13.360  1.00  0.00     0.041 C 
ATOM      7  O   UNL     1      19.378  -4.124  14.438  1.00  0.00    -0.550 OA
ATOM      8  O   UNL     1      20.155  -5.419  12.714  1.00  0.00    -0.550 OA
ENDBRANCH   5   6
ENDBRANCH   4   5
ENDBRANCH   3   4
ENDBRANCH   2   3
ENDBRANCH   1   2
BRANCH   1   9
ATOM      9  C   UNL     1      13.690  -6.454  13.176  1.00  0.00     0.000 C 
BRANCH   9  10
ATOM     10  C   UNL     1      14.838  -7.269  13.794  1.00  0.00    -0.000 C 
BRANCH  10  11
ATOM     11  C   UNL     1      14.949  -7.080  15.317  1.00  0.00    -0.000 C 
BRANCH  11  12
ATOM     12  C   UNL     1      16.169  -6.220  15.710  1.00  0.00    -0.000 C 
BRANCH  12  13
ATOM     13  C   UNL     1      15.832  -4.735  15.923  1.00  0.00    -0.003 C 
ATOM     14  C   UNL     1      14.371  -4.500  16.298  1.00  0.00     0.004 C 
ENDBRANCH  12  13
ENDBRANCH  11  12
ENDBRANCH  10  11
ENDBRANCH   9  10
ENDBRANCH   1   9
TORSDOF 10
ENDMDL
MODEL 9
REMARK VINA RESULT:    -4.676      1.709      2.733
REMARK INTER + INTRA:          -8.643
REMARK INTER:                  -7.553
REMARK INTRA:                  -1.090
REMARK UNBOUND:                -1.233
REMARK SMILES CCCCCCCCCCCC(=O)[O-]
REMARK SMILES IDX 7 1 8 2 9 3 10 4 11 5 12 6 13 7 14 8 6 9 5 10 4 11 3 12 2 13
REMARK SMILES IDX 1 14
REMARK H PARENT
REMARK Flexibility Score: inf
ROOT
ATOM      1  C   UNL     1      14.779  -7.223  15.481  1.00  0.00     0.000 C 
ENDROOT
BRANCH   1   2
ATOM      2  C   UNL     1      15.084  -7.430  13.992  1.00  0.00     0.000 C 
BRANCH   2   3
ATOM      3  C   UNL     1      13.951  -6.873  13.116  1.00  0.00     0.000 C 
BRANCH   3   4
ATOM      4  C   UNL     1      14.415  -5.721  12.211  1.00  0.00     0.006 C 
BRANCH   4   5
ATOM      5  C   UNL     1      15.914  -5.428  12.349  1.00  0.00     0.053 C 
BRANCH   5   6
ATOM      6  C   UNL     1      16.130  -4.061  12.916  1.00  0.00     0.041 C 
ATOM      7  O   UNL     1      17.271  -3.717  13.324  1.00  0.00    -0.550 OA
ATOM      8  O   UNL     1      15.060  -3.184  13.043  1.00  0.00    -0.550 OA
ENDBRANCH   5   6
ENDBRANCH   4   5
ENDBRANCH   3   4
ENDBRANCH   2   3
ENDBRANCH   1   2
BRANCH   1   9
ATOM      9  C   UNL     1      15.264  -5.845  15.956  1.00  0.00     0.000 C 
BRANCH   9  10
ATOM     10  C   UNL     1      14.106  -4.878  16.249  1.00  0.00    -0.000 C 
BRANCH  10  11
ATOM     11  C   UNL     1      14.583  -3.436  16.495  1.00  0.00    -0.000 C 
BRANCH  11  12
ATOM     12  C   UNL     1      16.098  -3.364  16.783  1.00  0.00    -0.000 C 
BRANCH  12  13
ATOM     13  C   UNL     1      16.441  -2.643  18.097  1.00  0.00    -0.003 C 
ATOM     14  C   UNL     1      17.773  -3.090  18.695  1.00  0.00     0.004 C 
ENDBRANCH  12  13
ENDBRANCH  11  12
ENDBRANCH  10  11
ENDBRANCH   9  10
ENDBRANCH   1   9
TORSDOF 10
ENDMDL
