MODEL 1
REMARK VINA RESULT:    -2.989      0.000      0.000
REMARK INTER + INTRA:          -3.629
REMARK INTER:                  -3.514
REMARK INTRA:                  -0.115
REMARK UNBOUND:                -0.115
REMARK SMILES O=C([O-])CCC(=O)[O-]
REMARK SMILES IDX 4 1 2 2 1 3 3 4 5 5 6 6 7 7 8 8
REMARK H PARENT
REMARK Flexibility Score: inf
ROOT
ATOM      1  C   UNL     1     146.953 139.144 152.891  1.00  0.00     0.059 C 
ENDROOT
BRANCH   1   2
ATOM      2  C   UNL     1     148.305 139.586 153.352  1.00  0.00     0.042 C 
ATOM      3  O   UNL     1     149.273 139.613 152.546  1.00  0.00    -0.550 OA
ATOM      4  O   UNL     1     148.488 140.017 154.661  1.00  0.00    -0.550 OA
ENDBRANCH   1   2
BRANCH   1   5
ATOM      5  C   UNL     1     146.994 137.685 152.433  1.00  0.00     0.059 C 
BRANCH   5   6
ATOM      6  C   UNL     1     146.705 136.769 153.579  1.00  0.00     0.042 C 
ATOM      7  O   UNL     1     145.518 136.459 153.861  1.00  0.00    -0.550 OA
ATOM      8  O   UNL     1     147.746 136.293 154.368  1.00  0.00    -0.550 OA
ENDBRANCH   5   6
ENDBRANCH   1   5
TORSDOF 3
ENDMDL
MODEL 2
REMARK VINA RESULT:    -2.985      0.090      3.604
REMARK INTER + INTRA:          -3.624
REMARK INTER:                  -3.504
REMARK INTRA:                  -0.120
REMARK UNBOUND:                -0.115
REMARK SMILES O=C([O-])CCC(=O)[O-]
REMARK SMILES IDX 4 1 2 2 1 3 3 4 5 5 6 6 7 7 8 8
REMARK H PARENT
REMARK Flexibility Score: inf
ROOT
ATOM      1  C   UNL     1     146.989 137.753 152.415  1.00  0.00     0.059 C 
ENDROOT
BRANCH   1   2
ATOM      2  C   UNL     1     146.699 136.827 153.553  1.00  0.00     0.042 C 
ATOM      3  O   UNL     1     145.511 136.509 153.826  1.00  0.00    -0.550 OA
ATOM      4  O   UNL     1     147.744 136.275 154.284  1.00  0.00    -0.550 OA
ENDBRANCH   1   2
BRANCH   1   5
ATOM      5  C   UNL     1     146.952 139.208 152.886  1.00  0.00     0.059 C 
BRANCH   5   6
ATOM      6  C   UNL     1     148.283 139.615 153.433  1.00  0.00     0.042 C 
ATOM      7  O   UNL     1     148.388 139.993 154.630  1.00  0.00    -0.550 OA
ATOM      8  O   UNL     1     149.401 139.622 152.608  1.00  0.00    -0.550 OA
ENDBRANCH   5   6
ENDBRANCH   1   5
TORSDOF 3
ENDMDL
MODEL 3
REMARK VINA RESULT:    -2.981      0.094      1.620
REMARK INTER + INTRA:          -3.619
REMARK INTER:                  -3.500
REMARK INTRA:                  -0.119
REMARK UNBOUND:                -0.115
REMARK SMILES O=C([O-])CCC(=O)[O-]
REMARK SMILES IDX 4 1 2 2 1 3 3 4 5 5 6 6 7 7 8 8
REMARK H PARENT
REMARK Flexibility Score: inf
ROOT
ATOM      1  C   UNL     1     146.924 139.125 152.917  1.00  0.00     0.059 C 
ENDROOT
BRANCH   1   2
ATOM      2  C   UNL     1     148.255 139.609 153.396  1.00  0.00     0.042 C 
ATOM      3  O   UNL     1     148.405 139.975 154.591  1.00  0.00    -0.550 OA
ATOM      4  O   UNL     1     149.346 139.609 152.534  1.00  0.00    -0.550 OA
ENDBRANCH   1   2
BRANCH   1   5
ATOM      5  C   UNL     1     147.018 137.669 152.455  1.00  0.00     0.059 C 
BRANCH   5   6
ATOM      6  C   UNL     1     146.776 136.740 153.603  1.00  0.00     0.042 C 
ATOM      7  O   UNL     1     147.746 136.235 154.226  1.00  0.00    -0.550 OA
ATOM      8  O   UNL     1     145.476 136.394 153.955  1.00  0.00    -0.550 OA
ENDBRANCH   5   6
ENDBRANCH   1   5
TORSDOF 3
ENDMDL
MODEL 4
REMARK VINA RESULT:    -2.970      0.130      3.628
REMARK INTER + INTRA:          -3.606
REMARK INTER:                  -3.488
REMARK INTRA:                  -0.118
REMARK UNBOUND:                -0.115
REMARK SMILES O=C([O-])CCC(=O)[O-]
REMARK SMILES IDX 4 1 2 2 1 3 3 4 5 5 6 6 7 7 8 8
REMARK H PARENT
REMARK Flexibility Score: inf
ROOT
ATOM      1  C   UNL     1     147.019 137.571 152.473  1.00  0.00     0.059 C 
ENDROOT
BRANCH   1   2
ATOM      2  C   UNL     1     146.773 136.660 153.633  1.00  0.00     0.042 C 
ATOM      3  O   UNL     1     147.739 136.210 154.303  1.00  0.00    -0.550 OA
ATOM      4  O   UNL     1     145.471 136.346 154.007  1.00  0.00    -0.550 OA
ENDBRANCH   1   2
BRANCH   1   5
ATOM      5  C   UNL     1     146.877 139.034 152.902  1.00  0.00     0.059 C 
BRANCH   5   6
ATOM      6  C   UNL     1     148.200 139.583 153.331  1.00  0.00     0.042 C 
ATOM      7  O   UNL     1     149.162 139.630 152.519  1.00  0.00    -0.550 OA
ATOM      8  O   UNL     1     148.386 140.002 154.643  1.00  0.00    -0.550 OA
ENDBRANCH   5   6
ENDBRANCH   1   5
TORSDOF 3
ENDMDL
MODEL 5
REMARK VINA RESULT:    -2.750      1.245      1.736
REMARK INTER + INTRA:          -3.347
REMARK INTER:                  -3.310
REMARK INTRA:                  -0.037
REMARK UNBOUND:                -0.115
REMARK SMILES O=C([O-])CCC(=O)[O-]
REMARK SMILES IDX 4 1 2 2 1 3 3 4 5 5 6 6 7 7 8 8
REMARK H PARENT
REMARK Flexibility Score: inf
ROOT
ATOM      1  C   UNL     1     147.064 139.139 152.677  1.00  0.00     0.059 C 
ENDROOT
BRANCH   1   2
ATOM      2  C   UNL     1     148.367 139.565 153.274  1.00  0.00     0.042 C 
ATOM      3  O   UNL     1     149.413 139.581 152.573  1.00  0.00    -0.550 OA
ATOM      4  O   UNL     1     148.419 139.993 154.596  1.00  0.00    -0.550 OA
ENDBRANCH   1   2
BRANCH   1   5
ATOM      5  C   UNL     1     146.677 137.745 153.177  1.00  0.00     0.059 C 
BRANCH   5   6
ATOM      6  C   UNL     1     145.190 137.625 153.292  1.00  0.00     0.042 C 
ATOM      7  O   UNL     1     144.680 136.726 154.011  1.00  0.00    -0.550 OA
ATOM      8  O   UNL     1     144.366 138.479 152.568  1.00  0.00    -0.550 OA
ENDBRANCH   5   6
ENDBRANCH   1   5
TORSDOF 3
ENDMDL
MODEL 6
REMARK VINA RESULT:    -2.732      1.524      3.799
REMARK INTER + INTRA:          -3.326
REMARK INTER:                  -3.221
REMARK INTRA:                  -0.106
REMARK UNBOUND:                -0.115
REMARK SMILES O=C([O-])CCC(=O)[O-]
REMARK SMILES IDX 4 1 2 2 1 3 3 4 5 5 6 6 7 7 8 8
REMARK H PARENT
REMARK Flexibility Score: inf
ROOT
ATOM      1  C   UNL     1     146.976 137.582 153.199  1.00  0.00     0.059 C 
ENDROOT
BRANCH   1   2
ATOM      2  C   UNL     1     146.732 136.793 151.952  1.00  0.00     0.042 C 
ATOM      3  O   UNL     1     147.231 137.166 150.857  1.00  0.00    -0.550 OA
ATOM      4  O   UNL     1     145.993 135.617 152.006  1.00  0.00    -0.550 OA
ENDBRANCH   1   2
BRANCH   1   5
ATOM      5  C   UNL     1     147.066 139.076 152.878  1.00  0.00     0.059 C 
BRANCH   5   6
ATOM      6  C   UNL     1     148.386 139.626 153.316  1.00  0.00     0.042 C 
ATOM      7  O   UNL     1     149.372 139.610 152.533  1.00  0.00    -0.550 OA
ATOM      8  O   UNL     1     148.541 140.114 154.608  1.00  0.00    -0.550 OA
ENDBRANCH   5   6
ENDBRANCH   1   5
TORSDOF 3
ENDMDL
MODEL 7
REMARK VINA RESULT:    -2.673      1.734      1.881
REMARK INTER + INTRA:          -3.257
REMARK INTER:                  -3.160
REMARK INTRA:                  -0.097
REMARK UNBOUND:                -0.115
REMARK SMILES O=C([O-])CCC(=O)[O-]
REMARK SMILES IDX 4 1 2 2 1 3 3 4 5 5 6 6 7 7 8 8
REMARK H PARENT
REMARK Flexibility Score: inf
ROOT
ATOM      1  C   UNL     1     146.909 139.295 152.840  1.00  0.00     0.059 C 
ENDROOT
BRANCH   1   2
ATOM      2  C   UNL     1     148.282 139.620 153.335  1.00  0.00     0.042 C 
ATOM      3  O   UNL     1     149.266 139.583 152.549  1.00  0.00    -0.550 OA
ATOM      4  O   UNL     1     148.471 140.013 154.655  1.00  0.00    -0.550 OA
ENDBRANCH   1   2
BRANCH   1   5
ATOM      5  C   UNL     1     146.682 137.781 152.847  1.00  0.00     0.059 C 
BRANCH   5   6
ATOM      6  C   UNL     1     146.356 137.295 151.471  1.00  0.00     0.042 C 
ATOM      7  O   UNL     1     145.166 137.023 151.159  1.00  0.00    -0.550 OA
ATOM      8  O   UNL     1     147.372 137.098 150.544  1.00  0.00    -0.550 OA
ENDBRANCH   5   6
ENDBRANCH   1   5
TORSDOF 3
ENDMDL
MODEL 8
REMARK VINA RESULT:    -2.635      6.532      7.920
REMARK INTER + INTRA:          -3.212
REMARK INTER:                  -3.088
REMARK INTRA:                  -0.124
REMARK UNBOUND:                -0.115
REMARK SMILES O=C([O-])CCC(=O)[O-]
REMARK SMILES IDX 4 1 2 2 1 3 3 4 5 5 6 6 7 7 8 8
REMARK H PARENT
REMARK Flexibility Score: inf
ROOT
ATOM      1  C   UNL     1     140.323 139.647 154.293  1.00  0.00     0.059 C 
ENDROOT
BRANCH   1   2
ATOM      2  C   UNL     1     138.926 139.475 154.798  1.00  0.00     0.042 C 
ATOM      3  O   UNL     1     138.322 140.440 155.336  1.00  0.00    -0.550 OA
ATOM      4  O   UNL     1     138.270 138.260 154.632  1.00  0.00    -0.550 OA
ENDBRANCH   1   2
BRANCH   1   5
ATOM      5  C   UNL     1     141.332 139.392 155.414  1.00  0.00     0.059 C 
BRANCH   5   6
ATOM      6  C   UNL     1     141.804 137.973 155.381  1.00  0.00     0.042 C 
ATOM      7  O   UNL     1     142.832 137.661 154.725  1.00  0.00    -0.550 OA
ATOM      8  O   UNL     1     141.081 136.985 156.038  1.00  0.00    -0.550 OA
ENDBRANCH   5   6
ENDBRANCH   1   5
TORSDOF 3
ENDMDL
MODEL 9
REMARK VINA RESULT:    -2.628      6.535      7.818
REMARK INTER + INTRA:          -3.204
REMARK INTER:                  -3.077
REMARK INTRA:                  -0.127
REMARK UNBOUND:                -0.115
REMARK SMILES O=C([O-])CCC(=O)[O-]
REMARK SMILES IDX 4 1 2 2 1 3 3 4 5 5 6 6 7 7 8 8
REMARK H PARENT
REMARK Flexibility Score: inf
ROOT
ATOM      1  C   UNL     1     141.314 139.370 155.331  1.00  0.00     0.059 C 
ENDROOT
BRANCH   1   2
ATOM      2  C   UNL     1     141.772 137.947 155.343  1.00  0.00     0.042 C 
ATOM      3  O   UNL     1     142.832 137.616 154.748  1.00  0.00    -0.550 OA
ATOM      4  O   UNL     1     141.054 136.991 156.053  1.00  0.00    -0.550 OA
ENDBRANCH   1   2
BRANCH   1   5
ATOM      5  C   UNL     1     140.306 139.598 154.202  1.00  0.00     0.059 C 
BRANCH   5   6
ATOM      6  C   UNL     1     138.907 139.479 154.717  1.00  0.00     0.042 C 
ATOM      7  O   UNL     1     138.384 140.427 155.360  1.00  0.00    -0.550 OA
ATOM      8  O   UNL     1     138.196 138.300 154.530  1.00  0.00    -0.550 OA
ENDBRANCH   5   6
ENDBRANCH   1   5
TORSDOF 3
ENDMDL
