MODEL 1
REMARK VINA RESULT:    -4.706      0.000      0.000
REMARK INTER + INTRA:          -5.483
REMARK INTER:                  -5.256
REMARK INTRA:                  -0.227
REMARK UNBOUND:                -0.227
REMARK SMILES O=C([O-])c1ccccc1C(=O)[O-]
REMARK SMILES IDX 4 1 9 2 5 3 8 4 6 5 7 6 2 7 1 8 3 9 10 10 11 11 12 12
REMARK H PARENT
REMARK Flexibility Score: inf
ROOT
ATOM      1  C   UNL     1      25.545  16.598  19.454  1.00  0.00     0.006 A 
ATOM      2  C   UNL     1      24.355  17.347  19.662  1.00  0.00     0.006 A 
ATOM      3  C   UNL     1      26.540  16.605  20.449  1.00  0.00     0.010 A 
ATOM      4  C   UNL     1      24.175  18.024  20.883  1.00  0.00     0.010 A 
ATOM      5  C   UNL     1      26.351  17.300  21.643  1.00  0.00     0.001 A 
ATOM      6  C   UNL     1      25.166  17.998  21.865  1.00  0.00     0.001 A 
ENDROOT
BRANCH   1   7
ATOM      7  C   UNL     1      25.756  15.747  18.261  1.00  0.00     0.072 C 
ATOM      8  O   UNL     1      26.513  16.132  17.330  1.00  0.00    -0.545 OA
ATOM      9  O   UNL     1      25.175  14.486  18.179  1.00  0.00    -0.545 OA
ENDBRANCH   1   7
BRANCH   2  10
ATOM     10  C   UNL     1      23.320  17.510  18.613  1.00  0.00     0.072 C 
ATOM     11  O   UNL     1      23.418  18.436  17.765  1.00  0.00    -0.545 OA
ATOM     12  O   UNL     1      22.267  16.610  18.511  1.00  0.00    -0.545 OA
ENDBRANCH   2  10
TORSDOF 2
ENDMDL
MODEL 2
REMARK VINA RESULT:    -4.679      1.446      3.152
REMARK INTER + INTRA:          -5.453
REMARK INTER:                  -5.260
REMARK INTRA:                  -0.193
REMARK UNBOUND:                -0.227
REMARK SMILES O=C([O-])c1ccccc1C(=O)[O-]
REMARK SMILES IDX 4 1 9 2 5 3 8 4 6 5 7 6 2 7 1 8 3 9 10 10 11 11 12 12
REMARK H PARENT
REMARK Flexibility Score: inf
ROOT
ATOM      1  C   UNL     1      24.333  17.984  20.041  1.00  0.00     0.006 A 
ATOM      2  C   UNL     1      25.137  17.247  19.130  1.00  0.00     0.006 A 
ATOM      3  C   UNL     1      24.759  18.119  21.376  1.00  0.00     0.010 A 
ATOM      4  C   UNL     1      26.369  16.726  19.569  1.00  0.00     0.010 A 
ATOM      5  C   UNL     1      25.973  17.576  21.796  1.00  0.00     0.001 A 
ATOM      6  C   UNL     1      26.782  16.892  20.891  1.00  0.00     0.001 A 
ENDROOT
BRANCH   1   7
ATOM      7  C   UNL     1      23.093  18.682  19.629  1.00  0.00     0.072 C 
ATOM      8  O   UNL     1      21.994  18.068  19.609  1.00  0.00    -0.545 OA
ATOM      9  O   UNL     1      23.114  20.038  19.323  1.00  0.00    -0.545 OA
ENDBRANCH   1   7
BRANCH   2  10
ATOM     10  C   UNL     1      24.699  16.936  17.749  1.00  0.00     0.072 C 
ATOM     11  O   UNL     1      25.224  17.530  16.769  1.00  0.00    -0.545 OA
ATOM     12  O   UNL     1      23.755  15.945  17.510  1.00  0.00    -0.545 OA
ENDBRANCH   2  10
TORSDOF 2
ENDMDL
MODEL 3
REMARK VINA RESULT:    -4.675      0.114      2.860
REMARK INTER + INTRA:          -5.449
REMARK INTER:                  -5.223
REMARK INTRA:                  -0.226
REMARK UNBOUND:                -0.227
REMARK SMILES O=C([O-])c1ccccc1C(=O)[O-]
REMARK SMILES IDX 4 1 9 2 5 3 8 4 6 5 7 6 2 7 1 8 3 9 10 10 11 11 12 12
REMARK H PARENT
REMARK Flexibility Score: inf
ROOT
ATOM      1  C   UNL     1      24.394  17.392  19.577  1.00  0.00     0.006 A 
ATOM      2  C   UNL     1      25.568  16.606  19.422  1.00  0.00     0.006 A 
ATOM      3  C   UNL     1      24.186  18.083  20.786  1.00  0.00     0.010 A 
ATOM      4  C   UNL     1      26.523  16.590  20.457  1.00  0.00     0.010 A 
ATOM      5  C   UNL     1      25.135  18.035  21.807  1.00  0.00     0.001 A 
ATOM      6  C   UNL     1      26.306  17.300  21.638  1.00  0.00     0.001 A 
ENDROOT
BRANCH   1   7
ATOM      7  C   UNL     1      23.407  17.578  18.488  1.00  0.00     0.072 C 
ATOM      8  O   UNL     1      23.552  18.508  17.651  1.00  0.00    -0.545 OA
ATOM      9  O   UNL     1      22.347  16.692  18.335  1.00  0.00    -0.545 OA
ENDBRANCH   1   7
BRANCH   2  10
ATOM     10  C   UNL     1      25.799  15.739  18.244  1.00  0.00     0.072 C 
ATOM     11  O   UNL     1      26.611  16.090  17.347  1.00  0.00    -0.545 OA
ATOM     12  O   UNL     1      25.177  14.501  18.142  1.00  0.00    -0.545 OA
ENDBRANCH   2  10
TORSDOF 2
ENDMDL
MODEL 4
REMARK VINA RESULT:    -4.505      2.274      3.866
REMARK INTER + INTRA:          -5.258
REMARK INTER:                  -5.202
REMARK INTRA:                  -0.056
REMARK UNBOUND:                -0.227
REMARK SMILES O=C([O-])c1ccccc1C(=O)[O-]
REMARK SMILES IDX 4 1 9 2 5 3 8 4 6 5 7 6 2 7 1 8 3 9 10 10 11 11 12 12
REMARK H PARENT
REMARK Flexibility Score: inf
ROOT
ATOM      1  C   UNL     1      27.001  16.370  19.632  1.00  0.00     0.006 A 
ATOM      2  C   UNL     1      26.697  15.556  18.507  1.00  0.00     0.006 A 
ATOM      3  C   UNL     1      28.348  16.561  19.994  1.00  0.00     0.010 A 
ATOM      4  C   UNL     1      27.752  15.015  17.748  1.00  0.00     0.010 A 
ATOM      5  C   UNL     1      29.377  15.997  19.240  1.00  0.00     0.001 A 
ATOM      6  C   UNL     1      29.080  15.236  18.112  1.00  0.00     0.001 A 
ENDROOT
BRANCH   1   7
ATOM      7  C   UNL     1      25.962  17.091  20.402  1.00  0.00     0.072 C 
ATOM      8  O   UNL     1      25.881  16.947  21.651  1.00  0.00    -0.545 OA
ATOM      9  O   UNL     1      25.105  17.985  19.770  1.00  0.00    -0.545 OA
ENDBRANCH   1   7
BRANCH   2  10
ATOM     10  C   UNL     1      25.310  15.189  18.139  1.00  0.00     0.072 C 
ATOM     11  O   UNL     1      24.648  14.402  18.867  1.00  0.00    -0.545 OA
ATOM     12  O   UNL     1      24.698  15.754  17.027  1.00  0.00    -0.545 OA
ENDBRANCH   2  10
TORSDOF 2
ENDMDL
MODEL 5
REMARK VINA RESULT:    -4.474      1.608      3.246
REMARK INTER + INTRA:          -5.224
REMARK INTER:                  -5.000
REMARK INTRA:                  -0.223
REMARK UNBOUND:                -0.227
REMARK SMILES O=C([O-])c1ccccc1C(=O)[O-]
REMARK SMILES IDX 4 1 9 2 5 3 8 4 6 5 7 6 2 7 1 8 3 9 10 10 11 11 12 12
REMARK H PARENT
REMARK Flexibility Score: inf
ROOT
ATOM      1  C   UNL     1      25.532  16.851  18.877  1.00  0.00     0.006 A 
ATOM      2  C   UNL     1      26.687  16.772  19.701  1.00  0.00     0.006 A 
ATOM      3  C   UNL     1      24.331  17.341  19.425  1.00  0.00     0.010 A 
ATOM      4  C   UNL     1      26.617  17.245  21.026  1.00  0.00     0.010 A 
ATOM      5  C   UNL     1      24.279  17.784  20.747  1.00  0.00     0.001 A 
ATOM      6  C   UNL     1      25.423  17.748  21.541  1.00  0.00     0.001 A 
ENDROOT
BRANCH   1   7
ATOM      7  C   UNL     1      25.553  16.508  17.436  1.00  0.00     0.072 C 
ATOM      8  O   UNL     1      25.803  17.393  16.575  1.00  0.00    -0.545 OA
ATOM      9  O   UNL     1      25.361  15.196  17.018  1.00  0.00    -0.545 OA
ENDBRANCH   1   7
BRANCH   2  10
ATOM     10  C   UNL     1      27.949  16.141  19.249  1.00  0.00     0.072 C 
ATOM     11  O   UNL     1      28.931  16.856  18.915  1.00  0.00    -0.545 OA
ATOM     12  O   UNL     1      28.090  14.759  19.248  1.00  0.00    -0.545 OA
ENDBRANCH   2  10
TORSDOF 2
ENDMDL
MODEL 6
REMARK VINA RESULT:    -4.462      1.607      2.467
REMARK INTER + INTRA:          -5.211
REMARK INTER:                  -4.992
REMARK INTRA:                  -0.219
REMARK UNBOUND:                -0.227
REMARK SMILES O=C([O-])c1ccccc1C(=O)[O-]
REMARK SMILES IDX 4 1 9 2 5 3 8 4 6 5 7 6 2 7 1 8 3 9 10 10 11 11 12 12
REMARK H PARENT
REMARK Flexibility Score: inf
ROOT
ATOM      1  C   UNL     1      26.700  16.751  19.720  1.00  0.00     0.006 A 
ATOM      2  C   UNL     1      25.551  16.878  18.892  1.00  0.00     0.006 A 
ATOM      3  C   UNL     1      26.639  17.212  21.049  1.00  0.00     0.010 A 
ATOM      4  C   UNL     1      24.365  17.401  19.441  1.00  0.00     0.010 A 
ATOM      5  C   UNL     1      25.460  17.748  21.566  1.00  0.00     0.001 A 
ATOM      6  C   UNL     1      24.322  17.830  20.768  1.00  0.00     0.001 A 
ENDROOT
BRANCH   1   7
ATOM      7  C   UNL     1      27.943  16.086  19.267  1.00  0.00     0.072 C 
ATOM      8  O   UNL     1      28.015  14.829  19.234  1.00  0.00    -0.545 OA
ATOM      9  O   UNL     1      29.021  16.835  18.812  1.00  0.00    -0.545 OA
ENDBRANCH   1   7
BRANCH   2  10
ATOM     10  C   UNL     1      25.568  16.550  17.447  1.00  0.00     0.072 C 
ATOM     11  O   UNL     1      25.917  17.419  16.605  1.00  0.00    -0.545 OA
ATOM     12  O   UNL     1      25.264  15.268  17.008  1.00  0.00    -0.545 OA
ENDBRANCH   2  10
TORSDOF 2
ENDMDL
MODEL 7
REMARK VINA RESULT:    -4.439     10.930     12.098
REMARK INTER + INTRA:          -5.184
REMARK INTER:                  -4.962
REMARK INTRA:                  -0.223
REMARK UNBOUND:                -0.227
REMARK SMILES O=C([O-])c1ccccc1C(=O)[O-]
REMARK SMILES IDX 4 1 9 2 5 3 8 4 6 5 7 6 2 7 1 8 3 9 10 10 11 11 12 12
REMARK H PARENT
REMARK Flexibility Score: inf
ROOT
ATOM      1  C   UNL     1      24.772   9.118  26.774  1.00  0.00     0.006 A 
ATOM      2  C   UNL     1      24.771   7.698  26.849  1.00  0.00     0.006 A 
ATOM      3  C   UNL     1      25.179   9.740  25.578  1.00  0.00     0.010 A 
ATOM      4  C   UNL     1      25.117   6.952  25.707  1.00  0.00     0.010 A 
ATOM      5  C   UNL     1      25.539   8.980  24.465  1.00  0.00     0.001 A 
ATOM      6  C   UNL     1      25.496   7.589  24.526  1.00  0.00     0.001 A 
ENDROOT
BRANCH   1   7
ATOM      7  C   UNL     1      24.290   9.978  27.879  1.00  0.00     0.072 C 
ATOM      8  O   UNL     1      23.096  10.380  27.898  1.00  0.00    -0.545 OA
ATOM      9  O   UNL     1      25.126  10.299  28.943  1.00  0.00    -0.545 OA
ENDBRANCH   1   7
BRANCH   2  10
ATOM     10  C   UNL     1      24.494   6.966  28.107  1.00  0.00     0.072 C 
ATOM     11  O   UNL     1      25.428   6.714  28.913  1.00  0.00    -0.545 OA
ATOM     12  O   UNL     1      23.195   6.605  28.445  1.00  0.00    -0.545 OA
ENDBRANCH   2  10
TORSDOF 2
ENDMDL
MODEL 8
REMARK VINA RESULT:    -4.405     10.997     11.961
REMARK INTER + INTRA:          -5.147
REMARK INTER:                  -4.915
REMARK INTRA:                  -0.231
REMARK UNBOUND:                -0.227
REMARK SMILES O=C([O-])c1ccccc1C(=O)[O-]
REMARK SMILES IDX 4 1 9 2 5 3 8 4 6 5 7 6 2 7 1 8 3 9 10 10 11 11 12 12
REMARK H PARENT
REMARK Flexibility Score: inf
ROOT
ATOM      1  C   UNL     1      24.792   7.629  26.859  1.00  0.00     0.006 A 
ATOM      2  C   UNL     1      24.748   9.049  26.812  1.00  0.00     0.006 A 
ATOM      3  C   UNL     1      25.151   6.916  25.699  1.00  0.00     0.010 A 
ATOM      4  C   UNL     1      25.126   9.707  25.626  1.00  0.00     0.010 A 
ATOM      5  C   UNL     1      25.500   7.588  24.528  1.00  0.00     0.001 A 
ATOM      6  C   UNL     1      25.499   8.980  24.496  1.00  0.00     0.001 A 
ENDROOT
BRANCH   1   7
ATOM      7  C   UNL     1      24.546   6.862  28.102  1.00  0.00     0.072 C 
ATOM      8  O   UNL     1      25.493   6.620  28.897  1.00  0.00    -0.545 OA
ATOM      9  O   UNL     1      23.261   6.455  28.441  1.00  0.00    -0.545 OA
ENDBRANCH   1   7
BRANCH   2  10
ATOM     10  C   UNL     1      24.248   9.870  27.939  1.00  0.00     0.072 C 
ATOM     11  O   UNL     1      23.029  10.183  28.003  1.00  0.00    -0.545 OA
ATOM     12  O   UNL     1      25.097  10.250  28.971  1.00  0.00    -0.545 OA
ENDBRANCH   2  10
TORSDOF 2
ENDMDL
MODEL 9
REMARK VINA RESULT:    -4.391     12.024     13.212
REMARK INTER + INTRA:          -5.131
REMARK INTER:                  -4.900
REMARK INTRA:                  -0.231
REMARK UNBOUND:                -0.227
REMARK SMILES O=C([O-])c1ccccc1C(=O)[O-]
REMARK SMILES IDX 4 1 9 2 5 3 8 4 6 5 7 6 2 7 1 8 3 9 10 10 11 11 12 12
REMARK H PARENT
REMARK Flexibility Score: inf
ROOT
ATOM      1  C   UNL     1      24.601   8.603  29.474  1.00  0.00     0.006 A 
ATOM      2  C   UNL     1      25.351   7.780  28.592  1.00  0.00     0.006 A 
ATOM      3  C   UNL     1      25.020   8.734  30.812  1.00  0.00     0.010 A 
ATOM      4  C   UNL     1      26.529   7.167  29.061  1.00  0.00     0.010 A 
ATOM      5  C   UNL     1      26.179   8.100  31.261  1.00  0.00     0.001 A 
ATOM      6  C   UNL     1      26.938   7.329  30.385  1.00  0.00     0.001 A 
ENDROOT
BRANCH   1   7
ATOM      7  C   UNL     1      23.431   9.394  29.029  1.00  0.00     0.072 C 
ATOM      8  O   UNL     1      23.584  10.568  28.597  1.00  0.00    -0.545 OA
ATOM      9  O   UNL     1      22.159   8.834  29.020  1.00  0.00    -0.545 OA
ENDBRANCH   1   7
BRANCH   2  10
ATOM     10  C   UNL     1      24.906   7.475  27.212  1.00  0.00     0.072 C 
ATOM     11  O   UNL     1      24.174   6.475  26.988  1.00  0.00    -0.545 OA
ATOM     12  O   UNL     1      25.234   8.319  26.158  1.00  0.00    -0.545 OA
ENDBRANCH   2  10
TORSDOF 2
ENDMDL
