MODEL 1
REMARK VINA RESULT:    25.726      0.000      0.000
REMARK INTER + INTRA:          43.922
REMARK INTER:                  40.765
REMARK INTRA:                   3.157
REMARK UNBOUND:                 3.157
REMARK SMILES C[C@@H]1O[C@@H](O[C@@H]2[C@@H](Oc3cc(O)c4c(c3)O[C@H](c3ccc(O)cc3)CC4=O)O[C@@H](CO)[C@H](O)[C@@H]2O)[C@H](O)[C@H](O)[C@@H]1O
REMARK SMILES IDX 6 1 34 2 32 3 29 4 28 5 7 6 5 7 4 8 1 9 2 10 40 11 3 12
REMARK SMILES IDX 38 13 36 14 41 15 39 17 37 19 35 21 8 23 9 24 10 25 15 26
REMARK SMILES IDX 11 27 14 28 13 29 16 30 26 31 17 32 27 33 25 34 12 35 18 37
REMARK SMILES IDX 19 38 24 39 20 40 23 41 21 42 22 43 33 45 30 47 31 48
REMARK H PARENT 41 16 39 18 37 20 35 22 12 36 22 44 33 46 31 49
REMARK Flexibility Score: inf
ROOT
ATOM      1  C   UNL     1      33.997  13.009   4.030  1.00  0.00     0.221 C 
ATOM      2  C   UNL     1      32.489  12.927   4.290  1.00  0.00     0.181 C 
ATOM      3  C   UNL     1      31.875  11.736   3.524  1.00  0.00     0.177 C 
ATOM      4  C   UNL     1      32.667  10.435   3.796  1.00  0.00     0.179 C 
ATOM      5  O   UNL     1      34.075  10.583   3.624  1.00  0.00    -0.332 OA
ATOM      6  C   UNL     1      34.649  11.647   4.371  1.00  0.00     0.339 C 
ENDROOT
BRANCH   1   7
ATOM      7  O   UNL     1      34.214  13.314   2.662  1.00  0.00    -0.337 OA
BRANCH   7   8
ATOM      8  C   UNL     1      33.365  14.353   2.190  1.00  0.00     0.282 C 
ATOM      9  C   UNL     1      31.875  12.557  -0.663  1.00  0.00     0.041 C 
ATOM     10  C   UNL     1      32.974  13.233   0.159  1.00  0.00     0.150 C 
ATOM     11  C   UNL     1      33.735  14.279  -0.686  1.00  0.00     0.174 C 
ATOM     12  O   UNL     1      32.382  13.837   1.301  1.00  0.00    -0.344 OA
ATOM     13  C   UNL     1      34.818  14.931   0.195  1.00  0.00     0.179 C 
ATOM     14  C   UNL     1      34.218  15.455   1.518  1.00  0.00     0.202 C 
BRANCH  11  15
ATOM     15  O   UNL     1      32.839  15.260  -1.158  1.00  0.00    -0.388 OA
ATOM     16  H   UNL     1      31.920  14.940  -0.966  1.00  0.00     0.211 HD
ENDBRANCH  11  15
BRANCH  13  17
ATOM     17  O   UNL     1      35.521  15.937  -0.495  1.00  0.00    -0.387 OA
ATOM     18  H   UNL     1      36.488  15.830  -0.299  1.00  0.00     0.211 HD
ENDBRANCH  13  17
BRANCH  14  19
ATOM     19  O   UNL     1      33.428  16.591   1.280  1.00  0.00    -0.385 OA
ATOM     20  H   UNL     1      32.660  16.296   0.721  1.00  0.00     0.211 HD
ENDBRANCH  14  19
ENDBRANCH   7   8
ENDBRANCH   1   7
BRANCH   2  21
ATOM     21  O   UNL     1      31.879  14.133   3.906  1.00  0.00    -0.387 OA
ATOM     22  H   UNL     1      30.908  13.941   3.798  1.00  0.00     0.211 HD
ENDBRANCH   2  21
BRANCH   6  23
ATOM     23  O   UNL     1      34.591  11.360   5.773  1.00  0.00    -0.462 OA
BRANCH  23  24
ATOM     24  C   UNL     1      35.373  11.952   6.779  1.00  0.00     0.130 A 
ATOM     25  C   UNL     1      36.671  12.442   6.553  1.00  0.00     0.093 A 
ATOM     26  C   UNL     1      34.826  12.038   8.063  1.00  0.00     0.094 A 
ATOM     27  C   UNL     1      37.404  13.034   7.592  1.00  0.00     0.133 A 
ATOM     28  C   UNL     1      35.558  12.596   9.115  1.00  0.00     0.138 A 
ATOM     29  C   UNL     1      36.843  13.120   8.883  1.00  0.00     0.102 A 
ATOM     30  O   UNL     1      35.004  12.627  10.400  1.00  0.00    -0.484 OA
ATOM     31  C   UNL     1      37.539  13.766  10.023  1.00  0.00     0.174 C 
ATOM     32  C   UNL     1      35.808  12.862  11.560  1.00  0.00     0.211 C 
ATOM     33  O   UNL     1      38.739  14.141   9.929  1.00  0.00    -0.294 OA
ATOM     34  C   UNL     1      36.779  14.027  11.291  1.00  0.00     0.131 C 
BRANCH  27  35
ATOM     35  O   UNL     1      38.679  13.538   7.336  1.00  0.00    -0.507 OA
ATOM     36  H   UNL     1      38.877  14.531   7.374  1.00  0.00     0.293 HD
ENDBRANCH  27  35
BRANCH  32  37
ATOM     37  C   UNL     1      34.911  13.028  12.775  1.00  0.00    -0.007 A 
ATOM     38  C   UNL     1      35.208  14.064  13.680  1.00  0.00     0.011 A 
ATOM     39  C   UNL     1      33.787  12.212  13.028  1.00  0.00     0.011 A 
ATOM     40  C   UNL     1      34.404  14.282  14.803  1.00  0.00     0.046 A 
ATOM     41  C   UNL     1      32.984  12.435  14.153  1.00  0.00     0.046 A 
ATOM     42  C   UNL     1      33.291  13.472  15.042  1.00  0.00     0.115 A 
BRANCH  42  43
ATOM     43  O   UNL     1      32.495  13.707  16.160  1.00  0.00    -0.508 OA
ATOM     44  H   UNL     1      31.994  12.956  16.622  1.00  0.00     0.293 HD
ENDBRANCH  42  43
ENDBRANCH  32  37
ENDBRANCH  23  24
ENDBRANCH   6  23
BRANCH   3  45
ATOM     45  O   UNL     1      31.877  11.989   2.139  1.00  0.00    -0.387 OA
ATOM     46  H   UNL     1      32.750  12.405   1.920  1.00  0.00     0.211 HD
ENDBRANCH   3  45
BRANCH   4  47
ATOM     47  C   UNL     1      32.286   9.769   5.138  1.00  0.00     0.191 C 
BRANCH  47  48
ATOM     48  O   UNL     1      32.021   8.404   4.955  1.00  0.00    -0.394 OA
ATOM     49  H   UNL     1      31.160   8.218   5.416  1.00  0.00     0.210 HD
ENDBRANCH  47  48
ENDBRANCH   4  47
TORSDOF 14
ENDMDL
MODEL 2
REMARK VINA RESULT:    28.383      2.872      6.335
REMARK INTER + INTRA:          48.133
REMARK INTER:                  44.155
REMARK INTRA:                   3.979
REMARK UNBOUND:                 3.157
REMARK SMILES C[C@@H]1O[C@@H](O[C@@H]2[C@@H](Oc3cc(O)c4c(c3)O[C@H](c3ccc(O)cc3)CC4=O)O[C@@H](CO)[C@H](O)[C@@H]2O)[C@H](O)[C@H](O)[C@@H]1O
REMARK SMILES IDX 6 1 34 2 32 3 29 4 28 5 7 6 5 7 4 8 1 9 2 10 40 11 3 12
REMARK SMILES IDX 38 13 36 14 41 15 39 17 37 19 35 21 8 23 9 24 10 25 15 26
REMARK SMILES IDX 11 27 14 28 13 29 16 30 26 31 17 32 27 33 25 34 12 35 18 37
REMARK SMILES IDX 19 38 24 39 20 40 23 41 21 42 22 43 33 45 30 47 31 48
REMARK H PARENT 41 16 39 18 37 20 35 22 12 36 22 44 33 46 31 49
REMARK Flexibility Score: inf
ROOT
ATOM      1  C   UNL     1      34.664  10.968   7.860  1.00  0.00     0.221 C 
ATOM      2  C   UNL     1      36.063  10.679   7.305  1.00  0.00     0.181 C 
ATOM      3  C   UNL     1      36.616  11.917   6.569  1.00  0.00     0.177 C 
ATOM      4  C   UNL     1      36.501  13.182   7.452  1.00  0.00     0.179 C 
ATOM      5  O   UNL     1      35.203  13.364   8.014  1.00  0.00    -0.332 OA
ATOM      6  C   UNL     1      34.716  12.241   8.738  1.00  0.00     0.339 C 
ENDROOT
BRANCH   1   7
ATOM      7  O   UNL     1      33.770  11.169   6.777  1.00  0.00    -0.337 OA
BRANCH   7   8
ATOM      8  C   UNL     1      34.284  10.680   5.543  1.00  0.00     0.282 C 
ATOM      9  C   UNL     1      32.094  12.587   3.273  1.00  0.00     0.041 C 
ATOM     10  C   UNL     1      32.462  11.552   4.337  1.00  0.00     0.150 C 
ATOM     11  C   UNL     1      31.900  10.160   3.974  1.00  0.00     0.174 C 
ATOM     12  O   UNL     1      33.877  11.511   4.464  1.00  0.00    -0.344 OA
ATOM     13  C   UNL     1      32.310   9.161   5.075  1.00  0.00     0.179 C 
ATOM     14  C   UNL     1      33.830   9.216   5.337  1.00  0.00     0.202 C 
BRANCH  11  15
ATOM     15  O   UNL     1      32.411   9.744   2.728  1.00  0.00    -0.388 OA
ATOM     16  H   UNL     1      31.984  10.305   2.030  1.00  0.00     0.211 HD
ENDBRANCH  11  15
BRANCH  13  17
ATOM     17  O   UNL     1      31.875   7.853   4.785  1.00  0.00    -0.387 OA
ATOM     18  H   UNL     1      32.614   7.226   4.999  1.00  0.00     0.211 HD
ENDBRANCH  13  17
BRANCH  14  19
ATOM     19  O   UNL     1      34.533   8.646   4.264  1.00  0.00    -0.385 OA
ATOM     20  H   UNL     1      35.150   9.346   3.920  1.00  0.00     0.211 HD
ENDBRANCH  14  19
ENDBRANCH   7   8
ENDBRANCH   1   7
BRANCH   2  21
ATOM     21  O   UNL     1      36.007   9.571   6.442  1.00  0.00    -0.387 OA
ATOM     22  H   UNL     1      35.463   8.877   6.903  1.00  0.00     0.211 HD
ENDBRANCH   2  21
BRANCH   6  23
ATOM     23  O   UNL     1      35.486  12.042   9.928  1.00  0.00    -0.462 OA
BRANCH  23  24
ATOM     24  C   UNL     1      35.233  12.606  11.190  1.00  0.00     0.130 A 
ATOM     25  C   UNL     1      33.954  12.641  11.772  1.00  0.00     0.093 A 
ATOM     26  C   UNL     1      36.312  13.168  11.880  1.00  0.00     0.094 A 
ATOM     27  C   UNL     1      33.760  13.207  13.040  1.00  0.00     0.133 A 
ATOM     28  C   UNL     1      36.126  13.765  13.130  1.00  0.00     0.138 A 
ATOM     29  C   UNL     1      34.854  13.769  13.731  1.00  0.00     0.102 A 
ATOM     30  O   UNL     1      37.215  14.362  13.778  1.00  0.00    -0.484 OA
ATOM     31  C   UNL     1      34.737  14.350  15.090  1.00  0.00     0.174 C 
ATOM     32  C   UNL     1      37.036  15.269  14.869  1.00  0.00     0.211 C 
ATOM     33  O   UNL     1      33.613  14.508  15.640  1.00  0.00    -0.294 OA
ATOM     34  C   UNL     1      35.985  14.705  15.845  1.00  0.00     0.131 C 
BRANCH  27  35
ATOM     35  O   UNL     1      32.486  13.204  13.609  1.00  0.00    -0.507 OA
ATOM     36  H   UNL     1      32.012  14.064  13.859  1.00  0.00     0.293 HD
ENDBRANCH  27  35
BRANCH  32  37
ATOM     37  C   UNL     1      38.385  15.598  15.483  1.00  0.00    -0.007 A 
ATOM     38  C   UNL     1      39.119  16.667  14.935  1.00  0.00     0.011 A 
ATOM     39  C   UNL     1      38.928  14.903  16.585  1.00  0.00     0.011 A 
ATOM     40  C   UNL     1      40.356  17.033  15.474  1.00  0.00     0.046 A 
ATOM     41  C   UNL     1      40.166  15.274  17.122  1.00  0.00     0.046 A 
ATOM     42  C   UNL     1      40.882  16.341  16.568  1.00  0.00     0.115 A 
BRANCH  42  43
ATOM     43  O   UNL     1      42.111  16.723  17.099  1.00  0.00    -0.508 OA
ATOM     44  H   UNL     1      42.882  17.006  16.503  1.00  0.00     0.293 HD
ENDBRANCH  42  43
ENDBRANCH  32  37
ENDBRANCH  23  24
ENDBRANCH   6  23
BRANCH   3  45
ATOM     45  O   UNL     1      35.911  12.132   5.370  1.00  0.00    -0.387 OA
ATOM     46  H   UNL     1      35.464  11.279   5.138  1.00  0.00     0.211 HD
ENDBRANCH   3  45
BRANCH   4  47
ATOM     47  C   UNL     1      37.636  13.294   8.494  1.00  0.00     0.191 C 
BRANCH  47  48
ATOM     48  O   UNL     1      38.600  14.224   8.079  1.00  0.00    -0.394 OA
ATOM     49  H   UNL     1      39.487  13.810   8.251  1.00  0.00     0.210 HD
ENDBRANCH  47  48
ENDBRANCH   4  47
TORSDOF 14
ENDMDL
