MODEL 1
REMARK VINA RESULT:    -3.772      0.000      0.000
REMARK INTER + INTRA:          -5.232
REMARK INTER:                  -4.874
REMARK INTRA:                  -0.358
REMARK UNBOUND:                -0.358
REMARK SMILES CCCCCCC(=O)[O-]
REMARK SMILES IDX 5 1 6 2 7 3 8 4 9 5 4 6 3 7 2 8 1 9
REMARK H PARENT
REMARK Flexibility Score: inf
ROOT
ATOM      1  C   UNL     1      60.226  30.049  11.448  1.00  0.00     0.006 C 
ENDROOT
BRANCH   1   2
ATOM      2  C   UNL     1      60.254  29.715   9.954  1.00  0.00     0.053 C 
BRANCH   2   3
ATOM      3  C   UNL     1      61.257  28.641   9.676  1.00  0.00     0.041 C 
ATOM      4  O   UNL     1      60.949  27.658   8.951  1.00  0.00    -0.550 OA
ATOM      5  O   UNL     1      62.517  28.698  10.258  1.00  0.00    -0.550 OA
ENDBRANCH   2   3
ENDBRANCH   1   2
BRANCH   1   6
ATOM      6  C   UNL     1      59.579  28.915  12.252  1.00  0.00     0.000 C 
BRANCH   6   7
ATOM      7  C   UNL     1      60.496  28.456  13.393  1.00  0.00    -0.000 C 
BRANCH   7   8
ATOM      8  C   UNL     1      61.600  29.485  13.658  1.00  0.00    -0.003 C 
ATOM      9  C   UNL     1      61.396  30.179  15.002  1.00  0.00     0.004 C 
ENDBRANCH   7   8
ENDBRANCH   6   7
ENDBRANCH   1   6
TORSDOF 5
ENDMDL
MODEL 2
REMARK VINA RESULT:    -3.736      1.462      1.989
REMARK INTER + INTRA:          -5.186
REMARK INTER:                  -4.877
REMARK INTRA:                  -0.309
REMARK UNBOUND:                -0.358
REMARK SMILES CCCCCCC(=O)[O-]
REMARK SMILES IDX 5 1 6 2 7 3 8 4 9 5 4 6 3 7 2 8 1 9
REMARK H PARENT
REMARK Flexibility Score: inf
ROOT
ATOM      1  C   UNL     1      60.977  28.263  10.346  1.00  0.00     0.006 C 
ENDROOT
BRANCH   1   2
ATOM      2  C   UNL     1      61.815  28.925   9.248  1.00  0.00     0.053 C 
BRANCH   2   3
ATOM      3  C   UNL     1      63.229  29.102   9.704  1.00  0.00     0.041 C 
ATOM      4  O   UNL     1      64.175  29.034   8.875  1.00  0.00    -0.550 OA
ATOM      5  O   UNL     1      63.507  29.291  11.052  1.00  0.00    -0.550 OA
ENDBRANCH   2   3
ENDBRANCH   1   2
BRANCH   1   6
ATOM      6  C   UNL     1      59.905  29.224  10.872  1.00  0.00     0.000 C 
BRANCH   6   7
ATOM      7  C   UNL     1      59.503  28.869  12.309  1.00  0.00    -0.000 C 
BRANCH   7   8
ATOM      8  C   UNL     1      60.694  28.297  13.087  1.00  0.00    -0.003 C 
ATOM      9  C   UNL     1      61.316  29.354  13.996  1.00  0.00     0.004 C 
ENDBRANCH   7   8
ENDBRANCH   6   7
ENDBRANCH   1   6
TORSDOF 5
ENDMDL
MODEL 3
REMARK VINA RESULT:    -3.710      2.449      3.833
REMARK INTER + INTRA:          -5.152
REMARK INTER:                  -4.848
REMARK INTRA:                  -0.304
REMARK UNBOUND:                -0.358
REMARK SMILES CCCCCCC(=O)[O-]
REMARK SMILES IDX 5 1 6 2 7 3 8 4 9 5 4 6 3 7 2 8 1 9
REMARK H PARENT
REMARK Flexibility Score: inf
ROOT
ATOM      1  C   UNL     1      59.822  29.045  10.220  1.00  0.00     0.006 C 
ENDROOT
BRANCH   1   2
ATOM      2  C   UNL     1      59.861  29.666  11.619  1.00  0.00     0.053 C 
BRANCH   2   3
ATOM      3  C   UNL     1      59.648  28.617  12.664  1.00  0.00     0.041 C 
ATOM      4  O   UNL     1      60.588  28.293  13.438  1.00  0.00    -0.550 OA
ATOM      5  O   UNL     1      58.428  27.959  12.751  1.00  0.00    -0.550 OA
ENDBRANCH   2   3
ENDBRANCH   1   2
BRANCH   1   6
ATOM      6  C   UNL     1      61.104  28.256   9.933  1.00  0.00     0.000 C 
BRANCH   6   7
ATOM      7  C   UNL     1      62.072  29.071   9.067  1.00  0.00    -0.000 C 
BRANCH   7   8
ATOM      8  C   UNL     1      63.490  29.036   9.646  1.00  0.00    -0.003 C 
ATOM      9  C   UNL     1      63.576  29.835  10.943  1.00  0.00     0.004 C 
ENDBRANCH   7   8
ENDBRANCH   6   7
ENDBRANCH   1   6
TORSDOF 5
ENDMDL
MODEL 4
REMARK VINA RESULT:    -3.693      1.686      2.292
REMARK INTER + INTRA:          -5.131
REMARK INTER:                  -4.931
REMARK INTRA:                  -0.200
REMARK UNBOUND:                -0.358
REMARK SMILES CCCCCCC(=O)[O-]
REMARK SMILES IDX 5 1 6 2 7 3 8 4 9 5 4 6 3 7 2 8 1 9
REMARK H PARENT
REMARK Flexibility Score: inf
ROOT
ATOM      1  C   UNL     1      60.389  28.642  12.637  1.00  0.00     0.006 C 
ENDROOT
BRANCH   1   2
ATOM      2  C   UNL     1      60.101  29.009  11.179  1.00  0.00     0.053 C 
BRANCH   2   3
ATOM      3  C   UNL     1      61.157  28.449  10.279  1.00  0.00     0.041 C 
ATOM      4  O   UNL     1      62.376  28.593  10.565  1.00  0.00    -0.550 OA
ATOM      5  O   UNL     1      60.799  27.812   9.098  1.00  0.00    -0.550 OA
ENDBRANCH   2   3
ENDBRANCH   1   2
BRANCH   1   6
ATOM      6  C   UNL     1      60.753  29.887  13.455  1.00  0.00     0.000 C 
BRANCH   6   7
ATOM      7  C   UNL     1      60.053  31.134  12.902  1.00  0.00    -0.000 C 
BRANCH   7   8
ATOM      8  C   UNL     1      60.918  32.383  13.101  1.00  0.00    -0.003 C 
ATOM      9  C   UNL     1      60.467  33.176  14.326  1.00  0.00     0.004 C 
ENDBRANCH   7   8
ENDBRANCH   6   7
ENDBRANCH   1   6
TORSDOF 5
ENDMDL
MODEL 5
REMARK VINA RESULT:    -3.691     14.265     15.364
REMARK INTER + INTRA:          -5.128
REMARK INTER:                  -4.925
REMARK INTRA:                  -0.203
REMARK UNBOUND:                -0.358
REMARK SMILES CCCCCCC(=O)[O-]
REMARK SMILES IDX 5 1 6 2 7 3 8 4 9 5 4 6 3 7 2 8 1 9
REMARK H PARENT
REMARK Flexibility Score: inf
ROOT
ATOM      1  C   UNL     1      60.791  27.834  25.753  1.00  0.00     0.006 C 
ENDROOT
BRANCH   1   2
ATOM      2  C   UNL     1      61.194  27.484  27.189  1.00  0.00     0.053 C 
BRANCH   2   3
ATOM      3  C   UNL     1      61.190  28.709  28.047  1.00  0.00     0.041 C 
ATOM      4  O   UNL     1      60.489  28.749  29.092  1.00  0.00    -0.550 OA
ATOM      5  O   UNL     1      61.922  29.827  27.667  1.00  0.00    -0.550 OA
ENDBRANCH   2   3
ENDBRANCH   1   2
BRANCH   1   6
ATOM      6  C   UNL     1      62.002  27.780  24.815  1.00  0.00     0.000 C 
BRANCH   6   7
ATOM      7  C   UNL     1      63.097  26.867  25.380  1.00  0.00    -0.000 C 
BRANCH   7   8
ATOM      8  C   UNL     1      63.558  25.848  24.332  1.00  0.00    -0.003 C 
ATOM      9  C   UNL     1      65.059  25.963  24.075  1.00  0.00     0.004 C 
ENDBRANCH   7   8
ENDBRANCH   6   7
ENDBRANCH   1   6
TORSDOF 5
ENDMDL
MODEL 6
REMARK VINA RESULT:    -3.688      1.443      2.260
REMARK INTER + INTRA:          -5.124
REMARK INTER:                  -4.674
REMARK INTRA:                  -0.451
REMARK UNBOUND:                -0.358
REMARK SMILES CCCCCCC(=O)[O-]
REMARK SMILES IDX 5 1 6 2 7 3 8 4 9 5 4 6 3 7 2 8 1 9
REMARK H PARENT
REMARK Flexibility Score: inf
ROOT
ATOM      1  C   UNL     1      62.884  29.615  11.635  1.00  0.00     0.006 C 
ENDROOT
BRANCH   1   2
ATOM      2  C   UNL     1      62.888  28.979  10.242  1.00  0.00     0.053 C 
BRANCH   2   3
ATOM      3  C   UNL     1      61.493  28.863   9.715  1.00  0.00     0.041 C 
ATOM      4  O   UNL     1      61.056  27.749   9.321  1.00  0.00    -0.550 OA
ATOM      5  O   UNL     1      60.692  29.993   9.610  1.00  0.00    -0.550 OA
ENDBRANCH   2   3
ENDBRANCH   1   2
BRANCH   1   6
ATOM      6  C   UNL     1      62.311  28.649  12.678  1.00  0.00     0.000 C 
BRANCH   6   7
ATOM      7  C   UNL     1      61.397  29.383  13.667  1.00  0.00    -0.000 C 
BRANCH   7   8
ATOM      8  C   UNL     1      60.011  29.626  13.057  1.00  0.00    -0.003 C 
ATOM      9  C   UNL     1      59.326  28.308  12.705  1.00  0.00     0.004 C 
ENDBRANCH   7   8
ENDBRANCH   6   7
ENDBRANCH   1   6
TORSDOF 5
ENDMDL
MODEL 7
REMARK VINA RESULT:    -3.686      2.031      3.991
REMARK INTER + INTRA:          -5.122
REMARK INTER:                  -4.745
REMARK INTRA:                  -0.377
REMARK UNBOUND:                -0.358
REMARK SMILES CCCCCCC(=O)[O-]
REMARK SMILES IDX 5 1 6 2 7 3 8 4 9 5 4 6 3 7 2 8 1 9
REMARK H PARENT
REMARK Flexibility Score: inf
ROOT
ATOM      1  C   UNL     1      59.561  29.200  12.070  1.00  0.00     0.006 C 
ENDROOT
BRANCH   1   2
ATOM      2  C   UNL     1      60.432  28.173  12.800  1.00  0.00     0.053 C 
BRANCH   2   3
ATOM      3  C   UNL     1      61.549  28.854  13.525  1.00  0.00     0.041 C 
ATOM      4  O   UNL     1      62.740  28.689  13.152  1.00  0.00    -0.550 OA
ATOM      5  O   UNL     1      61.280  29.631  14.645  1.00  0.00    -0.550 OA
ENDBRANCH   2   3
ENDBRANCH   1   2
BRANCH   1   6
ATOM      6  C   UNL     1      60.257  29.708  10.802  1.00  0.00     0.000 C 
BRANCH   6   7
ATOM      7  C   UNL     1      59.965  28.790   9.608  1.00  0.00    -0.000 C 
BRANCH   7   8
ATOM      8  C   UNL     1      61.252  28.137   9.091  1.00  0.00    -0.003 C 
ATOM      9  C   UNL     1      62.487  28.877   9.597  1.00  0.00     0.004 C 
ENDBRANCH   7   8
ENDBRANCH   6   7
ENDBRANCH   1   6
TORSDOF 5
ENDMDL
MODEL 8
REMARK VINA RESULT:    -3.679      1.940      2.906
REMARK INTER + INTRA:          -5.112
REMARK INTER:                  -4.680
REMARK INTRA:                  -0.432
REMARK UNBOUND:                -0.358
REMARK SMILES CCCCCCC(=O)[O-]
REMARK SMILES IDX 5 1 6 2 7 3 8 4 9 5 4 6 3 7 2 8 1 9
REMARK H PARENT
REMARK Flexibility Score: inf
ROOT
ATOM      1  C   UNL     1      61.959  28.973  13.559  1.00  0.00     0.006 C 
ENDROOT
BRANCH   1   2
ATOM      2  C   UNL     1      60.707  28.306  12.982  1.00  0.00     0.053 C 
BRANCH   2   3
ATOM      3  C   UNL     1      60.468  28.766  11.579  1.00  0.00     0.041 C 
ATOM      4  O   UNL     1      59.606  29.653  11.340  1.00  0.00    -0.550 OA
ATOM      5  O   UNL     1      61.161  28.180  10.527  1.00  0.00    -0.550 OA
ENDBRANCH   2   3
ENDBRANCH   1   2
BRANCH   1   6
ATOM      6  C   UNL     1      61.590  30.201  14.398  1.00  0.00     0.000 C 
BRANCH   6   7
ATOM      7  C   UNL     1      62.014  31.497  13.696  1.00  0.00    -0.000 C 
BRANCH   7   8
ATOM      8  C   UNL     1      60.794  32.352  13.337  1.00  0.00    -0.003 C 
ATOM      9  C   UNL     1      59.583  31.966  14.182  1.00  0.00     0.004 C 
ENDBRANCH   7   8
ENDBRANCH   6   7
ENDBRANCH   1   6
TORSDOF 5
ENDMDL
MODEL 9
REMARK VINA RESULT:    -3.587      2.274      4.098
REMARK INTER + INTRA:          -4.993
REMARK INTER:                  -4.595
REMARK INTRA:                  -0.398
REMARK UNBOUND:                -0.358
REMARK SMILES CCCCCCC(=O)[O-]
REMARK SMILES IDX 5 1 6 2 7 3 8 4 9 5 4 6 3 7 2 8 1 9
REMARK H PARENT
REMARK Flexibility Score: inf
ROOT
ATOM      1  C   UNL     1      62.233  28.631  12.934  1.00  0.00     0.006 C 
ENDROOT
BRANCH   1   2
ATOM      2  C   UNL     1      61.120  29.268  13.770  1.00  0.00     0.053 C 
BRANCH   2   3
ATOM      3  C   UNL     1      60.016  29.757  12.887  1.00  0.00     0.041 C 
ATOM      4  O   UNL     1      59.312  28.938  12.239  1.00  0.00    -0.550 OA
ATOM      5  O   UNL     1      59.796  31.121  12.739  1.00  0.00    -0.550 OA
ENDBRANCH   2   3
ENDBRANCH   1   2
BRANCH   1   6
ATOM      6  C   UNL     1      62.810  29.637  11.931  1.00  0.00     0.000 C 
BRANCH   6   7
ATOM      7  C   UNL     1      62.971  29.002  10.544  1.00  0.00    -0.000 C 
BRANCH   7   8
ATOM      8  C   UNL     1      61.781  29.345   9.641  1.00  0.00    -0.003 C 
ATOM      9  C   UNL     1      61.026  28.086   9.223  1.00  0.00     0.004 C 
ENDBRANCH   7   8
ENDBRANCH   6   7
ENDBRANCH   1   6
TORSDOF 5
ENDMDL
