MODEL 1
REMARK VINA RESULT:    -4.028      0.000      0.000
REMARK INTER + INTRA:          -6.245
REMARK INTER:                  -6.147
REMARK INTRA:                  -0.098
REMARK UNBOUND:                -0.098
REMARK SMILES CC1=CCC[C@@H](C)C(=O)C[C@@H](C(C)C)C(=O)C1
REMARK SMILES IDX 8 1 9 2 6 3 7 4 5 5 4 6 3 7 2 8 1 9 10 11 11 12 15 13 16 14
REMARK SMILES IDX 17 15 12 17 13 18 14 19
REMARK H PARENT
REMARK Flexibility Score: 70.00
ROOT
ATOM      1  C   UNL     1      87.274  38.499  28.919  1.00  0.00     0.136 C 
ATOM      2  O   UNL     1      87.494  39.646  29.283  1.00  0.00    -0.299 OA
ENDROOT
BRANCH   1   3
ATOM      3  C   UNL     1      86.067  37.758  29.465  1.00  0.00     0.053 C 
ATOM      4  C   UNL     1      86.398  36.275  29.684  1.00  0.00     0.016 C 
BRANCH   3   5
ATOM      5  C   UNL     1      84.864  37.919  28.510  1.00  0.00     0.015 C 
BRANCH   5   6
ATOM      6  C   UNL     1      84.619  36.653  27.666  1.00  0.00     0.028 C 
BRANCH   6   7
ATOM      7  C   UNL     1      84.416  37.007  26.215  1.00  0.00    -0.028 C 
ATOM      8  C   UNL     1      85.382  36.962  25.269  1.00  0.00    -0.070 CG0
ATOM      9  C   UNL     1      84.994  37.267  23.843  1.00  0.00     0.039 C 
ATOM     10  G   UNL     1      86.835  36.641  25.587  1.00  0.00     0.000 G0
ENDBRANCH   6   7
ENDBRANCH   5   6
ENDBRANCH   3   5
ENDBRANCH   1   3
BRANCH   1  11
ATOM     11  C   UNL     1      88.210  37.843  27.926  1.00  0.00     0.087 C 
BRANCH  11  12
ATOM     12  C   UNL     1      88.349  38.579  26.555  1.00  0.00     0.066 C 
BRANCH  12  13
ATOM     13  C   UNL     1      87.798  37.789  25.373  1.00  0.00     0.140 C 
ATOM     14  O   UNL     1      88.062  38.131  24.229  1.00  0.00    -0.299 OA
BRANCH  13  15
ATOM     15  C   UNL     1      86.849  36.633  25.593  1.00  0.00     0.106 CG0
ATOM     16  G   UNL     1      85.407  36.999  25.271  1.00  0.00     0.000 G0
ENDBRANCH  13  15
ENDBRANCH  12  13
BRANCH  12  17
ATOM     17  C   UNL     1      89.775  39.151  26.256  1.00  0.00    -0.006 C 
ATOM     18  C   UNL     1      90.856  38.726  27.261  1.00  0.00     0.008 C 
ATOM     19  C   UNL     1      89.754  40.684  26.132  1.00  0.00     0.008 C 
ENDBRANCH  12  17
ENDBRANCH  11  12
ENDBRANCH   1  11
TORSDOF 1
ENDMDL
MODEL 2
REMARK VINA RESULT:    -3.559      1.402      3.817
REMARK INTER + INTRA:          -5.529
REMARK INTER:                  -5.576
REMARK INTRA:                   0.048
REMARK UNBOUND:                -0.098
REMARK SMILES CC1=CCC[C@@H](C)C(=O)C[C@@H](C(C)C)C(=O)C1
REMARK SMILES IDX 8 1 9 2 6 3 7 4 5 5 4 6 3 7 2 8 1 9 10 11 11 12 15 13 16 14
REMARK SMILES IDX 17 15 12 17 13 18 14 19
REMARK H PARENT
REMARK Flexibility Score: 70.00
ROOT
ATOM      1  C   UNL     1      87.544  37.202  24.753  1.00  0.00     0.136 C 
ATOM      2  O   UNL     1      88.538  36.578  24.410  1.00  0.00    -0.299 OA
ENDROOT
BRANCH   1   3
ATOM      3  C   UNL     1      86.170  36.716  24.327  1.00  0.00     0.053 C 
ATOM      4  C   UNL     1      85.677  37.499  23.102  1.00  0.00     0.016 C 
BRANCH   3   5
ATOM      5  C   UNL     1      85.172  36.841  25.499  1.00  0.00     0.015 C 
BRANCH   5   6
ATOM      6  C   UNL     1      85.347  35.711  26.533  1.00  0.00     0.028 C 
BRANCH   6   7
ATOM      7  C   UNL     1      85.011  36.197  27.920  1.00  0.00    -0.028 C 
ATOM      8  C   UNL     1      85.912  36.688  28.803  1.00  0.00    -0.070 CG0
ATOM      9  C   UNL     1      85.400  37.212  30.122  1.00  0.00     0.039 C 
ATOM     10  G   UNL     1      87.408  36.712  28.529  1.00  0.00     0.000 G0
ENDBRANCH   6   7
ENDBRANCH   5   6
ENDBRANCH   3   5
ENDBRANCH   1   3
BRANCH   1  11
ATOM     11  C   UNL     1      87.705  38.447  25.599  1.00  0.00     0.087 C 
BRANCH  11  12
ATOM     12  C   UNL     1      88.649  38.295  26.834  1.00  0.00     0.066 C 
BRANCH  12  13
ATOM     13  C   UNL     1      87.911  38.084  28.153  1.00  0.00     0.140 C 
ATOM     14  O   UNL     1      87.787  39.010  28.941  1.00  0.00    -0.299 OA
BRANCH  13  15
ATOM     15  C   UNL     1      87.406  36.715  28.543  1.00  0.00     0.106 CG0
ATOM     16  G   UNL     1      85.908  36.704  28.810  1.00  0.00     0.000 G0
ENDBRANCH  13  15
ENDBRANCH  12  13
BRANCH  12  17
ATOM     17  C   UNL     1      89.754  39.396  26.959  1.00  0.00    -0.006 C 
ATOM     18  C   UNL     1      89.651  40.522  25.918  1.00  0.00     0.008 C 
ATOM     19  C   UNL     1      91.167  38.787  26.928  1.00  0.00     0.008 C 
ENDBRANCH  12  17
ENDBRANCH  11  12
ENDBRANCH   1  11
TORSDOF 1
ENDMDL
MODEL 3
REMARK VINA RESULT:    -3.451      1.927      4.073
REMARK INTER + INTRA:          -5.365
REMARK INTER:                  -5.226
REMARK INTRA:                  -0.139
REMARK UNBOUND:                -0.098
REMARK SMILES CC1=CCC[C@@H](C)C(=O)C[C@@H](C(C)C)C(=O)C1
REMARK SMILES IDX 8 1 9 2 6 3 7 4 5 5 4 6 3 7 2 8 1 9 10 11 11 12 15 13 16 14
REMARK SMILES IDX 17 15 12 17 13 18 14 19
REMARK H PARENT
REMARK Flexibility Score: 70.00
ROOT
ATOM      1  C   UNL     1      87.885  38.176  27.537  1.00  0.00     0.136 C 
ATOM      2  O   UNL     1      88.142  38.778  28.570  1.00  0.00    -0.299 OA
ENDROOT
BRANCH   1   3
ATOM      3  C   UNL     1      88.922  38.111  26.430  1.00  0.00     0.053 C 
ATOM      4  C   UNL     1      90.027  39.151  26.665  1.00  0.00     0.016 C 
BRANCH   3   5
ATOM      5  C   UNL     1      88.251  38.321  25.055  1.00  0.00     0.015 C 
BRANCH   5   6
ATOM      6  C   UNL     1      88.164  37.012  24.245  1.00  0.00     0.028 C 
BRANCH   6   7
ATOM      7  C   UNL     1      86.747  36.746  23.805  1.00  0.00    -0.028 C 
ATOM      8  C   UNL     1      85.932  35.815  24.353  1.00  0.00    -0.070 CG0
ATOM      9  C   UNL     1      84.512  35.733  23.853  1.00  0.00     0.039 C 
ATOM     10  G   UNL     1      86.395  34.843  25.428  1.00  0.00     0.000 G0
ENDBRANCH   6   7
ENDBRANCH   5   6
ENDBRANCH   3   5
ENDBRANCH   1   3
BRANCH   1  11
ATOM     11  C   UNL     1      86.536  37.505  27.384  1.00  0.00     0.087 C 
BRANCH  11  12
ATOM     12  C   UNL     1      86.492  35.999  27.792  1.00  0.00     0.066 C 
BRANCH  12  13
ATOM     13  C   UNL     1      85.787  35.105  26.777  1.00  0.00     0.140 C 
ATOM     14  O   UNL     1      84.748  34.535  27.078  1.00  0.00    -0.299 OA
BRANCH  13  15
ATOM     15  C   UNL     1      86.406  34.838  25.424  1.00  0.00     0.106 CG0
ATOM     16  G   UNL     1      85.923  35.816  24.363  1.00  0.00     0.000 G0
ENDBRANCH  13  15
ENDBRANCH  12  13
BRANCH  12  17
ATOM     17  C   UNL     1      85.992  35.725  29.250  1.00  0.00    -0.006 C 
ATOM     18  C   UNL     1      85.289  36.918  29.917  1.00  0.00     0.008 C 
ATOM     19  C   UNL     1      87.131  35.221  30.154  1.00  0.00     0.008 C 
ENDBRANCH  12  17
ENDBRANCH  11  12
ENDBRANCH   1  11
TORSDOF 1
ENDMDL
MODEL 4
REMARK VINA RESULT:    -3.389      2.298      3.187
REMARK INTER + INTRA:          -5.270
REMARK INTER:                  -4.808
REMARK INTRA:                  -0.462
REMARK UNBOUND:                -0.098
REMARK SMILES CC1=CCC[C@@H](C)C(=O)C[C@@H](C(C)C)C(=O)C1
REMARK SMILES IDX 8 1 9 2 6 3 7 4 5 5 4 6 3 7 2 8 1 9 10 11 11 12 15 13 16 14
REMARK SMILES IDX 17 15 12 17 13 18 14 19
REMARK H PARENT
REMARK Flexibility Score: 70.00
ROOT
ATOM      1  C   UNL     1      86.248  35.524  26.899  1.00  0.00     0.136 C 
ATOM      2  O   UNL     1      86.491  34.438  27.406  1.00  0.00    -0.299 OA
ENDROOT
BRANCH   1   3
ATOM      3  C   UNL     1      86.033  36.735  27.790  1.00  0.00     0.053 C 
ATOM      4  C   UNL     1      86.985  36.694  28.994  1.00  0.00     0.016 C 
BRANCH   3   5
ATOM      5  C   UNL     1      84.561  36.803  28.253  1.00  0.00     0.015 C 
BRANCH   5   6
ATOM      6  C   UNL     1      83.756  37.861  27.473  1.00  0.00     0.028 C 
BRANCH   6   7
ATOM      7  C   UNL     1      82.846  37.208  26.464  1.00  0.00    -0.028 C 
ATOM      8  C   UNL     1      82.965  37.338  25.123  1.00  0.00    -0.070 CG0
ATOM      9  C   UNL     1      82.023  36.549  24.247  1.00  0.00     0.039 C 
ATOM     10  G   UNL     1      83.986  38.257  24.469  1.00  0.00     0.000 G0
ENDBRANCH   6   7
ENDBRANCH   5   6
ENDBRANCH   3   5
ENDBRANCH   1   3
BRANCH   1  11
ATOM     11  C   UNL     1      86.170  35.639  25.392  1.00  0.00     0.087 C 
BRANCH  11  12
ATOM     12  C   UNL     1      86.313  37.088  24.826  1.00  0.00     0.066 C 
BRANCH  12  13
ATOM     13  C   UNL     1      85.173  37.504  23.902  1.00  0.00     0.140 C 
ATOM     14  O   UNL     1      85.251  37.298  22.700  1.00  0.00    -0.299 OA
BRANCH  13  15
ATOM     15  C   UNL     1      83.978  38.256  24.442  1.00  0.00     0.106 CG0
ATOM     16  G   UNL     1      82.969  37.335  25.112  1.00  0.00     0.000 G0
ENDBRANCH  13  15
ENDBRANCH  12  13
BRANCH  12  17
ATOM     17  C   UNL     1      87.711  37.419  24.207  1.00  0.00    -0.006 C 
ATOM     18  C   UNL     1      88.444  36.210  23.607  1.00  0.00     0.008 C 
ATOM     19  C   UNL     1      88.625  38.131  25.220  1.00  0.00     0.008 C 
ENDBRANCH  12  17
ENDBRANCH  11  12
ENDBRANCH   1  11
TORSDOF 1
ENDMDL
MODEL 5
REMARK VINA RESULT:    -3.380      2.166      3.227
REMARK INTER + INTRA:          -5.255
REMARK INTER:                  -5.221
REMARK INTRA:                  -0.034
REMARK UNBOUND:                -0.098
REMARK SMILES CC1=CCC[C@@H](C)C(=O)C[C@@H](C(C)C)C(=O)C1
REMARK SMILES IDX 8 1 9 2 6 3 7 4 5 5 4 6 3 7 2 8 1 9 10 11 11 12 15 13 16 14
REMARK SMILES IDX 17 15 12 17 13 18 14 19
REMARK H PARENT
REMARK Flexibility Score: 70.00
ROOT
ATOM      1  C   UNL     1      87.413  37.574  28.115  1.00  0.00     0.136 C 
ATOM      2  O   UNL     1      88.289  38.349  27.760  1.00  0.00    -0.299 OA
ENDROOT
BRANCH   1   3
ATOM      3  C   UNL     1      87.023  37.506  29.582  1.00  0.00     0.053 C 
ATOM      4  C   UNL     1      86.626  36.074  29.968  1.00  0.00     0.016 C 
BRANCH   3   5
ATOM      5  C   UNL     1      85.874  38.495  29.875  1.00  0.00     0.015 C 
BRANCH   5   6
ATOM      6  C   UNL     1      84.491  37.818  29.791  1.00  0.00     0.028 C 
BRANCH   6   7
ATOM      7  C   UNL     1      83.559  38.609  28.908  1.00  0.00    -0.028 C 
ATOM      8  C   UNL     1      83.206  38.255  27.650  1.00  0.00    -0.070 CG0
ATOM      9  C   UNL     1      82.196  39.113  26.930  1.00  0.00     0.039 C 
ATOM     10  G   UNL     1      83.798  37.051  26.934  1.00  0.00     0.000 G0
ENDBRANCH   6   7
ENDBRANCH   5   6
ENDBRANCH   3   5
ENDBRANCH   1   3
BRANCH   1  11
ATOM     11  C   UNL     1      86.734  36.698  27.085  1.00  0.00     0.087 C 
BRANCH  11  12
ATOM     12  C   UNL     1      86.181  37.449  25.832  1.00  0.00     0.066 C 
BRANCH  12  13
ATOM     13  C   UNL     1      84.659  37.452  25.736  1.00  0.00     0.140 C 
ATOM     14  O   UNL     1      84.109  37.857  24.723  1.00  0.00    -0.299 OA
BRANCH  13  15
ATOM     15  C   UNL     1      83.811  37.041  26.918  1.00  0.00     0.106 CG0
ATOM     16  G   UNL     1      83.199  38.236  27.634  1.00  0.00     0.000 G0
ENDBRANCH  13  15
ENDBRANCH  12  13
BRANCH  12  17
ATOM     17  C   UNL     1      86.847  37.046  24.475  1.00  0.00    -0.006 C 
ATOM     18  C   UNL     1      86.827  35.538  24.179  1.00  0.00     0.008 C 
ATOM     19  C   UNL     1      88.286  37.578  24.370  1.00  0.00     0.008 C 
ENDBRANCH  12  17
ENDBRANCH  11  12
ENDBRANCH   1  11
TORSDOF 1
ENDMDL
MODEL 6
REMARK VINA RESULT:    -3.287      3.528      5.676
REMARK INTER + INTRA:          -5.114
REMARK INTER:                  -5.116
REMARK INTRA:                   0.001
REMARK UNBOUND:                -0.098
REMARK SMILES CC1=CCC[C@@H](C)C(=O)C[C@@H](C(C)C)C(=O)C1
REMARK SMILES IDX 8 1 9 2 6 3 7 4 5 5 4 6 3 7 2 8 1 9 10 11 11 12 15 13 16 14
REMARK SMILES IDX 17 15 12 17 13 18 14 19
REMARK H PARENT
REMARK Flexibility Score: 70.00
ROOT
ATOM      1  C   UNL     1      84.443  36.796  30.286  1.00  0.00     0.136 C 
ATOM      2  O   UNL     1      83.355  37.061  29.795  1.00  0.00    -0.299 OA
ENDROOT
BRANCH   1   3
ATOM      3  C   UNL     1      85.623  37.720  30.037  1.00  0.00     0.053 C 
ATOM      4  C   UNL     1      85.356  39.108  30.638  1.00  0.00     0.016 C 
BRANCH   3   5
ATOM      5  C   UNL     1      85.911  37.822  28.523  1.00  0.00     0.015 C 
BRANCH   5   6
ATOM      6  C   UNL     1      86.983  36.812  28.067  1.00  0.00     0.028 C 
BRANCH   6   7
ATOM      7  C   UNL     1      86.344  35.563  27.515  1.00  0.00    -0.028 C 
ATOM      8  C   UNL     1      86.443  34.335  28.075  1.00  0.00    -0.070 CG0
ATOM      9  C   UNL     1      85.671  33.204  27.443  1.00  0.00     0.039 C 
ATOM     10  G   UNL     1      87.309  34.050  29.292  1.00  0.00     0.000 G0
ENDBRANCH   6   7
ENDBRANCH   5   6
ENDBRANCH   3   5
ENDBRANCH   1   3
BRANCH   1  11
ATOM     11  C   UNL     1      84.592  35.551  31.134  1.00  0.00     0.087 C 
BRANCH  11  12
ATOM     12  C   UNL     1      86.062  35.087  31.384  1.00  0.00     0.066 C 
BRANCH  12  13
ATOM     13  C   UNL     1      86.473  33.870  30.560  1.00  0.00     0.140 C 
ATOM     14  O   UNL     1      86.197  32.745  30.949  1.00  0.00    -0.299 OA
BRANCH  13  15
ATOM     15  C   UNL     1      87.302  34.032  29.307  1.00  0.00     0.106 CG0
ATOM     16  G   UNL     1      86.451  34.343  28.085  1.00  0.00     0.000 G0
ENDBRANCH  13  15
ENDBRANCH  12  13
BRANCH  12  17
ATOM     17  C   UNL     1      86.456  34.927  32.890  1.00  0.00    -0.006 C 
ATOM     18  C   UNL     1      87.742  34.120  33.129  1.00  0.00     0.008 C 
ATOM     19  C   UNL     1      85.305  34.328  33.716  1.00  0.00     0.008 C 
ENDBRANCH  12  17
ENDBRANCH  11  12
ENDBRANCH   1  11
TORSDOF 1
ENDMDL
MODEL 7
REMARK VINA RESULT:    -3.211      3.801      5.545
REMARK INTER + INTRA:          -4.999
REMARK INTER:                  -4.879
REMARK INTRA:                  -0.120
REMARK UNBOUND:                -0.098
REMARK SMILES CC1=CCC[C@@H](C)C(=O)C[C@@H](C(C)C)C(=O)C1
REMARK SMILES IDX 8 1 9 2 6 3 7 4 5 5 4 6 3 7 2 8 1 9 10 11 11 12 15 13 16 14
REMARK SMILES IDX 17 15 12 17 13 18 14 19
REMARK H PARENT
REMARK Flexibility Score: 70.00
ROOT
ATOM      1  C   UNL     1      87.337  33.847  30.553  1.00  0.00     0.136 C 
ATOM      2  O   UNL     1      87.335  32.666  30.235  1.00  0.00    -0.299 OA
ENDROOT
BRANCH   1   3
ATOM      3  C   UNL     1      87.403  34.228  32.021  1.00  0.00     0.053 C 
ATOM      4  C   UNL     1      88.754  33.817  32.625  1.00  0.00     0.016 C 
BRANCH   3   5
ATOM      5  C   UNL     1      86.234  33.580  32.794  1.00  0.00     0.015 C 
BRANCH   5   6
ATOM      6  C   UNL     1      84.956  34.441  32.742  1.00  0.00     0.028 C 
BRANCH   6   7
ATOM      7  C   UNL     1      83.938  33.833  31.811  1.00  0.00    -0.028 C 
ATOM      8  C   UNL     1      83.447  34.439  30.705  1.00  0.00    -0.070 CG0
ATOM      9  C   UNL     1      82.495  33.660  29.832  1.00  0.00     0.039 C 
ATOM     10  G   UNL     1      83.798  35.870  30.324  1.00  0.00     0.000 G0
ENDBRANCH   6   7
ENDBRANCH   5   6
ENDBRANCH   3   5
ENDBRANCH   1   3
BRANCH   1  11
ATOM     11  C   UNL     1      87.277  34.906  29.473  1.00  0.00     0.087 C 
BRANCH  11  12
ATOM     12  C   UNL     1      86.366  36.133  29.794  1.00  0.00     0.066 C 
BRANCH  12  13
ATOM     13  C   UNL     1      84.923  35.969  29.326  1.00  0.00     0.140 C 
ATOM     14  O   UNL     1      84.661  35.975  28.132  1.00  0.00    -0.299 OA
BRANCH  13  15
ATOM     15  C   UNL     1      83.793  35.890  30.326  1.00  0.00     0.106 CG0
ATOM     16  G   UNL     1      83.448  34.456  30.698  1.00  0.00     0.000 G0
ENDBRANCH  13  15
ENDBRANCH  12  13
BRANCH  12  17
ATOM     17  C   UNL     1      86.956  37.520  29.375  1.00  0.00    -0.006 C 
ATOM     18  C   UNL     1      85.993  38.704  29.557  1.00  0.00     0.008 C 
ATOM     19  C   UNL     1      87.486  37.498  27.931  1.00  0.00     0.008 C 
ENDBRANCH  12  17
ENDBRANCH  11  12
ENDBRANCH   1  11
TORSDOF 1
ENDMDL
MODEL 8
REMARK VINA RESULT:    -3.111      3.529      5.861
REMARK INTER + INTRA:          -4.845
REMARK INTER:                  -4.735
REMARK INTRA:                  -0.110
REMARK UNBOUND:                -0.098
REMARK SMILES CC1=CCC[C@@H](C)C(=O)C[C@@H](C(C)C)C(=O)C1
REMARK SMILES IDX 8 1 9 2 6 3 7 4 5 5 4 6 3 7 2 8 1 9 10 11 11 12 15 13 16 14
REMARK SMILES IDX 17 15 12 17 13 18 14 19
REMARK H PARENT
REMARK Flexibility Score: 70.00
ROOT
ATOM      1  C   UNL     1      83.442  38.667  23.132  1.00  0.00     0.136 C 
ATOM      2  O   UNL     1      82.433  39.247  23.508  1.00  0.00    -0.299 OA
ENDROOT
BRANCH   1   3
ATOM      3  C   UNL     1      83.676  38.456  21.646  1.00  0.00     0.053 C 
ATOM      4  C   UNL     1      83.814  39.804  20.925  1.00  0.00     0.016 C 
BRANCH   3   5
ATOM      5  C   UNL     1      82.527  37.621  21.039  1.00  0.00     0.015 C 
BRANCH   5   6
ATOM      6  C   UNL     1      82.855  36.114  21.014  1.00  0.00     0.028 C 
BRANCH   6   7
ATOM      7  C   UNL     1      82.047  35.373  22.048  1.00  0.00    -0.028 C 
ATOM      8  C   UNL     1      82.572  34.709  23.104  1.00  0.00    -0.070 CG0
ATOM      9  C   UNL     1      81.620  34.088  24.096  1.00  0.00     0.039 C 
ATOM     10  G   UNL     1      84.070  34.548  23.317  1.00  0.00     0.000 G0
ENDBRANCH   6   7
ENDBRANCH   5   6
ENDBRANCH   3   5
ENDBRANCH   1   3
BRANCH   1  11
ATOM     11  C   UNL     1      84.441  38.175  24.158  1.00  0.00     0.087 C 
BRANCH  11  12
ATOM     12  C   UNL     1      85.232  36.890  23.754  1.00  0.00     0.066 C 
BRANCH  12  13
ATOM     13  C   UNL     1      84.618  35.596  24.279  1.00  0.00     0.140 C 
ATOM     14  O   UNL     1      84.636  35.351  25.476  1.00  0.00    -0.299 OA
BRANCH  13  15
ATOM     15  C   UNL     1      84.063  34.563  23.325  1.00  0.00     0.106 CG0
ATOM     16  G   UNL     1      82.563  34.708  23.123  1.00  0.00     0.000 G0
ENDBRANCH  13  15
ENDBRANCH  12  13
BRANCH  12  17
ATOM     17  C   UNL     1      86.772  36.952  24.024  1.00  0.00    -0.006 C 
ATOM     18  C   UNL     1      87.519  35.636  23.756  1.00  0.00     0.008 C 
ATOM     19  C   UNL     1      87.078  37.441  25.450  1.00  0.00     0.008 C 
ENDBRANCH  12  17
ENDBRANCH  11  12
ENDBRANCH   1  11
TORSDOF 1
ENDMDL
MODEL 9
REMARK VINA RESULT:    -3.077      2.714      4.385
REMARK INTER + INTRA:          -4.793
REMARK INTER:                  -4.342
REMARK INTRA:                  -0.451
REMARK UNBOUND:                -0.098
REMARK SMILES CC1=CCC[C@@H](C)C(=O)C[C@@H](C(C)C)C(=O)C1
REMARK SMILES IDX 8 1 9 2 6 3 7 4 5 5 4 6 3 7 2 8 1 9 10 11 11 12 15 13 16 14
REMARK SMILES IDX 17 15 12 17 13 18 14 19
REMARK H PARENT
REMARK Flexibility Score: 70.00
ROOT
ATOM      1  C   UNL     1      86.748  37.862  28.831  1.00  0.00     0.136 C 
ATOM      2  O   UNL     1      87.633  38.610  29.221  1.00  0.00    -0.299 OA
ENDROOT
BRANCH   1   3
ATOM      3  C   UNL     1      85.400  37.867  29.533  1.00  0.00     0.053 C 
ATOM      4  C   UNL     1      84.963  39.305  29.848  1.00  0.00     0.016 C 
BRANCH   3   5
ATOM      5  C   UNL     1      85.465  37.016  30.820  1.00  0.00     0.015 C 
BRANCH   5   6
ATOM      6  C   UNL     1      84.701  35.685  30.673  1.00  0.00     0.028 C 
BRANCH   6   7
ATOM      7  C   UNL     1      85.656  34.518  30.657  1.00  0.00    -0.028 C 
ATOM      8  C   UNL     1      85.901  33.738  29.579  1.00  0.00    -0.070 CG0
ATOM      9  C   UNL     1      86.949  32.661  29.705  1.00  0.00     0.039 C 
ATOM     10  G   UNL     1      85.152  33.890  28.263  1.00  0.00     0.000 G0
ENDBRANCH   6   7
ENDBRANCH   5   6
ENDBRANCH   3   5
ENDBRANCH   1   3
BRANCH   1  11
ATOM     11  C   UNL     1      87.013  36.947  27.655  1.00  0.00     0.087 C 
BRANCH  11  12
ATOM     12  C   UNL     1      85.768  36.166  27.126  1.00  0.00     0.066 C 
BRANCH  12  13
ATOM     13  C   UNL     1      85.905  34.649  27.221  1.00  0.00     0.140 C 
ATOM     14  O   UNL     1      86.583  34.042  26.405  1.00  0.00    -0.299 OA
BRANCH  13  15
ATOM     15  C   UNL     1      85.137  33.870  28.264  1.00  0.00     0.106 CG0
ATOM     16  G   UNL     1      85.906  33.736  29.570  1.00  0.00     0.000 G0
ENDBRANCH  13  15
ENDBRANCH  12  13
BRANCH  12  17
ATOM     17  C   UNL     1      85.260  36.613  25.715  1.00  0.00    -0.006 C 
ATOM     18  C   UNL     1      86.317  37.322  24.852  1.00  0.00     0.008 C 
ATOM     19  C   UNL     1      84.001  37.491  25.819  1.00  0.00     0.008 C 
ENDBRANCH  12  17
ENDBRANCH  11  12
ENDBRANCH   1  11
TORSDOF 1
ENDMDL
