MODEL 1
REMARK VINA RESULT:    -4.333      0.000      0.000
REMARK INTER + INTRA:          -8.967
REMARK INTER:                  -7.880
REMARK INTRA:                  -1.087
REMARK UNBOUND:                -1.087
REMARK SMILES CCCCCC=CCC=CCCCCCCCC(=O)[O-]
REMARK SMILES IDX 11 1 12 2 13 3 14 4 15 5 16 6 17 7 18 8 19 9 20 10 10 11
REMARK SMILES IDX 9 12 8 13 7 14 6 15 5 16 4 17 3 18 2 19 1 20
REMARK H PARENT
REMARK Flexibility Score: inf
ROOT
ATOM      1  C   UNL     1     -24.251  97.597  29.507  1.00  0.00     0.027 C 
ENDROOT
BRANCH   1   2
ATOM      2  C   UNL     1     -25.626  97.004  29.863  1.00  0.00     0.004 C 
BRANCH   2   3
ATOM      3  C   UNL     1     -26.108  95.894  28.906  1.00  0.00     0.000 C 
BRANCH   3   4
ATOM      4  C   UNL     1     -25.452  94.517  29.127  1.00  0.00     0.000 C 
BRANCH   4   5
ATOM      5  C   UNL     1     -26.412  93.403  29.588  1.00  0.00     0.000 C 
BRANCH   5   6
ATOM      6  C   UNL     1     -25.734  92.071  29.955  1.00  0.00     0.006 C 
BRANCH   6   7
ATOM      7  C   UNL     1     -24.679  91.637  28.929  1.00  0.00     0.053 C 
BRANCH   7   8
ATOM      8  C   UNL     1     -23.367  91.385  29.605  1.00  0.00     0.041 C 
ATOM      9  O   UNL     1     -22.387  92.145  29.388  1.00  0.00    -0.550 OA
ATOM     10  O   UNL     1     -23.241  90.339  30.510  1.00  0.00    -0.550 OA
ENDBRANCH   7   8
ENDBRANCH   6   7
ENDBRANCH   5   6
ENDBRANCH   4   5
ENDBRANCH   3   4
ENDBRANCH   2   3
ENDBRANCH   1   2
BRANCH   1  11
ATOM     11  C   UNL     1     -24.361  98.895  28.755  1.00  0.00    -0.031 C 
ATOM     12  C   UNL     1     -25.306  99.802  29.048  1.00  0.00    -0.027 C 
BRANCH  12  13
ATOM     13  C   UNL     1     -25.388 101.109  28.311  1.00  0.00     0.054 C 
BRANCH  13  14
ATOM     14  C   UNL     1     -25.459 102.266  29.269  1.00  0.00    -0.027 C 
ATOM     15  C   UNL     1     -24.424 102.561  30.067  1.00  0.00    -0.031 C 
BRANCH  15  16
ATOM     16  C   UNL     1     -24.476 103.717  31.027  1.00  0.00     0.027 C 
BRANCH  16  17
ATOM     17  C   UNL     1     -25.673 104.633  30.723  1.00  0.00     0.004 C 
BRANCH  17  18
ATOM     18  C   UNL     1     -25.245 105.993  30.148  1.00  0.00     0.000 C 
BRANCH  18  19
ATOM     19  C   UNL     1     -25.097 105.967  28.621  1.00  0.00    -0.003 C 
ATOM     20  C   UNL     1     -23.628 106.005  28.209  1.00  0.00     0.004 C 
ENDBRANCH  18  19
ENDBRANCH  17  18
ENDBRANCH  16  17
ENDBRANCH  15  16
ENDBRANCH  13  14
ENDBRANCH  12  13
ENDBRANCH   1  11
TORSDOF 14
ENDMDL
MODEL 2
REMARK VINA RESULT:    -4.256      5.006     10.916
REMARK INTER + INTRA:          -8.826
REMARK INTER:                  -7.924
REMARK INTRA:                  -0.902
REMARK UNBOUND:                -1.087
REMARK SMILES CCCCCC=CCC=CCCCCCCCC(=O)[O-]
REMARK SMILES IDX 11 1 12 2 13 3 14 4 15 5 16 6 17 7 18 8 19 9 20 10 10 11
REMARK SMILES IDX 9 12 8 13 7 14 6 15 5 16 4 17 3 18 2 19 1 20
REMARK H PARENT
REMARK Flexibility Score: inf
ROOT
ATOM      1  C   UNL     1     -23.845  98.684  28.803  1.00  0.00     0.027 C 
ENDROOT
BRANCH   1   2
ATOM      2  C   UNL     1     -24.370 100.103  28.524  1.00  0.00     0.004 C 
BRANCH   2   3
ATOM      3  C   UNL     1     -25.608 100.499  29.356  1.00  0.00     0.000 C 
BRANCH   3   4
ATOM      4  C   UNL     1     -25.859 102.016  29.464  1.00  0.00     0.000 C 
BRANCH   4   5
ATOM      5  C   UNL     1     -24.591 102.880  29.608  1.00  0.00     0.000 C 
BRANCH   5   6
ATOM      6  C   UNL     1     -24.610 103.871  30.786  1.00  0.00     0.006 C 
BRANCH   6   7
ATOM      7  C   UNL     1     -25.684 104.956  30.633  1.00  0.00     0.053 C 
BRANCH   7   8
ATOM      8  C   UNL     1     -25.119 106.154  29.937  1.00  0.00     0.041 C 
ATOM      9  O   UNL     1     -25.713 106.647  28.942  1.00  0.00    -0.550 OA
ATOM     10  O   UNL     1     -23.963 106.756  30.416  1.00  0.00    -0.550 OA
ENDBRANCH   7   8
ENDBRANCH   6   7
ENDBRANCH   5   6
ENDBRANCH   4   5
ENDBRANCH   3   4
ENDBRANCH   2   3
ENDBRANCH   1   2
BRANCH   1  11
ATOM     11  C   UNL     1     -24.905  97.632  28.616  1.00  0.00    -0.031 C 
ATOM     12  C   UNL     1     -25.273  96.816  29.616  1.00  0.00    -0.027 C 
BRANCH  12  13
ATOM     13  C   UNL     1     -26.353  95.789  29.427  1.00  0.00     0.054 C 
BRANCH  13  14
ATOM     14  C   UNL     1     -25.768  94.411  29.286  1.00  0.00    -0.027 C 
ATOM     15  C   UNL     1     -26.362  93.352  29.853  1.00  0.00    -0.031 C 
BRANCH  15  16
ATOM     16  C   UNL     1     -25.793  91.966  29.717  1.00  0.00     0.027 C 
BRANCH  16  17
ATOM     17  C   UNL     1     -25.276  91.719  28.292  1.00  0.00     0.004 C 
BRANCH  17  18
ATOM     18  C   UNL     1     -23.879  91.077  28.273  1.00  0.00     0.000 C 
BRANCH  18  19
ATOM     19  C   UNL     1     -22.829  91.929  29.001  1.00  0.00    -0.003 C 
ATOM     20  C   UNL     1     -22.285  91.201  30.226  1.00  0.00     0.004 C 
ENDBRANCH  18  19
ENDBRANCH  17  18
ENDBRANCH  16  17
ENDBRANCH  15  16
ENDBRANCH  13  14
ENDBRANCH  12  13
ENDBRANCH   1  11
TORSDOF 14
ENDMDL
MODEL 3
REMARK VINA RESULT:    -4.229      4.381     10.779
REMARK INTER + INTRA:          -8.777
REMARK INTER:                  -7.793
REMARK INTRA:                  -0.984
REMARK UNBOUND:                -1.087
REMARK SMILES CCCCCC=CCC=CCCCCCCCC(=O)[O-]
REMARK SMILES IDX 11 1 12 2 13 3 14 4 15 5 16 6 17 7 18 8 19 9 20 10 10 11
REMARK SMILES IDX 9 12 8 13 7 14 6 15 5 16 4 17 3 18 2 19 1 20
REMARK H PARENT
REMARK Flexibility Score: inf
ROOT
ATOM      1  C   UNL     1     -25.392 100.866  28.497  1.00  0.00     0.027 C 
ENDROOT
BRANCH   1   2
ATOM      2  C   UNL     1     -25.506 101.715  29.775  1.00  0.00     0.004 C 
BRANCH   2   3
ATOM      3  C   UNL     1     -24.262 102.573  30.083  1.00  0.00     0.000 C 
BRANCH   3   4
ATOM      4  C   UNL     1     -24.509 103.756  31.039  1.00  0.00     0.000 C 
BRANCH   4   5
ATOM      5  C   UNL     1     -25.589 104.755  30.577  1.00  0.00     0.000 C 
BRANCH   5   6
ATOM      6  C   UNL     1     -25.053 106.122  30.113  1.00  0.00     0.006 C 
BRANCH   6   7
ATOM      7  C   UNL     1     -25.277 106.372  28.616  1.00  0.00     0.053 C 
BRANCH   7   8
ATOM      8  C   UNL     1     -24.381 105.495  27.801  1.00  0.00     0.041 C 
ATOM      9  O   UNL     1     -23.137 105.691  27.795  1.00  0.00    -0.550 OA
ATOM     10  O   UNL     1     -24.913 104.429  27.086  1.00  0.00    -0.550 OA
ENDBRANCH   7   8
ENDBRANCH   6   7
ENDBRANCH   5   6
ENDBRANCH   4   5
ENDBRANCH   3   4
ENDBRANCH   2   3
ENDBRANCH   1   2
BRANCH   1  11
ATOM     11  C   UNL     1     -24.863  99.484  28.768  1.00  0.00    -0.031 C 
ATOM     12  C   UNL     1     -25.462  98.658  29.639  1.00  0.00    -0.027 C 
BRANCH  12  13
ATOM     13  C   UNL     1     -24.942  97.269  29.880  1.00  0.00     0.054 C 
BRANCH  13  14
ATOM     14  C   UNL     1     -25.734  96.254  29.103  1.00  0.00    -0.027 C 
ATOM     15  C   UNL     1     -25.976  95.037  29.609  1.00  0.00    -0.031 C 
BRANCH  15  16
ATOM     16  C   UNL     1     -26.771  94.013  28.847  1.00  0.00     0.027 C 
BRANCH  16  17
ATOM     17  C   UNL     1     -25.912  92.783  28.515  1.00  0.00     0.004 C 
BRANCH  17  18
ATOM     18  C   UNL     1     -25.678  91.878  29.736  1.00  0.00     0.000 C 
BRANCH  18  19
ATOM     19  C   UNL     1     -24.240  91.346  29.807  1.00  0.00    -0.003 C 
ATOM     20  C   UNL     1     -23.645  91.182  28.412  1.00  0.00     0.004 C 
ENDBRANCH  18  19
ENDBRANCH  17  18
ENDBRANCH  16  17
ENDBRANCH  15  16
ENDBRANCH  13  14
ENDBRANCH  12  13
ENDBRANCH   1  11
TORSDOF 14
ENDMDL
MODEL 4
REMARK VINA RESULT:    -4.162      1.723      3.645
REMARK INTER + INTRA:          -8.656
REMARK INTER:                  -7.153
REMARK INTRA:                  -1.502
REMARK UNBOUND:                -1.087
REMARK SMILES CCCCCC=CCC=CCCCCCCCC(=O)[O-]
REMARK SMILES IDX 11 1 12 2 13 3 14 4 15 5 16 6 17 7 18 8 19 9 20 10 10 11
REMARK SMILES IDX 9 12 8 13 7 14 6 15 5 16 4 17 3 18 2 19 1 20
REMARK H PARENT
REMARK Flexibility Score: inf
ROOT
ATOM      1  C   UNL     1     -26.766  94.740  28.634  1.00  0.00     0.027 C 
ENDROOT
BRANCH   1   2
ATOM      2  C   UNL     1     -26.441  93.434  29.381  1.00  0.00     0.004 C 
BRANCH   2   3
ATOM      3  C   UNL     1     -26.147  92.231  28.461  1.00  0.00     0.000 C 
BRANCH   3   4
ATOM      4  C   UNL     1     -24.844  91.472  28.783  1.00  0.00     0.000 C 
BRANCH   4   5
ATOM      5  C   UNL     1     -23.666  92.358  29.233  1.00  0.00     0.000 C 
BRANCH   5   6
ATOM      6  C   UNL     1     -22.747  92.844  28.097  1.00  0.00     0.006 C 
BRANCH   6   7
ATOM      7  C   UNL     1     -22.271  94.289  28.294  1.00  0.00     0.053 C 
BRANCH   7   8
ATOM      8  C   UNL     1     -21.036  94.321  29.139  1.00  0.00     0.041 C 
ATOM      9  O   UNL     1     -20.261  93.329  29.164  1.00  0.00    -0.550 OA
ATOM     10  O   UNL     1     -20.716  95.464  29.860  1.00  0.00    -0.550 OA
ENDBRANCH   7   8
ENDBRANCH   6   7
ENDBRANCH   5   6
ENDBRANCH   4   5
ENDBRANCH   3   4
ENDBRANCH   2   3
ENDBRANCH   1   2
BRANCH   1  11
ATOM     11  C   UNL     1     -25.596  95.685  28.592  1.00  0.00    -0.031 C 
ATOM     12  C   UNL     1     -25.168  96.327  29.689  1.00  0.00    -0.027 C 
BRANCH  12  13
ATOM     13  C   UNL     1     -23.980  97.246  29.642  1.00  0.00     0.054 C 
BRANCH  13  14
ATOM     14  C   UNL     1     -24.349  98.574  29.041  1.00  0.00    -0.027 C 
ATOM     15  C   UNL     1     -25.294  99.342  29.602  1.00  0.00    -0.031 C 
BRANCH  15  16
ATOM     16  C   UNL     1     -25.671 100.675  29.018  1.00  0.00     0.027 C 
BRANCH  16  17
ATOM     17  C   UNL     1     -25.588 101.786  30.077  1.00  0.00     0.004 C 
BRANCH  17  18
ATOM     18  C   UNL     1     -24.357 102.688  29.892  1.00  0.00     0.000 C 
BRANCH  18  19
ATOM     19  C   UNL     1     -24.411 103.945  30.771  1.00  0.00    -0.003 C 
ATOM     20  C   UNL     1     -25.727 104.693  30.579  1.00  0.00     0.004 C 
ENDBRANCH  18  19
ENDBRANCH  17  18
ENDBRANCH  16  17
ENDBRANCH  15  16
ENDBRANCH  13  14
ENDBRANCH  12  13
ENDBRANCH   1  11
TORSDOF 14
ENDMDL
MODEL 5
REMARK VINA RESULT:    -4.157     13.068     15.967
REMARK INTER + INTRA:          -8.646
REMARK INTER:                  -6.410
REMARK INTRA:                  -2.236
REMARK UNBOUND:                -1.087
REMARK SMILES CCCCCC=CCC=CCCCCCCCC(=O)[O-]
REMARK SMILES IDX 11 1 12 2 13 3 14 4 15 5 16 6 17 7 18 8 19 9 20 10 10 11
REMARK SMILES IDX 9 12 8 13 7 14 6 15 5 16 4 17 3 18 2 19 1 20
REMARK H PARENT
REMARK Flexibility Score: inf
ROOT
ATOM      1  C   UNL     1     -13.985 104.995  24.453  1.00  0.00     0.027 C 
ENDROOT
BRANCH   1   2
ATOM      2  C   UNL     1     -14.437 106.412  24.056  1.00  0.00     0.004 C 
BRANCH   2   3
ATOM      3  C   UNL     1     -13.574 107.071  22.960  1.00  0.00     0.000 C 
BRANCH   3   4
ATOM      4  C   UNL     1     -12.408 107.933  23.482  1.00  0.00     0.000 C 
BRANCH   4   5
ATOM      5  C   UNL     1     -11.070 107.187  23.652  1.00  0.00     0.000 C 
BRANCH   5   6
ATOM      6  C   UNL     1     -10.480 107.227  25.073  1.00  0.00     0.006 C 
BRANCH   6   7
ATOM      7  C   UNL     1     -11.525 107.571  26.143  1.00  0.00     0.053 C 
BRANCH   7   8
ATOM      8  C   UNL     1     -11.578 106.497  27.184  1.00  0.00     0.041 C 
ATOM      9  O   UNL     1     -11.910 106.778  28.366  1.00  0.00    -0.550 OA
ATOM     10  O   UNL     1     -11.309 105.180  26.839  1.00  0.00    -0.550 OA
ENDBRANCH   7   8
ENDBRANCH   6   7
ENDBRANCH   5   6
ENDBRANCH   4   5
ENDBRANCH   3   4
ENDBRANCH   2   3
ENDBRANCH   1   2
BRANCH   1  11
ATOM     11  C   UNL     1     -13.649 104.143  23.259  1.00  0.00    -0.031 C 
ATOM     12  C   UNL     1     -14.080 102.877  23.153  1.00  0.00    -0.027 C 
BRANCH  12  13
ATOM     13  C   UNL     1     -13.763 102.044  21.943  1.00  0.00     0.054 C 
BRANCH  13  14
ATOM     14  C   UNL     1     -14.991 101.822  21.104  1.00  0.00    -0.027 C 
ATOM     15  C   UNL     1     -16.213 101.847  21.655  1.00  0.00    -0.031 C 
BRANCH  15  16
ATOM     16  C   UNL     1     -17.451 101.633  20.829  1.00  0.00     0.027 C 
BRANCH  16  17
ATOM     17  C   UNL     1     -18.321 102.900  20.800  1.00  0.00     0.004 C 
BRANCH  17  18
ATOM     18  C   UNL     1     -17.799 103.996  21.742  1.00  0.00     0.000 C 
BRANCH  18  19
ATOM     19  C   UNL     1     -17.475 105.303  21.004  1.00  0.00    -0.003 C 
ATOM     20  C   UNL     1     -16.002 105.359  20.610  1.00  0.00     0.004 C 
ENDBRANCH  18  19
ENDBRANCH  17  18
ENDBRANCH  16  17
ENDBRANCH  15  16
ENDBRANCH  13  14
ENDBRANCH  12  13
ENDBRANCH   1  11
TORSDOF 14
ENDMDL
MODEL 6
REMARK VINA RESULT:    -4.155     12.785     14.616
REMARK INTER + INTRA:          -8.642
REMARK INTER:                  -6.590
REMARK INTRA:                  -2.052
REMARK UNBOUND:                -1.087
REMARK SMILES CCCCCC=CCC=CCCCCCCCC(=O)[O-]
REMARK SMILES IDX 11 1 12 2 13 3 14 4 15 5 16 6 17 7 18 8 19 9 20 10 10 11
REMARK SMILES IDX 9 12 8 13 7 14 6 15 5 16 4 17 3 18 2 19 1 20
REMARK H PARENT
REMARK Flexibility Score: inf
ROOT
ATOM      1  C   UNL     1     -13.856 103.325  22.635  1.00  0.00     0.027 C 
ENDROOT
BRANCH   1   2
ATOM      2  C   UNL     1     -14.373 101.977  22.103  1.00  0.00     0.004 C 
BRANCH   2   3
ATOM      3  C   UNL     1     -15.371 102.095  20.932  1.00  0.00     0.000 C 
BRANCH   3   4
ATOM      4  C   UNL     1     -16.777 101.532  21.219  1.00  0.00     0.000 C 
BRANCH   4   5
ATOM      5  C   UNL     1     -17.885 102.592  21.376  1.00  0.00     0.000 C 
BRANCH   5   6
ATOM      6  C   UNL     1     -17.827 103.748  20.361  1.00  0.00     0.006 C 
BRANCH   6   7
ATOM      7  C   UNL     1     -19.217 104.212  19.906  1.00  0.00     0.053 C 
BRANCH   7   8
ATOM      8  C   UNL     1     -19.572 103.585  18.595  1.00  0.00     0.041 C 
ATOM      9  O   UNL     1     -19.976 102.392  18.553  1.00  0.00    -0.550 OA
ATOM     10  O   UNL     1     -19.506 104.331  17.426  1.00  0.00    -0.550 OA
ENDBRANCH   7   8
ENDBRANCH   6   7
ENDBRANCH   5   6
ENDBRANCH   4   5
ENDBRANCH   3   4
ENDBRANCH   2   3
ENDBRANCH   1   2
BRANCH   1  11
ATOM     11  C   UNL     1     -14.747 104.475  22.251  1.00  0.00    -0.031 C 
ATOM     12  C   UNL     1     -15.589 105.039  23.131  1.00  0.00    -0.027 C 
BRANCH  12  13
ATOM     13  C   UNL     1     -16.453 106.206  22.745  1.00  0.00     0.054 C 
BRANCH  13  14
ATOM     14  C   UNL     1     -15.682 107.495  22.820  1.00  0.00    -0.027 C 
ATOM     15  C   UNL     1     -14.951 107.795  23.902  1.00  0.00    -0.031 C 
BRANCH  15  16
ATOM     16  C   UNL     1     -14.170 109.078  23.992  1.00  0.00     0.027 C 
BRANCH  16  17
ATOM     17  C   UNL     1     -12.689 108.802  24.298  1.00  0.00     0.004 C 
BRANCH  17  18
ATOM     18  C   UNL     1     -12.030 107.887  23.253  1.00  0.00     0.000 C 
BRANCH  18  19
ATOM     19  C   UNL     1     -11.066 106.873  23.884  1.00  0.00    -0.003 C 
ATOM     20  C   UNL     1     -11.824 105.685  24.470  1.00  0.00     0.004 C 
ENDBRANCH  18  19
ENDBRANCH  17  18
ENDBRANCH  16  17
ENDBRANCH  15  16
ENDBRANCH  13  14
ENDBRANCH  12  13
ENDBRANCH   1  11
TORSDOF 14
ENDMDL
MODEL 7
REMARK VINA RESULT:    -4.140      1.495      2.406
REMARK INTER + INTRA:          -8.615
REMARK INTER:                  -7.487
REMARK INTRA:                  -1.128
REMARK UNBOUND:                -1.087
REMARK SMILES CCCCCC=CCC=CCCCCCCCC(=O)[O-]
REMARK SMILES IDX 11 1 12 2 13 3 14 4 15 5 16 6 17 7 18 8 19 9 20 10 10 11
REMARK SMILES IDX 9 12 8 13 7 14 6 15 5 16 4 17 3 18 2 19 1 20
REMARK H PARENT
REMARK Flexibility Score: inf
ROOT
ATOM      1  C   UNL     1     -24.228  99.100  27.642  1.00  0.00     0.027 C 
ENDROOT
BRANCH   1   2
ATOM      2  C   UNL     1     -23.223  98.385  28.562  1.00  0.00     0.004 C 
BRANCH   2   3
ATOM      3  C   UNL     1     -23.519  96.887  28.786  1.00  0.00     0.000 C 
BRANCH   3   4
ATOM      4  C   UNL     1     -24.656  96.593  29.783  1.00  0.00     0.000 C 
BRANCH   4   5
ATOM      5  C   UNL     1     -26.033  96.328  29.144  1.00  0.00     0.000 C 
BRANCH   5   6
ATOM      6  C   UNL     1     -26.291  94.865  28.739  1.00  0.00     0.006 C 
BRANCH   6   7
ATOM      7  C   UNL     1     -26.256  93.902  29.932  1.00  0.00     0.053 C 
BRANCH   7   8
ATOM      8  C   UNL     1     -25.991  92.504  29.466  1.00  0.00     0.041 C 
ATOM      9  O   UNL     1     -25.559  91.639  30.273  1.00  0.00    -0.550 OA
ATOM     10  O   UNL     1     -26.267  92.145  28.154  1.00  0.00    -0.550 OA
ENDBRANCH   7   8
ENDBRANCH   6   7
ENDBRANCH   5   6
ENDBRANCH   4   5
ENDBRANCH   3   4
ENDBRANCH   2   3
ENDBRANCH   1   2
BRANCH   1  11
ATOM     11  C   UNL     1     -24.709 100.404  28.219  1.00  0.00    -0.031 C 
ATOM     12  C   UNL     1     -25.522 100.446  29.285  1.00  0.00    -0.027 C 
BRANCH  12  13
ATOM     13  C   UNL     1     -25.972 101.755  29.871  1.00  0.00     0.054 C 
BRANCH  13  14
ATOM     14  C   UNL     1     -24.821 102.715  29.996  1.00  0.00    -0.027 C 
ATOM     15  C   UNL     1     -25.011 103.958  30.456  1.00  0.00    -0.031 C 
BRANCH  15  16
ATOM     16  C   UNL     1     -23.870 104.929  30.592  1.00  0.00     0.027 C 
BRANCH  16  17
ATOM     17  C   UNL     1     -24.270 106.325  30.089  1.00  0.00     0.004 C 
BRANCH  17  18
ATOM     18  C   UNL     1     -25.753 106.408  29.692  1.00  0.00     0.000 C 
BRANCH  18  19
ATOM     19  C   UNL     1     -25.967 107.156  28.369  1.00  0.00    -0.003 C 
ATOM     20  C   UNL     1     -24.649 107.344  27.624  1.00  0.00     0.004 C 
ENDBRANCH  18  19
ENDBRANCH  17  18
ENDBRANCH  16  17
ENDBRANCH  15  16
ENDBRANCH  13  14
ENDBRANCH  12  13
ENDBRANCH   1  11
TORSDOF 14
ENDMDL
MODEL 8
REMARK VINA RESULT:    -4.119      1.804      2.944
REMARK INTER + INTRA:          -8.577
REMARK INTER:                  -7.036
REMARK INTRA:                  -1.542
REMARK UNBOUND:                -1.087
REMARK SMILES CCCCCC=CCC=CCCCCCCCC(=O)[O-]
REMARK SMILES IDX 11 1 12 2 13 3 14 4 15 5 16 6 17 7 18 8 19 9 20 10 10 11
REMARK SMILES IDX 9 12 8 13 7 14 6 15 5 16 4 17 3 18 2 19 1 20
REMARK H PARENT
REMARK Flexibility Score: inf
ROOT
ATOM      1  C   UNL     1     -22.737  96.107  28.844  1.00  0.00     0.027 C 
ENDROOT
BRANCH   1   2
ATOM      2  C   UNL     1     -23.233  94.788  28.225  1.00  0.00     0.004 C 
BRANCH   2   3
ATOM      3  C   UNL     1     -23.701  94.909  26.760  1.00  0.00     0.000 C 
BRANCH   3   4
ATOM      4  C   UNL     1     -25.153  94.461  26.504  1.00  0.00     0.000 C 
BRANCH   4   5
ATOM      5  C   UNL     1     -26.217  95.166  27.368  1.00  0.00     0.000 C 
BRANCH   5   6
ATOM      6  C   UNL     1     -27.123  94.224  28.181  1.00  0.00     0.006 C 
BRANCH   6   7
ATOM      7  C   UNL     1     -26.478  93.766  29.496  1.00  0.00     0.053 C 
BRANCH   7   8
ATOM      8  C   UNL     1     -26.078  92.327  29.406  1.00  0.00     0.041 C 
ATOM      9  O   UNL     1     -25.522  91.762  30.385  1.00  0.00    -0.550 OA
ATOM     10  O   UNL     1     -26.361  91.596  28.260  1.00  0.00    -0.550 OA
ENDBRANCH   7   8
ENDBRANCH   6   7
ENDBRANCH   5   6
ENDBRANCH   4   5
ENDBRANCH   3   4
ENDBRANCH   2   3
ENDBRANCH   1   2
BRANCH   1  11
ATOM     11  C   UNL     1     -23.763  96.742  29.744  1.00  0.00    -0.031 C 
ATOM     12  C   UNL     1     -24.739  97.524  29.259  1.00  0.00    -0.027 C 
BRANCH  12  13
ATOM     13  C   UNL     1     -25.775  98.129  30.163  1.00  0.00     0.054 C 
BRANCH  13  14
ATOM     14  C   UNL     1     -25.976  99.587  29.854  1.00  0.00    -0.027 C 
ATOM     15  C   UNL     1     -25.019 100.297  29.242  1.00  0.00    -0.031 C 
BRANCH  15  16
ATOM     16  C   UNL     1     -25.206 101.755  28.921  1.00  0.00     0.027 C 
BRANCH  16  17
ATOM     17  C   UNL     1     -25.302 102.595  30.204  1.00  0.00     0.004 C 
BRANCH  17  18
ATOM     18  C   UNL     1     -23.999 103.349  30.515  1.00  0.00     0.000 C 
BRANCH  18  19
ATOM     19  C   UNL     1     -24.185 104.872  30.517  1.00  0.00    -0.003 C 
ATOM     20  C   UNL     1     -25.662 105.245  30.417  1.00  0.00     0.004 C 
ENDBRANCH  18  19
ENDBRANCH  17  18
ENDBRANCH  16  17
ENDBRANCH  15  16
ENDBRANCH  13  14
ENDBRANCH  12  13
ENDBRANCH   1  11
TORSDOF 14
ENDMDL
MODEL 9
REMARK VINA RESULT:    -4.108      1.624      3.236
REMARK INTER + INTRA:          -8.556
REMARK INTER:                  -7.401
REMARK INTRA:                  -1.155
REMARK UNBOUND:                -1.087
REMARK SMILES CCCCCC=CCC=CCCCCCCCC(=O)[O-]
REMARK SMILES IDX 11 1 12 2 13 3 14 4 15 5 16 6 17 7 18 8 19 9 20 10 10 11
REMARK SMILES IDX 9 12 8 13 7 14 6 15 5 16 4 17 3 18 2 19 1 20
REMARK H PARENT
REMARK Flexibility Score: inf
ROOT
ATOM      1  C   UNL     1     -25.148 100.897  27.902  1.00  0.00     0.027 C 
ENDROOT
BRANCH   1   2
ATOM      2  C   UNL     1     -24.545  99.534  28.284  1.00  0.00     0.004 C 
BRANCH   2   3
ATOM      3  C   UNL     1     -25.269  98.821  29.445  1.00  0.00     0.000 C 
BRANCH   3   4
ATOM      4  C   UNL     1     -24.736  97.413  29.774  1.00  0.00     0.000 C 
BRANCH   4   5
ATOM      5  C   UNL     1     -25.812  96.314  29.871  1.00  0.00     0.000 C 
BRANCH   5   6
ATOM      6  C   UNL     1     -25.976  95.451  28.607  1.00  0.00     0.006 C 
BRANCH   6   7
ATOM      7  C   UNL     1     -26.698  94.125  28.880  1.00  0.00     0.053 C 
BRANCH   7   8
ATOM      8  C   UNL     1     -25.754  92.975  28.723  1.00  0.00     0.041 C 
ATOM      9  O   UNL     1     -24.512  93.158  28.815  1.00  0.00    -0.550 OA
ATOM     10  O   UNL     1     -26.248  91.692  28.523  1.00  0.00    -0.550 OA
ENDBRANCH   7   8
ENDBRANCH   6   7
ENDBRANCH   5   6
ENDBRANCH   4   5
ENDBRANCH   3   4
ENDBRANCH   2   3
ENDBRANCH   1   2
BRANCH   1  11
ATOM     11  C   UNL     1     -25.355 101.790  29.095  1.00  0.00    -0.031 C 
ATOM     12  C   UNL     1     -24.346 102.487  29.638  1.00  0.00    -0.027 C 
BRANCH  12  13
ATOM     13  C   UNL     1     -24.571 103.399  30.811  1.00  0.00     0.054 C 
BRANCH  13  14
ATOM     14  C   UNL     1     -25.464 104.550  30.437  1.00  0.00    -0.027 C 
ATOM     15  C   UNL     1     -25.002 105.563  29.691  1.00  0.00    -0.031 C 
BRANCH  15  16
ATOM     16  C   UNL     1     -25.883 106.718  29.303  1.00  0.00     0.027 C 
BRANCH  16  17
ATOM     17  C   UNL     1     -25.417 107.348  27.981  1.00  0.00     0.004 C 
BRANCH  17  18
ATOM     18  C   UNL     1     -26.130 106.750  26.758  1.00  0.00     0.000 C 
BRANCH  18  19
ATOM     19  C   UNL     1     -25.162 106.046  25.797  1.00  0.00    -0.003 C 
ATOM     20  C   UNL     1     -24.989 104.576  26.169  1.00  0.00     0.004 C 
ENDBRANCH  18  19
ENDBRANCH  17  18
ENDBRANCH  16  17
ENDBRANCH  15  16
ENDBRANCH  13  14
ENDBRANCH  12  13
ENDBRANCH   1  11
TORSDOF 14
ENDMDL
