MODEL 1
REMARK VINA RESULT:    -2.946      0.000      0.000
REMARK INTER + INTRA:          -6.637
REMARK INTER:                  -5.358
REMARK INTRA:                  -1.279
REMARK UNBOUND:                -1.279
REMARK SMILES CCCCCCCCCCCCCC[C@H](C)C(=O)[O-]
REMARK SMILES IDX 9 1 10 2 11 3 12 4 13 5 14 6 15 7 16 8 17 9 18 10 19 11 8 12
REMARK SMILES IDX 7 13 6 14 5 15 4 16 3 17 2 18 1 19
REMARK H PARENT
REMARK Flexibility Score: inf
ROOT
ATOM      1  C   UNL     1      19.040  20.630  20.182  1.00  0.00     0.000 C 
ENDROOT
BRANCH   1   2
ATOM      2  C   UNL     1      20.084  21.158  21.178  1.00  0.00     0.000 C 
BRANCH   2   3
ATOM      3  C   UNL     1      21.493  21.111  20.569  1.00  0.00     0.000 C 
BRANCH   3   4
ATOM      4  C   UNL     1      21.487  20.823  19.056  1.00  0.00     0.000 C 
BRANCH   4   5
ATOM      5  C   UNL     1      22.735  21.304  18.292  1.00  0.00     0.001 C 
BRANCH   5   6
ATOM      6  C   UNL     1      23.914  21.790  19.165  1.00  0.00     0.009 C 
BRANCH   6   7
ATOM      7  C   UNL     1      25.125  20.832  19.303  1.00  0.00     0.032 C 
ATOM      8  C   UNL     1      25.362  19.974  18.051  1.00  0.00     0.014 C 
BRANCH   7   9
ATOM      9  C   UNL     1      25.069  20.013  20.568  1.00  0.00     0.044 C 
ATOM     10  O   UNL     1      24.616  18.836  20.567  1.00  0.00    -0.550 OA
ATOM     11  O   UNL     1      25.541  20.556  21.757  1.00  0.00    -0.550 OA
ENDBRANCH   7   9
ENDBRANCH   6   7
ENDBRANCH   5   6
ENDBRANCH   4   5
ENDBRANCH   3   4
ENDBRANCH   2   3
ENDBRANCH   1   2
BRANCH   1  12
ATOM     12  C   UNL     1      18.243  21.757  19.506  1.00  0.00     0.000 C 
BRANCH  12  13
ATOM     13  C   UNL     1      17.845  21.417  18.061  1.00  0.00    -0.000 C 
BRANCH  13  14
ATOM     14  C   UNL     1      16.407  20.879  18.005  1.00  0.00    -0.000 C 
BRANCH  14  15
ATOM     15  C   UNL     1      16.352  19.345  17.910  1.00  0.00    -0.000 C 
BRANCH  15  16
ATOM     16  C   UNL     1      17.652  18.743  17.351  1.00  0.00    -0.000 C 
BRANCH  16  17
ATOM     17  C   UNL     1      18.189  17.590  18.214  1.00  0.00    -0.000 C 
BRANCH  17  18
ATOM     18  C   UNL     1      19.001  16.570  17.402  1.00  0.00    -0.003 C 
ATOM     19  C   UNL     1      18.239  15.257  17.251  1.00  0.00     0.004 C 
ENDBRANCH  17  18
ENDBRANCH  16  17
ENDBRANCH  15  16
ENDBRANCH  14  15
ENDBRANCH  13  14
ENDBRANCH  12  13
ENDBRANCH   1  12
TORSDOF 14
ENDMDL
MODEL 2
REMARK VINA RESULT:    -2.740     21.070     23.225
REMARK INTER + INTRA:          -6.262
REMARK INTER:                  -5.758
REMARK INTRA:                  -0.504
REMARK UNBOUND:                -1.279
REMARK SMILES CCCCCCCCCCCCCC[C@H](C)C(=O)[O-]
REMARK SMILES IDX 9 1 10 2 11 3 12 4 13 5 14 6 15 7 16 8 17 9 18 10 19 11 8 12
REMARK SMILES IDX 7 13 6 14 5 15 4 16 3 17 2 18 1 19
REMARK H PARENT
REMARK Flexibility Score: inf
ROOT
ATOM      1  C   UNL     1       6.674  13.850  35.042  1.00  0.00     0.000 C 
ENDROOT
BRANCH   1   2
ATOM      2  C   UNL     1       5.878  12.995  36.039  1.00  0.00     0.000 C 
BRANCH   2   3
ATOM      3  C   UNL     1       6.277  11.516  35.932  1.00  0.00     0.000 C 
BRANCH   3   4
ATOM      4  C   UNL     1       6.044  10.931  34.526  1.00  0.00     0.000 C 
BRANCH   4   5
ATOM      5  C   UNL     1       5.876   9.400  34.473  1.00  0.00     0.001 C 
BRANCH   5   6
ATOM      6  C   UNL     1       7.177   8.585  34.294  1.00  0.00     0.009 C 
BRANCH   6   7
ATOM      7  C   UNL     1       7.022   7.059  34.065  1.00  0.00     0.032 C 
ATOM      8  C   UNL     1       5.929   6.711  33.042  1.00  0.00     0.014 C 
BRANCH   7   9
ATOM      9  C   UNL     1       6.875   6.295  35.356  1.00  0.00     0.044 C 
ATOM     10  O   UNL     1       7.564   6.587  36.372  1.00  0.00    -0.550 OA
ATOM     11  O   UNL     1       5.951   5.260  35.438  1.00  0.00    -0.550 OA
ENDBRANCH   7   9
ENDBRANCH   6   7
ENDBRANCH   5   6
ENDBRANCH   4   5
ENDBRANCH   3   4
ENDBRANCH   2   3
ENDBRANCH   1   2
BRANCH   1  12
ATOM     12  C   UNL     1       5.896  15.087  34.568  1.00  0.00     0.000 C 
BRANCH  12  13
ATOM     13  C   UNL     1       6.650  16.399  34.829  1.00  0.00    -0.000 C 
BRANCH  13  14
ATOM     14  C   UNL     1       5.895  17.592  34.223  1.00  0.00    -0.000 C 
BRANCH  14  15
ATOM     15  C   UNL     1       6.556  18.941  34.552  1.00  0.00    -0.000 C 
BRANCH  15  16
ATOM     16  C   UNL     1       5.887  20.118  33.822  1.00  0.00    -0.000 C 
BRANCH  16  17
ATOM     17  C   UNL     1       6.082  20.059  32.299  1.00  0.00    -0.000 C 
BRANCH  17  18
ATOM     18  C   UNL     1       7.315  20.844  31.827  1.00  0.00    -0.003 C 
ATOM     19  C   UNL     1       6.979  21.725  30.628  1.00  0.00     0.004 C 
ENDBRANCH  17  18
ENDBRANCH  16  17
ENDBRANCH  15  16
ENDBRANCH  14  15
ENDBRANCH  13  14
ENDBRANCH  12  13
ENDBRANCH   1  12
TORSDOF 14
ENDMDL
MODEL 3
REMARK VINA RESULT:    -2.708      1.237      3.689
REMARK INTER + INTRA:          -6.204
REMARK INTER:                  -4.319
REMARK INTRA:                  -1.884
REMARK UNBOUND:                -1.279
REMARK SMILES CCCCCCCCCCCCCC[C@H](C)C(=O)[O-]
REMARK SMILES IDX 9 1 10 2 11 3 12 4 13 5 14 6 15 7 16 8 17 9 18 10 19 11 8 12
REMARK SMILES IDX 7 13 6 14 5 15 4 16 3 17 2 18 1 19
REMARK H PARENT
REMARK Flexibility Score: inf
ROOT
ATOM      1  C   UNL     1      18.073  18.082  18.143  1.00  0.00     0.000 C 
ENDROOT
BRANCH   1   2
ATOM      2  C   UNL     1      19.487  17.968  17.553  1.00  0.00     0.000 C 
BRANCH   2   3
ATOM      3  C   UNL     1      19.968  19.325  17.019  1.00  0.00     0.000 C 
BRANCH   3   4
ATOM      4  C   UNL     1      21.500  19.473  17.047  1.00  0.00     0.000 C 
BRANCH   4   5
ATOM      5  C   UNL     1      22.022  20.771  17.693  1.00  0.00     0.001 C 
BRANCH   5   6
ATOM      6  C   UNL     1      23.457  20.710  18.264  1.00  0.00     0.009 C 
BRANCH   6   7
ATOM      7  C   UNL     1      23.595  20.646  19.807  1.00  0.00     0.032 C 
ATOM      8  C   UNL     1      23.691  22.032  20.463  1.00  0.00     0.014 C 
BRANCH   7   9
ATOM      9  C   UNL     1      24.698  19.716  20.248  1.00  0.00     0.044 C 
ATOM     10  O   UNL     1      25.491  20.034  21.175  1.00  0.00    -0.550 OA
ATOM     11  O   UNL     1      24.834  18.477  19.633  1.00  0.00    -0.550 OA
ENDBRANCH   7   9
ENDBRANCH   6   7
ENDBRANCH   5   6
ENDBRANCH   4   5
ENDBRANCH   3   4
ENDBRANCH   2   3
ENDBRANCH   1   2
BRANCH   1  12
ATOM     12  C   UNL     1      16.996  18.281  17.065  1.00  0.00     0.000 C 
BRANCH  12  13
ATOM     13  C   UNL     1      16.276  19.633  17.190  1.00  0.00    -0.000 C 
BRANCH  13  14
ATOM     14  C   UNL     1      16.650  20.331  18.507  1.00  0.00    -0.000 C 
BRANCH  14  15
ATOM     15  C   UNL     1      17.407  21.650  18.283  1.00  0.00    -0.000 C 
BRANCH  15  16
ATOM     16  C   UNL     1      18.389  21.967  19.424  1.00  0.00    -0.000 C 
BRANCH  16  17
ATOM     17  C   UNL     1      18.948  20.701  20.092  1.00  0.00    -0.000 C 
BRANCH  17  18
ATOM     18  C   UNL     1      20.135  20.995  21.023  1.00  0.00    -0.003 C 
ATOM     19  C   UNL     1      19.804  22.125  21.993  1.00  0.00     0.004 C 
ENDBRANCH  17  18
ENDBRANCH  16  17
ENDBRANCH  15  16
ENDBRANCH  14  15
ENDBRANCH  13  14
ENDBRANCH  12  13
ENDBRANCH   1  12
TORSDOF 14
ENDMDL
MODEL 4
REMARK VINA RESULT:    -2.510      2.642      6.587
REMARK INTER + INTRA:          -5.844
REMARK INTER:                  -4.586
REMARK INTRA:                  -1.257
REMARK UNBOUND:                -1.279
REMARK SMILES CCCCCCCCCCCCCC[C@H](C)C(=O)[O-]
REMARK SMILES IDX 9 1 10 2 11 3 12 4 13 5 14 6 15 7 16 8 17 9 18 10 19 11 8 12
REMARK SMILES IDX 7 13 6 14 5 15 4 16 3 17 2 18 1 19
REMARK H PARENT
REMARK Flexibility Score: inf
ROOT
ATOM      1  C   UNL     1      20.485  20.528  20.488  1.00  0.00     0.000 C 
ENDROOT
BRANCH   1   2
ATOM      2  C   UNL     1      19.044  21.038  20.642  1.00  0.00     0.000 C 
BRANCH   2   3
ATOM      3  C   UNL     1      18.269  20.893  19.324  1.00  0.00     0.000 C 
BRANCH   3   4
ATOM      4  C   UNL     1      17.376  19.639  19.285  1.00  0.00     0.000 C 
BRANCH   4   5
ATOM      5  C   UNL     1      16.676  19.374  17.939  1.00  0.00     0.001 C 
BRANCH   5   6
ATOM      6  C   UNL     1      17.269  18.230  17.085  1.00  0.00     0.009 C 
BRANCH   6   7
ATOM      7  C   UNL     1      18.676  17.715  17.483  1.00  0.00     0.032 C 
ATOM      8  C   UNL     1      19.817  18.549  16.879  1.00  0.00     0.014 C 
BRANCH   7   9
ATOM      9  C   UNL     1      18.841  16.237  17.232  1.00  0.00     0.044 C 
ATOM     10  O   UNL     1      17.841  15.484  17.076  1.00  0.00    -0.550 OA
ATOM     11  O   UNL     1      20.118  15.694  17.154  1.00  0.00    -0.550 OA
ENDBRANCH   7   9
ENDBRANCH   6   7
ENDBRANCH   5   6
ENDBRANCH   4   5
ENDBRANCH   3   4
ENDBRANCH   2   3
ENDBRANCH   1   2
BRANCH   1  12
ATOM     12  C   UNL     1      21.501  21.667  20.312  1.00  0.00     0.000 C 
BRANCH  12  13
ATOM     13  C   UNL     1      21.731  22.034  18.837  1.00  0.00    -0.000 C 
BRANCH  13  14
ATOM     14  C   UNL     1      23.204  21.835  18.450  1.00  0.00    -0.000 C 
BRANCH  14  15
ATOM     15  C   UNL     1      23.627  20.357  18.466  1.00  0.00    -0.000 C 
BRANCH  15  16
ATOM     16  C   UNL     1      25.136  20.173  18.234  1.00  0.00    -0.000 C 
BRANCH  16  17
ATOM     17  C   UNL     1      25.962  20.382  19.513  1.00  0.00    -0.000 C 
BRANCH  17  18
ATOM     18  C   UNL     1      25.465  19.525  20.687  1.00  0.00    -0.003 C 
ATOM     19  C   UNL     1      25.688  18.040  20.416  1.00  0.00     0.004 C 
ENDBRANCH  17  18
ENDBRANCH  16  17
ENDBRANCH  15  16
ENDBRANCH  14  15
ENDBRANCH  13  14
ENDBRANCH  12  13
ENDBRANCH   1  12
TORSDOF 14
ENDMDL
MODEL 5
REMARK VINA RESULT:    -2.272      2.148      6.204
REMARK INTER + INTRA:          -5.411
REMARK INTER:                  -3.931
REMARK INTRA:                  -1.481
REMARK UNBOUND:                -1.279
REMARK SMILES CCCCCCCCCCCCCC[C@H](C)C(=O)[O-]
REMARK SMILES IDX 9 1 10 2 11 3 12 4 13 5 14 6 15 7 16 8 17 9 18 10 19 11 8 12
REMARK SMILES IDX 7 13 6 14 5 15 4 16 3 17 2 18 1 19
REMARK H PARENT
REMARK Flexibility Score: inf
ROOT
ATOM      1  C   UNL     1      19.800  17.605  16.933  1.00  0.00     0.000 C 
ENDROOT
BRANCH   1   2
ATOM      2  C   UNL     1      18.335  17.948  17.244  1.00  0.00     0.000 C 
BRANCH   2   3
ATOM      3  C   UNL     1      18.052  17.828  18.748  1.00  0.00     0.000 C 
BRANCH   3   4
ATOM      4  C   UNL     1      17.611  19.158  19.386  1.00  0.00     0.000 C 
BRANCH   4   5
ATOM      5  C   UNL     1      17.919  20.418  18.555  1.00  0.00     0.001 C 
BRANCH   5   6
ATOM      6  C   UNL     1      18.168  21.713  19.361  1.00  0.00     0.009 C 
BRANCH   6   7
ATOM      7  C   UNL     1      19.637  22.030  19.742  1.00  0.00     0.032 C 
ATOM      8  C   UNL     1      20.581  22.062  18.530  1.00  0.00     0.014 C 
BRANCH   7   9
ATOM      9  C   UNL     1      20.147  21.149  20.854  1.00  0.00     0.044 C 
ATOM     10  O   UNL     1      19.668  21.222  22.019  1.00  0.00    -0.550 OA
ATOM     11  O   UNL     1      21.151  20.225  20.590  1.00  0.00    -0.550 OA
ENDBRANCH   7   9
ENDBRANCH   6   7
ENDBRANCH   5   6
ENDBRANCH   4   5
ENDBRANCH   3   4
ENDBRANCH   2   3
ENDBRANCH   1   2
BRANCH   1  12
ATOM     12  C   UNL     1      20.701  18.849  16.876  1.00  0.00     0.000 C 
BRANCH  12  13
ATOM     13  C   UNL     1      22.191  18.509  17.027  1.00  0.00    -0.000 C 
BRANCH  13  14
ATOM     14  C   UNL     1      23.047  19.785  16.998  1.00  0.00    -0.000 C 
BRANCH  14  15
ATOM     15  C   UNL     1      24.549  19.495  17.152  1.00  0.00    -0.000 C 
BRANCH  15  16
ATOM     16  C   UNL     1      25.067  19.807  18.567  1.00  0.00    -0.000 C 
BRANCH  16  17
ATOM     17  C   UNL     1      24.875  21.281  18.955  1.00  0.00    -0.000 C 
BRANCH  17  18
ATOM     18  C   UNL     1      24.379  21.455  20.399  1.00  0.00    -0.003 C 
ATOM     19  C   UNL     1      25.415  20.954  21.400  1.00  0.00     0.004 C 
ENDBRANCH  17  18
ENDBRANCH  16  17
ENDBRANCH  15  16
ENDBRANCH  14  15
ENDBRANCH  13  14
ENDBRANCH  12  13
ENDBRANCH   1  12
TORSDOF 14
ENDMDL
MODEL 6
REMARK VINA RESULT:    -2.256      3.197      6.991
REMARK INTER + INTRA:          -5.382
REMARK INTER:                  -3.886
REMARK INTRA:                  -1.496
REMARK UNBOUND:                -1.279
REMARK SMILES CCCCCCCCCCCCCC[C@H](C)C(=O)[O-]
REMARK SMILES IDX 9 1 10 2 11 3 12 4 13 5 14 6 15 7 16 8 17 9 18 10 19 11 8 12
REMARK SMILES IDX 7 13 6 14 5 15 4 16 3 17 2 18 1 19
REMARK H PARENT
REMARK Flexibility Score: inf
ROOT
ATOM      1  C   UNL     1      21.349  20.616  20.639  1.00  0.00     0.000 C 
ENDROOT
BRANCH   1   2
ATOM      2  C   UNL     1      19.915  20.661  20.090  1.00  0.00     0.000 C 
BRANCH   2   3
ATOM      3  C   UNL     1      19.625  22.018  19.430  1.00  0.00     0.000 C 
BRANCH   3   4
ATOM      4  C   UNL     1      20.112  22.094  17.971  1.00  0.00     0.000 C 
BRANCH   4   5
ATOM      5  C   UNL     1      19.033  21.823  16.905  1.00  0.00     0.001 C 
BRANCH   5   6
ATOM      6  C   UNL     1      17.576  21.771  17.419  1.00  0.00     0.009 C 
BRANCH   6   7
ATOM      7  C   UNL     1      16.747  20.515  17.046  1.00  0.00     0.032 C 
ATOM      8  C   UNL     1      15.248  20.810  16.875  1.00  0.00     0.014 C 
BRANCH   7   9
ATOM      9  C   UNL     1      17.009  19.356  17.974  1.00  0.00     0.044 C 
ATOM     10  O   UNL     1      16.610  19.371  19.170  1.00  0.00    -0.550 OA
ATOM     11  O   UNL     1      17.689  18.241  17.500  1.00  0.00    -0.550 OA
ENDBRANCH   7   9
ENDBRANCH   6   7
ENDBRANCH   5   6
ENDBRANCH   4   5
ENDBRANCH   3   4
ENDBRANCH   2   3
ENDBRANCH   1   2
BRANCH   1  12
ATOM     12  C   UNL     1      21.942  22.015  20.865  1.00  0.00     0.000 C 
BRANCH  12  13
ATOM     13  C   UNL     1      23.400  22.125  20.392  1.00  0.00    -0.000 C 
BRANCH  13  14
ATOM     14  C   UNL     1      23.567  21.510  18.994  1.00  0.00    -0.000 C 
BRANCH  14  15
ATOM     15  C   UNL     1      24.997  21.657  18.449  1.00  0.00    -0.000 C 
BRANCH  15  16
ATOM     16  C   UNL     1      25.885  20.448  18.792  1.00  0.00    -0.000 C 
BRANCH  16  17
ATOM     17  C   UNL     1      25.090  19.137  18.884  1.00  0.00    -0.000 C 
BRANCH  17  18
ATOM     18  C   UNL     1      24.949  18.627  20.326  1.00  0.00    -0.003 C 
ATOM     19  C   UNL     1      26.005  19.250  21.234  1.00  0.00     0.004 C 
ENDBRANCH  17  18
ENDBRANCH  16  17
ENDBRANCH  15  16
ENDBRANCH  14  15
ENDBRANCH  13  14
ENDBRANCH  12  13
ENDBRANCH   1  12
TORSDOF 14
ENDMDL
MODEL 7
REMARK VINA RESULT:    -2.007     21.690     23.614
REMARK INTER + INTRA:          -4.929
REMARK INTER:                  -4.463
REMARK INTRA:                  -0.466
REMARK UNBOUND:                -1.279
REMARK SMILES CCCCCCCCCCCCCC[C@H](C)C(=O)[O-]
REMARK SMILES IDX 9 1 10 2 11 3 12 4 13 5 14 6 15 7 16 8 17 9 18 10 19 11 8 12
REMARK SMILES IDX 7 13 6 14 5 15 4 16 3 17 2 18 1 19
REMARK H PARENT
REMARK Flexibility Score: inf
ROOT
ATOM      1  C   UNL     1       7.066  10.228  33.235  1.00  0.00     0.000 C 
ENDROOT
BRANCH   1   2
ATOM      2  C   UNL     1       6.078  11.333  32.833  1.00  0.00     0.000 C 
BRANCH   2   3
ATOM      3  C   UNL     1       6.058  12.456  33.880  1.00  0.00     0.000 C 
BRANCH   3   4
ATOM      4  C   UNL     1       5.895  13.856  33.258  1.00  0.00     0.000 C 
BRANCH   4   5
ATOM      5  C   UNL     1       6.696  14.977  33.947  1.00  0.00     0.001 C 
BRANCH   5   6
ATOM      6  C   UNL     1       5.876  15.949  34.825  1.00  0.00     0.009 C 
BRANCH   6   7
ATOM      7  C   UNL     1       6.061  17.464  34.554  1.00  0.00     0.032 C 
ATOM      8  C   UNL     1       7.214  17.767  33.584  1.00  0.00     0.014 C 
BRANCH   7   9
ATOM      9  C   UNL     1       6.145  18.270  35.826  1.00  0.00     0.044 C 
ATOM     10  O   UNL     1       6.304  17.712  36.946  1.00  0.00    -0.550 OA
ATOM     11  O   UNL     1       6.061  19.656  35.765  1.00  0.00    -0.550 OA
ENDBRANCH   7   9
ENDBRANCH   6   7
ENDBRANCH   5   6
ENDBRANCH   4   5
ENDBRANCH   3   4
ENDBRANCH   2   3
ENDBRANCH   1   2
BRANCH   1  12
ATOM     12  C   UNL     1       6.471   8.819  33.093  1.00  0.00     0.000 C 
BRANCH  12  13
ATOM     13  C   UNL     1       7.074   7.817  34.089  1.00  0.00    -0.000 C 
BRANCH  13  14
ATOM     14  C   UNL     1       6.055   6.722  34.444  1.00  0.00    -0.000 C 
BRANCH  14  15
ATOM     15  C   UNL     1       6.623   5.304  34.266  1.00  0.00    -0.000 C 
BRANCH  15  16
ATOM     16  C   UNL     1       7.755   4.993  35.260  1.00  0.00    -0.000 C 
BRANCH  16  17
ATOM     17  C   UNL     1       7.347   3.951  36.314  1.00  0.00    -0.000 C 
BRANCH  17  18
ATOM     18  C   UNL     1       8.486   2.982  36.663  1.00  0.00    -0.003 C 
ATOM     19  C   UNL     1       9.814   3.465  36.087  1.00  0.00     0.004 C 
ENDBRANCH  17  18
ENDBRANCH  16  17
ENDBRANCH  15  16
ENDBRANCH  14  15
ENDBRANCH  13  14
ENDBRANCH  12  13
ENDBRANCH   1  12
TORSDOF 14
ENDMDL
MODEL 8
REMARK VINA RESULT:    -1.992     20.903     22.626
REMARK INTER + INTRA:          -4.903
REMARK INTER:                  -4.979
REMARK INTRA:                   0.076
REMARK UNBOUND:                -1.279
REMARK SMILES CCCCCCCCCCCCCC[C@H](C)C(=O)[O-]
REMARK SMILES IDX 9 1 10 2 11 3 12 4 13 5 14 6 15 7 16 8 17 9 18 10 19 11 8 12
REMARK SMILES IDX 7 13 6 14 5 15 4 16 3 17 2 18 1 19
REMARK H PARENT
REMARK Flexibility Score: inf
ROOT
ATOM      1  C   UNL     1       6.584  12.815  35.671  1.00  0.00     0.000 C 
ENDROOT
BRANCH   1   2
ATOM      2  C   UNL     1       6.115  13.679  34.490  1.00  0.00     0.000 C 
BRANCH   2   3
ATOM      3  C   UNL     1       6.835  15.035  34.484  1.00  0.00     0.000 C 
BRANCH   3   4
ATOM      4  C   UNL     1       5.876  16.227  34.657  1.00  0.00     0.000 C 
BRANCH   4   5
ATOM      5  C   UNL     1       6.556  17.603  34.787  1.00  0.00     0.001 C 
BRANCH   5   6
ATOM      6  C   UNL     1       6.610  18.453  33.497  1.00  0.00     0.009 C 
BRANCH   6   7
ATOM      7  C   UNL     1       6.195  19.942  33.621  1.00  0.00     0.032 C 
ATOM      8  C   UNL     1       6.695  20.806  32.453  1.00  0.00     0.014 C 
BRANCH   7   9
ATOM      9  C   UNL     1       6.542  20.526  34.967  1.00  0.00     0.044 C 
ATOM     10  O   UNL     1       6.872  19.789  35.936  1.00  0.00    -0.550 OA
ATOM     11  O   UNL     1       6.513  21.904  35.143  1.00  0.00    -0.550 OA
ENDBRANCH   7   9
ENDBRANCH   6   7
ENDBRANCH   5   6
ENDBRANCH   4   5
ENDBRANCH   3   4
ENDBRANCH   2   3
ENDBRANCH   1   2
BRANCH   1  12
ATOM     12  C   UNL     1       5.935  11.423  35.682  1.00  0.00     0.000 C 
BRANCH  12  13
ATOM     13  C   UNL     1       5.875  10.786  34.285  1.00  0.00    -0.000 C 
BRANCH  13  14
ATOM     14  C   UNL     1       7.238  10.191  33.898  1.00  0.00    -0.000 C 
BRANCH  14  15
ATOM     15  C   UNL     1       7.116   9.030  32.898  1.00  0.00    -0.000 C 
BRANCH  15  16
ATOM     16  C   UNL     1       7.590   7.691  33.488  1.00  0.00    -0.000 C 
BRANCH  16  17
ATOM     17  C   UNL     1       6.508   7.001  34.334  1.00  0.00    -0.000 C 
BRANCH  17  18
ATOM     18  C   UNL     1       6.873   6.934  35.824  1.00  0.00    -0.003 C 
ATOM     19  C   UNL     1       5.996   7.873  36.647  1.00  0.00     0.004 C 
ENDBRANCH  17  18
ENDBRANCH  16  17
ENDBRANCH  15  16
ENDBRANCH  14  15
ENDBRANCH  13  14
ENDBRANCH  12  13
ENDBRANCH   1  12
TORSDOF 14
ENDMDL
