MODEL 1
REMARK VINA RESULT:    -7.800      0.000      0.000
REMARK INTER + INTRA:         -15.858
REMARK INTER:                 -12.816
REMARK INTRA:                  -3.042
REMARK UNBOUND:                -3.042
REMARK SMILES C[C@H]1O[C@@H](OC[C@@H]2O[C@@H](Oc3c(-c4ccc(O)c(O)c4)oc4cc(O)cc(O)c4c3=O)[C@@H](O)[C@H](O)[C@@H]2O)[C@@H](O)[C@@H](O)[C@@H]1O
REMARK SMILES IDX 7 1 36 2 34 3 32 4 9 5 8 6 6 7 5 8 4 9 1 10 2 11 42 12 3 13
REMARK SMILES IDX 40 14 38 15 43 16 41 18 39 20 37 22 35 24 10 26 11 27 12 28
REMARK SMILES IDX 30 29 21 30 29 31 31 32 22 33 27 34 23 35 26 36 24 37 13 38
REMARK SMILES IDX 20 39 14 40 18 41 15 42 16 43 19 44 17 46 28 48 25 50 33 52
REMARK H PARENT 43 17 41 19 39 21 37 23 35 25 19 45 17 47 28 49 25 51 33 53
REMARK Flexibility Score: inf
ROOT
ATOM      1  C   UNL     1     -12.743  -7.129  45.155  1.00  0.00     0.180 C 
ATOM      2  C   UNL     1     -11.775  -6.995  46.365  1.00  0.00     0.177 C 
ATOM      3  C   UNL     1     -10.319  -7.188  45.901  1.00  0.00     0.180 C 
ATOM      4  C   UNL     1     -10.195  -8.483  45.079  1.00  0.00     0.214 C 
ATOM      5  C   UNL     1     -11.256  -8.501  43.964  1.00  0.00     0.339 C 
ATOM      6  O   UNL     1     -12.568  -8.375  44.497  1.00  0.00    -0.332 OA
ENDROOT
BRANCH   1   7
ATOM      7  C   UNL     1     -14.203  -6.984  45.603  1.00  0.00     0.198 C 
BRANCH   7   8
ATOM      8  O   UNL     1     -14.932  -8.161  45.299  1.00  0.00    -0.347 OA
BRANCH   8   9
ATOM      9  C   UNL     1     -15.484  -8.766  46.456  1.00  0.00     0.281 C 
ATOM     10  C   UNL     1     -14.626  -8.353  49.999  1.00  0.00     0.041 C 
ATOM     11  C   UNL     1     -15.022  -9.110  48.733  1.00  0.00     0.150 C 
ATOM     12  C   UNL     1     -14.182 -10.405  48.560  1.00  0.00     0.174 C 
ATOM     13  O   UNL     1     -14.820  -8.266  47.619  1.00  0.00    -0.344 OA
ATOM     14  C   UNL     1     -14.125 -10.843  47.070  1.00  0.00     0.179 C 
ATOM     15  C   UNL     1     -15.360 -10.318  46.312  1.00  0.00     0.202 C 
BRANCH  12  16
ATOM     16  O   UNL     1     -14.694 -11.429  49.372  1.00  0.00    -0.388 OA
ATOM     17  H   UNL     1     -14.726 -11.088  50.303  1.00  0.00     0.211 HD
ENDBRANCH  12  16
BRANCH  14  18
ATOM     18  O   UNL     1     -12.964 -10.328  46.465  1.00  0.00    -0.387 OA
ATOM     19  H   UNL     1     -13.145  -9.368  46.266  1.00  0.00     0.211 HD
ENDBRANCH  14  18
BRANCH  15  20
ATOM     20  O   UNL     1     -15.302 -10.694  44.960  1.00  0.00    -0.385 OA
ATOM     21  H   UNL     1     -15.075 -11.659  44.937  1.00  0.00     0.211 HD
ENDBRANCH  15  20
ENDBRANCH   8   9
ENDBRANCH   7   8
ENDBRANCH   1   7
BRANCH   2  22
ATOM     22  O   UNL     1     -12.067  -7.900  47.408  1.00  0.00    -0.387 OA
ATOM     23  H   UNL     1     -11.426  -7.759  48.149  1.00  0.00     0.211 HD
ENDBRANCH   2  22
BRANCH   3  24
ATOM     24  O   UNL     1      -9.460  -7.245  47.009  1.00  0.00    -0.387 OA
ATOM     25  H   UNL     1      -8.776  -6.541  46.871  1.00  0.00     0.211 HD
ENDBRANCH   3  24
BRANCH   5  26
ATOM     26  O   UNL     1     -10.978  -7.453  43.027  1.00  0.00    -0.454 OA
BRANCH  26  27
ATOM     27  C   UNL     1     -11.407  -7.419  41.695  1.00  0.00     0.214 A 
ATOM     28  C   UNL     1     -10.764  -8.240  40.751  1.00  0.00     0.180 A 
ATOM     29  C   UNL     1     -12.452  -6.584  41.265  1.00  0.00     0.239 A 
ATOM     30  O   UNL     1     -11.195  -8.273  39.497  1.00  0.00    -0.452 OA
ATOM     31  C   UNL     1     -12.874  -6.631  39.919  1.00  0.00     0.111 A 
ATOM     32  O   UNL     1     -12.989  -5.792  42.084  1.00  0.00    -0.285 OA
ATOM     33  C   UNL     1     -12.202  -7.526  39.052  1.00  0.00     0.146 A 
ATOM     34  C   UNL     1     -13.922  -5.831  39.402  1.00  0.00     0.134 A 
ATOM     35  C   UNL     1     -12.581  -7.633  37.713  1.00  0.00     0.094 A 
ATOM     36  C   UNL     1     -14.285  -5.950  38.052  1.00  0.00     0.093 A 
ATOM     37  C   UNL     1     -13.624  -6.848  37.211  1.00  0.00     0.123 A 
BRANCH  28  38
ATOM     38  C   UNL     1      -9.636  -9.118  41.135  1.00  0.00     0.025 A 
ATOM     39  C   UNL     1      -8.327  -8.609  41.117  1.00  0.00     0.062 A 
ATOM     40  C   UNL     1      -9.848 -10.443  41.552  1.00  0.00     0.016 A 
ATOM     41  C   UNL     1      -7.240  -9.429  41.452  1.00  0.00     0.158 A 
ATOM     42  C   UNL     1      -8.768 -11.260  41.885  1.00  0.00     0.051 A 
ATOM     43  C   UNL     1      -7.459 -10.764  41.829  1.00  0.00     0.157 A 
BRANCH  41  44
ATOM     44  O   UNL     1      -5.951  -8.900  41.397  1.00  0.00    -0.504 OA
ATOM     45  H   UNL     1      -5.198  -9.371  40.904  1.00  0.00     0.293 HD
ENDBRANCH  41  44
BRANCH  43  46
ATOM     46  O   UNL     1      -6.384 -11.591  42.147  1.00  0.00    -0.504 OA
ATOM     47  H   UNL     1      -5.587 -11.244  42.665  1.00  0.00     0.293 HD
ENDBRANCH  43  46
ENDBRANCH  28  38
BRANCH  34  48
ATOM     48  O   UNL     1     -14.597  -4.915  40.215  1.00  0.00    -0.507 OA
ATOM     49  H   UNL     1     -14.390  -3.924  40.184  1.00  0.00     0.293 HD
ENDBRANCH  34  48
BRANCH  37  50
ATOM     50  O   UNL     1     -13.995  -6.940  35.870  1.00  0.00    -0.508 OA
ATOM     51  H   UNL     1     -13.773  -6.203  35.211  1.00  0.00     0.293 HD
ENDBRANCH  37  50
ENDBRANCH  26  27
ENDBRANCH   5  26
BRANCH   4  52
ATOM     52  O   UNL     1      -8.917  -8.561  44.499  1.00  0.00    -0.384 OA
ATOM     53  H   UNL     1      -8.927  -9.338  43.878  1.00  0.00     0.211 HD
ENDBRANCH   4  52
TORSDOF 16
ENDMDL
MODEL 2
REMARK VINA RESULT:    -7.487      1.134      1.384
REMARK INTER + INTRA:         -15.344
REMARK INTER:                 -12.575
REMARK INTRA:                  -2.769
REMARK UNBOUND:                -3.042
REMARK SMILES C[C@H]1O[C@@H](OC[C@@H]2O[C@@H](Oc3c(-c4ccc(O)c(O)c4)oc4cc(O)cc(O)c4c3=O)[C@@H](O)[C@H](O)[C@@H]2O)[C@@H](O)[C@@H](O)[C@@H]1O
REMARK SMILES IDX 7 1 36 2 34 3 32 4 9 5 8 6 6 7 5 8 4 9 1 10 2 11 42 12 3 13
REMARK SMILES IDX 40 14 38 15 43 16 41 18 39 20 37 22 35 24 10 26 11 27 12 28
REMARK SMILES IDX 30 29 21 30 29 31 31 32 22 33 27 34 23 35 26 36 24 37 13 38
REMARK SMILES IDX 20 39 14 40 18 41 15 42 16 43 19 44 17 46 28 48 25 50 33 52
REMARK H PARENT 43 17 41 19 39 21 37 23 35 25 19 45 17 47 28 49 25 51 33 53
REMARK Flexibility Score: inf
ROOT
ATOM      1  C   UNL     1     -12.961  -6.194  44.907  1.00  0.00     0.180 C 
ATOM      2  C   UNL     1     -12.007  -6.204  46.135  1.00  0.00     0.177 C 
ATOM      3  C   UNL     1     -10.658  -6.840  45.751  1.00  0.00     0.180 C 
ATOM      4  C   UNL     1     -10.892  -8.199  45.068  1.00  0.00     0.214 C 
ATOM      5  C   UNL     1     -11.904  -8.042  43.918  1.00  0.00     0.339 C 
ATOM      6  O   UNL     1     -13.134  -7.502  44.384  1.00  0.00    -0.332 OA
ENDROOT
BRANCH   1   7
ATOM      7  C   UNL     1     -14.328  -5.604  45.281  1.00  0.00     0.198 C 
BRANCH   7   8
ATOM      8  O   UNL     1     -15.371  -6.369  44.702  1.00  0.00    -0.347 OA
BRANCH   8   9
ATOM      9  C   UNL     1     -16.253  -6.899  45.676  1.00  0.00     0.281 C 
ATOM     10  C   UNL     1     -15.599  -8.108  49.077  1.00  0.00     0.041 C 
ATOM     11  C   UNL     1     -16.237  -8.108  47.690  1.00  0.00     0.150 C 
ATOM     12  C   UNL     1     -16.221  -9.525  47.057  1.00  0.00     0.174 C 
ATOM     13  O   UNL     1     -15.521  -7.215  46.862  1.00  0.00    -0.344 OA
ATOM     14  C   UNL     1     -16.289  -9.451  45.506  1.00  0.00     0.179 C 
ATOM     15  C   UNL     1     -16.978  -8.143  45.066  1.00  0.00     0.202 C 
BRANCH  12  16
ATOM     16  O   UNL     1     -17.269 -10.302  47.575  1.00  0.00    -0.388 OA
ATOM     17  H   UNL     1     -18.100 -10.042  47.101  1.00  0.00     0.211 HD
ENDBRANCH  12  16
BRANCH  14  18
ATOM     18  O   UNL     1     -14.990  -9.486  44.968  1.00  0.00    -0.387 OA
ATOM     19  H   UNL     1     -14.380  -9.766  45.705  1.00  0.00     0.211 HD
ENDBRANCH  14  18
BRANCH  15  20
ATOM     20  O   UNL     1     -17.023  -8.061  43.664  1.00  0.00    -0.385 OA
ATOM     21  H   UNL     1     -17.002  -7.098  43.430  1.00  0.00     0.211 HD
ENDBRANCH  15  20
ENDBRANCH   8   9
ENDBRANCH   7   8
ENDBRANCH   1   7
BRANCH   2  22
ATOM     22  O   UNL     1     -12.551  -6.876  47.250  1.00  0.00    -0.387 OA
ATOM     23  H   UNL     1     -13.514  -7.041  47.091  1.00  0.00     0.211 HD
ENDBRANCH   2  22
BRANCH   3  24
ATOM     24  O   UNL     1      -9.861  -7.014  46.892  1.00  0.00    -0.387 OA
ATOM     25  H   UNL     1      -9.808  -6.129  47.336  1.00  0.00     0.211 HD
ENDBRANCH   3  24
BRANCH   5  26
ATOM     26  O   UNL     1     -11.335  -7.218  42.893  1.00  0.00    -0.454 OA
BRANCH  26  27
ATOM     27  C   UNL     1     -11.700  -7.234  41.542  1.00  0.00     0.214 A 
ATOM     28  C   UNL     1     -11.001  -8.075  40.657  1.00  0.00     0.180 A 
ATOM     29  C   UNL     1     -12.735  -6.429  41.035  1.00  0.00     0.239 A 
ATOM     30  O   UNL     1     -11.370  -8.155  39.386  1.00  0.00    -0.452 OA
ATOM     31  C   UNL     1     -13.091  -6.527  39.673  1.00  0.00     0.111 A 
ATOM     32  O   UNL     1     -13.322  -5.620  41.801  1.00  0.00    -0.285 OA
ATOM     33  C   UNL     1     -12.364  -7.439  38.869  1.00  0.00     0.146 A 
ATOM     34  C   UNL     1     -14.123  -5.760  39.080  1.00  0.00     0.134 A 
ATOM     35  C   UNL     1     -12.677  -7.594  37.518  1.00  0.00     0.094 A 
ATOM     36  C   UNL     1     -14.420  -5.928  37.719  1.00  0.00     0.093 A 
ATOM     37  C   UNL     1     -13.706  -6.843  36.941  1.00  0.00     0.123 A 
BRANCH  28  38
ATOM     38  C   UNL     1      -9.880  -8.921  41.123  1.00  0.00     0.025 A 
ATOM     39  C   UNL     1      -8.594  -8.369  41.230  1.00  0.00     0.062 A 
ATOM     40  C   UNL     1     -10.081 -10.262  41.496  1.00  0.00     0.016 A 
ATOM     41  C   UNL     1      -7.511  -9.158  41.644  1.00  0.00     0.158 A 
ATOM     42  C   UNL     1      -9.005 -11.048  41.909  1.00  0.00     0.051 A 
ATOM     43  C   UNL     1      -7.715 -10.507  41.977  1.00  0.00     0.157 A 
BRANCH  41  44
ATOM     44  O   UNL     1      -6.242  -8.585  41.713  1.00  0.00    -0.504 OA
ATOM     45  H   UNL     1      -5.697  -8.385  40.879  1.00  0.00     0.293 HD
ENDBRANCH  41  44
BRANCH  43  46
ATOM     46  O   UNL     1      -6.643 -11.304  42.373  1.00  0.00    -0.504 OA
ATOM     47  H   UNL     1      -5.706 -11.136  42.029  1.00  0.00     0.293 HD
ENDBRANCH  43  46
ENDBRANCH  28  38
BRANCH  34  48
ATOM     48  O   UNL     1     -14.850  -4.830  39.829  1.00  0.00    -0.507 OA
ATOM     49  H   UNL     1     -15.746  -5.062  40.240  1.00  0.00     0.293 HD
ENDBRANCH  34  48
BRANCH  37  50
ATOM     50  O   UNL     1     -14.010  -6.983  35.588  1.00  0.00    -0.508 OA
ATOM     51  H   UNL     1     -13.893  -7.870  35.111  1.00  0.00     0.293 HD
ENDBRANCH  37  50
ENDBRANCH  26  27
ENDBRANCH   5  26
BRANCH   4  52
ATOM     52  O   UNL     1      -9.680  -8.688  44.549  1.00  0.00    -0.384 OA
ATOM     53  H   UNL     1      -9.866  -9.596  44.185  1.00  0.00     0.211 HD
ENDBRANCH   4  52
TORSDOF 16
ENDMDL
MODEL 3
REMARK VINA RESULT:    -7.426      4.872     10.340
REMARK INTER + INTRA:         -15.243
REMARK INTER:                 -12.673
REMARK INTRA:                  -2.570
REMARK UNBOUND:                -3.042
REMARK SMILES C[C@H]1O[C@@H](OC[C@@H]2O[C@@H](Oc3c(-c4ccc(O)c(O)c4)oc4cc(O)cc(O)c4c3=O)[C@@H](O)[C@H](O)[C@@H]2O)[C@@H](O)[C@@H](O)[C@@H]1O
REMARK SMILES IDX 7 1 36 2 34 3 32 4 9 5 8 6 6 7 5 8 4 9 1 10 2 11 42 12 3 13
REMARK SMILES IDX 40 14 38 15 43 16 41 18 39 20 37 22 35 24 10 26 11 27 12 28
REMARK SMILES IDX 30 29 21 30 29 31 31 32 22 33 27 34 23 35 26 36 24 37 13 38
REMARK SMILES IDX 20 39 14 40 18 41 15 42 16 43 19 44 17 46 28 48 25 50 33 52
REMARK H PARENT 43 17 41 19 39 21 37 23 35 25 19 45 17 47 28 49 25 51 33 53
REMARK Flexibility Score: inf
ROOT
ATOM      1  C   UNL     1      -8.273  -9.027  36.123  1.00  0.00     0.180 C 
ATOM      2  C   UNL     1      -7.309 -10.247  36.147  1.00  0.00     0.177 C 
ATOM      3  C   UNL     1      -7.444 -11.001  37.483  1.00  0.00     0.180 C 
ATOM      4  C   UNL     1      -7.315 -10.017  38.659  1.00  0.00     0.214 C 
ATOM      5  C   UNL     1      -8.282  -8.835  38.462  1.00  0.00     0.339 C 
ATOM      6  O   UNL     1      -8.039  -8.170  37.230  1.00  0.00    -0.332 OA
ENDROOT
BRANCH   1   7
ATOM      7  C   UNL     1      -8.122  -8.236  34.816  1.00  0.00     0.198 C 
BRANCH   7   8
ATOM      8  O   UNL     1      -6.868  -7.575  34.782  1.00  0.00    -0.347 OA
BRANCH   8   9
ATOM      9  C   UNL     1      -6.535  -7.122  33.481  1.00  0.00     0.281 C 
ATOM     10  C   UNL     1      -8.267  -7.584  30.281  1.00  0.00     0.041 C 
ATOM     11  C   UNL     1      -7.070  -7.494  31.225  1.00  0.00     0.150 C 
ATOM     12  C   UNL     1      -6.069  -8.656  30.985  1.00  0.00     0.174 C 
ATOM     13  O   UNL     1      -7.539  -7.545  32.556  1.00  0.00    -0.344 OA
ATOM     14  C   UNL     1      -5.214  -8.934  32.252  1.00  0.00     0.179 C 
ATOM     15  C   UNL     1      -5.113  -7.661  33.117  1.00  0.00     0.202 C 
BRANCH  12  16
ATOM     16  O   UNL     1      -5.256  -8.377  29.875  1.00  0.00    -0.388 OA
ATOM     17  H   UNL     1      -4.435  -7.930  30.207  1.00  0.00     0.211 HD
ENDBRANCH  12  16
BRANCH  14  18
ATOM     18  O   UNL     1      -5.807  -9.957  33.014  1.00  0.00    -0.387 OA
ATOM     19  H   UNL     1      -5.105 -10.299  33.634  1.00  0.00     0.211 HD
ENDBRANCH  14  18
BRANCH  15  20
ATOM     20  O   UNL     1      -4.360  -7.913  34.274  1.00  0.00    -0.385 OA
ATOM     21  H   UNL     1      -4.884  -8.547  34.829  1.00  0.00     0.211 HD
ENDBRANCH  15  20
ENDBRANCH   8   9
ENDBRANCH   7   8
ENDBRANCH   1   7
BRANCH   2  22
ATOM     22  O   UNL     1      -5.960  -9.888  35.936  1.00  0.00    -0.387 OA
ATOM     23  H   UNL     1      -5.840  -8.932  36.163  1.00  0.00     0.211 HD
ENDBRANCH   2  22
BRANCH   3  24
ATOM     24  O   UNL     1      -6.455 -11.992  37.583  1.00  0.00    -0.387 OA
ATOM     25  H   UNL     1      -5.584 -11.531  37.486  1.00  0.00     0.211 HD
ENDBRANCH   3  24
BRANCH   5  26
ATOM     26  O   UNL     1      -9.632  -9.308  38.536  1.00  0.00    -0.454 OA
BRANCH  26  27
ATOM     27  C   UNL     1     -10.753  -8.523  38.832  1.00  0.00     0.214 A 
ATOM     28  C   UNL     1     -10.984  -8.141  40.166  1.00  0.00     0.180 A 
ATOM     29  C   UNL     1     -11.663  -8.112  37.843  1.00  0.00     0.239 A 
ATOM     30  O   UNL     1     -12.003  -7.345  40.462  1.00  0.00    -0.452 OA
ATOM     31  C   UNL     1     -12.746  -7.278  38.196  1.00  0.00     0.111 A 
ATOM     32  O   UNL     1     -11.508  -8.504  36.656  1.00  0.00    -0.285 OA
ATOM     33  C   UNL     1     -12.869  -6.903  39.555  1.00  0.00     0.146 A 
ATOM     34  C   UNL     1     -13.706  -6.812  37.264  1.00  0.00     0.134 A 
ATOM     35  C   UNL     1     -13.910  -6.068  39.967  1.00  0.00     0.094 A 
ATOM     36  C   UNL     1     -14.746  -5.977  37.698  1.00  0.00     0.093 A 
ATOM     37  C   UNL     1     -14.847  -5.601  39.040  1.00  0.00     0.123 A 
BRANCH  28  38
ATOM     38  C   UNL     1     -10.081  -8.570  41.257  1.00  0.00     0.025 A 
ATOM     39  C   UNL     1      -9.086  -7.692  41.717  1.00  0.00     0.062 A 
ATOM     40  C   UNL     1     -10.219  -9.828  41.870  1.00  0.00     0.016 A 
ATOM     41  C   UNL     1      -8.202  -8.086  42.732  1.00  0.00     0.158 A 
ATOM     42  C   UNL     1      -9.340 -10.221  42.879  1.00  0.00     0.051 A 
ATOM     43  C   UNL     1      -8.323  -9.361  43.310  1.00  0.00     0.157 A 
BRANCH  41  44
ATOM     44  O   UNL     1      -7.208  -7.201  43.146  1.00  0.00    -0.504 OA
ATOM     45  H   UNL     1      -6.644  -7.375  43.972  1.00  0.00     0.293 HD
ENDBRANCH  41  44
BRANCH  43  46
ATOM     46  O   UNL     1      -7.438  -9.768  44.307  1.00  0.00    -0.504 OA
ATOM     47  H   UNL     1      -7.370  -9.270  45.186  1.00  0.00     0.293 HD
ENDBRANCH  43  46
ENDBRANCH  28  38
BRANCH  34  48
ATOM     48  O   UNL     1     -13.638  -7.177  35.917  1.00  0.00    -0.507 OA
ATOM     49  H   UNL     1     -14.440  -7.092  35.302  1.00  0.00     0.293 HD
ENDBRANCH  34  48
BRANCH  37  50
ATOM     50  O   UNL     1     -15.897  -4.780  39.450  1.00  0.00    -0.508 OA
ATOM     51  H   UNL     1     -15.728  -3.842  39.794  1.00  0.00     0.293 HD
ENDBRANCH  37  50
ENDBRANCH  26  27
ENDBRANCH   5  26
BRANCH   4  52
ATOM     52  O   UNL     1      -7.627 -10.670  39.864  1.00  0.00    -0.384 OA
ATOM     53  H   UNL     1      -7.897 -11.599  39.630  1.00  0.00     0.211 HD
ENDBRANCH   4  52
TORSDOF 16
ENDMDL
MODEL 4
REMARK VINA RESULT:    -7.268      2.126      2.662
REMARK INTER + INTRA:         -14.984
REMARK INTER:                 -11.732
REMARK INTRA:                  -3.252
REMARK UNBOUND:                -3.042
REMARK SMILES C[C@H]1O[C@@H](OC[C@@H]2O[C@@H](Oc3c(-c4ccc(O)c(O)c4)oc4cc(O)cc(O)c4c3=O)[C@@H](O)[C@H](O)[C@@H]2O)[C@@H](O)[C@@H](O)[C@@H]1O
REMARK SMILES IDX 7 1 36 2 34 3 32 4 9 5 8 6 6 7 5 8 4 9 1 10 2 11 42 12 3 13
REMARK SMILES IDX 40 14 38 15 43 16 41 18 39 20 37 22 35 24 10 26 11 27 12 28
REMARK SMILES IDX 30 29 21 30 29 31 31 32 22 33 27 34 23 35 26 36 24 37 13 38
REMARK SMILES IDX 20 39 14 40 18 41 15 42 16 43 19 44 17 46 28 48 25 50 33 52
REMARK H PARENT 43 17 41 19 39 21 37 23 35 25 19 45 17 47 28 49 25 51 33 53
REMARK Flexibility Score: inf
ROOT
ATOM      1  C   UNL     1     -12.750  -5.836  46.775  1.00  0.00     0.180 C 
ATOM      2  C   UNL     1     -11.828  -5.584  48.001  1.00  0.00     0.177 C 
ATOM      3  C   UNL     1     -10.373  -5.945  47.652  1.00  0.00     0.180 C 
ATOM      4  C   UNL     1     -10.312  -7.357  47.043  1.00  0.00     0.214 C 
ATOM      5  C   UNL     1     -11.321  -7.473  45.887  1.00  0.00     0.339 C 
ATOM      6  O   UNL     1     -12.642  -7.177  46.323  1.00  0.00    -0.332 OA
ENDROOT
BRANCH   1   7
ATOM      7  C   UNL     1     -14.213  -5.523  47.116  1.00  0.00     0.198 C 
BRANCH   7   8
ATOM      8  O   UNL     1     -14.977  -5.382  45.930  1.00  0.00    -0.347 OA
BRANCH   8   9
ATOM      9  C   UNL     1     -16.169  -6.147  45.964  1.00  0.00     0.281 C 
ATOM     10  C   UNL     1     -17.030  -9.133  47.915  1.00  0.00     0.041 C 
ATOM     11  C   UNL     1     -16.983  -8.229  46.684  1.00  0.00     0.150 C 
ATOM     12  C   UNL     1     -16.607  -9.028  45.407  1.00  0.00     0.174 C 
ATOM     13  O   UNL     1     -16.025  -7.215  46.904  1.00  0.00    -0.344 OA
ATOM     14  C   UNL     1     -15.983  -8.102  44.327  1.00  0.00     0.179 C 
ATOM     15  C   UNL     1     -16.476  -6.654  44.517  1.00  0.00     0.202 C 
BRANCH  12  16
ATOM     16  O   UNL     1     -17.731  -9.705  44.908  1.00  0.00    -0.388 OA
ATOM     17  H   UNL     1     -18.147 -10.197  45.663  1.00  0.00     0.211 HD
ENDBRANCH  12  16
BRANCH  14  18
ATOM     18  O   UNL     1     -14.580  -8.125  44.431  1.00  0.00    -0.387 OA
ATOM     19  H   UNL     1     -14.280  -7.176  44.492  1.00  0.00     0.211 HD
ENDBRANCH  14  18
BRANCH  15  20
ATOM     20  O   UNL     1     -15.897  -5.809  43.556  1.00  0.00    -0.385 OA
ATOM     21  H   UNL     1     -15.893  -6.306  42.698  1.00  0.00     0.211 HD
ENDBRANCH  15  20
ENDBRANCH   8   9
ENDBRANCH   7   8
ENDBRANCH   1   7
BRANCH   2  22
ATOM     22  O   UNL     1     -12.234  -6.294  49.152  1.00  0.00    -0.387 OA
ATOM     23  H   UNL     1     -12.656  -5.665  49.789  1.00  0.00     0.211 HD
ENDBRANCH   2  22
BRANCH   3  24
ATOM     24  O   UNL     1      -9.569  -5.889  48.801  1.00  0.00    -0.387 OA
ATOM     25  H   UNL     1      -9.972  -5.203  49.393  1.00  0.00     0.211 HD
ENDBRANCH   3  24
BRANCH   5  26
ATOM     26  O   UNL     1     -10.924  -6.605  44.819  1.00  0.00    -0.454 OA
BRANCH  26  27
ATOM     27  C   UNL     1     -11.243  -6.780  43.467  1.00  0.00     0.214 A 
ATOM     28  C   UNL     1     -10.509  -7.710  42.709  1.00  0.00     0.180 A 
ATOM     29  C   UNL     1     -12.265  -6.049  42.837  1.00  0.00     0.239 A 
ATOM     30  O   UNL     1     -10.834  -7.940  41.444  1.00  0.00    -0.452 OA
ATOM     31  C   UNL     1     -12.573  -6.307  41.484  1.00  0.00     0.111 A 
ATOM     32  O   UNL     1     -12.882  -5.163  43.484  1.00  0.00    -0.285 OA
ATOM     33  C   UNL     1     -11.815  -7.298  40.816  1.00  0.00     0.146 A 
ATOM     34  C   UNL     1     -13.590  -5.623  40.773  1.00  0.00     0.134 A 
ATOM     35  C   UNL     1     -12.081  -7.612  39.482  1.00  0.00     0.094 A 
ATOM     36  C   UNL     1     -13.839  -5.951  39.431  1.00  0.00     0.093 A 
ATOM     37  C   UNL     1     -13.093  -6.942  38.788  1.00  0.00     0.123 A 
BRANCH  28  38
ATOM     38  C   UNL     1      -9.400  -8.487  43.307  1.00  0.00     0.025 A 
ATOM     39  C   UNL     1      -8.098  -7.961  43.287  1.00  0.00     0.062 A 
ATOM     40  C   UNL     1      -9.626  -9.727  43.929  1.00  0.00     0.016 A 
ATOM     41  C   UNL     1      -7.027  -8.690  43.823  1.00  0.00     0.158 A 
ATOM     42  C   UNL     1      -8.562 -10.453  44.464  1.00  0.00     0.051 A 
ATOM     43  C   UNL     1      -7.258  -9.946  44.407  1.00  0.00     0.157 A 
BRANCH  41  44
ATOM     44  O   UNL     1      -5.742  -8.151  43.761  1.00  0.00    -0.504 OA
ATOM     45  H   UNL     1      -4.946  -8.698  43.448  1.00  0.00     0.293 HD
ENDBRANCH  41  44
BRANCH  43  46
ATOM     46  O   UNL     1      -6.197 -10.685  44.928  1.00  0.00    -0.504 OA
ATOM     47  H   UNL     1      -5.619 -10.323  45.676  1.00  0.00     0.293 HD
ENDBRANCH  43  46
ENDBRANCH  28  38
BRANCH  34  48
ATOM     48  O   UNL     1     -14.347  -4.620  41.385  1.00  0.00    -0.507 OA
ATOM     49  H   UNL     1     -14.227  -4.386  42.363  1.00  0.00     0.293 HD
ENDBRANCH  34  48
BRANCH  37  50
ATOM     50  O   UNL     1     -13.351  -7.241  37.451  1.00  0.00    -0.508 OA
ATOM     51  H   UNL     1     -13.512  -6.508  36.769  1.00  0.00     0.293 HD
ENDBRANCH  37  50
ENDBRANCH  26  27
ENDBRANCH   5  26
BRANCH   4  52
ATOM     52  O   UNL     1      -9.019  -7.611  46.552  1.00  0.00    -0.384 OA
ATOM     53  H   UNL     1      -8.903  -8.599  46.538  1.00  0.00     0.211 HD
ENDBRANCH   4  52
TORSDOF 16
ENDMDL
MODEL 5
REMARK VINA RESULT:    -7.206      1.872      2.881
REMARK INTER + INTRA:         -14.882
REMARK INTER:                 -12.577
REMARK INTRA:                  -2.305
REMARK UNBOUND:                -3.042
REMARK SMILES C[C@H]1O[C@@H](OC[C@@H]2O[C@@H](Oc3c(-c4ccc(O)c(O)c4)oc4cc(O)cc(O)c4c3=O)[C@@H](O)[C@H](O)[C@@H]2O)[C@@H](O)[C@@H](O)[C@@H]1O
REMARK SMILES IDX 7 1 36 2 34 3 32 4 9 5 8 6 6 7 5 8 4 9 1 10 2 11 42 12 3 13
REMARK SMILES IDX 40 14 38 15 43 16 41 18 39 20 37 22 35 24 10 26 11 27 12 28
REMARK SMILES IDX 30 29 21 30 29 31 31 32 22 33 27 34 23 35 26 36 24 37 13 38
REMARK SMILES IDX 20 39 14 40 18 41 15 42 16 43 19 44 17 46 28 48 25 50 33 52
REMARK H PARENT 43 17 41 19 39 21 37 23 35 25 19 45 17 47 28 49 25 51 33 53
REMARK Flexibility Score: inf
ROOT
ATOM      1  C   UNL     1     -12.022  -6.379  46.205  1.00  0.00     0.180 C 
ATOM      2  C   UNL     1     -12.837  -5.231  46.864  1.00  0.00     0.177 C 
ATOM      3  C   UNL     1     -13.556  -4.405  45.781  1.00  0.00     0.180 C 
ATOM      4  C   UNL     1     -12.556  -3.981  44.691  1.00  0.00     0.214 C 
ATOM      5  C   UNL     1     -11.782  -5.211  44.183  1.00  0.00     0.339 C 
ATOM      6  O   UNL     1     -11.107  -5.871  45.246  1.00  0.00    -0.332 OA
ENDROOT
BRANCH   1   7
ATOM      7  C   UNL     1     -11.261  -7.189  47.264  1.00  0.00     0.198 C 
BRANCH   7   8
ATOM      8  O   UNL     1     -11.765  -8.513  47.328  1.00  0.00    -0.347 OA
BRANCH   8   9
ATOM      9  C   UNL     1     -13.181  -8.549  47.334  1.00  0.00     0.281 C 
ATOM     10  C   UNL     1     -15.543  -8.914  50.118  1.00  0.00     0.041 C 
ATOM     11  C   UNL     1     -14.987  -9.144  48.714  1.00  0.00     0.150 C 
ATOM     12  C   UNL     1     -15.034 -10.646  48.323  1.00  0.00     0.174 C 
ATOM     13  O   UNL     1     -13.650  -8.690  48.677  1.00  0.00    -0.344 OA
ATOM     14  C   UNL     1     -13.979 -10.977  47.232  1.00  0.00     0.179 C 
ATOM     15  C   UNL     1     -13.652  -9.716  46.406  1.00  0.00     0.202 C 
BRANCH  12  16
ATOM     16  O   UNL     1     -16.326 -10.999  47.904  1.00  0.00    -0.388 OA
ATOM     17  H   UNL     1     -16.855 -11.223  48.713  1.00  0.00     0.211 HD
ENDBRANCH  12  16
BRANCH  14  18
ATOM     18  O   UNL     1     -12.798 -11.446  47.835  1.00  0.00    -0.387 OA
ATOM     19  H   UNL     1     -13.073 -12.084  48.551  1.00  0.00     0.211 HD
ENDBRANCH  14  18
BRANCH  15  20
ATOM     20  O   UNL     1     -12.683 -10.006  45.432  1.00  0.00    -0.385 OA
ATOM     21  H   UNL     1     -13.158 -10.411  44.661  1.00  0.00     0.211 HD
ENDBRANCH  15  20
ENDBRANCH   8   9
ENDBRANCH   7   8
ENDBRANCH   1   7
BRANCH   2  22
ATOM     22  O   UNL     1     -12.045  -4.381  47.665  1.00  0.00    -0.387 OA
ATOM     23  H   UNL     1     -11.471  -3.826  47.080  1.00  0.00     0.211 HD
ENDBRANCH   2  22
BRANCH   3  24
ATOM     24  O   UNL     1     -14.147  -3.266  46.352  1.00  0.00    -0.387 OA
ATOM     25  H   UNL     1     -15.127  -3.387  46.270  1.00  0.00     0.211 HD
ENDBRANCH   3  24
BRANCH   5  26
ATOM     26  O   UNL     1     -12.686  -6.100  43.516  1.00  0.00    -0.454 OA
BRANCH  26  27
ATOM     27  C   UNL     1     -12.716  -6.345  42.138  1.00  0.00     0.214 A 
ATOM     28  C   UNL     1     -11.664  -7.072  41.552  1.00  0.00     0.180 A 
ATOM     29  C   UNL     1     -13.756  -5.878  41.316  1.00  0.00     0.239 A 
ATOM     30  O   UNL     1     -11.702  -7.372  40.260  1.00  0.00    -0.452 OA
ATOM     31  C   UNL     1     -13.757  -6.201  39.942  1.00  0.00     0.111 A 
ATOM     32  O   UNL     1     -14.667  -5.166  41.814  1.00  0.00    -0.285 OA
ATOM     33  C   UNL     1     -12.683  -6.982  39.451  1.00  0.00     0.146 A 
ATOM     34  C   UNL     1     -14.767  -5.779  39.043  1.00  0.00     0.134 A 
ATOM     35  C   UNL     1     -12.633  -7.348  38.105  1.00  0.00     0.094 A 
ATOM     36  C   UNL     1     -14.697  -6.155  37.693  1.00  0.00     0.093 A 
ATOM     37  C   UNL     1     -13.639  -6.939  37.225  1.00  0.00     0.123 A 
BRANCH  28  38
ATOM     38  C   UNL     1     -10.523  -7.562  42.358  1.00  0.00     0.025 A 
ATOM     39  C   UNL     1     -10.690  -8.689  43.179  1.00  0.00     0.062 A 
ATOM     40  C   UNL     1      -9.263  -6.943  42.294  1.00  0.00     0.016 A 
ATOM     41  C   UNL     1      -9.631  -9.155  43.972  1.00  0.00     0.158 A 
ATOM     42  C   UNL     1      -8.209  -7.406  43.082  1.00  0.00     0.051 A 
ATOM     43  C   UNL     1      -8.387  -8.505  43.931  1.00  0.00     0.157 A 
BRANCH  41  44
ATOM     44  O   UNL     1      -9.838 -10.259  44.797  1.00  0.00    -0.504 OA
ATOM     45  H   UNL     1      -9.066 -10.784  45.196  1.00  0.00     0.293 HD
ENDBRANCH  41  44
BRANCH  43  46
ATOM     46  O   UNL     1      -7.334  -8.951  44.728  1.00  0.00    -0.504 OA
ATOM     47  H   UNL     1      -6.747  -9.724  44.441  1.00  0.00     0.293 HD
ENDBRANCH  43  46
ENDBRANCH  28  38
BRANCH  34  48
ATOM     48  O   UNL     1     -15.833  -4.986  39.478  1.00  0.00    -0.507 OA
ATOM     49  H   UNL     1     -16.777  -5.131  39.138  1.00  0.00     0.293 HD
ENDBRANCH  34  48
BRANCH  37  50
ATOM     50  O   UNL     1     -13.585  -7.289  35.876  1.00  0.00    -0.508 OA
ATOM     51  H   UNL     1     -12.853  -7.893  35.519  1.00  0.00     0.293 HD
ENDBRANCH  37  50
ENDBRANCH  26  27
ENDBRANCH   5  26
BRANCH   4  52
ATOM     52  O   UNL     1     -13.244  -3.394  43.614  1.00  0.00    -0.384 OA
ATOM     53  H   UNL     1     -12.611  -3.367  42.846  1.00  0.00     0.211 HD
ENDBRANCH   4  52
TORSDOF 16
ENDMDL
MODEL 6
REMARK VINA RESULT:    -7.180      2.924      8.475
REMARK INTER + INTRA:         -14.838
REMARK INTER:                 -11.647
REMARK INTRA:                  -3.191
REMARK UNBOUND:                -3.042
REMARK SMILES C[C@H]1O[C@@H](OC[C@@H]2O[C@@H](Oc3c(-c4ccc(O)c(O)c4)oc4cc(O)cc(O)c4c3=O)[C@@H](O)[C@H](O)[C@@H]2O)[C@@H](O)[C@@H](O)[C@@H]1O
REMARK SMILES IDX 7 1 36 2 34 3 32 4 9 5 8 6 6 7 5 8 4 9 1 10 2 11 42 12 3 13
REMARK SMILES IDX 40 14 38 15 43 16 41 18 39 20 37 22 35 24 10 26 11 27 12 28
REMARK SMILES IDX 30 29 21 30 29 31 31 32 22 33 27 34 23 35 26 36 24 37 13 38
REMARK SMILES IDX 20 39 14 40 18 41 15 42 16 43 19 44 17 46 28 48 25 50 33 52
REMARK H PARENT 43 17 41 19 39 21 37 23 35 25 19 45 17 47 28 49 25 51 33 53
REMARK Flexibility Score: inf
ROOT
ATOM      1  C   UNL     1      -5.922 -10.806  41.659  1.00  0.00     0.180 C 
ATOM      2  C   UNL     1      -5.410 -11.586  42.902  1.00  0.00     0.177 C 
ATOM      3  C   UNL     1      -6.479 -11.578  44.010  1.00  0.00     0.180 C 
ATOM      4  C   UNL     1      -6.958 -10.139  44.269  1.00  0.00     0.214 C 
ATOM      5  C   UNL     1      -7.371  -9.477  42.943  1.00  0.00     0.339 C 
ATOM      6  O   UNL     1      -6.300  -9.482  42.008  1.00  0.00    -0.332 OA
ENDROOT
BRANCH   1   7
ATOM      7  C   UNL     1      -4.853 -10.764  40.559  1.00  0.00     0.198 C 
BRANCH   7   8
ATOM      8  O   UNL     1      -4.617  -9.427  40.151  1.00  0.00    -0.347 OA
BRANCH   8   9
ATOM      9  C   UNL     1      -3.244  -9.081  40.213  1.00  0.00     0.281 C 
ATOM     10  C   UNL     1      -0.447 -10.725  41.925  1.00  0.00     0.041 C 
ATOM     11  C   UNL     1      -1.295  -9.553  41.435  1.00  0.00     0.150 C 
ATOM     12  C   UNL     1      -1.523  -8.507  42.560  1.00  0.00     0.174 C 
ATOM     13  O   UNL     1      -2.542 -10.050  40.996  1.00  0.00    -0.344 OA
ATOM     14  C   UNL     1      -2.807  -7.672  42.302  1.00  0.00     0.179 C 
ATOM     15  C   UNL     1      -3.123  -7.634  40.793  1.00  0.00     0.202 C 
BRANCH  12  16
ATOM     16  O   UNL     1      -0.396  -7.681  42.691  1.00  0.00    -0.388 OA
ATOM     17  H   UNL     1      -0.266  -7.209  41.829  1.00  0.00     0.211 HD
ENDBRANCH  12  16
BRANCH  14  18
ATOM     18  O   UNL     1      -3.896  -8.246  42.982  1.00  0.00    -0.387 OA
ATOM     19  H   UNL     1      -4.644  -7.589  42.936  1.00  0.00     0.211 HD
ENDBRANCH  14  18
BRANCH  15  20
ATOM     20  O   UNL     1      -4.295  -6.898  40.556  1.00  0.00    -0.385 OA
ATOM     21  H   UNL     1      -4.592  -7.114  39.635  1.00  0.00     0.211 HD
ENDBRANCH  15  20
ENDBRANCH   8   9
ENDBRANCH   7   8
ENDBRANCH   1   7
BRANCH   2  22
ATOM     22  O   UNL     1      -4.194 -11.079  43.409  1.00  0.00    -0.387 OA
ATOM     23  H   UNL     1      -3.444 -11.621  43.055  1.00  0.00     0.211 HD
ENDBRANCH   2  22
BRANCH   3  24
ATOM     24  O   UNL     1      -5.957 -12.125  45.193  1.00  0.00    -0.387 OA
ATOM     25  H   UNL     1      -5.325 -11.454  45.558  1.00  0.00     0.211 HD
ENDBRANCH   3  24
BRANCH   5  26
ATOM     26  O   UNL     1      -8.521 -10.148  42.413  1.00  0.00    -0.454 OA
BRANCH  26  27
ATOM     27  C   UNL     1      -9.420  -9.610  41.485  1.00  0.00     0.214 A 
ATOM     28  C   UNL     1     -10.459  -8.780  41.946  1.00  0.00     0.180 A 
ATOM     29  C   UNL     1      -9.330  -9.879  40.109  1.00  0.00     0.239 A 
ATOM     30  O   UNL     1     -11.285  -8.207  41.081  1.00  0.00    -0.452 OA
ATOM     31  C   UNL     1     -10.236  -9.266  39.218  1.00  0.00     0.111 A 
ATOM     32  O   UNL     1      -8.449 -10.676  39.691  1.00  0.00    -0.285 OA
ATOM     33  C   UNL     1     -11.216  -8.405  39.768  1.00  0.00     0.146 A 
ATOM     34  C   UNL     1     -10.213  -9.475  37.817  1.00  0.00     0.134 A 
ATOM     35  C   UNL     1     -12.132  -7.755  38.939  1.00  0.00     0.094 A 
ATOM     36  C   UNL     1     -11.145  -8.816  37.001  1.00  0.00     0.093 A 
ATOM     37  C   UNL     1     -12.097  -7.957  37.555  1.00  0.00     0.123 A 
BRANCH  28  38
ATOM     38  C   UNL     1     -10.627  -8.486  43.387  1.00  0.00     0.025 A 
ATOM     39  C   UNL     1     -10.072  -7.313  43.923  1.00  0.00     0.062 A 
ATOM     40  C   UNL     1     -11.364  -9.339  44.227  1.00  0.00     0.016 A 
ATOM     41  C   UNL     1     -10.196  -7.026  45.290  1.00  0.00     0.158 A 
ATOM     42  C   UNL     1     -11.489  -9.055  45.587  1.00  0.00     0.051 A 
ATOM     43  C   UNL     1     -10.900  -7.906  46.129  1.00  0.00     0.157 A 
BRANCH  41  44
ATOM     44  O   UNL     1      -9.607  -5.868  45.795  1.00  0.00    -0.504 OA
ATOM     45  H   UNL     1      -9.070  -5.870  46.657  1.00  0.00     0.293 HD
ENDBRANCH  41  44
BRANCH  43  46
ATOM     46  O   UNL     1     -11.014  -7.638  47.492  1.00  0.00    -0.504 OA
ATOM     47  H   UNL     1     -11.592  -8.211  48.095  1.00  0.00     0.293 HD
ENDBRANCH  43  46
ENDBRANCH  28  38
BRANCH  34  48
ATOM     48  O   UNL     1      -9.279 -10.336  37.233  1.00  0.00    -0.507 OA
ATOM     49  H   UNL     1      -9.458 -10.789  36.344  1.00  0.00     0.293 HD
ENDBRANCH  34  48
BRANCH  37  50
ATOM     50  O   UNL     1     -13.021  -7.322  36.725  1.00  0.00    -0.508 OA
ATOM     51  H   UNL     1     -12.962  -6.328  36.535  1.00  0.00     0.293 HD
ENDBRANCH  37  50
ENDBRANCH  26  27
ENDBRANCH   5  26
BRANCH   4  52
ATOM     52  O   UNL     1      -8.063 -10.153  45.139  1.00  0.00    -0.384 OA
ATOM     53  H   UNL     1      -8.685 -10.856  44.808  1.00  0.00     0.211 HD
ENDBRANCH   4  52
TORSDOF 16
ENDMDL
MODEL 7
REMARK VINA RESULT:    -7.177      2.468      7.881
REMARK INTER + INTRA:         -14.834
REMARK INTER:                 -12.869
REMARK INTRA:                  -1.965
REMARK UNBOUND:                -3.042
REMARK SMILES C[C@H]1O[C@@H](OC[C@@H]2O[C@@H](Oc3c(-c4ccc(O)c(O)c4)oc4cc(O)cc(O)c4c3=O)[C@@H](O)[C@H](O)[C@@H]2O)[C@@H](O)[C@@H](O)[C@@H]1O
REMARK SMILES IDX 7 1 36 2 34 3 32 4 9 5 8 6 6 7 5 8 4 9 1 10 2 11 42 12 3 13
REMARK SMILES IDX 40 14 38 15 43 16 41 18 39 20 37 22 35 24 10 26 11 27 12 28
REMARK SMILES IDX 30 29 21 30 29 31 31 32 22 33 27 34 23 35 26 36 24 37 13 38
REMARK SMILES IDX 20 39 14 40 18 41 15 42 16 43 19 44 17 46 28 48 25 50 33 52
REMARK H PARENT 43 17 41 19 39 21 37 23 35 25 19 45 17 47 28 49 25 51 33 53
REMARK Flexibility Score: inf
ROOT
ATOM      1  C   UNL     1     -13.299  -9.178  46.341  1.00  0.00     0.180 C 
ATOM      2  C   UNL     1     -14.677  -9.832  46.644  1.00  0.00     0.177 C 
ATOM      3  C   UNL     1     -15.342  -9.134  47.844  1.00  0.00     0.180 C 
ATOM      4  C   UNL     1     -14.356  -9.063  49.024  1.00  0.00     0.214 C 
ATOM      5  C   UNL     1     -13.021  -8.456  48.558  1.00  0.00     0.339 C 
ATOM      6  O   UNL     1     -12.460  -9.203  47.487  1.00  0.00    -0.332 OA
ENDROOT
BRANCH   1   7
ATOM      7  C   UNL     1     -12.600  -9.888  45.174  1.00  0.00     0.198 C 
BRANCH   7   8
ATOM      8  O   UNL     1     -11.195  -9.884  45.365  1.00  0.00    -0.347 OA
BRANCH   8   9
ATOM      9  C   UNL     1     -10.538  -8.975  44.498  1.00  0.00     0.281 C 
ATOM     10  C   UNL     1     -11.690  -7.379  41.402  1.00  0.00     0.041 C 
ATOM     11  C   UNL     1     -10.699  -8.073  42.336  1.00  0.00     0.150 C 
ATOM     12  C   UNL     1      -9.923  -9.201  41.604  1.00  0.00     0.174 C 
ATOM     13  O   UNL     1     -11.413  -8.622  43.424  1.00  0.00    -0.344 OA
ATOM     14  C   UNL     1      -9.396 -10.264  42.607  1.00  0.00     0.179 C 
ATOM     15  C   UNL     1      -9.210  -9.634  44.002  1.00  0.00     0.202 C 
BRANCH  12  16
ATOM     16  O   UNL     1      -8.876  -8.656  40.845  1.00  0.00    -0.388 OA
ATOM     17  H   UNL     1      -9.041  -7.683  40.756  1.00  0.00     0.211 HD
ENDBRANCH  12  16
BRANCH  14  18
ATOM     18  O   UNL     1     -10.315 -11.325  42.705  1.00  0.00    -0.387 OA
ATOM     19  H   UNL     1     -10.937 -11.239  41.931  1.00  0.00     0.211 HD
ENDBRANCH  14  18
BRANCH  15  20
ATOM     20  O   UNL     1      -8.755 -10.597  44.918  1.00  0.00    -0.385 OA
ATOM     21  H   UNL     1      -8.715 -11.462  44.433  1.00  0.00     0.211 HD
ENDBRANCH  15  20
ENDBRANCH   8   9
ENDBRANCH   7   8
ENDBRANCH   1   7
BRANCH   2  22
ATOM     22  O   UNL     1     -14.588 -11.219  46.887  1.00  0.00    -0.387 OA
ATOM     23  H   UNL     1     -13.937 -11.618  46.256  1.00  0.00     0.211 HD
ENDBRANCH   2  22
BRANCH   3  24
ATOM     24  O   UNL     1     -16.497  -9.829  48.232  1.00  0.00    -0.387 OA
ATOM     25  H   UNL     1     -17.161  -9.144  48.499  1.00  0.00     0.211 HD
ENDBRANCH   3  24
BRANCH   5  26
ATOM     26  O   UNL     1     -13.227  -7.089  48.180  1.00  0.00    -0.454 OA
BRANCH  26  27
ATOM     27  C   UNL     1     -12.259  -6.246  47.622  1.00  0.00     0.214 A 
ATOM     28  C   UNL     1     -12.549  -5.581  46.416  1.00  0.00     0.180 A 
ATOM     29  C   UNL     1     -11.002  -6.048  48.218  1.00  0.00     0.239 A 
ATOM     30  O   UNL     1     -11.674  -4.728  45.901  1.00  0.00    -0.452 OA
ATOM     31  C   UNL     1     -10.087  -5.145  47.634  1.00  0.00     0.111 A 
ATOM     32  O   UNL     1     -10.703  -6.690  49.259  1.00  0.00    -0.285 OA
ATOM     33  C   UNL     1     -10.487  -4.483  46.448  1.00  0.00     0.146 A 
ATOM     34  C   UNL     1      -8.804  -4.881  48.170  1.00  0.00     0.134 A 
ATOM     35  C   UNL     1      -9.635  -3.566  45.829  1.00  0.00     0.094 A 
ATOM     36  C   UNL     1      -7.961  -3.959  47.531  1.00  0.00     0.093 A 
ATOM     37  C   UNL     1      -8.373  -3.301  46.370  1.00  0.00     0.123 A 
BRANCH  28  38
ATOM     38  C   UNL     1     -13.843  -5.773  45.722  1.00  0.00     0.025 A 
ATOM     39  C   UNL     1     -13.860  -5.960  44.331  1.00  0.00     0.062 A 
ATOM     40  C   UNL     1     -15.055  -5.809  46.432  1.00  0.00     0.016 A 
ATOM     41  C   UNL     1     -15.074  -6.118  43.648  1.00  0.00     0.158 A 
ATOM     42  C   UNL     1     -16.265  -5.966  45.754  1.00  0.00     0.051 A 
ATOM     43  C   UNL     1     -16.284  -6.112  44.362  1.00  0.00     0.157 A 
BRANCH  41  44
ATOM     44  O   UNL     1     -15.058  -6.273  42.263  1.00  0.00    -0.504 OA
ATOM     45  H   UNL     1     -15.560  -5.641  41.646  1.00  0.00     0.293 HD
ENDBRANCH  41  44
BRANCH  43  46
ATOM     46  O   UNL     1     -17.498  -6.252  43.691  1.00  0.00    -0.504 OA
ATOM     47  H   UNL     1     -17.569  -6.794  42.839  1.00  0.00     0.293 HD
ENDBRANCH  43  46
ENDBRANCH  28  38
BRANCH  34  48
ATOM     48  O   UNL     1      -8.358  -5.531  49.325  1.00  0.00    -0.507 OA
ATOM     49  H   UNL     1      -8.612  -6.491  49.526  1.00  0.00     0.293 HD
ENDBRANCH  34  48
BRANCH  37  50
ATOM     50  O   UNL     1      -7.513  -2.398  45.746  1.00  0.00    -0.508 OA
ATOM     51  H   UNL     1      -6.506  -2.494  45.819  1.00  0.00     0.293 HD
ENDBRANCH  37  50
ENDBRANCH  26  27
ENDBRANCH   5  26
BRANCH   4  52
ATOM     52  O   UNL     1     -14.893  -8.263  50.048  1.00  0.00    -0.384 OA
ATOM     53  H   UNL     1     -14.264  -7.503  50.182  1.00  0.00     0.211 HD
ENDBRANCH   4  52
TORSDOF 16
ENDMDL
MODEL 8
REMARK VINA RESULT:    -7.165      1.558      2.510
REMARK INTER + INTRA:         -14.814
REMARK INTER:                 -13.216
REMARK INTRA:                  -1.598
REMARK UNBOUND:                -3.042
REMARK SMILES C[C@H]1O[C@@H](OC[C@@H]2O[C@@H](Oc3c(-c4ccc(O)c(O)c4)oc4cc(O)cc(O)c4c3=O)[C@@H](O)[C@H](O)[C@@H]2O)[C@@H](O)[C@@H](O)[C@@H]1O
REMARK SMILES IDX 7 1 36 2 34 3 32 4 9 5 8 6 6 7 5 8 4 9 1 10 2 11 42 12 3 13
REMARK SMILES IDX 40 14 38 15 43 16 41 18 39 20 37 22 35 24 10 26 11 27 12 28
REMARK SMILES IDX 30 29 21 30 29 31 31 32 22 33 27 34 23 35 26 36 24 37 13 38
REMARK SMILES IDX 20 39 14 40 18 41 15 42 16 43 19 44 17 46 28 48 25 50 33 52
REMARK H PARENT 43 17 41 19 39 21 37 23 35 25 19 45 17 47 28 49 25 51 33 53
REMARK Flexibility Score: inf
ROOT
ATOM      1  C   UNL     1     -12.496  -6.539  45.151  1.00  0.00     0.180 C 
ATOM      2  C   UNL     1     -11.494  -6.572  46.340  1.00  0.00     0.177 C 
ATOM      3  C   UNL     1     -10.154  -7.179  45.885  1.00  0.00     0.180 C 
ATOM      4  C   UNL     1     -10.398  -8.521  45.172  1.00  0.00     0.214 C 
ATOM      5  C   UNL     1     -11.456  -8.344  44.068  1.00  0.00     0.339 C 
ATOM      6  O   UNL     1     -12.674  -7.834  44.597  1.00  0.00    -0.332 OA
ENDROOT
BRANCH   1   7
ATOM      7  C   UNL     1     -13.854  -5.978  45.595  1.00  0.00     0.198 C 
BRANCH   7   8
ATOM      8  O   UNL     1     -14.777  -7.032  45.808  1.00  0.00    -0.347 OA
BRANCH   8   9
ATOM      9  C   UNL     1     -15.200  -7.629  44.594  1.00  0.00     0.281 C 
ATOM     10  C   UNL     1     -17.996  -6.788  42.373  1.00  0.00     0.041 C 
ATOM     11  C   UNL     1     -17.043  -7.702  43.140  1.00  0.00     0.150 C 
ATOM     12  C   UNL     1     -17.810  -8.840  43.868  1.00  0.00     0.174 C 
ATOM     13  O   UNL     1     -16.339  -6.928  44.088  1.00  0.00    -0.344 OA
ATOM     14  C   UNL     1     -17.000  -9.380  45.079  1.00  0.00     0.179 C 
ATOM     15  C   UNL     1     -15.492  -9.142  44.860  1.00  0.00     0.202 C 
BRANCH  12  16
ATOM     16  O   UNL     1     -18.124  -9.869  42.967  1.00  0.00    -0.388 OA
ATOM     17  H   UNL     1     -17.940 -10.732  43.418  1.00  0.00     0.211 HD
ENDBRANCH  12  16
BRANCH  14  18
ATOM     18  O   UNL     1     -17.400  -8.719  46.254  1.00  0.00    -0.387 OA
ATOM     19  H   UNL     1     -18.390  -8.611  46.202  1.00  0.00     0.211 HD
ENDBRANCH  14  18
BRANCH  15  20
ATOM     20  O   UNL     1     -14.758  -9.609  45.962  1.00  0.00    -0.385 OA
ATOM     21  H   UNL     1     -15.045 -10.543  46.127  1.00  0.00     0.211 HD
ENDBRANCH  15  20
ENDBRANCH   8   9
ENDBRANCH   7   8
ENDBRANCH   1   7
BRANCH   2  22
ATOM     22  O   UNL     1     -11.986  -7.283  47.456  1.00  0.00    -0.387 OA
ATOM     23  H   UNL     1     -11.716  -6.812  48.284  1.00  0.00     0.211 HD
ENDBRANCH   2  22
BRANCH   3  24
ATOM     24  O   UNL     1      -9.310  -7.375  46.988  1.00  0.00    -0.387 OA
ATOM     25  H   UNL     1      -9.587  -8.230  47.406  1.00  0.00     0.211 HD
ENDBRANCH   3  24
BRANCH   5  26
ATOM     26  O   UNL     1     -10.938  -7.483  43.046  1.00  0.00    -0.454 OA
BRANCH  26  27
ATOM     27  C   UNL     1     -11.371  -7.450  41.715  1.00  0.00     0.214 A 
ATOM     28  C   UNL     1     -10.747  -8.289  40.775  1.00  0.00     0.180 A 
ATOM     29  C   UNL     1     -12.402  -6.598  41.283  1.00  0.00     0.239 A 
ATOM     30  O   UNL     1     -11.182  -8.322  39.522  1.00  0.00    -0.452 OA
ATOM     31  C   UNL     1     -12.829  -6.646  39.938  1.00  0.00     0.111 A 
ATOM     32  O   UNL     1     -12.921  -5.791  42.098  1.00  0.00    -0.285 OA
ATOM     33  C   UNL     1     -12.176  -7.559  39.076  1.00  0.00     0.146 A 
ATOM     34  C   UNL     1     -13.863  -5.829  39.420  1.00  0.00     0.134 A 
ATOM     35  C   UNL     1     -12.561  -7.668  37.738  1.00  0.00     0.094 A 
ATOM     36  C   UNL     1     -14.233  -5.950  38.072  1.00  0.00     0.093 A 
ATOM     37  C   UNL     1     -13.591  -6.867  37.235  1.00  0.00     0.123 A 
BRANCH  28  38
ATOM     38  C   UNL     1      -9.634  -9.185  41.161  1.00  0.00     0.025 A 
ATOM     39  C   UNL     1      -8.321  -8.689  41.178  1.00  0.00     0.062 A 
ATOM     40  C   UNL     1      -9.866 -10.517  41.546  1.00  0.00     0.016 A 
ATOM     41  C   UNL     1      -7.247  -9.526  41.515  1.00  0.00     0.158 A 
ATOM     42  C   UNL     1      -8.800 -11.351  41.883  1.00  0.00     0.051 A 
ATOM     43  C   UNL     1      -7.486 -10.866  41.861  1.00  0.00     0.157 A 
BRANCH  41  44
ATOM     44  O   UNL     1      -5.953  -9.009  41.495  1.00  0.00    -0.504 OA
ATOM     45  H   UNL     1      -5.294  -9.239  40.758  1.00  0.00     0.293 HD
ENDBRANCH  41  44
BRANCH  43  46
ATOM     46  O   UNL     1      -6.424 -11.710  42.181  1.00  0.00    -0.504 OA
ATOM     47  H   UNL     1      -6.582 -12.633  42.566  1.00  0.00     0.293 HD
ENDBRANCH  43  46
ENDBRANCH  28  38
BRANCH  34  48
ATOM     48  O   UNL     1     -14.518  -4.896  40.228  1.00  0.00    -0.507 OA
ATOM     49  H   UNL     1     -15.479  -4.625  40.055  1.00  0.00     0.293 HD
ENDBRANCH  34  48
BRANCH  37  50
ATOM     50  O   UNL     1     -13.968  -6.960  35.896  1.00  0.00    -0.508 OA
ATOM     51  H   UNL     1     -14.840  -6.562  35.565  1.00  0.00     0.293 HD
ENDBRANCH  37  50
ENDBRANCH  26  27
ENDBRANCH   5  26
BRANCH   4  52
ATOM     52  O   UNL     1      -9.202  -8.979  44.592  1.00  0.00    -0.384 OA
ATOM     53  H   UNL     1      -8.849  -9.697  45.184  1.00  0.00     0.211 HD
ENDBRANCH   4  52
TORSDOF 16
ENDMDL
MODEL 9
REMARK VINA RESULT:    -7.118      3.206      8.651
REMARK INTER + INTRA:         -14.738
REMARK INTER:                 -12.058
REMARK INTRA:                  -2.680
REMARK UNBOUND:                -3.042
REMARK SMILES C[C@H]1O[C@@H](OC[C@@H]2O[C@@H](Oc3c(-c4ccc(O)c(O)c4)oc4cc(O)cc(O)c4c3=O)[C@@H](O)[C@H](O)[C@@H]2O)[C@@H](O)[C@@H](O)[C@@H]1O
REMARK SMILES IDX 7 1 36 2 34 3 32 4 9 5 8 6 6 7 5 8 4 9 1 10 2 11 42 12 3 13
REMARK SMILES IDX 40 14 38 15 43 16 41 18 39 20 37 22 35 24 10 26 11 27 12 28
REMARK SMILES IDX 30 29 21 30 29 31 31 32 22 33 27 34 23 35 26 36 24 37 13 38
REMARK SMILES IDX 20 39 14 40 18 41 15 42 16 43 19 44 17 46 28 48 25 50 33 52
REMARK H PARENT 43 17 41 19 39 21 37 23 35 25 19 45 17 47 28 49 25 51 33 53
REMARK Flexibility Score: inf
ROOT
ATOM      1  C   UNL     1      -6.427 -10.520  41.453  1.00  0.00     0.180 C 
ATOM      2  C   UNL     1      -5.898 -11.399  42.622  1.00  0.00     0.177 C 
ATOM      3  C   UNL     1      -6.954 -11.485  43.739  1.00  0.00     0.180 C 
ATOM      4  C   UNL     1      -7.433 -10.073  44.121  1.00  0.00     0.214 C 
ATOM      5  C   UNL     1      -7.862  -9.305  42.858  1.00  0.00     0.339 C 
ATOM      6  O   UNL     1      -6.802  -9.231  41.914  1.00  0.00    -0.332 OA
ENDROOT
BRANCH   1   7
ATOM      7  C   UNL     1      -5.371 -10.385  40.348  1.00  0.00     0.198 C 
BRANCH   7   8
ATOM      8  O   UNL     1      -5.992 -10.113  39.103  1.00  0.00    -0.347 OA
BRANCH   8   9
ATOM      9  C   UNL     1      -5.313 -10.723  38.019  1.00  0.00     0.281 C 
ATOM     10  C   UNL     1      -3.265  -9.249  35.356  1.00  0.00     0.041 C 
ATOM     11  C   UNL     1      -4.298 -10.193  35.968  1.00  0.00     0.150 C 
ATOM     12  C   UNL     1      -5.582 -10.271  35.099  1.00  0.00     0.174 C 
ATOM     13  O   UNL     1      -4.631  -9.723  37.258  1.00  0.00    -0.344 OA
ATOM     14  C   UNL     1      -6.811 -10.701  35.946  1.00  0.00     0.179 C 
ATOM     15  C   UNL     1      -6.354 -11.523  37.168  1.00  0.00     0.202 C 
BRANCH  12  16
ATOM     16  O   UNL     1      -5.383 -11.139  34.014  1.00  0.00    -0.388 OA
ATOM     17  H   UNL     1      -4.560 -11.662  34.194  1.00  0.00     0.211 HD
ENDBRANCH  12  16
BRANCH  14  18
ATOM     18  O   UNL     1      -7.505  -9.563  36.395  1.00  0.00    -0.387 OA
ATOM     19  H   UNL     1      -8.473  -9.731  36.228  1.00  0.00     0.211 HD
ENDBRANCH  14  18
BRANCH  15  20
ATOM     20  O   UNL     1      -7.460 -11.896  37.949  1.00  0.00    -0.385 OA
ATOM     21  H   UNL     1      -7.880 -11.059  38.275  1.00  0.00     0.211 HD
ENDBRANCH  15  20
ENDBRANCH   8   9
ENDBRANCH   7   8
ENDBRANCH   1   7
BRANCH   2  22
ATOM     22  O   UNL     1      -4.677 -10.932  43.154  1.00  0.00    -0.387 OA
ATOM     23  H   UNL     1      -4.601 -11.224  44.097  1.00  0.00     0.211 HD
ENDBRANCH   2  22
BRANCH   3  24
ATOM     24  O   UNL     1      -6.417 -12.125  44.867  1.00  0.00    -0.387 OA
ATOM     25  H   UNL     1      -7.133 -12.709  45.226  1.00  0.00     0.211 HD
ENDBRANCH   3  24
BRANCH   5  26
ATOM     26  O   UNL     1      -9.017  -9.934  42.288  1.00  0.00    -0.454 OA
BRANCH  26  27
ATOM     27  C   UNL     1      -9.895  -9.343  41.373  1.00  0.00     0.214 A 
ATOM     28  C   UNL     1     -10.804  -8.371  41.830  1.00  0.00     0.180 A 
ATOM     29  C   UNL     1      -9.910  -9.695  40.012  1.00  0.00     0.239 A 
ATOM     30  O   UNL     1     -11.602  -7.751  40.971  1.00  0.00    -0.452 OA
ATOM     31  C   UNL     1     -10.784  -9.027  39.128  1.00  0.00     0.111 A 
ATOM     32  O   UNL     1      -9.152 -10.613  39.602  1.00  0.00    -0.285 OA
ATOM     33  C   UNL     1     -11.626  -8.027  39.670  1.00  0.00     0.146 A 
ATOM     34  C   UNL     1     -10.860  -9.314  37.743  1.00  0.00     0.134 A 
ATOM     35  C   UNL     1     -12.503  -7.318  38.847  1.00  0.00     0.094 A 
ATOM     36  C   UNL     1     -11.750  -8.593  36.933  1.00  0.00     0.093 A 
ATOM     37  C   UNL     1     -12.565  -7.597  37.478  1.00  0.00     0.123 A 
BRANCH  28  38
ATOM     38  C   UNL     1     -10.860  -7.980  43.257  1.00  0.00     0.025 A 
ATOM     39  C   UNL     1     -10.202  -6.815  43.682  1.00  0.00     0.062 A 
ATOM     40  C   UNL     1     -11.589  -8.733  44.193  1.00  0.00     0.016 A 
ATOM     41  C   UNL     1     -10.220  -6.440  45.033  1.00  0.00     0.158 A 
ATOM     42  C   UNL     1     -11.608  -8.361  45.538  1.00  0.00     0.051 A 
ATOM     43  C   UNL     1     -10.918  -7.221  45.968  1.00  0.00     0.157 A 
BRANCH  41  44
ATOM     44  O   UNL     1      -9.532  -5.292  45.426  1.00  0.00    -0.504 OA
ATOM     45  H   UNL     1      -9.776  -4.783  46.270  1.00  0.00     0.293 HD
ENDBRANCH  41  44
BRANCH  43  46
ATOM     46  O   UNL     1     -10.928  -6.865  47.315  1.00  0.00    -0.504 OA
ATOM     47  H   UNL     1     -10.068  -6.695  47.821  1.00  0.00     0.293 HD
ENDBRANCH  43  46
ENDBRANCH  28  38
BRANCH  34  48
ATOM     48  O   UNL     1     -10.066 -10.310  37.169  1.00  0.00    -0.507 OA
ATOM     49  H   UNL     1      -9.068 -10.361  37.342  1.00  0.00     0.293 HD
ENDBRANCH  34  48
BRANCH  37  50
ATOM     50  O   UNL     1     -13.450  -6.902  36.655  1.00  0.00    -0.508 OA
ATOM     51  H   UNL     1     -14.453  -6.970  36.785  1.00  0.00     0.293 HD
ENDBRANCH  37  50
ENDBRANCH  26  27
ENDBRANCH   5  26
BRANCH   4  52
ATOM     52  O   UNL     1      -8.527 -10.161  45.000  1.00  0.00    -0.384 OA
ATOM     53  H   UNL     1      -9.103  -9.368  44.826  1.00  0.00     0.211 HD
ENDBRANCH   4  52
TORSDOF 16
ENDMDL
