MODEL 1
REMARK VINA RESULT:    -6.218      0.000      0.000
REMARK INTER + INTRA:          -7.799
REMARK INTER:                  -7.491
REMARK INTRA:                  -0.308
REMARK UNBOUND:                -0.308
REMARK SMILES O=c1c(O)c(-c2ccc(O)c(O)c2)oc2cc(O)cc(O)c12
REMARK SMILES IDX 5 1 3 2 2 3 1 4 22 5 20 6 19 7 17 8 16 9 15 10 14 11 6 12
REMARK SMILES IDX 7 13 8 14 9 15 13 16 11 17 10 18 12 20 4 22 21 24 18 26
REMARK H PARENT 10 19 12 21 4 23 21 25 18 27
REMARK Flexibility Score: inf
ROOT
ATOM      1  C   UNL     1     137.105 142.960 123.455  1.00  0.00     0.180 A 
ATOM      2  C   UNL     1     137.816 142.757 124.649  1.00  0.00     0.208 A 
ATOM      3  C   UNL     1     139.172 142.396 124.581  1.00  0.00     0.238 A 
ATOM      4  O   UNL     1     139.818 142.268 125.653  1.00  0.00    -0.285 OA
ATOM      5  C   UNL     1     139.793 142.227 123.320  1.00  0.00     0.111 A 
ATOM      6  C   UNL     1     141.149 141.824 123.133  1.00  0.00     0.134 A 
ATOM      7  C   UNL     1     141.696 141.817 121.843  1.00  0.00     0.093 A 
ATOM      8  C   UNL     1     140.919 142.133 120.729  1.00  0.00     0.123 A 
ATOM      9  C   UNL     1     139.574 142.471 120.897  1.00  0.00     0.094 A 
ATOM     10  C   UNL     1     139.011 142.523 122.173  1.00  0.00     0.146 A 
ATOM     11  O   UNL     1     137.732 142.859 122.290  1.00  0.00    -0.452 OA
ENDROOT
BRANCH   1  12
ATOM     12  C   UNL     1     135.667 143.318 123.446  1.00  0.00     0.025 A 
ATOM     13  C   UNL     1     135.289 144.663 123.582  1.00  0.00     0.016 A 
ATOM     14  C   UNL     1     133.941 145.025 123.555  1.00  0.00     0.051 A 
ATOM     15  C   UNL     1     132.950 144.054 123.378  1.00  0.00     0.157 A 
ATOM     16  C   UNL     1     134.672 142.344 123.248  1.00  0.00     0.062 A 
ATOM     17  C   UNL     1     133.316 142.707 123.219  1.00  0.00     0.158 A 
BRANCH  15  18
ATOM     18  O   UNL     1     131.612 144.445 123.358  1.00  0.00    -0.504 OA
ATOM     19  H   UNL     1     131.334 145.415 123.448  1.00  0.00     0.293 HD
ENDBRANCH  15  18
BRANCH  17  20
ATOM     20  O   UNL     1     132.336 141.735 123.028  1.00  0.00    -0.504 OA
ATOM     21  H   UNL     1     131.562 141.880 122.389  1.00  0.00     0.293 HD
ENDBRANCH  17  20
ENDBRANCH   1  12
BRANCH   2  22
ATOM     22  O   UNL     1     137.190 142.949 125.884  1.00  0.00    -0.502 OA
ATOM     23  H   UNL     1     136.440 143.618 126.015  1.00  0.00     0.293 HD
ENDBRANCH   2  22
BRANCH   6  24
ATOM     24  O   UNL     1     141.988 141.399 124.168  1.00  0.00    -0.507 OA
ATOM     25  H   UNL     1     141.919 141.707 125.126  1.00  0.00     0.293 HD
ENDBRANCH   6  24
BRANCH   8  26
ATOM     26  O   UNL     1     141.490 142.100 119.460  1.00  0.00    -0.508 OA
ATOM     27  H   UNL     1     142.459 142.354 119.308  1.00  0.00     0.293 HD
ENDBRANCH   8  26
TORSDOF 6
ENDMDL
MODEL 2
REMARK VINA RESULT:    -6.052      8.408      9.789
REMARK INTER + INTRA:          -7.599
REMARK INTER:                  -7.276
REMARK INTRA:                  -0.322
REMARK UNBOUND:                -0.308
REMARK SMILES O=c1c(O)c(-c2ccc(O)c(O)c2)oc2cc(O)cc(O)c12
REMARK SMILES IDX 5 1 3 2 2 3 1 4 22 5 20 6 19 7 17 8 16 9 15 10 14 11 6 12
REMARK SMILES IDX 7 13 8 14 9 15 13 16 11 17 10 18 12 20 4 22 21 24 18 26
REMARK H PARENT 10 19 12 21 4 23 21 25 18 27
REMARK Flexibility Score: inf
ROOT
ATOM      1  C   UNL     1     133.232 135.719 126.320  1.00  0.00     0.180 A 
ATOM      2  C   UNL     1     133.594 135.448 127.650  1.00  0.00     0.208 A 
ATOM      3  C   UNL     1     134.010 134.152 127.993  1.00  0.00     0.238 A 
ATOM      4  O   UNL     1     134.385 133.929 129.173  1.00  0.00    -0.285 OA
ATOM      5  C   UNL     1     134.043 133.139 127.003  1.00  0.00     0.111 A 
ATOM      6  C   UNL     1     134.410 131.781 127.247  1.00  0.00     0.134 A 
ATOM      7  C   UNL     1     134.535 130.895 126.169  1.00  0.00     0.093 A 
ATOM      8  C   UNL     1     134.242 131.300 124.866  1.00  0.00     0.123 A 
ATOM      9  C   UNL     1     133.825 132.611 124.626  1.00  0.00     0.094 A 
ATOM     10  C   UNL     1     133.727 133.526 125.675  1.00  0.00     0.146 A 
ATOM     11  O   UNL     1     133.337 134.765 125.402  1.00  0.00    -0.452 OA
ENDROOT
BRANCH   1  12
ATOM     12  C   UNL     1     132.759 137.055 125.888  1.00  0.00     0.025 A 
ATOM     13  C   UNL     1     131.389 137.355 125.948  1.00  0.00     0.016 A 
ATOM     14  C   UNL     1     130.924 138.615 125.566  1.00  0.00     0.051 A 
ATOM     15  C   UNL     1     131.819 139.599 125.134  1.00  0.00     0.157 A 
ATOM     16  C   UNL     1     133.660 138.051 125.473  1.00  0.00     0.062 A 
ATOM     17  C   UNL     1     133.195 139.319 125.091  1.00  0.00     0.158 A 
BRANCH  15  18
ATOM     18  O   UNL     1     131.324 140.847 124.756  1.00  0.00    -0.504 OA
ATOM     19  H   UNL     1     131.882 141.691 124.827  1.00  0.00     0.293 HD
ENDBRANCH  15  18
BRANCH  17  20
ATOM     20  O   UNL     1     134.094 140.299 124.674  1.00  0.00    -0.504 OA
ATOM     21  H   UNL     1     133.934 140.843 123.834  1.00  0.00     0.293 HD
ENDBRANCH  17  20
ENDBRANCH   1  12
BRANCH   2  22
ATOM     22  O   UNL     1     133.574 136.468 128.606  1.00  0.00    -0.502 OA
ATOM     23  H   UNL     1     133.077 137.339 128.462  1.00  0.00     0.293 HD
ENDBRANCH   2  22
BRANCH   6  24
ATOM     24  O   UNL     1     134.635 131.248 128.520  1.00  0.00    -0.507 OA
ATOM     25  H   UNL     1     134.495 131.749 129.384  1.00  0.00     0.293 HD
ENDBRANCH   6  24
BRANCH   8  26
ATOM     26  O   UNL     1     134.361 130.389 123.820  1.00  0.00    -0.508 OA
ATOM     27  H   UNL     1     134.943 130.581 123.013  1.00  0.00     0.293 HD
ENDBRANCH   8  26
TORSDOF 6
ENDMDL
MODEL 3
REMARK VINA RESULT:    -6.044      9.693     12.409
REMARK INTER + INTRA:          -7.589
REMARK INTER:                  -7.266
REMARK INTRA:                  -0.323
REMARK UNBOUND:                -0.308
REMARK SMILES O=c1c(O)c(-c2ccc(O)c(O)c2)oc2cc(O)cc(O)c12
REMARK SMILES IDX 5 1 3 2 2 3 1 4 22 5 20 6 19 7 17 8 16 9 15 10 14 11 6 12
REMARK SMILES IDX 7 13 8 14 9 15 13 16 11 17 10 18 12 20 4 22 21 24 18 26
REMARK H PARENT 10 19 12 21 4 23 21 25 18 27
REMARK Flexibility Score: inf
ROOT
ATOM      1  C   UNL     1     131.800 134.740 126.902  1.00  0.00     0.180 A 
ATOM      2  C   UNL     1     131.606 133.587 126.123  1.00  0.00     0.208 A 
ATOM      3  C   UNL     1     131.159 132.411 126.746  1.00  0.00     0.238 A 
ATOM      4  O   UNL     1     130.936 131.397 126.035  1.00  0.00    -0.285 OA
ATOM      5  C   UNL     1     130.928 132.399 128.143  1.00  0.00     0.111 A 
ATOM      6  C   UNL     1     130.512 131.252 128.884  1.00  0.00     0.134 A 
ATOM      7  C   UNL     1     130.187 131.387 130.240  1.00  0.00     0.093 A 
ATOM      8  C   UNL     1     130.324 132.610 130.896  1.00  0.00     0.123 A 
ATOM      9  C   UNL     1     130.786 133.725 130.192  1.00  0.00     0.094 A 
ATOM     10  C   UNL     1     131.084 133.629 128.832  1.00  0.00     0.146 A 
ATOM     11  O   UNL     1     131.511 134.715 128.197  1.00  0.00    -0.452 OA
ENDROOT
BRANCH   1  12
ATOM     12  C   UNL     1     132.293 136.010 126.321  1.00  0.00     0.025 A 
ATOM     13  C   UNL     1     133.675 136.240 126.235  1.00  0.00     0.016 A 
ATOM     14  C   UNL     1     134.162 137.421 125.671  1.00  0.00     0.051 A 
ATOM     15  C   UNL     1     133.279 138.384 125.171  1.00  0.00     0.157 A 
ATOM     16  C   UNL     1     131.406 136.969 125.799  1.00  0.00     0.062 A 
ATOM     17  C   UNL     1     131.894 138.156 125.231  1.00  0.00     0.158 A 
BRANCH  15  18
ATOM     18  O   UNL     1     133.794 139.555 124.616  1.00  0.00    -0.504 OA
ATOM     19  H   UNL     1     134.131 140.319 125.190  1.00  0.00     0.293 HD
ENDBRANCH  15  18
BRANCH  17  20
ATOM     20  O   UNL     1     131.008 139.104 124.722  1.00  0.00    -0.504 OA
ATOM     21  H   UNL     1     131.314 140.040 124.481  1.00  0.00     0.293 HD
ENDBRANCH  17  20
ENDBRANCH   1  12
BRANCH   2  22
ATOM     22  O   UNL     1     131.821 133.627 124.742  1.00  0.00    -0.502 OA
ATOM     23  H   UNL     1     131.563 134.425 124.175  1.00  0.00     0.293 HD
ENDBRANCH   2  22
BRANCH   6  24
ATOM     24  O   UNL     1     130.430 129.962 128.350  1.00  0.00    -0.507 OA
ATOM     25  H   UNL     1     131.178 129.496 127.858  1.00  0.00     0.293 HD
ENDBRANCH   6  24
BRANCH   8  26
ATOM     26  O   UNL     1     130.006 132.705 132.248  1.00  0.00    -0.508 OA
ATOM     27  H   UNL     1     129.113 133.070 132.558  1.00  0.00     0.293 HD
ENDBRANCH   8  26
TORSDOF 6
ENDMDL
MODEL 4
REMARK VINA RESULT:    -6.005     10.255     11.576
REMARK INTER + INTRA:          -7.543
REMARK INTER:                  -7.234
REMARK INTRA:                  -0.308
REMARK UNBOUND:                -0.308
REMARK SMILES O=c1c(O)c(-c2ccc(O)c(O)c2)oc2cc(O)cc(O)c12
REMARK SMILES IDX 5 1 3 2 2 3 1 4 22 5 20 6 19 7 17 8 16 9 15 10 14 11 6 12
REMARK SMILES IDX 7 13 8 14 9 15 13 16 11 17 10 18 12 20 4 22 21 24 18 26
REMARK H PARENT 10 19 12 21 4 23 21 25 18 27
REMARK Flexibility Score: inf
ROOT
ATOM      1  C   UNL     1     135.380 133.993 128.584  1.00  0.00     0.180 A 
ATOM      2  C   UNL     1     136.752 134.061 128.877  1.00  0.00     0.208 A 
ATOM      3  C   UNL     1     137.210 135.043 129.770  1.00  0.00     0.238 A 
ATOM      4  O   UNL     1     138.431 135.066 130.070  1.00  0.00    -0.285 OA
ATOM      5  C   UNL     1     136.291 135.954 130.346  1.00  0.00     0.111 A 
ATOM      6  C   UNL     1     136.650 137.014 131.233  1.00  0.00     0.134 A 
ATOM      7  C   UNL     1     135.643 137.772 131.846  1.00  0.00     0.093 A 
ATOM      8  C   UNL     1     134.297 137.552 131.554  1.00  0.00     0.123 A 
ATOM      9  C   UNL     1     133.940 136.556 130.643  1.00  0.00     0.094 A 
ATOM     10  C   UNL     1     134.918 135.760 130.044  1.00  0.00     0.146 A 
ATOM     11  O   UNL     1     134.535 134.817 129.191  1.00  0.00    -0.452 OA
ENDROOT
BRANCH   1  12
ATOM     12  C   UNL     1     134.826 133.001 127.634  1.00  0.00     0.025 A 
ATOM     13  C   UNL     1     134.515 131.708 128.086  1.00  0.00     0.016 A 
ATOM     14  C   UNL     1     133.972 130.764 127.212  1.00  0.00     0.051 A 
ATOM     15  C   UNL     1     133.717 131.098 125.878  1.00  0.00     0.157 A 
ATOM     16  C   UNL     1     134.550 133.342 126.298  1.00  0.00     0.062 A 
ATOM     17  C   UNL     1     134.003 132.395 125.418  1.00  0.00     0.158 A 
BRANCH  15  18
ATOM     18  O   UNL     1     133.178 130.134 125.029  1.00  0.00    -0.504 OA
ATOM     19  H   UNL     1     132.880 129.225 125.366  1.00  0.00     0.293 HD
ENDBRANCH  15  18
BRANCH  17  20
ATOM     20  O   UNL     1     133.739 132.739 124.094  1.00  0.00    -0.504 OA
ATOM     21  H   UNL     1     134.267 132.341 123.327  1.00  0.00     0.293 HD
ENDBRANCH  17  20
ENDBRANCH   1  12
BRANCH   2  22
ATOM     22  O   UNL     1     137.639 133.139 128.313  1.00  0.00    -0.502 OA
ATOM     23  H   UNL     1     138.616 133.093 128.577  1.00  0.00     0.293 HD
ENDBRANCH   2  22
BRANCH   6  24
ATOM     24  O   UNL     1     137.968 137.379 131.521  1.00  0.00    -0.507 OA
ATOM     25  H   UNL     1     138.616 137.766 130.852  1.00  0.00     0.293 HD
ENDBRANCH   6  24
BRANCH   8  26
ATOM     26  O   UNL     1     133.324 138.334 132.170  1.00  0.00    -0.508 OA
ATOM     27  H   UNL     1     133.562 139.013 132.884  1.00  0.00     0.293 HD
ENDBRANCH   8  26
TORSDOF 6
ENDMDL
MODEL 5
REMARK VINA RESULT:    -5.984      8.845     11.363
REMARK INTER + INTRA:          -7.517
REMARK INTER:                  -7.183
REMARK INTRA:                  -0.333
REMARK UNBOUND:                -0.308
REMARK SMILES O=c1c(O)c(-c2ccc(O)c(O)c2)oc2cc(O)cc(O)c12
REMARK SMILES IDX 5 1 3 2 2 3 1 4 22 5 20 6 19 7 17 8 16 9 15 10 14 11 6 12
REMARK SMILES IDX 7 13 8 14 9 15 13 16 11 17 10 18 12 20 4 22 21 24 18 26
REMARK H PARENT 10 19 12 21 4 23 21 25 18 27
REMARK Flexibility Score: inf
ROOT
ATOM      1  C   UNL     1     131.882 135.802 126.950  1.00  0.00     0.180 A 
ATOM      2  C   UNL     1     131.323 135.808 128.239  1.00  0.00     0.208 A 
ATOM      3  C   UNL     1     130.784 134.619 128.755  1.00  0.00     0.238 A 
ATOM      4  O   UNL     1     130.335 134.617 129.929  1.00  0.00    -0.285 OA
ATOM      5  C   UNL     1     130.796 133.442 127.966  1.00  0.00     0.111 A 
ATOM      6  C   UNL     1     130.241 132.190 128.372  1.00  0.00     0.134 A 
ATOM      7  C   UNL     1     130.426 131.060 127.566  1.00  0.00     0.093 A 
ATOM      8  C   UNL     1     131.086 131.148 126.341  1.00  0.00     0.123 A 
ATOM      9  C   UNL     1     131.581 132.380 125.908  1.00  0.00     0.094 A 
ATOM     10  C   UNL     1     131.444 133.517 126.707  1.00  0.00     0.146 A 
ATOM     11  O   UNL     1     131.937 134.667 126.263  1.00  0.00    -0.452 OA
ENDROOT
BRANCH   1  12
ATOM     12  C   UNL     1     132.447 137.023 126.330  1.00  0.00     0.025 A 
ATOM     13  C   UNL     1     133.826 137.268 126.421  1.00  0.00     0.016 A 
ATOM     14  C   UNL     1     134.383 138.402 125.825  1.00  0.00     0.051 A 
ATOM     15  C   UNL     1     133.576 139.300 125.119  1.00  0.00     0.157 A 
ATOM     16  C   UNL     1     131.639 137.915 125.603  1.00  0.00     0.062 A 
ATOM     17  C   UNL     1     132.197 139.054 125.002  1.00  0.00     0.158 A 
BRANCH  15  18
ATOM     18  O   UNL     1     134.160 140.425 124.538  1.00  0.00    -0.504 OA
ATOM     19  H   UNL     1     134.528 140.413 123.594  1.00  0.00     0.293 HD
ENDBRANCH  15  18
BRANCH  17  20
ATOM     20  O   UNL     1     131.389 139.937 124.288  1.00  0.00    -0.504 OA
ATOM     21  H   UNL     1     131.658 140.281 123.374  1.00  0.00     0.293 HD
ENDBRANCH  17  20
ENDBRANCH   1  12
BRANCH   2  22
ATOM     22  O   UNL     1     131.341 136.976 129.008  1.00  0.00    -0.502 OA
ATOM     23  H   UNL     1     130.674 137.148 129.751  1.00  0.00     0.293 HD
ENDBRANCH   2  22
BRANCH   6  24
ATOM     24  O   UNL     1     129.483 132.011 129.534  1.00  0.00    -0.507 OA
ATOM     25  H   UNL     1     129.003 131.159 129.779  1.00  0.00     0.293 HD
ENDBRANCH   6  24
BRANCH   8  26
ATOM     26  O   UNL     1     131.238 130.007 125.558  1.00  0.00    -0.508 OA
ATOM     27  H   UNL     1     131.333 129.087 125.974  1.00  0.00     0.293 HD
ENDBRANCH   8  26
TORSDOF 6
ENDMDL
MODEL 6
REMARK VINA RESULT:    -5.984     10.030     12.367
REMARK INTER + INTRA:          -7.516
REMARK INTER:                  -7.185
REMARK INTRA:                  -0.331
REMARK UNBOUND:                -0.308
REMARK SMILES O=c1c(O)c(-c2ccc(O)c(O)c2)oc2cc(O)cc(O)c12
REMARK SMILES IDX 5 1 3 2 2 3 1 4 22 5 20 6 19 7 17 8 16 9 15 10 14 11 6 12
REMARK SMILES IDX 7 13 8 14 9 15 13 16 11 17 10 18 12 20 4 22 21 24 18 26
REMARK H PARENT 10 19 12 21 4 23 21 25 18 27
REMARK Flexibility Score: inf
ROOT
ATOM      1  C   UNL     1     132.346 133.287 126.974  1.00  0.00     0.180 A 
ATOM      2  C   UNL     1     132.516 133.636 128.325  1.00  0.00     0.208 A 
ATOM      3  C   UNL     1     132.359 134.978 128.706  1.00  0.00     0.238 A 
ATOM      4  O   UNL     1     132.458 135.277 129.924  1.00  0.00    -0.285 OA
ATOM      5  C   UNL     1     132.051 135.956 127.728  1.00  0.00     0.111 A 
ATOM      6  C   UNL     1     131.909 137.351 127.996  1.00  0.00     0.134 A 
ATOM      7  C   UNL     1     131.474 138.208 126.977  1.00  0.00     0.093 A 
ATOM      8  C   UNL     1     131.240 137.734 125.687  1.00  0.00     0.123 A 
ATOM      9  C   UNL     1     131.432 136.381 125.401  1.00  0.00     0.094 A 
ATOM     10  C   UNL     1     131.830 135.495 126.405  1.00  0.00     0.146 A 
ATOM     11  O   UNL     1     131.993 134.215 126.094  1.00  0.00    -0.452 OA
ENDROOT
BRANCH   1  12
ATOM     12  C   UNL     1     132.520 131.896 126.493  1.00  0.00     0.025 A 
ATOM     13  C   UNL     1     131.403 131.048 126.415  1.00  0.00     0.016 A 
ATOM     14  C   UNL     1     131.540 129.741 125.944  1.00  0.00     0.051 A 
ATOM     15  C   UNL     1     132.788 129.264 125.530  1.00  0.00     0.157 A 
ATOM     16  C   UNL     1     133.770 131.423 126.057  1.00  0.00     0.062 A 
ATOM     17  C   UNL     1     133.909 130.110 125.582  1.00  0.00     0.158 A 
BRANCH  15  18
ATOM     18  O   UNL     1     132.895 127.953 125.067  1.00  0.00    -0.504 OA
ATOM     19  H   UNL     1     133.158 127.740 124.112  1.00  0.00     0.293 HD
ENDBRANCH  15  18
BRANCH  17  20
ATOM     20  O   UNL     1     135.153 129.647 125.158  1.00  0.00    -0.504 OA
ATOM     21  H   UNL     1     135.857 130.277 124.790  1.00  0.00     0.293 HD
ENDBRANCH  17  20
ENDBRANCH   1  12
BRANCH   2  22
ATOM     22  O   UNL     1     132.799 132.652 129.276  1.00  0.00    -0.502 OA
ATOM     23  H   UNL     1     133.708 132.564 129.714  1.00  0.00     0.293 HD
ENDBRANCH   2  22
BRANCH   6  24
ATOM     24  O   UNL     1     132.207 137.945 129.226  1.00  0.00    -0.507 OA
ATOM     25  H   UNL     1     133.115 137.931 129.666  1.00  0.00     0.293 HD
ENDBRANCH   6  24
BRANCH   8  26
ATOM     26  O   UNL     1     130.823 138.617 124.695  1.00  0.00    -0.508 OA
ATOM     27  H   UNL     1     129.877 138.600 124.333  1.00  0.00     0.293 HD
ENDBRANCH   8  26
TORSDOF 6
ENDMDL
MODEL 7
REMARK VINA RESULT:    -5.905      9.959     11.359
REMARK INTER + INTRA:          -7.422
REMARK INTER:                  -7.110
REMARK INTRA:                  -0.312
REMARK UNBOUND:                -0.308
REMARK SMILES O=c1c(O)c(-c2ccc(O)c(O)c2)oc2cc(O)cc(O)c12
REMARK SMILES IDX 5 1 3 2 2 3 1 4 22 5 20 6 19 7 17 8 16 9 15 10 14 11 6 12
REMARK SMILES IDX 7 13 8 14 9 15 13 16 11 17 10 18 12 20 4 22 21 24 18 26
REMARK H PARENT 10 19 12 21 4 23 21 25 18 27
REMARK Flexibility Score: inf
ROOT
ATOM      1  C   UNL     1     135.052 133.798 128.303  1.00  0.00     0.180 A 
ATOM      2  C   UNL     1     134.130 134.472 129.121  1.00  0.00     0.208 A 
ATOM      3  C   UNL     1     134.601 135.429 130.034  1.00  0.00     0.238 A 
ATOM      4  O   UNL     1     133.767 136.068 130.725  1.00  0.00    -0.285 OA
ATOM      5  C   UNL     1     135.991 135.686 130.130  1.00  0.00     0.111 A 
ATOM      6  C   UNL     1     136.583 136.605 131.048  1.00  0.00     0.134 A 
ATOM      7  C   UNL     1     137.955 136.876 130.965  1.00  0.00     0.093 A 
ATOM      8  C   UNL     1     138.766 136.215 130.043  1.00  0.00     0.123 A 
ATOM      9  C   UNL     1     138.206 135.271 129.180  1.00  0.00     0.094 A 
ATOM     10  C   UNL     1     136.836 135.006 129.214  1.00  0.00     0.146 A 
ATOM     11  O   UNL     1     136.341 134.109 128.370  1.00  0.00    -0.452 OA
ENDROOT
BRANCH   1  12
ATOM     12  C   UNL     1     134.633 132.759 127.334  1.00  0.00     0.025 A 
ATOM     13  C   UNL     1     134.418 131.445 127.780  1.00  0.00     0.016 A 
ATOM     14  C   UNL     1     134.001 130.455 126.887  1.00  0.00     0.051 A 
ATOM     15  C   UNL     1     133.780 130.763 125.541  1.00  0.00     0.157 A 
ATOM     16  C   UNL     1     134.390 133.072 125.985  1.00  0.00     0.062 A 
ATOM     17  C   UNL     1     133.971 132.078 125.087  1.00  0.00     0.158 A 
BRANCH  15  18
ATOM     18  O   UNL     1     133.368 129.752 124.673  1.00  0.00    -0.504 OA
ATOM     19  H   UNL     1     132.670 129.911 123.956  1.00  0.00     0.293 HD
ENDBRANCH  15  18
BRANCH  17  20
ATOM     20  O   UNL     1     133.739 132.395 123.750  1.00  0.00    -0.504 OA
ATOM     21  H   UNL     1     132.831 132.711 123.429  1.00  0.00     0.293 HD
ENDBRANCH  17  20
ENDBRANCH   1  12
BRANCH   2  22
ATOM     22  O   UNL     1     132.761 134.219 128.996  1.00  0.00    -0.502 OA
ATOM     23  H   UNL     1     132.213 134.566 128.218  1.00  0.00     0.293 HD
ENDBRANCH   2  22
BRANCH   6  24
ATOM     24  O   UNL     1     135.880 137.251 132.070  1.00  0.00    -0.507 OA
ATOM     25  H   UNL     1     134.917 137.543 132.007  1.00  0.00     0.293 HD
ENDBRANCH   6  24
BRANCH   8  26
ATOM     26  O   UNL     1     140.128 136.498 129.998  1.00  0.00    -0.508 OA
ATOM     27  H   UNL     1     140.661 136.674 130.842  1.00  0.00     0.293 HD
ENDBRANCH   8  26
TORSDOF 6
ENDMDL
MODEL 8
REMARK VINA RESULT:    -5.902      9.666     11.484
REMARK INTER + INTRA:          -7.418
REMARK INTER:                  -7.294
REMARK INTRA:                  -0.124
REMARK UNBOUND:                -0.308
REMARK SMILES O=c1c(O)c(-c2ccc(O)c(O)c2)oc2cc(O)cc(O)c12
REMARK SMILES IDX 5 1 3 2 2 3 1 4 22 5 20 6 19 7 17 8 16 9 15 10 14 11 6 12
REMARK SMILES IDX 7 13 8 14 9 15 13 16 11 17 10 18 12 20 4 22 21 24 18 26
REMARK H PARENT 10 19 12 21 4 23 21 25 18 27
REMARK Flexibility Score: inf
ROOT
ATOM      1  C   UNL     1     131.707 134.344 126.667  1.00  0.00     0.180 A 
ATOM      2  C   UNL     1     130.821 133.410 127.229  1.00  0.00     0.208 A 
ATOM      3  C   UNL     1     131.059 132.040 127.033  1.00  0.00     0.238 A 
ATOM      4  O   UNL     1     130.294 131.208 127.583  1.00  0.00    -0.285 OA
ATOM      5  C   UNL     1     132.172 131.623 126.262  1.00  0.00     0.111 A 
ATOM      6  C   UNL     1     132.487 130.263 125.965  1.00  0.00     0.134 A 
ATOM      7  C   UNL     1     133.684 129.959 125.305  1.00  0.00     0.093 A 
ATOM      8  C   UNL     1     134.545 130.969 124.874  1.00  0.00     0.123 A 
ATOM      9  C   UNL     1     134.217 132.305 125.108  1.00  0.00     0.094 A 
ATOM     10  C   UNL     1     133.048 132.637 125.795  1.00  0.00     0.146 A 
ATOM     11  O   UNL     1     132.777 133.920 126.006  1.00  0.00    -0.452 OA
ENDROOT
BRANCH   1  12
ATOM     12  C   UNL     1     131.507 135.805 126.810  1.00  0.00     0.025 A 
ATOM     13  C   UNL     1     131.558 136.387 128.087  1.00  0.00     0.016 A 
ATOM     14  C   UNL     1     131.394 137.765 128.243  1.00  0.00     0.051 A 
ATOM     15  C   UNL     1     131.191 138.584 127.128  1.00  0.00     0.157 A 
ATOM     16  C   UNL     1     131.323 136.632 125.688  1.00  0.00     0.062 A 
ATOM     17  C   UNL     1     131.160 138.017 125.843  1.00  0.00     0.158 A 
BRANCH  15  18
ATOM     18  O   UNL     1     131.027 139.956 127.315  1.00  0.00    -0.504 OA
ATOM     19  H   UNL     1     131.757 140.621 127.088  1.00  0.00     0.293 HD
ENDBRANCH  15  18
BRANCH  17  20
ATOM     20  O   UNL     1     130.972 138.829 124.726  1.00  0.00    -0.504 OA
ATOM     21  H   UNL     1     131.750 139.285 124.264  1.00  0.00     0.293 HD
ENDBRANCH  17  20
ENDBRANCH   1  12
BRANCH   2  22
ATOM     22  O   UNL     1     129.740 133.843 128.004  1.00  0.00    -0.502 OA
ATOM     23  H   UNL     1     129.748 133.805 129.016  1.00  0.00     0.293 HD
ENDBRANCH   2  22
BRANCH   6  24
ATOM     24  O   UNL     1     131.652 129.183 126.269  1.00  0.00    -0.507 OA
ATOM     25  H   UNL     1     130.681 129.264 126.529  1.00  0.00     0.293 HD
ENDBRANCH   6  24
BRANCH   8  26
ATOM     26  O   UNL     1     135.719 130.632 124.207  1.00  0.00    -0.508 OA
ATOM     27  H   UNL     1     135.768 130.613 123.195  1.00  0.00     0.293 HD
ENDBRANCH   8  26
TORSDOF 6
ENDMDL
MODEL 9
REMARK VINA RESULT:    -5.895     11.206     12.780
REMARK INTER + INTRA:          -7.410
REMARK INTER:                  -7.100
REMARK INTRA:                  -0.310
REMARK UNBOUND:                -0.308
REMARK SMILES O=c1c(O)c(-c2ccc(O)c(O)c2)oc2cc(O)cc(O)c12
REMARK SMILES IDX 5 1 3 2 2 3 1 4 22 5 20 6 19 7 17 8 16 9 15 10 14 11 6 12
REMARK SMILES IDX 7 13 8 14 9 15 13 16 11 17 10 18 12 20 4 22 21 24 18 26
REMARK H PARENT 10 19 12 21 4 23 21 25 18 27
REMARK Flexibility Score: inf
ROOT
ATOM      1  C   UNL     1     134.568 132.466 128.133  1.00  0.00     0.180 A 
ATOM      2  C   UNL     1     134.070 133.778 128.211  1.00  0.00     0.208 A 
ATOM      3  C   UNL     1     134.569 134.638 129.203  1.00  0.00     0.238 A 
ATOM      4  O   UNL     1     134.160 135.827 129.233  1.00  0.00    -0.285 OA
ATOM      5  C   UNL     1     135.545 134.168 130.115  1.00  0.00     0.111 A 
ATOM      6  C   UNL     1     136.091 134.941 131.184  1.00  0.00     0.134 A 
ATOM      7  C   UNL     1     137.146 134.419 131.944  1.00  0.00     0.093 A 
ATOM      8  C   UNL     1     137.631 133.132 131.716  1.00  0.00     0.123 A 
ATOM      9  C   UNL     1     137.064 132.346 130.710  1.00  0.00     0.094 A 
ATOM     10  C   UNL     1     136.035 132.852 129.913  1.00  0.00     0.146 A 
ATOM     11  O   UNL     1     135.530 132.077 128.960  1.00  0.00    -0.452 OA
ENDROOT
BRANCH   1  12
ATOM     12  C   UNL     1     134.073 131.494 127.130  1.00  0.00     0.025 A 
ATOM     13  C   UNL     1     133.034 130.615 127.474  1.00  0.00     0.016 A 
ATOM     14  C   UNL     1     132.538 129.706 126.537  1.00  0.00     0.051 A 
ATOM     15  C   UNL     1     133.061 129.669 125.241  1.00  0.00     0.157 A 
ATOM     16  C   UNL     1     134.584 131.470 125.820  1.00  0.00     0.062 A 
ATOM     17  C   UNL     1     134.086 130.558 124.878  1.00  0.00     0.158 A 
BRANCH  15  18
ATOM     18  O   UNL     1     132.547 128.748 124.328  1.00  0.00    -0.504 OA
ATOM     19  H   UNL     1     131.885 128.031 124.602  1.00  0.00     0.293 HD
ENDBRANCH  15  18
BRANCH  17  20
ATOM     20  O   UNL     1     134.602 130.537 123.583  1.00  0.00    -0.504 OA
ATOM     21  H   UNL     1     135.600 130.562 123.410  1.00  0.00     0.293 HD
ENDBRANCH  17  20
ENDBRANCH   1  12
BRANCH   2  22
ATOM     22  O   UNL     1     133.122 134.226 127.287  1.00  0.00    -0.502 OA
ATOM     23  H   UNL     1     132.592 135.079 127.423  1.00  0.00     0.293 HD
ENDBRANCH   2  22
BRANCH   6  24
ATOM     24  O   UNL     1     135.618 136.202 131.558  1.00  0.00    -0.507 OA
ATOM     25  H   UNL     1     136.082 137.074 131.349  1.00  0.00     0.293 HD
ENDBRANCH   6  24
BRANCH   8  26
ATOM     26  O   UNL     1     138.671 132.639 132.499  1.00  0.00    -0.508 OA
ATOM     27  H   UNL     1     138.577 131.778 133.025  1.00  0.00     0.293 HD
ENDBRANCH   8  26
TORSDOF 6
ENDMDL
