MODEL 1
REMARK VINA RESULT:     0.576      0.000      0.000
REMARK INTER + INTRA:           0.592
REMARK INTER:                   0.592
REMARK INTRA:                   0.000
REMARK UNBOUND:                 0.000
REMARK SMILES Nc1ncnc2nc[nH]c12
REMARK SMILES IDX 8 1 7 2 6 3 5 4 4 5 3 6 2 7 10 8 9 9 1 11
REMARK H PARENT 9 10 1 12 1 13
REMARK Flexibility Score: inf
ROOT
ATOM      1  C   UNL     1      57.959 -11.675  14.351  1.00  0.00     0.199 A 
ATOM      2  N   UNL     1      58.014 -11.290  15.655  1.00  0.00    -0.217 NA
ATOM      3  C   UNL     1      58.698 -10.136  15.583  1.00  0.00     0.182 A 
ATOM      4  N   UNL     1      59.033  -9.330  16.618  1.00  0.00    -0.215 NA
ATOM      5  C   UNL     1      59.737  -8.189  16.346  1.00  0.00     0.226 A 
ATOM      6  N   UNL     1      60.087  -7.878  15.057  1.00  0.00    -0.217 NA
ATOM      7  C   UNL     1      59.749  -8.690  14.011  1.00  0.00     0.152 A 
ATOM      8  C   UNL     1      59.034  -9.848  14.304  1.00  0.00     0.127 A 
ATOM      9  N   UNL     1      58.574 -10.815  13.501  1.00  0.00    -0.340 N 
ATOM     10  H   UNL     1      58.661 -10.898  12.464  1.00  0.00     0.168 HD
ENDROOT
BRANCH   7  11
ATOM     11  N   UNL     1      60.125  -8.346  12.677  1.00  0.00    -0.382 N 
ATOM     12  H   UNL     1      60.847  -7.616  12.486  1.00  0.00     0.158 HD
ATOM     13  H   UNL     1      59.675  -8.826  11.866  1.00  0.00     0.158 HD
ENDBRANCH   7  11
TORSDOF 1
ENDMDL
MODEL 2
REMARK VINA RESULT:     0.952      0.981      2.416
REMARK INTER + INTRA:           0.980
REMARK INTER:                   0.980
REMARK INTRA:                   0.000
REMARK UNBOUND:                 0.000
REMARK SMILES Nc1ncnc2nc[nH]c12
REMARK SMILES IDX 8 1 7 2 6 3 5 4 4 5 3 6 2 7 10 8 9 9 1 11
REMARK H PARENT 9 10 1 12 1 13
REMARK Flexibility Score: inf
ROOT
ATOM      1  C   UNL     1      57.990 -11.636  15.469  1.00  0.00     0.199 A 
ATOM      2  N   UNL     1      58.263 -11.428  14.152  1.00  0.00    -0.217 NA
ATOM      3  C   UNL     1      58.899 -10.245  14.176  1.00  0.00     0.182 A 
ATOM      4  N   UNL     1      59.393  -9.572  13.108  1.00  0.00    -0.215 NA
ATOM      5  C   UNL     1      60.012  -8.373  13.332  1.00  0.00     0.226 A 
ATOM      6  N   UNL     1      60.125  -7.875  14.605  1.00  0.00    -0.217 NA
ATOM      7  C   UNL     1      59.627  -8.553  15.683  1.00  0.00     0.152 A 
ATOM      8  C   UNL     1      59.000  -9.771  15.439  1.00  0.00     0.127 A 
ATOM      9  N   UNL     1      58.427 -10.640  16.280  1.00  0.00    -0.340 N 
ATOM     10  H   UNL     1      58.334 -10.578  17.318  1.00  0.00     0.168 HD
ENDROOT
BRANCH   7  11
ATOM     11  N   UNL     1      59.757  -8.014  16.999  1.00  0.00    -0.382 N 
ATOM     12  H   UNL     1      59.036  -8.191  17.733  1.00  0.00     0.158 HD
ATOM     13  H   UNL     1      60.586  -7.429  17.245  1.00  0.00     0.158 HD
ENDBRANCH   7  11
TORSDOF 1
ENDMDL
