MODEL 1
REMARK VINA RESULT:    -3.374      0.000      0.000
REMARK INTER + INTRA:          -3.472
REMARK INTER:                  -3.472
REMARK INTRA:                   0.000
REMARK UNBOUND:                 0.000
REMARK SMILES Oc1ccc2[nH]ccc2c1
REMARK SMILES IDX 3 1 4 2 5 3 9 4 8 5 7 6 6 7 10 8 2 9 1 11
REMARK H PARENT 6 10 1 12
REMARK Flexibility Score: inf
ROOT
ATOM      1  C   UNL     1     -18.161  34.049 -10.612  1.00  0.00     0.048 A 
ATOM      2  C   UNL     1     -18.905  33.895  -9.427  1.00  0.00     0.030 A 
ATOM      3  C   UNL     1     -18.212  33.576  -8.261  1.00  0.00     0.046 A 
ATOM      4  C   UNL     1     -16.851  33.416  -8.254  1.00  0.00     0.003 A 
ATOM      5  C   UNL     1     -16.480  33.110  -6.962  1.00  0.00     0.028 A 
ATOM      6  C   UNL     1     -17.666  33.100  -6.236  1.00  0.00     0.083 A 
ATOM      7  N   UNL     1     -18.721  33.386  -7.033  1.00  0.00    -0.361 N 
ATOM      8  C   UNL     1     -16.086  33.562  -9.409  1.00  0.00     0.056 A 
ATOM      9  C   UNL     1     -16.757  33.885 -10.607  1.00  0.00     0.116 A 
ATOM     10  H   UNL     1     -19.724  33.444  -6.749  1.00  0.00     0.166 HD
ENDROOT
BRANCH   9  11
ATOM     11  O   UNL     1     -16.045  34.043 -11.794  1.00  0.00    -0.508 OA
ATOM     12  H   UNL     1     -16.514  34.234 -12.671  1.00  0.00     0.293 HD
ENDBRANCH   9  11
TORSDOF 1
ENDMDL
MODEL 2
REMARK VINA RESULT:    -3.319      9.027     10.028
REMARK INTER + INTRA:          -3.416
REMARK INTER:                  -3.416
REMARK INTRA:                   0.000
REMARK UNBOUND:                 0.000
REMARK SMILES Oc1ccc2[nH]ccc2c1
REMARK SMILES IDX 3 1 4 2 5 3 9 4 8 5 7 6 6 7 10 8 2 9 1 11
REMARK H PARENT 6 10 1 12
REMARK Flexibility Score: inf
ROOT
ATOM      1  C   UNL     1     -16.969  26.487 -15.694  1.00  0.00     0.048 A 
ATOM      2  C   UNL     1     -17.467  27.727 -15.254  1.00  0.00     0.030 A 
ATOM      3  C   UNL     1     -17.338  28.820 -16.110  1.00  0.00     0.046 A 
ATOM      4  C   UNL     1     -16.749  28.704 -17.341  1.00  0.00     0.003 A 
ATOM      5  C   UNL     1     -16.779  29.950 -17.930  1.00  0.00     0.028 A 
ATOM      6  C   UNL     1     -17.401  30.776 -17.000  1.00  0.00     0.083 A 
ATOM      7  N   UNL     1     -17.742  30.082 -15.891  1.00  0.00    -0.361 N 
ATOM      8  C   UNL     1     -16.246  27.491 -17.806  1.00  0.00     0.056 A 
ATOM      9  C   UNL     1     -16.361  26.365 -16.964  1.00  0.00     0.116 A 
ATOM     10  H   UNL     1     -18.219  30.454 -15.039  1.00  0.00     0.166 HD
ENDROOT
BRANCH   9  11
ATOM     11  O   UNL     1     -15.876  25.125 -17.375  1.00  0.00    -0.508 OA
ATOM     12  H   UNL     1     -16.116  24.273 -16.882  1.00  0.00     0.293 HD
ENDBRANCH   9  11
TORSDOF 1
ENDMDL
MODEL 3
REMARK VINA RESULT:    -3.266     13.202     14.248
REMARK INTER + INTRA:          -3.362
REMARK INTER:                  -3.362
REMARK INTRA:                   0.000
REMARK UNBOUND:                 0.000
REMARK SMILES Oc1ccc2[nH]ccc2c1
REMARK SMILES IDX 3 1 4 2 5 3 9 4 8 5 7 6 6 7 10 8 2 9 1 11
REMARK H PARENT 6 10 1 12
REMARK Flexibility Score: inf
ROOT
ATOM      1  C   UNL     1     -25.962  28.616   1.422  1.00  0.00     0.048 A 
ATOM      2  C   UNL     1     -24.653  28.884   0.981  1.00  0.00     0.030 A 
ATOM      3  C   UNL     1     -23.787  27.803   0.820  1.00  0.00     0.046 A 
ATOM      4  C   UNL     1     -24.184  26.518   1.077  1.00  0.00     0.003 A 
ATOM      5  C   UNL     1     -23.108  25.696   0.822  1.00  0.00     0.028 A 
ATOM      6  C   UNL     1     -22.089  26.549   0.413  1.00  0.00     0.083 A 
ATOM      7  N   UNL     1     -22.508  27.834   0.412  1.00  0.00    -0.361 N 
ATOM      8  C   UNL     1     -25.473  26.219   1.515  1.00  0.00     0.056 A 
ATOM      9  C   UNL     1     -26.375  27.290   1.689  1.00  0.00     0.116 A 
ATOM     10  H   UNL     1     -21.948  28.677   0.149  1.00  0.00     0.166 HD
ENDROOT
BRANCH   9  11
ATOM     11  O   UNL     1     -27.676  27.052   2.124  1.00  0.00    -0.508 OA
ATOM     12  H   UNL     1     -27.892  26.288   2.753  1.00  0.00     0.293 HD
ENDBRANCH   9  11
TORSDOF 1
ENDMDL
MODEL 4
REMARK VINA RESULT:    -3.234     13.034     14.441
REMARK INTER + INTRA:          -3.329
REMARK INTER:                  -3.329
REMARK INTRA:                   0.000
REMARK UNBOUND:                 0.000
REMARK SMILES Oc1ccc2[nH]ccc2c1
REMARK SMILES IDX 3 1 4 2 5 3 9 4 8 5 7 6 6 7 10 8 2 9 1 11
REMARK H PARENT 6 10 1 12
REMARK Flexibility Score: inf
ROOT
ATOM      1  C   UNL     1     -26.529  26.970   2.125  1.00  0.00     0.048 A 
ATOM      2  C   UNL     1     -25.574  25.946   1.986  1.00  0.00     0.030 A 
ATOM      3  C   UNL     1     -24.368  26.262   1.362  1.00  0.00     0.046 A 
ATOM      4  C   UNL     1     -24.109  27.523   0.896  1.00  0.00     0.003 A 
ATOM      5  C   UNL     1     -22.847  27.505   0.341  1.00  0.00     0.028 A 
ATOM      6  C   UNL     1     -22.397  26.199   0.505  1.00  0.00     0.083 A 
ATOM      7  N   UNL     1     -23.329  25.444   1.130  1.00  0.00    -0.361 N 
ATOM      8  C   UNL     1     -25.033  28.559   1.018  1.00  0.00     0.056 A 
ATOM      9  C   UNL     1     -26.264  28.273   1.644  1.00  0.00     0.116 A 
ATOM     10  H   UNL     1     -23.254  24.432   1.378  1.00  0.00     0.166 HD
ENDROOT
BRANCH   9  11
ATOM     11  O   UNL     1     -27.227  29.268   1.794  1.00  0.00    -0.508 OA
ATOM     12  H   UNL     1     -28.036  29.317   1.186  1.00  0.00     0.293 HD
ENDBRANCH   9  11
TORSDOF 1
ENDMDL
MODEL 5
REMARK VINA RESULT:    -3.204      6.494      7.408
REMARK INTER + INTRA:          -3.298
REMARK INTER:                  -3.298
REMARK INTRA:                   0.000
REMARK UNBOUND:                 0.000
REMARK SMILES Oc1ccc2[nH]ccc2c1
REMARK SMILES IDX 3 1 4 2 5 3 9 4 8 5 7 6 6 7 10 8 2 9 1 11
REMARK H PARENT 6 10 1 12
REMARK Flexibility Score: inf
ROOT
ATOM      1  C   UNL     1     -18.889  32.409  -3.141  1.00  0.00     0.048 A 
ATOM      2  C   UNL     1     -19.936  31.470  -3.176  1.00  0.00     0.030 A 
ATOM      3  C   UNL     1     -21.236  31.937  -2.989  1.00  0.00     0.046 A 
ATOM      4  C   UNL     1     -21.499  33.265  -2.777  1.00  0.00     0.003 A 
ATOM      5  C   UNL     1     -22.864  33.395  -2.631  1.00  0.00     0.028 A 
ATOM      6  C   UNL     1     -23.368  32.106  -2.766  1.00  0.00     0.083 A 
ATOM      7  N   UNL     1     -22.370  31.219  -2.985  1.00  0.00    -0.361 N 
ATOM      8  C   UNL     1     -20.486  34.219  -2.737  1.00  0.00     0.056 A 
ATOM      9  C   UNL     1     -19.158  33.780  -2.923  1.00  0.00     0.116 A 
ATOM     10  H   UNL     1     -22.466  30.188  -3.121  1.00  0.00     0.166 HD
ENDROOT
BRANCH   9  11
ATOM     11  O   UNL     1     -18.103  34.689  -2.893  1.00  0.00    -0.508 OA
ATOM     12  H   UNL     1     -17.959  35.357  -3.641  1.00  0.00     0.293 HD
ENDBRANCH   9  11
TORSDOF 1
ENDMDL
MODEL 6
REMARK VINA RESULT:    -3.204      1.077      2.542
REMARK INTER + INTRA:          -3.297
REMARK INTER:                  -3.297
REMARK INTRA:                   0.000
REMARK UNBOUND:                 0.000
REMARK SMILES Oc1ccc2[nH]ccc2c1
REMARK SMILES IDX 3 1 4 2 5 3 9 4 8 5 7 6 6 7 10 8 2 9 1 11
REMARK H PARENT 6 10 1 12
REMARK Flexibility Score: inf
ROOT
ATOM      1  C   UNL     1     -16.012  33.531  -9.455  1.00  0.00     0.048 A 
ATOM      2  C   UNL     1     -16.991  33.409  -8.452  1.00  0.00     0.030 A 
ATOM      3  C   UNL     1     -18.296  33.785  -8.768  1.00  0.00     0.046 A 
ATOM      4  C   UNL     1     -18.627  34.259 -10.010  1.00  0.00     0.003 A 
ATOM      5  C   UNL     1     -19.977  34.537  -9.998  1.00  0.00     0.028 A 
ATOM      6  C   UNL     1     -20.404  34.208  -8.715  1.00  0.00     0.083 A 
ATOM      7  N   UNL     1     -19.374  33.749  -7.968  1.00  0.00    -0.361 N 
ATOM      8  C   UNL     1     -17.681  34.392 -11.024  1.00  0.00     0.056 A 
ATOM      9  C   UNL     1     -16.351  34.020 -10.737  1.00  0.00     0.116 A 
ATOM     10  H   UNL     1     -19.413  33.433  -6.973  1.00  0.00     0.166 HD
ENDROOT
BRANCH   9  11
ATOM     11  O   UNL     1     -15.362  34.131 -11.712  1.00  0.00    -0.508 OA
ATOM     12  H   UNL     1     -14.822  33.328 -12.012  1.00  0.00     0.293 HD
ENDBRANCH   9  11
TORSDOF 1
ENDMDL
MODEL 7
REMARK VINA RESULT:    -3.202      8.849      9.513
REMARK INTER + INTRA:          -3.295
REMARK INTER:                  -3.295
REMARK INTRA:                   0.000
REMARK UNBOUND:                 0.000
REMARK SMILES Oc1ccc2[nH]ccc2c1
REMARK SMILES IDX 3 1 4 2 5 3 9 4 8 5 7 6 6 7 10 8 2 9 1 11
REMARK H PARENT 6 10 1 12
REMARK Flexibility Score: inf
ROOT
ATOM      1  C   UNL     1     -13.870  24.717  -9.553  1.00  0.00     0.048 A 
ATOM      2  C   UNL     1     -12.521  24.421  -9.280  1.00  0.00     0.030 A 
ATOM      3  C   UNL     1     -11.638  25.490  -9.135  1.00  0.00     0.046 A 
ATOM      4  C   UNL     1     -12.055  26.789  -9.252  1.00  0.00     0.003 A 
ATOM      5  C   UNL     1     -10.953  27.594  -9.056  1.00  0.00     0.028 A 
ATOM      6  C   UNL     1      -9.899  26.716  -8.826  1.00  0.00     0.083 A 
ATOM      7  N   UNL     1     -10.322  25.433  -8.875  1.00  0.00    -0.361 N 
ATOM      8  C   UNL     1     -13.382  27.115  -9.520  1.00  0.00     0.056 A 
ATOM      9  C   UNL     1     -14.303  26.057  -9.673  1.00  0.00     0.116 A 
ATOM     10  H   UNL     1      -9.740  24.575  -8.739  1.00  0.00     0.166 HD
ENDROOT
BRANCH   9  11
ATOM     11  O   UNL     1     -15.644  26.322  -9.943  1.00  0.00    -0.508 OA
ATOM     12  H   UNL     1     -15.918  26.984 -10.659  1.00  0.00     0.293 HD
ENDBRANCH   9  11
TORSDOF 1
ENDMDL
MODEL 8
REMARK VINA RESULT:    -3.199     12.041     13.283
REMARK INTER + INTRA:          -3.293
REMARK INTER:                  -3.293
REMARK INTRA:                   0.000
REMARK UNBOUND:                 0.000
REMARK SMILES Oc1ccc2[nH]ccc2c1
REMARK SMILES IDX 3 1 4 2 5 3 9 4 8 5 7 6 6 7 10 8 2 9 1 11
REMARK H PARENT 6 10 1 12
REMARK Flexibility Score: inf
ROOT
ATOM      1  C   UNL     1     -20.949  25.939  -0.918  1.00  0.00     0.048 A 
ATOM      2  C   UNL     1     -21.589  24.830  -1.500  1.00  0.00     0.030 A 
ATOM      3  C   UNL     1     -22.882  24.529  -1.077  1.00  0.00     0.046 A 
ATOM      4  C   UNL     1     -23.520  25.279  -0.125  1.00  0.00     0.003 A 
ATOM      5  C   UNL     1     -24.768  24.726   0.066  1.00  0.00     0.028 A 
ATOM      6  C   UNL     1     -24.821  23.640  -0.802  1.00  0.00     0.083 A 
ATOM      7  N   UNL     1     -23.667  23.524  -1.498  1.00  0.00    -0.361 N 
ATOM      8  C   UNL     1     -22.915  26.383   0.471  1.00  0.00     0.056 A 
ATOM      9  C   UNL     1     -21.606  26.716   0.064  1.00  0.00     0.116 A 
ATOM     10  H   UNL     1     -23.437  22.800  -2.215  1.00  0.00     0.166 HD
ENDROOT
BRANCH   9  11
ATOM     11  O   UNL     1     -20.949  27.809   0.626  1.00  0.00    -0.508 OA
ATOM     12  H   UNL     1     -20.848  28.681   0.121  1.00  0.00     0.293 HD
ENDBRANCH   9  11
TORSDOF 1
ENDMDL
