MODEL 1
REMARK VINA RESULT:    -4.232      0.000      0.000
REMARK INTER + INTRA:          -4.496
REMARK INTER:                  -4.479
REMARK INTRA:                  -0.017
REMARK UNBOUND:                -0.017
REMARK SMILES O=C([O-])c1cccnc1
REMARK SMILES IDX 4 1 5 2 9 3 6 4 8 5 7 6 2 7 1 8 3 9
REMARK H PARENT
REMARK Flexibility Score: inf
ROOT
ATOM      1  C   UNL     1      18.120   2.602  33.838  1.00  0.00     0.016 A 
ATOM      2  C   UNL     1      19.002   1.525  34.028  1.00  0.00     0.013 A 
ATOM      3  C   UNL     1      17.335   2.625  32.672  1.00  0.00     0.120 A 
ATOM      4  C   UNL     1      19.085   0.511  33.074  1.00  0.00     0.021 A 
ATOM      5  N   UNL     1      17.437   1.624  31.757  1.00  0.00    -0.264 NA
ATOM      6  C   UNL     1      18.285   0.578  31.933  1.00  0.00     0.111 A 
ENDROOT
BRANCH   1   7
ATOM      7  C   UNL     1      18.016   3.688  34.837  1.00  0.00     0.073 C 
ATOM      8  O   UNL     1      17.011   3.768  35.592  1.00  0.00    -0.545 OA
ATOM      9  O   UNL     1      19.026   4.636  34.955  1.00  0.00    -0.545 OA
ENDBRANCH   1   7
TORSDOF 1
ENDMDL
MODEL 2
REMARK VINA RESULT:    -4.186     11.305     12.322
REMARK INTER + INTRA:          -4.447
REMARK INTER:                  -4.429
REMARK INTRA:                  -0.018
REMARK UNBOUND:                -0.017
REMARK SMILES O=C([O-])c1cccnc1
REMARK SMILES IDX 4 1 5 2 9 3 6 4 8 5 7 6 2 7 1 8 3 9
REMARK H PARENT
REMARK Flexibility Score: inf
ROOT
ATOM      1  C   UNL     1       7.981   4.014  27.422  1.00  0.00     0.016 A 
ATOM      2  C   UNL     1       6.712   3.518  27.079  1.00  0.00     0.013 A 
ATOM      3  C   UNL     1       8.762   3.279  28.331  1.00  0.00     0.120 A 
ATOM      4  C   UNL     1       6.253   2.324  27.635  1.00  0.00     0.021 A 
ATOM      5  N   UNL     1       8.290   2.119  28.859  1.00  0.00    -0.264 NA
ATOM      6  C   UNL     1       7.065   1.630  28.533  1.00  0.00     0.111 A 
ENDROOT
BRANCH   1   7
ATOM      7  C   UNL     1       8.487   5.278  26.844  1.00  0.00     0.073 C 
ATOM      8  O   UNL     1       9.533   5.286  26.142  1.00  0.00    -0.545 OA
ATOM      9  O   UNL     1       7.816   6.474  27.069  1.00  0.00    -0.545 OA
ENDBRANCH   1   7
TORSDOF 1
ENDMDL
MODEL 3
REMARK VINA RESULT:    -4.161     10.768     11.800
REMARK INTER + INTRA:          -4.421
REMARK INTER:                  -4.399
REMARK INTRA:                  -0.023
REMARK UNBOUND:                -0.017
REMARK SMILES O=C([O-])c1cccnc1
REMARK SMILES IDX 4 1 5 2 9 3 6 4 8 5 7 6 2 7 1 8 3 9
REMARK H PARENT
REMARK Flexibility Score: inf
ROOT
ATOM      1  C   UNL     1       8.683   3.557  27.529  1.00  0.00     0.016 A 
ATOM      2  C   UNL     1       7.404   3.472  26.954  1.00  0.00     0.013 A 
ATOM      3  C   UNL     1       8.946   2.803  28.686  1.00  0.00     0.120 A 
ATOM      4  C   UNL     1       6.430   2.653  27.528  1.00  0.00     0.021 A 
ATOM      5  N   UNL     1       7.980   2.014  29.225  1.00  0.00    -0.264 NA
ATOM      6  C   UNL     1       6.740   1.923  28.675  1.00  0.00     0.111 A 
ENDROOT
BRANCH   1   7
ATOM      7  C   UNL     1       9.729   4.419  26.937  1.00  0.00     0.073 C 
ATOM      8  O   UNL     1      10.944   4.223  27.202  1.00  0.00    -0.545 OA
ATOM      9  O   UNL     1       9.384   5.458  26.081  1.00  0.00    -0.545 OA
ENDBRANCH   1   7
TORSDOF 1
ENDMDL
MODEL 4
REMARK VINA RESULT:    -4.055     11.301     12.090
REMARK INTER + INTRA:          -4.308
REMARK INTER:                  -4.290
REMARK INTRA:                  -0.018
REMARK UNBOUND:                -0.017
REMARK SMILES O=C([O-])c1cccnc1
REMARK SMILES IDX 4 1 5 2 9 3 6 4 8 5 7 6 2 7 1 8 3 9
REMARK H PARENT
REMARK Flexibility Score: inf
ROOT
ATOM      1  C   UNL     1       8.096   4.058  27.526  1.00  0.00     0.016 A 
ATOM      2  C   UNL     1       8.910   3.438  28.489  1.00  0.00     0.013 A 
ATOM      3  C   UNL     1       6.861   3.463  27.212  1.00  0.00     0.120 A 
ATOM      4  C   UNL     1       8.489   2.261  29.109  1.00  0.00     0.021 A 
ATOM      5  N   UNL     1       6.476   2.316  27.832  1.00  0.00    -0.264 NA
ATOM      6  C   UNL     1       7.255   1.709  28.765  1.00  0.00     0.111 A 
ENDROOT
BRANCH   1   7
ATOM      7  C   UNL     1       8.523   5.305  26.856  1.00  0.00     0.073 C 
ATOM      8  O   UNL     1       9.574   5.330  26.162  1.00  0.00    -0.545 OA
ATOM      9  O   UNL     1       7.771   6.467  26.984  1.00  0.00    -0.545 OA
ENDBRANCH   1   7
TORSDOF 1
ENDMDL
MODEL 5
REMARK VINA RESULT:    -4.025     10.891     12.021
REMARK INTER + INTRA:          -4.277
REMARK INTER:                  -4.253
REMARK INTRA:                  -0.024
REMARK UNBOUND:                -0.017
REMARK SMILES O=C([O-])c1cccnc1
REMARK SMILES IDX 4 1 5 2 9 3 6 4 8 5 7 6 2 7 1 8 3 9
REMARK H PARENT
REMARK Flexibility Score: inf
ROOT
ATOM      1  C   UNL     1       7.994   3.283  27.652  1.00  0.00     0.016 A 
ATOM      2  C   UNL     1       8.458   4.022  26.550  1.00  0.00     0.013 A 
ATOM      3  C   UNL     1       8.885   3.033  28.711  1.00  0.00     0.120 A 
ATOM      4  C   UNL     1       9.772   4.490  26.523  1.00  0.00     0.021 A 
ATOM      5  N   UNL     1      10.160   3.500  28.659  1.00  0.00    -0.264 NA
ATOM      6  C   UNL     1      10.618   4.217  27.599  1.00  0.00     0.111 A 
ENDROOT
BRANCH   1   7
ATOM      7  C   UNL     1       6.605   2.777  27.701  1.00  0.00     0.073 C 
ATOM      8  O   UNL     1       5.740   3.206  26.892  1.00  0.00    -0.545 OA
ATOM      9  O   UNL     1       6.236   1.822  28.640  1.00  0.00    -0.545 OA
ENDBRANCH   1   7
TORSDOF 1
ENDMDL
MODEL 6
REMARK VINA RESULT:    -4.011     12.170     13.281
REMARK INTER + INTRA:          -4.262
REMARK INTER:                  -4.238
REMARK INTRA:                  -0.024
REMARK UNBOUND:                -0.017
REMARK SMILES O=C([O-])c1cccnc1
REMARK SMILES IDX 4 1 5 2 9 3 6 4 8 5 7 6 2 7 1 8 3 9
REMARK H PARENT
REMARK Flexibility Score: inf
ROOT
ATOM      1  C   UNL     1       6.423   2.301  27.838  1.00  0.00     0.016 A 
ATOM      2  C   UNL     1       6.716   3.497  27.161  1.00  0.00     0.013 A 
ATOM      3  C   UNL     1       7.376   1.791  28.736  1.00  0.00     0.120 A 
ATOM      4  C   UNL     1       7.929   4.150  27.386  1.00  0.00     0.021 A 
ATOM      5  N   UNL     1       8.550   2.447  28.936  1.00  0.00    -0.264 NA
ATOM      6  C   UNL     1       8.843   3.605  28.288  1.00  0.00     0.111 A 
ENDROOT
BRANCH   1   7
ATOM      7  C   UNL     1       5.144   1.593  27.613  1.00  0.00     0.073 C 
ATOM      8  O   UNL     1       4.921   0.485  28.170  1.00  0.00    -0.545 OA
ATOM      9  O   UNL     1       4.172   2.139  26.783  1.00  0.00    -0.545 OA
ENDBRANCH   1   7
TORSDOF 1
ENDMDL
MODEL 7
REMARK VINA RESULT:    -3.966     10.754     11.644
REMARK INTER + INTRA:          -4.215
REMARK INTER:                  -4.192
REMARK INTRA:                  -0.023
REMARK UNBOUND:                -0.017
REMARK SMILES O=C([O-])c1cccnc1
REMARK SMILES IDX 4 1 5 2 9 3 6 4 8 5 7 6 2 7 1 8 3 9
REMARK H PARENT
REMARK Flexibility Score: inf
ROOT
ATOM      1  C   UNL     1       8.726   3.497  27.569  1.00  0.00     0.016 A 
ATOM      2  C   UNL     1       8.995   2.743  28.724  1.00  0.00     0.013 A 
ATOM      3  C   UNL     1       7.444   3.408  26.997  1.00  0.00     0.120 A 
ATOM      4  C   UNL     1       8.005   1.931  29.278  1.00  0.00     0.021 A 
ATOM      5  N   UNL     1       6.498   2.608  27.557  1.00  0.00    -0.264 NA
ATOM      6  C   UNL     1       6.748   1.877  28.674  1.00  0.00     0.111 A 
ENDROOT
BRANCH   1   7
ATOM      7  C   UNL     1       9.761   4.364  26.966  1.00  0.00     0.073 C 
ATOM      8  O   UNL     1      10.981   4.171  27.216  1.00  0.00    -0.545 OA
ATOM      9  O   UNL     1       9.403   5.403  26.115  1.00  0.00    -0.545 OA
ENDBRANCH   1   7
TORSDOF 1
ENDMDL
MODEL 8
REMARK VINA RESULT:    -3.931     10.611     11.656
REMARK INTER + INTRA:          -4.178
REMARK INTER:                  -4.156
REMARK INTRA:                  -0.021
REMARK UNBOUND:                -0.017
REMARK SMILES O=C([O-])c1cccnc1
REMARK SMILES IDX 4 1 5 2 9 3 6 4 8 5 7 6 2 7 1 8 3 9
REMARK H PARENT
REMARK Flexibility Score: inf
ROOT
ATOM      1  C   UNL     1       8.575   3.151  28.074  1.00  0.00     0.016 A 
ATOM      2  C   UNL     1       7.618   3.708  27.210  1.00  0.00     0.013 A 
ATOM      3  C   UNL     1       8.202   2.048  28.862  1.00  0.00     0.120 A 
ATOM      4  C   UNL     1       6.332   3.169  27.146  1.00  0.00     0.021 A 
ATOM      5  N   UNL     1       6.943   1.542  28.781  1.00  0.00    -0.264 NA
ATOM      6  C   UNL     1       6.010   2.073  27.947  1.00  0.00     0.111 A 
ENDROOT
BRANCH   1   7
ATOM      7  C   UNL     1       9.943   3.708  28.157  1.00  0.00     0.073 C 
ATOM      8  O   UNL     1      10.494   4.203  27.139  1.00  0.00    -0.545 OA
ATOM      9  O   UNL     1      10.638   3.691  29.360  1.00  0.00    -0.545 OA
ENDBRANCH   1   7
TORSDOF 1
ENDMDL
MODEL 9
REMARK VINA RESULT:    -3.796      2.733      3.434
REMARK INTER + INTRA:          -4.035
REMARK INTER:                  -4.019
REMARK INTRA:                  -0.016
REMARK UNBOUND:                -0.017
REMARK SMILES O=C([O-])c1cccnc1
REMARK SMILES IDX 4 1 5 2 9 3 6 4 8 5 7 6 2 7 1 8 3 9
REMARK H PARENT
REMARK Flexibility Score: inf
ROOT
ATOM      1  C   UNL     1      15.629   2.729  33.436  1.00  0.00     0.016 A 
ATOM      2  C   UNL     1      16.310   2.995  34.636  1.00  0.00     0.013 A 
ATOM      3  C   UNL     1      16.378   2.314  32.321  1.00  0.00     0.120 A 
ATOM      4  C   UNL     1      17.696   2.846  34.703  1.00  0.00     0.021 A 
ATOM      5  N   UNL     1      17.728   2.178  32.413  1.00  0.00    -0.264 NA
ATOM      6  C   UNL     1      18.395   2.432  33.569  1.00  0.00     0.111 A 
ENDROOT
BRANCH   1   7
ATOM      7  C   UNL     1      14.161   2.880  33.343  1.00  0.00     0.073 C 
ATOM      8  O   UNL     1      13.401   1.909  33.602  1.00  0.00    -0.545 OA
ATOM      9  O   UNL     1      13.600   4.095  32.969  1.00  0.00    -0.545 OA
ENDBRANCH   1   7
TORSDOF 1
ENDMDL
