MODEL 1
REMARK VINA RESULT:    -3.819      0.000      0.000
REMARK INTER + INTRA:          -7.456
REMARK INTER:                  -6.052
REMARK INTRA:                  -1.404
REMARK UNBOUND:                -1.404
REMARK SMILES CCCCCCCCCCCC(=O)[O-]
REMARK SMILES IDX 7 1 8 2 9 3 10 4 11 5 12 6 13 7 14 8 6 9 5 10 4 11 3 12 2 13
REMARK SMILES IDX 1 14
REMARK H PARENT
REMARK Flexibility Score: inf
ROOT
ATOM      1  C   UNL     1      23.289   4.726  17.459  1.00  0.00     0.000 C 
ENDROOT
BRANCH   1   2
ATOM      2  C   UNL     1      24.573   3.982  17.047  1.00  0.00     0.000 C 
BRANCH   2   3
ATOM      3  C   UNL     1      25.066   2.922  18.049  1.00  0.00     0.000 C 
BRANCH   3   4
ATOM      4  C   UNL     1      25.473   1.603  17.376  1.00  0.00     0.006 C 
BRANCH   4   5
ATOM      5  C   UNL     1      25.239   0.415  18.313  1.00  0.00     0.053 C 
BRANCH   5   6
ATOM      6  C   UNL     1      25.040  -0.842  17.526  1.00  0.00     0.041 C 
ATOM      7  O   UNL     1      25.304  -1.961  18.042  1.00  0.00    -0.550 OA
ATOM      8  O   UNL     1      24.610  -0.777  16.208  1.00  0.00    -0.550 OA
ENDBRANCH   5   6
ENDBRANCH   4   5
ENDBRANCH   3   4
ENDBRANCH   2   3
ENDBRANCH   1   2
BRANCH   1   9
ATOM      9  C   UNL     1      22.812   4.362  18.874  1.00  0.00     0.000 C 
BRANCH   9  10
ATOM     10  C   UNL     1      21.288   4.167  18.961  1.00  0.00    -0.000 C 
BRANCH  10  11
ATOM     11  C   UNL     1      20.825   2.796  19.497  1.00  0.00    -0.000 C 
BRANCH  11  12
ATOM     12  C   UNL     1      21.945   1.758  19.687  1.00  0.00    -0.000 C 
BRANCH  12  13
ATOM     13  C   UNL     1      21.677   0.447  18.933  1.00  0.00    -0.003 C 
ATOM     14  C   UNL     1      21.618   0.682  17.426  1.00  0.00     0.004 C 
ENDBRANCH  12  13
ENDBRANCH  11  12
ENDBRANCH  10  11
ENDBRANCH   9  10
ENDBRANCH   1   9
TORSDOF 10
ENDMDL
MODEL 2
REMARK VINA RESULT:    -3.747      3.417      5.024
REMARK INTER + INTRA:          -7.342
REMARK INTER:                  -6.110
REMARK INTRA:                  -1.232
REMARK UNBOUND:                -1.404
REMARK SMILES CCCCCCCCCCCC(=O)[O-]
REMARK SMILES IDX 7 1 8 2 9 3 10 4 11 5 12 6 13 7 14 8 6 9 5 10 4 11 3 12 2 13
REMARK SMILES IDX 1 14
REMARK H PARENT
REMARK Flexibility Score: inf
ROOT
ATOM      1  C   UNL     1      25.339   1.488  17.173  1.00  0.00     0.000 C 
ENDROOT
BRANCH   1   2
ATOM      2  C   UNL     1      25.312   2.989  17.518  1.00  0.00     0.000 C 
BRANCH   2   3
ATOM      3  C   UNL     1      24.478   3.362  18.758  1.00  0.00     0.000 C 
BRANCH   3   4
ATOM      4  C   UNL     1      23.430   4.448  18.473  1.00  0.00     0.006 C 
BRANCH   4   5
ATOM      5  C   UNL     1      23.523   4.933  17.024  1.00  0.00     0.053 C 
BRANCH   5   6
ATOM      6  C   UNL     1      23.465   6.427  16.966  1.00  0.00     0.041 C 
ATOM      7  O   UNL     1      23.378   7.099  18.028  1.00  0.00    -0.550 OA
ATOM      8  O   UNL     1      23.458   7.076  15.739  1.00  0.00    -0.550 OA
ENDBRANCH   5   6
ENDBRANCH   4   5
ENDBRANCH   3   4
ENDBRANCH   2   3
ENDBRANCH   1   2
BRANCH   1   9
ATOM      9  C   UNL     1      25.281   0.586  18.416  1.00  0.00     0.000 C 
BRANCH   9  10
ATOM     10  C   UNL     1      24.531  -0.734  18.164  1.00  0.00    -0.000 C 
BRANCH  10  11
ATOM     11  C   UNL     1      23.239  -0.612  17.329  1.00  0.00    -0.000 C 
BRANCH  11  12
ATOM     12  C   UNL     1      21.946  -0.450  18.147  1.00  0.00    -0.000 C 
BRANCH  12  13
ATOM     13  C   UNL     1      21.654   1.012  18.516  1.00  0.00    -0.003 C 
ATOM     14  C   UNL     1      21.817   1.244  20.015  1.00  0.00     0.004 C 
ENDBRANCH  12  13
ENDBRANCH  11  12
ENDBRANCH  10  11
ENDBRANCH   9  10
ENDBRANCH   1   9
TORSDOF 10
ENDMDL
MODEL 3
REMARK VINA RESULT:    -3.723      9.893     11.886
REMARK INTER + INTRA:          -7.303
REMARK INTER:                  -5.853
REMARK INTRA:                  -1.450
REMARK UNBOUND:                -1.404
REMARK SMILES CCCCCCCCCCCC(=O)[O-]
REMARK SMILES IDX 7 1 8 2 9 3 10 4 11 5 12 6 13 7 14 8 6 9 5 10 4 11 3 12 2 13
REMARK SMILES IDX 1 14
REMARK H PARENT
REMARK Flexibility Score: inf
ROOT
ATOM      1  C   UNL     1      28.698   1.984   9.504  1.00  0.00     0.000 C 
ENDROOT
BRANCH   1   2
ATOM      2  C   UNL     1      28.419   3.498   9.462  1.00  0.00     0.000 C 
BRANCH   2   3
ATOM      3  C   UNL     1      27.394   4.005  10.493  1.00  0.00     0.000 C 
BRANCH   3   4
ATOM      4  C   UNL     1      26.736   5.331  10.084  1.00  0.00     0.006 C 
BRANCH   4   5
ATOM      5  C   UNL     1      27.218   5.779   8.702  1.00  0.00     0.053 C 
BRANCH   5   6
ATOM      6  C   UNL     1      26.311   6.831   8.145  1.00  0.00     0.041 C 
ATOM      7  O   UNL     1      25.066   6.638   8.107  1.00  0.00    -0.550 OA
ATOM      8  O   UNL     1      26.842   8.003   7.625  1.00  0.00    -0.550 OA
ENDBRANCH   5   6
ENDBRANCH   4   5
ENDBRANCH   3   4
ENDBRANCH   2   3
ENDBRANCH   1   2
BRANCH   1   9
ATOM      9  C   UNL     1      28.547   1.308   8.131  1.00  0.00     0.000 C 
BRANCH   9  10
ATOM     10  C   UNL     1      28.367   2.318   6.984  1.00  0.00    -0.000 C 
BRANCH  10  11
ATOM     11  C   UNL     1      27.550   1.809   5.777  1.00  0.00    -0.000 C 
BRANCH  11  12
ATOM     12  C   UNL     1      26.024   1.954   5.913  1.00  0.00    -0.000 C 
BRANCH  12  13
ATOM     13  C   UNL     1      25.613   3.180   6.740  1.00  0.00    -0.003 C 
ATOM     14  C   UNL     1      24.854   2.767   7.997  1.00  0.00     0.004 C 
ENDBRANCH  12  13
ENDBRANCH  11  12
ENDBRANCH  10  11
ENDBRANCH   9  10
ENDBRANCH   1   9
TORSDOF 10
ENDMDL
MODEL 4
REMARK VINA RESULT:    -3.710      9.234     10.443
REMARK INTER + INTRA:          -7.283
REMARK INTER:                  -5.695
REMARK INTRA:                  -1.588
REMARK UNBOUND:                -1.404
REMARK SMILES CCCCCCCCCCCC(=O)[O-]
REMARK SMILES IDX 7 1 8 2 9 3 10 4 11 5 12 6 13 7 14 8 6 9 5 10 4 11 3 12 2 13
REMARK SMILES IDX 1 14
REMARK H PARENT
REMARK Flexibility Score: inf
ROOT
ATOM      1  C   UNL     1      26.850   4.900  10.327  1.00  0.00     0.000 C 
ENDROOT
BRANCH   1   2
ATOM      2  C   UNL     1      27.735   3.672  10.044  1.00  0.00     0.000 C 
BRANCH   2   3
ATOM      3  C   UNL     1      28.646   3.790   8.809  1.00  0.00     0.000 C 
BRANCH   3   4
ATOM      4  C   UNL     1      28.518   2.597   7.850  1.00  0.00     0.006 C 
BRANCH   4   5
ATOM      5  C   UNL     1      27.755   1.444   8.509  1.00  0.00     0.053 C 
BRANCH   5   6
ATOM      6  C   UNL     1      28.635   0.243   8.646  1.00  0.00     0.041 C 
ATOM      7  O   UNL     1      28.972  -0.170   9.788  1.00  0.00    -0.550 OA
ATOM      8  O   UNL     1      29.125  -0.394   7.513  1.00  0.00    -0.550 OA
ENDBRANCH   5   6
ENDBRANCH   4   5
ENDBRANCH   3   4
ENDBRANCH   2   3
ENDBRANCH   1   2
BRANCH   1   9
ATOM      9  C   UNL     1      26.876   5.932   9.188  1.00  0.00     0.000 C 
BRANCH   9  10
ATOM     10  C   UNL     1      25.515   6.081   8.484  1.00  0.00    -0.000 C 
BRANCH  10  11
ATOM     11  C   UNL     1      25.437   5.482   7.064  1.00  0.00    -0.000 C 
BRANCH  11  12
ATOM     12  C   UNL     1      25.215   3.960   7.008  1.00  0.00    -0.000 C 
BRANCH  12  13
ATOM     13  C   UNL     1      23.928   3.519   7.720  1.00  0.00    -0.003 C 
ATOM     14  C   UNL     1      24.239   2.622   8.914  1.00  0.00     0.004 C 
ENDBRANCH  12  13
ENDBRANCH  11  12
ENDBRANCH  10  11
ENDBRANCH   9  10
ENDBRANCH   1   9
TORSDOF 10
ENDMDL
MODEL 5
REMARK VINA RESULT:    -3.688      9.716     11.677
REMARK INTER + INTRA:          -7.248
REMARK INTER:                  -5.860
REMARK INTRA:                  -1.388
REMARK UNBOUND:                -1.404
REMARK SMILES CCCCCCCCCCCC(=O)[O-]
REMARK SMILES IDX 7 1 8 2 9 3 10 4 11 5 12 6 13 7 14 8 6 9 5 10 4 11 3 12 2 13
REMARK SMILES IDX 1 14
REMARK H PARENT
REMARK Flexibility Score: inf
ROOT
ATOM      1  C   UNL     1      26.944   4.957  10.401  1.00  0.00     0.000 C 
ENDROOT
BRANCH   1   2
ATOM      2  C   UNL     1      25.525   4.469  10.056  1.00  0.00     0.000 C 
BRANCH   2   3
ATOM      3  C   UNL     1      25.165   4.503   8.559  1.00  0.00     0.000 C 
BRANCH   3   4
ATOM      4  C   UNL     1      26.123   5.371   7.730  1.00  0.00     0.006 C 
BRANCH   4   5
ATOM      5  C   UNL     1      25.495   6.731   7.412  1.00  0.00     0.053 C 
BRANCH   5   6
ATOM      6  C   UNL     1      26.339   7.839   7.957  1.00  0.00     0.041 C 
ATOM      7  O   UNL     1      27.502   8.028   7.512  1.00  0.00    -0.550 OA
ATOM      8  O   UNL     1      25.861   8.633   8.991  1.00  0.00    -0.550 OA
ENDBRANCH   5   6
ENDBRANCH   4   5
ENDBRANCH   3   4
ENDBRANCH   2   3
ENDBRANCH   1   2
BRANCH   1   9
ATOM      9  C   UNL     1      27.920   3.806  10.694  1.00  0.00     0.000 C 
BRANCH   9  10
ATOM     10  C   UNL     1      28.809   3.453   9.488  1.00  0.00    -0.000 C 
BRANCH  10  11
ATOM     11  C   UNL     1      28.454   2.135   8.767  1.00  0.00    -0.000 C 
BRANCH  11  12
ATOM     12  C   UNL     1      28.415   2.221   7.231  1.00  0.00    -0.000 C 
BRANCH  12  13
ATOM     13  C   UNL     1      27.033   1.889   6.650  1.00  0.00    -0.003 C 
ATOM     14  C   UNL     1      26.226   1.023   7.612  1.00  0.00     0.004 C 
ENDBRANCH  12  13
ENDBRANCH  11  12
ENDBRANCH  10  11
ENDBRANCH   9  10
ENDBRANCH   1   9
TORSDOF 10
ENDMDL
MODEL 6
REMARK VINA RESULT:    -3.640     10.765     12.151
REMARK INTER + INTRA:          -7.172
REMARK INTER:                  -6.141
REMARK INTRA:                  -1.031
REMARK UNBOUND:                -1.404
REMARK SMILES CCCCCCCCCCCC(=O)[O-]
REMARK SMILES IDX 7 1 8 2 9 3 10 4 11 5 12 6 13 7 14 8 6 9 5 10 4 11 3 12 2 13
REMARK SMILES IDX 1 14
REMARK H PARENT
REMARK Flexibility Score: inf
ROOT
ATOM      1  C   UNL     1      26.176   1.980   6.696  1.00  0.00     0.000 C 
ENDROOT
BRANCH   1   2
ATOM      2  C   UNL     1      25.212   3.179   6.610  1.00  0.00     0.000 C 
BRANCH   2   3
ATOM      3  C   UNL     1      25.849   4.553   6.886  1.00  0.00     0.000 C 
BRANCH   3   4
ATOM      4  C   UNL     1      25.830   4.937   8.372  1.00  0.00     0.006 C 
BRANCH   4   5
ATOM      5  C   UNL     1      26.940   5.942   8.694  1.00  0.00     0.053 C 
BRANCH   5   6
ATOM      6  C   UNL     1      26.510   7.330   8.338  1.00  0.00     0.041 C 
ATOM      7  O   UNL     1      25.538   7.865   8.934  1.00  0.00    -0.550 OA
ATOM      8  O   UNL     1      27.151   8.015   7.315  1.00  0.00    -0.550 OA
ENDBRANCH   5   6
ENDBRANCH   4   5
ENDBRANCH   3   4
ENDBRANCH   2   3
ENDBRANCH   1   2
BRANCH   1   9
ATOM      9  C   UNL     1      27.600   2.321   6.226  1.00  0.00     0.000 C 
BRANCH   9  10
ATOM     10  C   UNL     1      28.645   2.205   7.350  1.00  0.00    -0.000 C 
BRANCH  10  11
ATOM     11  C   UNL     1      28.111   1.680   8.699  1.00  0.00    -0.000 C 
BRANCH  11  12
ATOM     12  C   UNL     1      28.994   0.622   9.384  1.00  0.00    -0.000 C 
BRANCH  12  13
ATOM     13  C   UNL     1      28.344  -0.768   9.412  1.00  0.00    -0.003 C 
ATOM     14  C   UNL     1      28.429  -1.443   8.047  1.00  0.00     0.004 C 
ENDBRANCH  12  13
ENDBRANCH  11  12
ENDBRANCH  10  11
ENDBRANCH   9  10
ENDBRANCH   1   9
TORSDOF 10
ENDMDL
MODEL 7
REMARK VINA RESULT:    -3.614      9.748     11.347
REMARK INTER + INTRA:          -7.131
REMARK INTER:                  -6.047
REMARK INTRA:                  -1.084
REMARK UNBOUND:                -1.404
REMARK SMILES CCCCCCCCCCCC(=O)[O-]
REMARK SMILES IDX 7 1 8 2 9 3 10 4 11 5 12 6 13 7 14 8 6 9 5 10 4 11 3 12 2 13
REMARK SMILES IDX 1 14
REMARK H PARENT
REMARK Flexibility Score: inf
ROOT
ATOM      1  C   UNL     1      28.481   3.020   9.970  1.00  0.00     0.000 C 
ENDROOT
BRANCH   1   2
ATOM      2  C   UNL     1      27.646   4.091  10.696  1.00  0.00     0.000 C 
BRANCH   2   3
ATOM      3  C   UNL     1      26.364   4.530   9.966  1.00  0.00     0.000 C 
BRANCH   3   4
ATOM      4  C   UNL     1      26.330   6.036   9.664  1.00  0.00     0.006 C 
BRANCH   4   5
ATOM      5  C   UNL     1      26.511   6.298   8.166  1.00  0.00     0.053 C 
BRANCH   5   6
ATOM      6  C   UNL     1      25.511   5.518   7.372  1.00  0.00     0.041 C 
ATOM      7  O   UNL     1      25.897   4.630   6.566  1.00  0.00    -0.550 OA
ATOM      8  O   UNL     1      24.158   5.803   7.486  1.00  0.00    -0.550 OA
ENDBRANCH   5   6
ENDBRANCH   4   5
ENDBRANCH   3   4
ENDBRANCH   2   3
ENDBRANCH   1   2
BRANCH   1   9
ATOM      9  C   UNL     1      28.733   3.357   8.491  1.00  0.00     0.000 C 
BRANCH   9  10
ATOM     10  C   UNL     1      28.303   2.228   7.537  1.00  0.00    -0.000 C 
BRANCH  10  11
ATOM     11  C   UNL     1      26.990   1.510   7.911  1.00  0.00    -0.000 C 
BRANCH  11  12
ATOM     12  C   UNL     1      27.084  -0.024   7.993  1.00  0.00    -0.000 C 
BRANCH  12  13
ATOM     13  C   UNL     1      28.291  -0.504   8.813  1.00  0.00    -0.003 C 
ATOM     14  C   UNL     1      28.320  -2.026   8.909  1.00  0.00     0.004 C 
ENDBRANCH  12  13
ENDBRANCH  11  12
ENDBRANCH  10  11
ENDBRANCH   9  10
ENDBRANCH   1   9
TORSDOF 10
ENDMDL
MODEL 8
REMARK VINA RESULT:    -3.601      1.710      3.000
REMARK INTER + INTRA:          -7.110
REMARK INTER:                  -5.882
REMARK INTRA:                  -1.228
REMARK UNBOUND:                -1.404
REMARK SMILES CCCCCCCCCCCC(=O)[O-]
REMARK SMILES IDX 7 1 8 2 9 3 10 4 11 5 12 6 13 7 14 8 6 9 5 10 4 11 3 12 2 13
REMARK SMILES IDX 1 14
REMARK H PARENT
REMARK Flexibility Score: inf
ROOT
ATOM      1  C   UNL     1      25.145   1.616  17.148  1.00  0.00     0.000 C 
ENDROOT
BRANCH   1   2
ATOM      2  C   UNL     1      25.384   0.658  18.330  1.00  0.00     0.000 C 
BRANCH   2   3
ATOM      3  C   UNL     1      24.857  -0.775  18.130  1.00  0.00     0.000 C 
BRANCH   3   4
ATOM      4  C   UNL     1      24.579  -1.113  16.658  1.00  0.00     0.006 C 
BRANCH   4   5
ATOM      5  C   UNL     1      23.289  -1.925  16.516  1.00  0.00     0.053 C 
BRANCH   5   6
ATOM      6  C   UNL     1      23.588  -3.302  16.014  1.00  0.00     0.041 C 
ATOM      7  O   UNL     1      24.223  -4.116  16.737  1.00  0.00    -0.550 OA
ATOM      8  O   UNL     1      23.210  -3.672  14.731  1.00  0.00    -0.550 OA
ENDBRANCH   5   6
ENDBRANCH   4   5
ENDBRANCH   3   4
ENDBRANCH   2   3
ENDBRANCH   1   2
BRANCH   1   9
ATOM      9  C   UNL     1      25.381   3.091  17.515  1.00  0.00     0.000 C 
BRANCH   9  10
ATOM     10  C   UNL     1      24.079   3.909  17.573  1.00  0.00    -0.000 C 
BRANCH  10  11
ATOM     11  C   UNL     1      23.398   3.970  18.957  1.00  0.00    -0.000 C 
BRANCH  11  12
ATOM     12  C   UNL     1      22.001   3.327  19.026  1.00  0.00    -0.000 C 
BRANCH  12  13
ATOM     13  C   UNL     1      22.048   1.837  19.393  1.00  0.00    -0.003 C 
ATOM     14  C   UNL     1      21.557   0.970  18.238  1.00  0.00     0.004 C 
ENDBRANCH  12  13
ENDBRANCH  11  12
ENDBRANCH  10  11
ENDBRANCH   9  10
ENDBRANCH   1   9
TORSDOF 10
ENDMDL
MODEL 9
REMARK VINA RESULT:    -3.570     10.413     12.220
REMARK INTER + INTRA:          -7.061
REMARK INTER:                  -5.703
REMARK INTRA:                  -1.357
REMARK UNBOUND:                -1.404
REMARK SMILES CCCCCCCCCCCC(=O)[O-]
REMARK SMILES IDX 7 1 8 2 9 3 10 4 11 5 12 6 13 7 14 8 6 9 5 10 4 11 3 12 2 13
REMARK SMILES IDX 1 14
REMARK H PARENT
REMARK Flexibility Score: inf
ROOT
ATOM      1  C   UNL     1      28.821   0.281   9.241  1.00  0.00     0.000 C 
ENDROOT
BRANCH   1   2
ATOM      2  C   UNL     1      28.749   1.812   9.391  1.00  0.00     0.000 C 
BRANCH   2   3
ATOM      3  C   UNL     1      28.136   2.559   8.192  1.00  0.00     0.000 C 
BRANCH   3   4
ATOM      4  C   UNL     1      26.685   2.999   8.436  1.00  0.00     0.006 C 
BRANCH   4   5
ATOM      5  C   UNL     1      26.418   4.375   7.819  1.00  0.00     0.053 C 
BRANCH   5   6
ATOM      6  C   UNL     1      26.824   5.461   8.765  1.00  0.00     0.041 C 
ATOM      7  O   UNL     1      27.179   6.586   8.323  1.00  0.00    -0.550 OA
ATOM      8  O   UNL     1      26.859   5.217  10.131  1.00  0.00    -0.550 OA
ENDBRANCH   5   6
ENDBRANCH   4   5
ENDBRANCH   3   4
ENDBRANCH   2   3
ENDBRANCH   1   2
BRANCH   1   9
ATOM      9  C   UNL     1      29.114  -0.168   7.800  1.00  0.00     0.000 C 
BRANCH   9  10
ATOM     10  C   UNL     1      28.351  -1.445   7.404  1.00  0.00    -0.000 C 
BRANCH  10  11
ATOM     11  C   UNL     1      27.271  -1.259   6.316  1.00  0.00    -0.000 C 
BRANCH  11  12
ATOM     12  C   UNL     1      26.142  -0.279   6.678  1.00  0.00    -0.000 C 
BRANCH  12  13
ATOM     13  C   UNL     1      25.901   0.780   5.592  1.00  0.00    -0.003 C 
ATOM     14  C   UNL     1      27.189   1.098   4.839  1.00  0.00     0.004 C 
ENDBRANCH  12  13
ENDBRANCH  11  12
ENDBRANCH  10  11
ENDBRANCH   9  10
ENDBRANCH   1   9
TORSDOF 10
ENDMDL
