MODEL 1
REMARK VINA RESULT:    -5.426      0.000      0.000
REMARK INTER + INTRA:         -10.620
REMARK INTER:                  -9.867
REMARK INTRA:                  -0.753
REMARK UNBOUND:                -0.753
REMARK SMILES CCCCCCCCCCCCCC[C@@H](C)C(=O)[O-]
REMARK SMILES IDX 9 1 10 2 11 3 12 4 13 5 14 6 15 7 16 8 17 9 18 10 19 11 8 12
REMARK SMILES IDX 7 13 6 14 5 15 4 16 3 17 2 18 1 19
REMARK H PARENT
REMARK Flexibility Score: inf
ROOT
ATOM      1  C   UNL     1      12.379  23.967  47.031  1.00  0.00     0.000 C 
ENDROOT
BRANCH   1   2
ATOM      2  C   UNL     1      12.520  24.253  45.529  1.00  0.00     0.000 C 
BRANCH   2   3
ATOM      3  C   UNL     1      11.992  23.105  44.655  1.00  0.00     0.000 C 
BRANCH   3   4
ATOM      4  C   UNL     1      12.749  22.977  43.322  1.00  0.00     0.000 C 
BRANCH   4   5
ATOM      5  C   UNL     1      11.842  22.457  42.184  1.00  0.00     0.001 C 
BRANCH   5   6
ATOM      6  C   UNL     1      10.355  22.822  42.364  1.00  0.00     0.009 C 
BRANCH   6   7
ATOM      7  C   UNL     1       9.535  22.849  41.055  1.00  0.00     0.032 C 
ATOM      8  C   UNL     1       9.779  24.129  40.243  1.00  0.00     0.014 C 
BRANCH   7   9
ATOM      9  C   UNL     1       9.886  21.651  40.216  1.00  0.00     0.044 C 
ATOM     10  O   UNL     1       9.522  20.499  40.573  1.00  0.00    -0.550 OA
ATOM     11  O   UNL     1      10.613  21.805  39.042  1.00  0.00    -0.550 OA
ENDBRANCH   7   9
ENDBRANCH   6   7
ENDBRANCH   5   6
ENDBRANCH   4   5
ENDBRANCH   3   4
ENDBRANCH   2   3
ENDBRANCH   1   2
BRANCH   1  12
ATOM     12  C   UNL     1      13.510  23.057  47.526  1.00  0.00     0.000 C 
BRANCH  12  13
ATOM     13  C   UNL     1      14.849  23.443  46.886  1.00  0.00    -0.000 C 
BRANCH  13  14
ATOM     14  C   UNL     1      16.027  23.008  47.771  1.00  0.00    -0.000 C 
BRANCH  14  15
ATOM     15  C   UNL     1      17.324  22.808  46.973  1.00  0.00    -0.000 C 
BRANCH  15  16
ATOM     16  C   UNL     1      18.432  22.129  47.799  1.00  0.00    -0.000 C 
BRANCH  16  17
ATOM     17  C   UNL     1      19.796  22.832  47.630  1.00  0.00    -0.000 C 
BRANCH  17  18
ATOM     18  C   UNL     1      20.368  23.389  48.945  1.00  0.00    -0.003 C 
ATOM     19  C   UNL     1      19.792  24.755  49.315  1.00  0.00     0.004 C 
ENDBRANCH  17  18
ENDBRANCH  16  17
ENDBRANCH  15  16
ENDBRANCH  14  15
ENDBRANCH  13  14
ENDBRANCH  12  13
ENDBRANCH   1  12
TORSDOF 14
ENDMDL
MODEL 2
REMARK VINA RESULT:    -5.266     10.083     13.832
REMARK INTER + INTRA:         -10.330
REMARK INTER:                  -9.397
REMARK INTRA:                  -0.933
REMARK UNBOUND:                -0.753
REMARK SMILES CCCCCCCCCCCCCC[C@@H](C)C(=O)[O-]
REMARK SMILES IDX 9 1 10 2 11 3 12 4 13 5 14 6 15 7 16 8 17 9 18 10 19 11 8 12
REMARK SMILES IDX 7 13 6 14 5 15 4 16 3 17 2 18 1 19
REMARK H PARENT
REMARK Flexibility Score: inf
ROOT
ATOM      1  C   UNL     1      17.167  21.875  33.735  1.00  0.00     0.000 C 
ENDROOT
BRANCH   1   2
ATOM      2  C   UNL     1      18.555  22.436  33.395  1.00  0.00     0.000 C 
BRANCH   2   3
ATOM      3  C   UNL     1      19.475  21.391  32.746  1.00  0.00     0.000 C 
BRANCH   3   4
ATOM      4  C   UNL     1      20.513  20.821  33.728  1.00  0.00     0.000 C 
BRANCH   4   5
ATOM      5  C   UNL     1      20.934  21.855  34.796  1.00  0.00     0.001 C 
BRANCH   5   6
ATOM      6  C   UNL     1      22.450  21.871  35.076  1.00  0.00     0.009 C 
BRANCH   6   7
ATOM      7  C   UNL     1      22.829  21.988  36.570  1.00  0.00     0.032 C 
ATOM      8  C   UNL     1      22.011  21.035  37.452  1.00  0.00     0.014 C 
BRANCH   7   9
ATOM      9  C   UNL     1      24.295  21.694  36.742  1.00  0.00     0.044 C 
ATOM     10  O   UNL     1      25.135  22.177  35.937  1.00  0.00    -0.550 OA
ATOM     11  O   UNL     1      24.731  20.890  37.788  1.00  0.00    -0.550 OA
ENDBRANCH   7   9
ENDBRANCH   6   7
ENDBRANCH   5   6
ENDBRANCH   4   5
ENDBRANCH   3   4
ENDBRANCH   2   3
ENDBRANCH   1   2
BRANCH   1  12
ATOM     12  C   UNL     1      16.991  21.724  35.251  1.00  0.00     0.000 C 
BRANCH  12  13
ATOM     13  C   UNL     1      15.573  21.257  35.599  1.00  0.00    -0.000 C 
BRANCH  13  14
ATOM     14  C   UNL     1      14.674  21.258  34.353  1.00  0.00    -0.000 C 
BRANCH  14  15
ATOM     15  C   UNL     1      13.240  20.798  34.658  1.00  0.00    -0.000 C 
BRANCH  15  16
ATOM     16  C   UNL     1      12.208  21.931  34.510  1.00  0.00    -0.000 C 
BRANCH  16  17
ATOM     17  C   UNL     1      11.326  22.082  35.767  1.00  0.00    -0.000 C 
BRANCH  17  18
ATOM     18  C   UNL     1      12.108  21.961  37.086  1.00  0.00    -0.003 C 
ATOM     19  C   UNL     1      11.239  22.194  38.320  1.00  0.00     0.004 C 
ENDBRANCH  17  18
ENDBRANCH  16  17
ENDBRANCH  15  16
ENDBRANCH  14  15
ENDBRANCH  13  14
ENDBRANCH  12  13
ENDBRANCH   1  12
TORSDOF 14
ENDMDL
MODEL 3
REMARK VINA RESULT:    -5.260      7.750     11.590
REMARK INTER + INTRA:         -10.317
REMARK INTER:                  -9.462
REMARK INTRA:                  -0.855
REMARK UNBOUND:                -0.753
REMARK SMILES CCCCCCCCCCCCCC[C@@H](C)C(=O)[O-]
REMARK SMILES IDX 9 1 10 2 11 3 12 4 13 5 14 6 15 7 16 8 17 9 18 10 19 11 8 12
REMARK SMILES IDX 7 13 6 14 5 15 4 16 3 17 2 18 1 19
REMARK H PARENT
REMARK Flexibility Score: inf
ROOT
ATOM      1  C   UNL     1      12.596  21.964  34.278  1.00  0.00     0.000 C 
ENDROOT
BRANCH   1   2
ATOM      2  C   UNL     1      13.575  20.846  34.663  1.00  0.00     0.000 C 
BRANCH   2   3
ATOM      3  C   UNL     1      15.013  21.132  34.204  1.00  0.00     0.000 C 
BRANCH   3   4
ATOM      4  C   UNL     1      15.753  22.105  35.138  1.00  0.00     0.000 C 
BRANCH   4   5
ATOM      5  C   UNL     1      17.050  22.652  34.502  1.00  0.00     0.001 C 
BRANCH   5   6
ATOM      6  C   UNL     1      17.482  21.893  33.232  1.00  0.00     0.009 C 
BRANCH   6   7
ATOM      7  C   UNL     1      18.988  21.996  32.900  1.00  0.00     0.032 C 
ATOM      8  C   UNL     1      19.534  23.414  33.115  1.00  0.00     0.014 C 
BRANCH   7   9
ATOM      9  C   UNL     1      19.760  21.028  33.756  1.00  0.00     0.044 C 
ATOM     10  O   UNL     1      21.016  21.092  33.808  1.00  0.00    -0.550 OA
ATOM     11  O   UNL     1      19.092  20.057  34.493  1.00  0.00    -0.550 OA
ENDBRANCH   7   9
ENDBRANCH   6   7
ENDBRANCH   5   6
ENDBRANCH   4   5
ENDBRANCH   3   4
ENDBRANCH   2   3
ENDBRANCH   1   2
BRANCH   1  12
ATOM     12  C   UNL     1      11.570  22.204  35.393  1.00  0.00     0.000 C 
BRANCH  12  13
ATOM     13  C   UNL     1      12.157  21.858  36.766  1.00  0.00    -0.000 C 
BRANCH  13  14
ATOM     14  C   UNL     1      11.130  22.107  37.881  1.00  0.00    -0.000 C 
BRANCH  14  15
ATOM     15  C   UNL     1      11.629  21.647  39.260  1.00  0.00    -0.000 C 
BRANCH  15  16
ATOM     16  C   UNL     1      10.487  21.186  40.182  1.00  0.00    -0.000 C 
BRANCH  16  17
ATOM     17  C   UNL     1      10.270  22.151  41.367  1.00  0.00    -0.000 C 
BRANCH  17  18
ATOM     18  C   UNL     1       8.956  22.945  41.282  1.00  0.00    -0.003 C 
ATOM     19  C   UNL     1       9.044  24.147  40.342  1.00  0.00     0.004 C 
ENDBRANCH  17  18
ENDBRANCH  16  17
ENDBRANCH  15  16
ENDBRANCH  14  15
ENDBRANCH  13  14
ENDBRANCH  12  13
ENDBRANCH   1  12
TORSDOF 14
ENDMDL
MODEL 4
REMARK VINA RESULT:    -5.252      4.481      9.422
REMARK INTER + INTRA:         -10.303
REMARK INTER:                  -9.313
REMARK INTRA:                  -0.990
REMARK UNBOUND:                -0.753
REMARK SMILES CCCCCCCCCCCCCC[C@@H](C)C(=O)[O-]
REMARK SMILES IDX 9 1 10 2 11 3 12 4 13 5 14 6 15 7 16 8 17 9 18 10 19 11 8 12
REMARK SMILES IDX 7 13 6 14 5 15 4 16 3 17 2 18 1 19
REMARK H PARENT
REMARK Flexibility Score: inf
ROOT
ATOM      1  C   UNL     1      12.517  24.212  46.932  1.00  0.00     0.000 C 
ENDROOT
BRANCH   1   2
ATOM      2  C   UNL     1      13.289  23.009  47.491  1.00  0.00     0.000 C 
BRANCH   2   3
ATOM      3  C   UNL     1      14.774  23.320  47.738  1.00  0.00     0.000 C 
BRANCH   3   4
ATOM      4  C   UNL     1      15.704  22.599  46.746  1.00  0.00     0.000 C 
BRANCH   4   5
ATOM      5  C   UNL     1      16.745  23.556  46.124  1.00  0.00     0.001 C 
BRANCH   5   6
ATOM      6  C   UNL     1      18.195  23.253  46.551  1.00  0.00     0.009 C 
BRANCH   6   7
ATOM      7  C   UNL     1      18.439  23.285  48.076  1.00  0.00     0.032 C 
ATOM      8  C   UNL     1      19.126  22.009  48.581  1.00  0.00     0.014 C 
BRANCH   7   9
ATOM      9  C   UNL     1      19.284  24.480  48.426  1.00  0.00     0.044 C 
ATOM     10  O   UNL     1      19.991  24.471  49.468  1.00  0.00    -0.550 OA
ATOM     11  O   UNL     1      19.290  25.600  47.603  1.00  0.00    -0.550 OA
ENDBRANCH   7   9
ENDBRANCH   6   7
ENDBRANCH   5   6
ENDBRANCH   4   5
ENDBRANCH   3   4
ENDBRANCH   2   3
ENDBRANCH   1   2
BRANCH   1  12
ATOM     12  C   UNL     1      12.463  24.167  45.400  1.00  0.00     0.000 C 
BRANCH  12  13
ATOM     13  C   UNL     1      12.328  22.725  44.895  1.00  0.00    -0.000 C 
BRANCH  13  14
ATOM     14  C   UNL     1      11.417  22.659  43.660  1.00  0.00    -0.000 C 
BRANCH  14  15
ATOM     15  C   UNL     1      12.207  22.627  42.342  1.00  0.00    -0.000 C 
BRANCH  15  16
ATOM     16  C   UNL     1      11.834  21.426  41.454  1.00  0.00    -0.000 C 
BRANCH  16  17
ATOM     17  C   UNL     1      10.806  21.805  40.366  1.00  0.00    -0.000 C 
BRANCH  17  18
ATOM     18  C   UNL     1       9.372  21.958  40.901  1.00  0.00    -0.003 C 
ATOM     19  C   UNL     1       8.889  23.407  40.912  1.00  0.00     0.004 C 
ENDBRANCH  17  18
ENDBRANCH  16  17
ENDBRANCH  15  16
ENDBRANCH  14  15
ENDBRANCH  13  14
ENDBRANCH  12  13
ENDBRANCH   1  12
TORSDOF 14
ENDMDL
MODEL 5
REMARK VINA RESULT:    -5.243      4.152      9.653
REMARK INTER + INTRA:         -10.287
REMARK INTER:                  -9.687
REMARK INTRA:                  -0.599
REMARK UNBOUND:                -0.753
REMARK SMILES CCCCCCCCCCCCCC[C@@H](C)C(=O)[O-]
REMARK SMILES IDX 9 1 10 2 11 3 12 4 13 5 14 6 15 7 16 8 17 9 18 10 19 11 8 12
REMARK SMILES IDX 7 13 6 14 5 15 4 16 3 17 2 18 1 19
REMARK H PARENT
REMARK Flexibility Score: inf
ROOT
ATOM      1  C   UNL     1      12.616  21.834  46.113  1.00  0.00     0.000 C 
ENDROOT
BRANCH   1   2
ATOM      2  C   UNL     1      13.033  22.904  47.132  1.00  0.00     0.000 C 
BRANCH   2   3
ATOM      3  C   UNL     1      14.407  23.516  46.821  1.00  0.00     0.000 C 
BRANCH   3   4
ATOM      4  C   UNL     1      15.506  23.030  47.782  1.00  0.00     0.000 C 
BRANCH   4   5
ATOM      5  C   UNL     1      16.900  23.020  47.116  1.00  0.00     0.001 C 
BRANCH   5   6
ATOM      6  C   UNL     1      17.905  23.987  47.773  1.00  0.00     0.009 C 
BRANCH   6   7
ATOM      7  C   UNL     1      19.362  23.474  47.816  1.00  0.00     0.032 C 
ATOM      8  C   UNL     1      20.125  23.995  49.041  1.00  0.00     0.014 C 
BRANCH   7   9
ATOM      9  C   UNL     1      19.365  21.969  47.829  1.00  0.00     0.044 C 
ATOM     10  O   UNL     1      19.561  21.328  46.763  1.00  0.00    -0.550 OA
ATOM     11  O   UNL     1      19.151  21.277  49.015  1.00  0.00    -0.550 OA
ENDBRANCH   7   9
ENDBRANCH   6   7
ENDBRANCH   5   6
ENDBRANCH   4   5
ENDBRANCH   3   4
ENDBRANCH   2   3
ENDBRANCH   1   2
BRANCH   1  12
ATOM     12  C   UNL     1      12.884  22.306  44.679  1.00  0.00     0.000 C 
BRANCH  12  13
ATOM     13  C   UNL     1      11.644  22.978  44.078  1.00  0.00    -0.000 C 
BRANCH  13  14
ATOM     14  C   UNL     1      11.360  22.445  42.665  1.00  0.00    -0.000 C 
BRANCH  14  15
ATOM     15  C   UNL     1      10.141  23.114  42.014  1.00  0.00    -0.000 C 
BRANCH  15  16
ATOM     16  C   UNL     1       9.337  22.148  41.125  1.00  0.00    -0.000 C 
BRANCH  16  17
ATOM     17  C   UNL     1      10.253  21.244  40.272  1.00  0.00    -0.000 C 
BRANCH  17  18
ATOM     18  C   UNL     1      10.753  21.916  38.983  1.00  0.00    -0.003 C 
ATOM     19  C   UNL     1      12.265  21.802  38.796  1.00  0.00     0.004 C 
ENDBRANCH  17  18
ENDBRANCH  16  17
ENDBRANCH  15  16
ENDBRANCH  14  15
ENDBRANCH  13  14
ENDBRANCH  12  13
ENDBRANCH   1  12
TORSDOF 14
ENDMDL
MODEL 6
REMARK VINA RESULT:    -5.226     10.679     14.388
REMARK INTER + INTRA:         -10.256
REMARK INTER:                  -9.362
REMARK INTRA:                  -0.894
REMARK UNBOUND:                -0.753
REMARK SMILES CCCCCCCCCCCCCC[C@@H](C)C(=O)[O-]
REMARK SMILES IDX 9 1 10 2 11 3 12 4 13 5 14 6 15 7 16 8 17 9 18 10 19 11 8 12
REMARK SMILES IDX 7 13 6 14 5 15 4 16 3 17 2 18 1 19
REMARK H PARENT
REMARK Flexibility Score: inf
ROOT
ATOM      1  C   UNL     1      19.289  21.650  32.511  1.00  0.00     0.000 C 
ENDROOT
BRANCH   1   2
ATOM      2  C   UNL     1      19.928  20.720  33.552  1.00  0.00     0.000 C 
BRANCH   2   3
ATOM      3  C   UNL     1      21.270  21.251  34.078  1.00  0.00     0.000 C 
BRANCH   3   4
ATOM      4  C   UNL     1      21.218  21.622  35.570  1.00  0.00     0.000 C 
BRANCH   4   5
ATOM      5  C   UNL     1      22.437  22.467  36.003  1.00  0.00     0.001 C 
BRANCH   5   6
ATOM      6  C   UNL     1      23.785  21.905  35.510  1.00  0.00     0.009 C 
BRANCH   6   7
ATOM      7  C   UNL     1      24.935  21.992  36.538  1.00  0.00     0.032 C 
ATOM      8  C   UNL     1      25.284  23.443  36.897  1.00  0.00     0.014 C 
BRANCH   7   9
ATOM      9  C   UNL     1      24.552  21.247  37.787  1.00  0.00     0.044 C 
ATOM     10  O   UNL     1      23.958  20.139  37.706  1.00  0.00    -0.550 OA
ATOM     11  O   UNL     1      24.850  21.775  39.038  1.00  0.00    -0.550 OA
ENDBRANCH   7   9
ENDBRANCH   6   7
ENDBRANCH   5   6
ENDBRANCH   4   5
ENDBRANCH   3   4
ENDBRANCH   2   3
ENDBRANCH   1   2
BRANCH   1  12
ATOM     12  C   UNL     1      17.928  22.165  32.995  1.00  0.00     0.000 C 
BRANCH  12  13
ATOM     13  C   UNL     1      17.509  21.474  34.298  1.00  0.00    -0.000 C 
BRANCH  13  14
ATOM     14  C   UNL     1      16.100  21.913  34.724  1.00  0.00    -0.000 C 
BRANCH  14  15
ATOM     15  C   UNL     1      15.657  21.276  36.051  1.00  0.00    -0.000 C 
BRANCH  15  16
ATOM     16  C   UNL     1      14.298  20.562  35.943  1.00  0.00    -0.000 C 
BRANCH  16  17
ATOM     17  C   UNL     1      13.679  20.700  34.536  1.00  0.00    -0.000 C 
BRANCH  17  18
ATOM     18  C   UNL     1      12.402  21.557  34.508  1.00  0.00    -0.003 C 
ATOM     19  C   UNL     1      11.995  22.069  35.888  1.00  0.00     0.004 C 
ENDBRANCH  17  18
ENDBRANCH  16  17
ENDBRANCH  15  16
ENDBRANCH  14  15
ENDBRANCH  13  14
ENDBRANCH  12  13
ENDBRANCH   1  12
TORSDOF 14
ENDMDL
MODEL 7
REMARK VINA RESULT:    -5.153      3.836      5.426
REMARK INTER + INTRA:         -10.123
REMARK INTER:                  -7.987
REMARK INTRA:                  -2.137
REMARK UNBOUND:                -0.753
REMARK SMILES CCCCCCCCCCCCCC[C@@H](C)C(=O)[O-]
REMARK SMILES IDX 9 1 10 2 11 3 12 4 13 5 14 6 15 7 16 8 17 9 18 10 19 11 8 12
REMARK SMILES IDX 7 13 6 14 5 15 4 16 3 17 2 18 1 19
REMARK H PARENT
REMARK Flexibility Score: inf
ROOT
ATOM      1  C   UNL     1      17.790  23.010  47.979  1.00  0.00     0.000 C 
ENDROOT
BRANCH   1   2
ATOM      2  C   UNL     1      16.379  23.310  47.453  1.00  0.00     0.000 C 
BRANCH   2   3
ATOM      3  C   UNL     1      16.288  23.232  45.921  1.00  0.00     0.000 C 
BRANCH   3   4
ATOM      4  C   UNL     1      16.192  21.785  45.405  1.00  0.00     0.000 C 
BRANCH   4   5
ATOM      5  C   UNL     1      14.738  21.380  45.073  1.00  0.00     0.001 C 
BRANCH   5   6
ATOM      6  C   UNL     1      13.814  22.579  44.784  1.00  0.00     0.009 C 
BRANCH   6   7
ATOM      7  C   UNL     1      12.636  22.739  45.772  1.00  0.00     0.032 C 
ATOM      8  C   UNL     1      12.672  21.691  46.892  1.00  0.00     0.014 C 
BRANCH   7   9
ATOM      9  C   UNL     1      12.670  24.117  46.376  1.00  0.00     0.044 C 
ATOM     10  O   UNL     1      12.076  24.346  47.462  1.00  0.00    -0.550 OA
ATOM     11  O   UNL     1      13.357  25.145  45.741  1.00  0.00    -0.550 OA
ENDBRANCH   7   9
ENDBRANCH   6   7
ENDBRANCH   5   6
ENDBRANCH   4   5
ENDBRANCH   3   4
ENDBRANCH   2   3
ENDBRANCH   1   2
BRANCH   1  12
ATOM     12  C   UNL     1      18.534  24.306  48.325  1.00  0.00     0.000 C 
BRANCH  12  13
ATOM     13  C   UNL     1      19.967  24.012  48.786  1.00  0.00    -0.000 C 
BRANCH  13  14
ATOM     14  C   UNL     1      20.576  22.854  47.982  1.00  0.00    -0.000 C 
BRANCH  14  15
ATOM     15  C   UNL     1      21.629  23.327  46.968  1.00  0.00    -0.000 C 
BRANCH  15  16
ATOM     16  C   UNL     1      21.359  22.807  45.545  1.00  0.00    -0.000 C 
BRANCH  16  17
ATOM     17  C   UNL     1      19.997  23.286  45.000  1.00  0.00    -0.000 C 
BRANCH  17  18
ATOM     18  C   UNL     1      20.046  24.685  44.365  1.00  0.00    -0.003 C 
ATOM     19  C   UNL     1      19.087  25.675  45.024  1.00  0.00     0.004 C 
ENDBRANCH  17  18
ENDBRANCH  16  17
ENDBRANCH  15  16
ENDBRANCH  14  15
ENDBRANCH  13  14
ENDBRANCH  12  13
ENDBRANCH   1  12
TORSDOF 14
ENDMDL
MODEL 8
REMARK VINA RESULT:    -5.122      9.545     11.071
REMARK INTER + INTRA:         -10.066
REMARK INTER:                  -9.383
REMARK INTRA:                  -0.683
REMARK UNBOUND:                -0.753
REMARK SMILES CCCCCCCCCCCCCC[C@@H](C)C(=O)[O-]
REMARK SMILES IDX 9 1 10 2 11 3 12 4 13 5 14 6 15 7 16 8 17 9 18 10 19 11 8 12
REMARK SMILES IDX 7 13 6 14 5 15 4 16 3 17 2 18 1 19
REMARK H PARENT
REMARK Flexibility Score: inf
ROOT
ATOM      1  C   UNL     1      19.526  22.016  32.506  1.00  0.00     0.000 C 
ENDROOT
BRANCH   1   2
ATOM      2  C   UNL     1      17.995  21.969  32.594  1.00  0.00     0.000 C 
BRANCH   2   3
ATOM      3  C   UNL     1      17.476  22.178  34.025  1.00  0.00     0.000 C 
BRANCH   3   4
ATOM      4  C   UNL     1      15.954  21.982  34.140  1.00  0.00     0.000 C 
BRANCH   4   5
ATOM      5  C   UNL     1      15.563  21.195  35.411  1.00  0.00     0.001 C 
BRANCH   5   6
ATOM      6  C   UNL     1      14.077  20.783  35.449  1.00  0.00     0.009 C 
BRANCH   6   7
ATOM      7  C   UNL     1      13.085  21.959  35.590  1.00  0.00     0.032 C 
ATOM      8  C   UNL     1      12.045  21.980  34.461  1.00  0.00     0.014 C 
BRANCH   7   9
ATOM      9  C   UNL     1      12.381  21.868  36.916  1.00  0.00     0.044 C 
ATOM     10  O   UNL     1      11.171  22.206  37.015  1.00  0.00    -0.550 OA
ATOM     11  O   UNL     1      13.058  21.410  38.040  1.00  0.00    -0.550 OA
ENDBRANCH   7   9
ENDBRANCH   6   7
ENDBRANCH   5   6
ENDBRANCH   4   5
ENDBRANCH   3   4
ENDBRANCH   2   3
ENDBRANCH   1   2
BRANCH   1  12
ATOM     12  C   UNL     1      20.143  22.404  33.855  1.00  0.00     0.000 C 
BRANCH  12  13
ATOM     13  C   UNL     1      21.055  21.291  34.386  1.00  0.00    -0.000 C 
BRANCH  13  14
ATOM     14  C   UNL     1      22.212  21.875  35.210  1.00  0.00    -0.000 C 
BRANCH  14  15
ATOM     15  C   UNL     1      21.731  22.592  36.481  1.00  0.00    -0.000 C 
BRANCH  15  16
ATOM     16  C   UNL     1      22.796  22.610  37.592  1.00  0.00    -0.000 C 
BRANCH  16  17
ATOM     17  C   UNL     1      24.125  23.232  37.114  1.00  0.00    -0.000 C 
BRANCH  17  18
ATOM     18  C   UNL     1      25.203  22.191  36.770  1.00  0.00    -0.003 C 
ATOM     19  C   UNL     1      25.041  20.884  37.543  1.00  0.00     0.004 C 
ENDBRANCH  17  18
ENDBRANCH  16  17
ENDBRANCH  15  16
ENDBRANCH  14  15
ENDBRANCH  13  14
ENDBRANCH  12  13
ENDBRANCH   1  12
TORSDOF 14
ENDMDL
MODEL 9
REMARK VINA RESULT:    -5.099      4.606      9.169
REMARK INTER + INTRA:         -10.025
REMARK INTER:                  -8.434
REMARK INTRA:                  -1.592
REMARK UNBOUND:                -0.753
REMARK SMILES CCCCCCCCCCCCCC[C@@H](C)C(=O)[O-]
REMARK SMILES IDX 9 1 10 2 11 3 12 4 13 5 14 6 15 7 16 8 17 9 18 10 19 11 8 12
REMARK SMILES IDX 7 13 6 14 5 15 4 16 3 17 2 18 1 19
REMARK H PARENT
REMARK Flexibility Score: inf
ROOT
ATOM      1  C   UNL     1      10.471  21.362  40.056  1.00  0.00     0.000 C 
ENDROOT
BRANCH   1   2
ATOM      2  C   UNL     1       9.536  22.358  40.756  1.00  0.00     0.000 C 
BRANCH   2   3
ATOM      3  C   UNL     1      10.274  23.270  41.746  1.00  0.00     0.000 C 
BRANCH   3   4
ATOM      4  C   UNL     1      11.116  22.483  42.765  1.00  0.00     0.000 C 
BRANCH   4   5
ATOM      5  C   UNL     1      12.617  22.842  42.683  1.00  0.00     0.001 C 
BRANCH   5   6
ATOM      6  C   UNL     1      13.326  22.852  44.052  1.00  0.00     0.009 C 
BRANCH   6   7
ATOM      7  C   UNL     1      12.377  22.935  45.269  1.00  0.00     0.032 C 
ATOM      8  C   UNL     1      12.545  21.739  46.217  1.00  0.00     0.014 C 
BRANCH   7   9
ATOM      9  C   UNL     1      12.636  24.210  46.024  1.00  0.00     0.044 C 
ATOM     10  O   UNL     1      12.215  24.344  47.203  1.00  0.00    -0.550 OA
ATOM     11  O   UNL     1      13.339  25.249  45.425  1.00  0.00    -0.550 OA
ENDBRANCH   7   9
ENDBRANCH   6   7
ENDBRANCH   5   6
ENDBRANCH   4   5
ENDBRANCH   3   4
ENDBRANCH   2   3
ENDBRANCH   1   2
BRANCH   1  12
ATOM     12  C   UNL     1      10.770  21.806  38.618  1.00  0.00     0.000 C 
BRANCH  12  13
ATOM     13  C   UNL     1      12.002  22.717  38.567  1.00  0.00    -0.000 C 
BRANCH  13  14
ATOM     14  C   UNL     1      13.255  21.974  39.054  1.00  0.00    -0.000 C 
BRANCH  14  15
ATOM     15  C   UNL     1      13.747  20.920  38.049  1.00  0.00    -0.000 C 
BRANCH  15  16
ATOM     16  C   UNL     1      13.937  21.493  36.633  1.00  0.00    -0.000 C 
BRANCH  16  17
ATOM     17  C   UNL     1      13.145  20.700  35.573  1.00  0.00    -0.000 C 
BRANCH  17  18
ATOM     18  C   UNL     1      12.408  21.592  34.560  1.00  0.00    -0.003 C 
ATOM     19  C   UNL     1      12.835  23.057  34.632  1.00  0.00     0.004 C 
ENDBRANCH  17  18
ENDBRANCH  16  17
ENDBRANCH  15  16
ENDBRANCH  14  15
ENDBRANCH  13  14
ENDBRANCH  12  13
ENDBRANCH   1  12
TORSDOF 14
ENDMDL
