MODEL 1
REMARK VINA RESULT:    -3.386      0.000      0.000
REMARK INTER + INTRA:         -11.044
REMARK INTER:                  -8.929
REMARK INTRA:                  -2.115
REMARK UNBOUND:                -2.115
REMARK SMILES CCCCCCCCCCCCCCCCCCCCCCCCCCCCCC(=O)[O-]
REMARK SMILES IDX 16 1 17 2 18 3 19 4 20 5 21 6 22 7 23 8 24 9 25 10 26 11
REMARK SMILES IDX 27 12 28 13 29 14 30 15 31 16 32 17 15 18 14 19 13 20 12 21
REMARK SMILES IDX 11 22 10 23 9 24 8 25 7 26 6 27 5 28 4 29 3 30 2 31 1 32
REMARK H PARENT
REMARK Flexibility Score: inf
ROOT
ATOM      1  C   UNL     1      16.782  24.280  27.681  1.00  0.00     0.000 C 
ENDROOT
BRANCH   1   2
ATOM      2  C   UNL     1      16.074  23.995  26.352  1.00  0.00     0.000 C 
BRANCH   2   3
ATOM      3  C   UNL     1      16.440  22.599  25.827  1.00  0.00     0.000 C 
BRANCH   3   4
ATOM      4  C   UNL     1      15.934  22.344  24.396  1.00  0.00     0.000 C 
BRANCH   4   5
ATOM      5  C   UNL     1      14.560  21.664  24.311  1.00  0.00     0.000 C 
BRANCH   5   6
ATOM      6  C   UNL     1      14.240  20.789  25.536  1.00  0.00     0.000 C 
BRANCH   6   7
ATOM      7  C   UNL     1      13.916  21.648  26.770  1.00  0.00     0.000 C 
BRANCH   7   8
ATOM      8  C   UNL     1      13.997  20.834  28.077  1.00  0.00     0.000 C 
BRANCH   8   9
ATOM      9  C   UNL     1      13.388  19.427  27.940  1.00  0.00     0.000 C 
BRANCH   9  10
ATOM     10  C   UNL     1      12.559  18.996  29.166  1.00  0.00     0.000 C 
BRANCH  10  11
ATOM     11  C   UNL     1      11.254  19.795  29.300  1.00  0.00     0.000 C 
BRANCH  11  12
ATOM     12  C   UNL     1      10.620  19.590  30.687  1.00  0.00     0.000 C 
BRANCH  12  13
ATOM     13  C   UNL     1      10.095  20.901  31.295  1.00  0.00     0.006 C 
BRANCH  13  14
ATOM     14  C   UNL     1       8.576  20.884  31.537  1.00  0.00     0.053 C 
BRANCH  14  15
ATOM     15  C   UNL     1       7.821  21.722  30.545  1.00  0.00     0.041 C 
ATOM     16  O   UNL     1       8.328  22.767  30.054  1.00  0.00    -0.550 OA
ATOM     17  O   UNL     1       6.566  21.304  30.115  1.00  0.00    -0.550 OA
ENDBRANCH  14  15
ENDBRANCH  13  14
ENDBRANCH  12  13
ENDBRANCH  11  12
ENDBRANCH  10  11
ENDBRANCH   9  10
ENDBRANCH   8   9
ENDBRANCH   7   8
ENDBRANCH   6   7
ENDBRANCH   5   6
ENDBRANCH   4   5
ENDBRANCH   3   4
ENDBRANCH   2   3
ENDBRANCH   1   2
BRANCH   1  18
ATOM     18  C   UNL     1      17.593  23.068  28.150  1.00  0.00     0.000 C 
BRANCH  18  19
ATOM     19  C   UNL     1      18.056  23.249  29.605  1.00  0.00     0.000 C 
BRANCH  19  20
ATOM     20  C   UNL     1      17.294  22.353  30.598  1.00  0.00     0.000 C 
BRANCH  20  21
ATOM     21  C   UNL     1      18.125  21.822  31.786  1.00  0.00     0.000 C 
BRANCH  21  22
ATOM     22  C   UNL     1      17.957  20.316  32.093  1.00  0.00     0.000 C 
BRANCH  22  23
ATOM     23  C   UNL     1      17.697  19.442  30.851  1.00  0.00     0.000 C 
BRANCH  23  24
ATOM     24  C   UNL     1      16.214  19.220  30.506  1.00  0.00    -0.000 C 
BRANCH  24  25
ATOM     25  C   UNL     1      15.267  19.111  31.717  1.00  0.00    -0.000 C 
BRANCH  25  26
ATOM     26  C   UNL     1      14.488  20.394  32.067  1.00  0.00    -0.000 C 
BRANCH  26  27
ATOM     27  C   UNL     1      14.423  21.417  30.915  1.00  0.00    -0.000 C 
BRANCH  27  28
ATOM     28  C   UNL     1      13.169  22.303  30.970  1.00  0.00    -0.000 C 
BRANCH  28  29
ATOM     29  C   UNL     1      13.422  23.724  30.438  1.00  0.00    -0.000 C 
BRANCH  29  30
ATOM     30  C   UNL     1      12.763  24.830  31.291  1.00  0.00    -0.000 C 
BRANCH  30  31
ATOM     31  C   UNL     1      11.243  24.899  31.078  1.00  0.00    -0.003 C 
ATOM     32  C   UNL     1      10.506  24.031  32.092  1.00  0.00     0.004 C 
ENDBRANCH  30  31
ENDBRANCH  29  30
ENDBRANCH  28  29
ENDBRANCH  27  28
ENDBRANCH  26  27
ENDBRANCH  25  26
ENDBRANCH  24  25
ENDBRANCH  23  24
ENDBRANCH  22  23
ENDBRANCH  21  22
ENDBRANCH  20  21
ENDBRANCH  19  20
ENDBRANCH  18  19
ENDBRANCH   1  18
TORSDOF 28
ENDMDL
MODEL 2
REMARK VINA RESULT:    -3.291      2.620      7.121
REMARK INTER + INTRA:         -10.793
REMARK INTER:                  -8.387
REMARK INTRA:                  -2.407
REMARK UNBOUND:                -2.115
REMARK SMILES CCCCCCCCCCCCCCCCCCCCCCCCCCCCCC(=O)[O-]
REMARK SMILES IDX 16 1 17 2 18 3 19 4 20 5 21 6 22 7 23 8 24 9 25 10 26 11
REMARK SMILES IDX 27 12 28 13 29 14 30 15 31 16 32 17 15 18 14 19 13 20 12 21
REMARK SMILES IDX 11 22 10 23 9 24 8 25 7 26 6 27 5 28 4 29 3 30 2 31 1 32
REMARK H PARENT
REMARK Flexibility Score: inf
ROOT
ATOM      1  C   UNL     1      13.028  22.164  30.856  1.00  0.00     0.000 C 
ENDROOT
BRANCH   1   2
ATOM      2  C   UNL     1      12.975  21.293  32.116  1.00  0.00     0.000 C 
BRANCH   2   3
ATOM      3  C   UNL     1      13.631  19.929  31.865  1.00  0.00     0.000 C 
BRANCH   3   4
ATOM      4  C   UNL     1      15.169  19.985  31.907  1.00  0.00     0.000 C 
BRANCH   4   5
ATOM      5  C   UNL     1      15.873  19.073  30.892  1.00  0.00     0.000 C 
BRANCH   5   6
ATOM      6  C   UNL     1      17.370  18.877  31.189  1.00  0.00     0.000 C 
BRANCH   6   7
ATOM      7  C   UNL     1      18.076  20.223  31.424  1.00  0.00     0.000 C 
BRANCH   7   8
ATOM      8  C   UNL     1      17.784  21.232  30.297  1.00  0.00     0.000 C 
BRANCH   8   9
ATOM      9  C   UNL     1      17.530  22.656  30.824  1.00  0.00     0.000 C 
BRANCH   9  10
ATOM     10  C   UNL     1      16.815  23.568  29.807  1.00  0.00     0.000 C 
BRANCH  10  11
ATOM     11  C   UNL     1      17.642  23.780  28.529  1.00  0.00     0.000 C 
BRANCH  11  12
ATOM     12  C   UNL     1      16.956  23.132  27.314  1.00  0.00     0.000 C 
BRANCH  12  13
ATOM     13  C   UNL     1      16.126  24.139  26.500  1.00  0.00     0.006 C 
BRANCH  13  14
ATOM     14  C   UNL     1      16.122  23.831  24.992  1.00  0.00     0.053 C 
BRANCH  14  15
ATOM     15  C   UNL     1      16.022  22.361  24.701  1.00  0.00     0.041 C 
ATOM     16  O   UNL     1      16.868  21.546  25.161  1.00  0.00    -0.550 OA
ATOM     17  O   UNL     1      14.946  21.884  23.961  1.00  0.00    -0.550 OA
ENDBRANCH  14  15
ENDBRANCH  13  14
ENDBRANCH  12  13
ENDBRANCH  11  12
ENDBRANCH  10  11
ENDBRANCH   9  10
ENDBRANCH   8   9
ENDBRANCH   7   8
ENDBRANCH   6   7
ENDBRANCH   5   6
ENDBRANCH   4   5
ENDBRANCH   3   4
ENDBRANCH   2   3
ENDBRANCH   1   2
BRANCH   1  18
ATOM     18  C   UNL     1      14.033  23.309  31.013  1.00  0.00     0.000 C 
BRANCH  18  19
ATOM     19  C   UNL     1      13.318  24.670  30.985  1.00  0.00     0.000 C 
BRANCH  19  20
ATOM     20  C   UNL     1      12.284  24.788  29.851  1.00  0.00     0.000 C 
BRANCH  20  21
ATOM     21  C   UNL     1      10.821  24.505  30.255  1.00  0.00     0.000 C 
BRANCH  21  22
ATOM     22  C   UNL     1      10.579  24.291  31.767  1.00  0.00     0.000 C 
BRANCH  22  23
ATOM     23  C   UNL     1       9.564  23.178  32.094  1.00  0.00     0.000 C 
BRANCH  23  24
ATOM     24  C   UNL     1       8.761  22.650  30.892  1.00  0.00    -0.000 C 
BRANCH  24  25
ATOM     25  C   UNL     1       8.827  21.125  30.677  1.00  0.00    -0.000 C 
BRANCH  25  26
ATOM     26  C   UNL     1      10.071  20.426  31.261  1.00  0.00    -0.000 C 
BRANCH  26  27
ATOM     27  C   UNL     1      10.424  19.098  30.562  1.00  0.00    -0.000 C 
BRANCH  27  28
ATOM     28  C   UNL     1      10.755  19.274  29.072  1.00  0.00    -0.000 C 
BRANCH  28  29
ATOM     29  C   UNL     1      12.193  19.767  28.837  1.00  0.00    -0.000 C 
BRANCH  29  30
ATOM     30  C   UNL     1      12.271  21.098  28.056  1.00  0.00    -0.000 C 
BRANCH  30  31
ATOM     31  C   UNL     1      13.603  21.254  27.306  1.00  0.00    -0.003 C 
ATOM     32  C   UNL     1      14.785  20.914  28.209  1.00  0.00     0.004 C 
ENDBRANCH  30  31
ENDBRANCH  29  30
ENDBRANCH  28  29
ENDBRANCH  27  28
ENDBRANCH  26  27
ENDBRANCH  25  26
ENDBRANCH  24  25
ENDBRANCH  23  24
ENDBRANCH  22  23
ENDBRANCH  21  22
ENDBRANCH  20  21
ENDBRANCH  19  20
ENDBRANCH  18  19
ENDBRANCH   1  18
TORSDOF 28
ENDMDL
MODEL 3
REMARK VINA RESULT:    -3.155      2.682      6.896
REMARK INTER + INTRA:         -10.436
REMARK INTER:                  -6.661
REMARK INTRA:                  -3.775
REMARK UNBOUND:                -2.115
REMARK SMILES CCCCCCCCCCCCCCCCCCCCCCCCCCCCCC(=O)[O-]
REMARK SMILES IDX 16 1 17 2 18 3 19 4 20 5 21 6 22 7 23 8 24 9 25 10 26 11
REMARK SMILES IDX 27 12 28 13 29 14 30 15 31 16 32 17 15 18 14 19 13 20 12 21
REMARK SMILES IDX 11 22 10 23 9 24 8 25 7 26 6 27 5 28 4 29 3 30 2 31 1 32
REMARK H PARENT
REMARK Flexibility Score: inf
ROOT
ATOM      1  C   UNL     1      11.802  22.008  28.047  1.00  0.00     0.000 C 
ENDROOT
BRANCH   1   2
ATOM      2  C   UNL     1      13.286  21.691  27.830  1.00  0.00     0.000 C 
BRANCH   2   3
ATOM      3  C   UNL     1      13.484  20.203  27.509  1.00  0.00     0.000 C 
BRANCH   3   4
ATOM      4  C   UNL     1      13.990  19.390  28.714  1.00  0.00     0.000 C 
BRANCH   4   5
ATOM      5  C   UNL     1      14.689  20.219  29.801  1.00  0.00     0.000 C 
BRANCH   5   6
ATOM      6  C   UNL     1      14.482  19.659  31.219  1.00  0.00     0.000 C 
BRANCH   6   7
ATOM      7  C   UNL     1      15.686  19.968  32.125  1.00  0.00     0.000 C 
BRANCH   7   8
ATOM      8  C   UNL     1      16.972  19.275  31.632  1.00  0.00     0.000 C 
BRANCH   8   9
ATOM      9  C   UNL     1      18.090  20.275  31.285  1.00  0.00     0.000 C 
BRANCH   9  10
ATOM     10  C   UNL     1      17.717  21.739  31.587  1.00  0.00     0.000 C 
BRANCH  10  11
ATOM     11  C   UNL     1      17.902  22.655  30.367  1.00  0.00     0.000 C 
BRANCH  11  12
ATOM     12  C   UNL     1      17.822  21.853  29.058  1.00  0.00     0.000 C 
BRANCH  12  13
ATOM     13  C   UNL     1      17.305  22.697  27.880  1.00  0.00     0.006 C 
BRANCH  13  14
ATOM     14  C   UNL     1      16.765  21.841  26.722  1.00  0.00     0.053 C 
BRANCH  14  15
ATOM     15  C   UNL     1      16.047  22.657  25.684  1.00  0.00     0.041 C 
ATOM     16  O   UNL     1      15.527  22.113  24.672  1.00  0.00    -0.550 OA
ATOM     17  O   UNL     1      15.901  24.027  25.875  1.00  0.00    -0.550 OA
ENDBRANCH  14  15
ENDBRANCH  13  14
ENDBRANCH  12  13
ENDBRANCH  11  12
ENDBRANCH  10  11
ENDBRANCH   9  10
ENDBRANCH   8   9
ENDBRANCH   7   8
ENDBRANCH   6   7
ENDBRANCH   5   6
ENDBRANCH   4   5
ENDBRANCH   3   4
ENDBRANCH   2   3
ENDBRANCH   1   2
BRANCH   1  18
ATOM     18  C   UNL     1      11.106  20.899  28.841  1.00  0.00     0.000 C 
BRANCH  18  19
ATOM     19  C   UNL     1      11.506  20.956  30.325  1.00  0.00     0.000 C 
BRANCH  19  20
ATOM     20  C   UNL     1      11.011  19.742  31.131  1.00  0.00     0.000 C 
BRANCH  20  21
ATOM     21  C   UNL     1       9.486  19.677  31.367  1.00  0.00     0.000 C 
BRANCH  21  22
ATOM     22  C   UNL     1       8.613  20.207  30.206  1.00  0.00     0.000 C 
BRANCH  22  23
ATOM     23  C   UNL     1       7.512  21.194  30.642  1.00  0.00     0.000 C 
BRANCH  23  24
ATOM     24  C   UNL     1       7.723  21.841  32.022  1.00  0.00    -0.000 C 
BRANCH  24  25
ATOM     25  C   UNL     1       8.894  22.840  32.107  1.00  0.00    -0.000 C 
BRANCH  25  26
ATOM     26  C   UNL     1       9.256  23.551  30.789  1.00  0.00    -0.000 C 
BRANCH  26  27
ATOM     27  C   UNL     1      10.234  24.730  30.965  1.00  0.00    -0.000 C 
BRANCH  27  28
ATOM     28  C   UNL     1      11.354  24.434  31.974  1.00  0.00    -0.000 C 
BRANCH  28  29
ATOM     29  C   UNL     1      12.752  24.772  31.427  1.00  0.00    -0.000 C 
BRANCH  29  30
ATOM     30  C   UNL     1      13.592  23.527  31.065  1.00  0.00    -0.000 C 
BRANCH  30  31
ATOM     31  C   UNL     1      14.453  23.752  29.812  1.00  0.00    -0.003 C 
ATOM     32  C   UNL     1      13.933  24.929  28.992  1.00  0.00     0.004 C 
ENDBRANCH  30  31
ENDBRANCH  29  30
ENDBRANCH  28  29
ENDBRANCH  27  28
ENDBRANCH  26  27
ENDBRANCH  25  26
ENDBRANCH  24  25
ENDBRANCH  23  24
ENDBRANCH  22  23
ENDBRANCH  21  22
ENDBRANCH  20  21
ENDBRANCH  19  20
ENDBRANCH  18  19
ENDBRANCH   1  18
TORSDOF 28
ENDMDL
MODEL 4
REMARK VINA RESULT:    -3.038     20.900     23.651
REMARK INTER + INTRA:         -10.125
REMARK INTER:                  -6.180
REMARK INTRA:                  -3.946
REMARK UNBOUND:                -2.115
REMARK SMILES CCCCCCCCCCCCCCCCCCCCCCCCCCCCCC(=O)[O-]
REMARK SMILES IDX 16 1 17 2 18 3 19 4 20 5 21 6 22 7 23 8 24 9 25 10 26 11
REMARK SMILES IDX 27 12 28 13 29 14 30 15 31 16 32 17 15 18 14 19 13 20 12 21
REMARK SMILES IDX 11 22 10 23 9 24 8 25 7 26 6 27 5 28 4 29 3 30 2 31 1 32
REMARK H PARENT
REMARK Flexibility Score: inf
ROOT
ATOM      1  C   UNL     1       5.481  31.679  18.965  1.00  0.00     0.000 C 
ENDROOT
BRANCH   1   2
ATOM      2  C   UNL     1       4.011  31.530  18.560  1.00  0.00     0.000 C 
BRANCH   2   3
ATOM      3  C   UNL     1       3.281  32.877  18.650  1.00  0.00     0.000 C 
BRANCH   3   4
ATOM      4  C   UNL     1       1.769  32.760  18.385  1.00  0.00     0.000 C 
BRANCH   4   5
ATOM      5  C   UNL     1       1.251  33.624  17.226  1.00  0.00     0.000 C 
BRANCH   5   6
ATOM      6  C   UNL     1       0.066  34.523  17.621  1.00  0.00     0.000 C 
BRANCH   6   7
ATOM      7  C   UNL     1      -1.276  33.890  17.220  1.00  0.00     0.000 C 
BRANCH   7   8
ATOM      8  C   UNL     1      -1.980  34.687  16.104  1.00  0.00     0.000 C 
BRANCH   8   9
ATOM      9  C   UNL     1      -1.123  34.810  14.830  1.00  0.00     0.000 C 
BRANCH   9  10
ATOM     10  C   UNL     1      -1.869  35.466  13.652  1.00  0.00     0.000 C 
BRANCH  10  11
ATOM     11  C   UNL     1      -0.925  36.240  12.718  1.00  0.00     0.000 C 
BRANCH  11  12
ATOM     12  C   UNL     1      -1.453  37.660  12.452  1.00  0.00     0.000 C 
BRANCH  12  13
ATOM     13  C   UNL     1      -2.048  38.313  13.711  1.00  0.00     0.006 C 
BRANCH  13  14
ATOM     14  C   UNL     1      -1.015  39.125  14.511  1.00  0.00     0.053 C 
BRANCH  14  15
ATOM     15  C   UNL     1      -0.907  38.677  15.941  1.00  0.00     0.041 C 
ATOM     16  O   UNL     1      -1.749  37.881  16.440  1.00  0.00    -0.550 OA
ATOM     17  O   UNL     1       0.172  39.101  16.709  1.00  0.00    -0.550 OA
ENDBRANCH  14  15
ENDBRANCH  13  14
ENDBRANCH  12  13
ENDBRANCH  11  12
ENDBRANCH  10  11
ENDBRANCH   9  10
ENDBRANCH   8   9
ENDBRANCH   7   8
ENDBRANCH   6   7
ENDBRANCH   5   6
ENDBRANCH   4   5
ENDBRANCH   3   4
ENDBRANCH   2   3
ENDBRANCH   1   2
BRANCH   1  18
ATOM     18  C   UNL     1       5.780  33.097  19.461  1.00  0.00     0.000 C 
BRANCH  18  19
ATOM     19  C   UNL     1       6.484  33.921  18.371  1.00  0.00     0.000 C 
BRANCH  19  20
ATOM     20  C   UNL     1       5.745  35.227  18.028  1.00  0.00     0.000 C 
BRANCH  20  21
ATOM     21  C   UNL     1       5.575  35.518  16.521  1.00  0.00     0.000 C 
BRANCH  21  22
ATOM     22  C   UNL     1       4.114  35.614  16.025  1.00  0.00     0.000 C 
BRANCH  22  23
ATOM     23  C   UNL     1       3.934  35.311  14.524  1.00  0.00     0.000 C 
BRANCH  23  24
ATOM     24  C   UNL     1       2.571  35.712  13.935  1.00  0.00    -0.000 C 
BRANCH  24  25
ATOM     25  C   UNL     1       1.953  36.996  14.524  1.00  0.00    -0.000 C 
BRANCH  25  26
ATOM     26  C   UNL     1       2.383  38.311  13.845  1.00  0.00    -0.000 C 
BRANCH  26  27
ATOM     27  C   UNL     1       3.516  39.051  14.584  1.00  0.00    -0.000 C 
BRANCH  27  28
ATOM     28  C   UNL     1       4.819  39.114  13.773  1.00  0.00    -0.000 C 
BRANCH  28  29
ATOM     29  C   UNL     1       6.073  39.125  14.663  1.00  0.00    -0.000 C 
BRANCH  29  30
ATOM     30  C   UNL     1       7.046  37.959  14.376  1.00  0.00    -0.000 C 
BRANCH  30  31
ATOM     31  C   UNL     1       7.883  38.199  13.110  1.00  0.00    -0.003 C 
ATOM     32  C   UNL     1       8.583  36.920  12.663  1.00  0.00     0.004 C 
ENDBRANCH  30  31
ENDBRANCH  29  30
ENDBRANCH  28  29
ENDBRANCH  27  28
ENDBRANCH  26  27
ENDBRANCH  25  26
ENDBRANCH  24  25
ENDBRANCH  23  24
ENDBRANCH  22  23
ENDBRANCH  21  22
ENDBRANCH  20  21
ENDBRANCH  19  20
ENDBRANCH  18  19
ENDBRANCH   1  18
TORSDOF 28
ENDMDL
MODEL 5
REMARK VINA RESULT:    -2.669      2.653      6.571
REMARK INTER + INTRA:          -9.153
REMARK INTER:                  -5.773
REMARK INTRA:                  -3.380
REMARK UNBOUND:                -2.115
REMARK SMILES CCCCCCCCCCCCCCCCCCCCCCCCCCCCCC(=O)[O-]
REMARK SMILES IDX 16 1 17 2 18 3 19 4 20 5 21 6 22 7 23 8 24 9 25 10 26 11
REMARK SMILES IDX 27 12 28 13 29 14 30 15 31 16 32 17 15 18 14 19 13 20 12 21
REMARK SMILES IDX 11 22 10 23 9 24 8 25 7 26 6 27 5 28 4 29 3 30 2 31 1 32
REMARK H PARENT
REMARK Flexibility Score: inf
ROOT
ATOM      1  C   UNL     1      10.821  20.418  29.199  1.00  0.00     0.000 C 
ENDROOT
BRANCH   1   2
ATOM      2  C   UNL     1      10.210  21.782  28.862  1.00  0.00     0.000 C 
BRANCH   2   3
ATOM      3  C   UNL     1       9.066  22.121  29.827  1.00  0.00     0.000 C 
BRANCH   3   4
ATOM      4  C   UNL     1       9.249  23.483  30.521  1.00  0.00     0.000 C 
BRANCH   4   5
ATOM      5  C   UNL     1      10.018  23.429  31.849  1.00  0.00     0.000 C 
BRANCH   5   6
ATOM      6  C   UNL     1      11.305  22.589  31.771  1.00  0.00     0.000 C 
BRANCH   6   7
ATOM      7  C   UNL     1      12.559  23.477  31.838  1.00  0.00     0.000 C 
BRANCH   7   8
ATOM      8  C   UNL     1      12.671  24.409  30.615  1.00  0.00     0.000 C 
BRANCH   8   9
ATOM      9  C   UNL     1      13.363  23.735  29.416  1.00  0.00     0.000 C 
BRANCH   9  10
ATOM     10  C   UNL     1      14.043  22.399  29.773  1.00  0.00     0.000 C 
BRANCH  10  11
ATOM     11  C   UNL     1      14.688  21.725  28.552  1.00  0.00     0.000 C 
BRANCH  11  12
ATOM     12  C   UNL     1      13.644  20.944  27.737  1.00  0.00     0.000 C 
BRANCH  12  13
ATOM     13  C   UNL     1      13.734  21.235  26.230  1.00  0.00     0.006 C 
BRANCH  13  14
ATOM     14  C   UNL     1      15.135  21.695  25.792  1.00  0.00     0.053 C 
BRANCH  14  15
ATOM     15  C   UNL     1      15.235  21.919  24.309  1.00  0.00     0.041 C 
ATOM     16  O   UNL     1      14.201  22.001  23.591  1.00  0.00    -0.550 OA
ATOM     17  O   UNL     1      16.486  22.101  23.730  1.00  0.00    -0.550 OA
ENDBRANCH  14  15
ENDBRANCH  13  14
ENDBRANCH  12  13
ENDBRANCH  11  12
ENDBRANCH  10  11
ENDBRANCH   9  10
ENDBRANCH   8   9
ENDBRANCH   7   8
ENDBRANCH   6   7
ENDBRANCH   5   6
ENDBRANCH   4   5
ENDBRANCH   3   4
ENDBRANCH   2   3
ENDBRANCH   1   2
BRANCH   1  18
ATOM     18  C   UNL     1      10.027  19.710  30.301  1.00  0.00     0.000 C 
BRANCH  18  19
ATOM     19  C   UNL     1      10.966  18.936  31.241  1.00  0.00     0.000 C 
BRANCH  19  20
ATOM     20  C   UNL     1      12.455  19.135  30.905  1.00  0.00     0.000 C 
BRANCH  20  21
ATOM     21  C   UNL     1      13.321  19.715  32.045  1.00  0.00     0.000 C 
BRANCH  21  22
ATOM     22  C   UNL     1      14.849  19.633  31.825  1.00  0.00     0.000 C 
BRANCH  22  23
ATOM     23  C   UNL     1      15.262  19.132  30.427  1.00  0.00     0.000 C 
BRANCH  23  24
ATOM     24  C   UNL     1      16.767  18.875  30.243  1.00  0.00    -0.000 C 
BRANCH  24  25
ATOM     25  C   UNL     1      17.687  19.640  31.215  1.00  0.00    -0.000 C 
BRANCH  25  26
ATOM     26  C   UNL     1      18.078  21.065  30.776  1.00  0.00    -0.000 C 
BRANCH  26  27
ATOM     27  C   UNL     1      17.191  22.169  31.384  1.00  0.00    -0.000 C 
BRANCH  27  28
ATOM     28  C   UNL     1      17.133  23.437  30.518  1.00  0.00    -0.000 C 
BRANCH  28  29
ATOM     29  C   UNL     1      17.688  23.214  29.101  1.00  0.00    -0.000 C 
BRANCH  29  30
ATOM     30  C   UNL     1      16.710  23.630  27.980  1.00  0.00    -0.000 C 
BRANCH  30  31
ATOM     31  C   UNL     1      17.408  24.422  26.865  1.00  0.00    -0.003 C 
ATOM     32  C   UNL     1      16.401  24.918  25.830  1.00  0.00     0.004 C 
ENDBRANCH  30  31
ENDBRANCH  29  30
ENDBRANCH  28  29
ENDBRANCH  27  28
ENDBRANCH  26  27
ENDBRANCH  25  26
ENDBRANCH  24  25
ENDBRANCH  23  24
ENDBRANCH  22  23
ENDBRANCH  21  22
ENDBRANCH  20  21
ENDBRANCH  19  20
ENDBRANCH  18  19
ENDBRANCH   1  18
TORSDOF 28
ENDMDL
MODEL 6
REMARK VINA RESULT:    -2.642     21.141     23.968
REMARK INTER + INTRA:          -9.083
REMARK INTER:                  -6.915
REMARK INTRA:                  -2.168
REMARK UNBOUND:                -2.115
REMARK SMILES CCCCCCCCCCCCCCCCCCCCCCCCCCCCCC(=O)[O-]
REMARK SMILES IDX 16 1 17 2 18 3 19 4 20 5 21 6 22 7 23 8 24 9 25 10 26 11
REMARK SMILES IDX 27 12 28 13 29 14 30 15 31 16 32 17 15 18 14 19 13 20 12 21
REMARK SMILES IDX 11 22 10 23 9 24 8 25 7 26 6 27 5 28 4 29 3 30 2 31 1 32
REMARK H PARENT
REMARK Flexibility Score: inf
ROOT
ATOM      1  C   UNL     1       2.705  32.563  18.991  1.00  0.00     0.000 C 
ENDROOT
BRANCH   1   2
ATOM      2  C   UNL     1       1.656  32.548  17.874  1.00  0.00     0.000 C 
BRANCH   2   3
ATOM      3  C   UNL     1       0.862  33.862  17.854  1.00  0.00     0.000 C 
BRANCH   3   4
ATOM      4  C   UNL     1      -0.229  33.888  16.768  1.00  0.00     0.000 C 
BRANCH   4   5
ATOM      5  C   UNL     1      -0.429  35.251  16.091  1.00  0.00     0.000 C 
BRANCH   5   6
ATOM      6  C   UNL     1       0.632  36.290  16.492  1.00  0.00     0.000 C 
BRANCH   6   7
ATOM      7  C   UNL     1       0.014  37.690  16.649  1.00  0.00     0.000 C 
BRANCH   7   8
ATOM      8  C   UNL     1      -1.526  37.652  16.583  1.00  0.00     0.000 C 
BRANCH   8   9
ATOM      9  C   UNL     1      -2.125  38.917  15.942  1.00  0.00     0.000 C 
BRANCH   9  10
ATOM     10  C   UNL     1      -1.921  38.983  14.415  1.00  0.00     0.000 C 
BRANCH  10  11
ATOM     11  C   UNL     1      -0.440  39.110  14.026  1.00  0.00     0.000 C 
BRANCH  11  12
ATOM     12  C   UNL     1      -0.267  39.104  12.498  1.00  0.00     0.000 C 
BRANCH  12  13
ATOM     13  C   UNL     1      -0.576  37.732  11.875  1.00  0.00     0.006 C 
BRANCH  13  14
ATOM     14  C   UNL     1       0.605  36.752  11.969  1.00  0.00     0.053 C 
BRANCH  14  15
ATOM     15  C   UNL     1       0.208  35.418  12.533  1.00  0.00     0.041 C 
ATOM     16  O   UNL     1      -0.958  34.963  12.375  1.00  0.00    -0.550 OA
ATOM     17  O   UNL     1       1.160  34.644  13.189  1.00  0.00    -0.550 OA
ENDBRANCH  14  15
ENDBRANCH  13  14
ENDBRANCH  12  13
ENDBRANCH  11  12
ENDBRANCH  10  11
ENDBRANCH   9  10
ENDBRANCH   8   9
ENDBRANCH   7   8
ENDBRANCH   6   7
ENDBRANCH   5   6
ENDBRANCH   4   5
ENDBRANCH   3   4
ENDBRANCH   2   3
ENDBRANCH   1   2
BRANCH   1  18
ATOM     18  C   UNL     1       3.656  31.368  18.876  1.00  0.00     0.000 C 
BRANCH  18  19
ATOM     19  C   UNL     1       5.098  31.838  18.627  1.00  0.00     0.000 C 
BRANCH  19  20
ATOM     20  C   UNL     1       5.325  33.315  18.997  1.00  0.00     0.000 C 
BRANCH  20  21
ATOM     21  C   UNL     1       6.403  34.049  18.170  1.00  0.00     0.000 C 
BRANCH  21  22
ATOM     22  C   UNL     1       5.955  35.385  17.533  1.00  0.00     0.000 C 
BRANCH  22  23
ATOM     23  C   UNL     1       4.823  35.243  16.496  1.00  0.00     0.000 C 
BRANCH  23  24
ATOM     24  C   UNL     1       4.102  36.552  16.131  1.00  0.00    -0.000 C 
BRANCH  24  25
ATOM     25  C   UNL     1       3.557  36.622  14.691  1.00  0.00    -0.000 C 
BRANCH  25  26
ATOM     26  C   UNL     1       3.083  38.014  14.228  1.00  0.00    -0.000 C 
BRANCH  26  27
ATOM     27  C   UNL     1       4.219  39.050  14.107  1.00  0.00    -0.000 C 
BRANCH  27  28
ATOM     28  C   UNL     1       5.488  38.638  14.868  1.00  0.00    -0.000 C 
BRANCH  28  29
ATOM     29  C   UNL     1       6.524  37.947  13.964  1.00  0.00    -0.000 C 
BRANCH  29  30
ATOM     30  C   UNL     1       7.749  38.831  13.638  1.00  0.00    -0.000 C 
BRANCH  30  31
ATOM     31  C   UNL     1       8.487  38.358  12.377  1.00  0.00    -0.003 C 
ATOM     32  C   UNL     1       8.835  36.875  12.468  1.00  0.00     0.004 C 
ENDBRANCH  30  31
ENDBRANCH  29  30
ENDBRANCH  28  29
ENDBRANCH  27  28
ENDBRANCH  26  27
ENDBRANCH  25  26
ENDBRANCH  24  25
ENDBRANCH  23  24
ENDBRANCH  22  23
ENDBRANCH  21  22
ENDBRANCH  20  21
ENDBRANCH  19  20
ENDBRANCH  18  19
ENDBRANCH   1  18
TORSDOF 28
ENDMDL
MODEL 7
REMARK VINA RESULT:    -2.440     21.179     24.093
REMARK INTER + INTRA:          -8.549
REMARK INTER:                  -5.738
REMARK INTRA:                  -2.810
REMARK UNBOUND:                -2.115
REMARK SMILES CCCCCCCCCCCCCCCCCCCCCCCCCCCCCC(=O)[O-]
REMARK SMILES IDX 16 1 17 2 18 3 19 4 20 5 21 6 22 7 23 8 24 9 25 10 26 11
REMARK SMILES IDX 27 12 28 13 29 14 30 15 31 16 32 17 15 18 14 19 13 20 12 21
REMARK SMILES IDX 11 22 10 23 9 24 8 25 7 26 6 27 5 28 4 29 3 30 2 31 1 32
REMARK H PARENT
REMARK Flexibility Score: inf
ROOT
ATOM      1  C   UNL     1       5.012  33.080  19.305  1.00  0.00     0.000 C 
ENDROOT
BRANCH   1   2
ATOM      2  C   UNL     1       6.102  33.848  18.550  1.00  0.00     0.000 C 
BRANCH   2   3
ATOM      3  C   UNL     1       5.637  35.273  18.222  1.00  0.00     0.000 C 
BRANCH   3   4
ATOM      4  C   UNL     1       6.104  35.753  16.836  1.00  0.00     0.000 C 
BRANCH   4   5
ATOM      5  C   UNL     1       5.032  35.688  15.738  1.00  0.00     0.000 C 
BRANCH   5   6
ATOM      6  C   UNL     1       3.668  35.192  16.250  1.00  0.00     0.000 C 
BRANCH   6   7
ATOM      7  C   UNL     1       2.555  35.456  15.223  1.00  0.00     0.000 C 
BRANCH   7   8
ATOM      8  C   UNL     1       3.116  35.963  13.880  1.00  0.00     0.000 C 
BRANCH   8   9
ATOM      9  C   UNL     1       2.394  37.224  13.372  1.00  0.00     0.000 C 
BRANCH   9  10
ATOM     10  C   UNL     1       2.735  38.492  14.180  1.00  0.00     0.000 C 
BRANCH  10  11
ATOM     11  C   UNL     1       4.066  39.124  13.744  1.00  0.00     0.000 C 
BRANCH  11  12
ATOM     12  C   UNL     1       5.257  38.236  14.142  1.00  0.00     0.000 C 
BRANCH  12  13
ATOM     13  C   UNL     1       6.256  38.965  15.056  1.00  0.00     0.006 C 
BRANCH  13  14
ATOM     14  C   UNL     1       7.674  39.028  14.463  1.00  0.00     0.053 C 
BRANCH  14  15
ATOM     15  C   UNL     1       7.777  38.342  13.130  1.00  0.00     0.041 C 
ATOM     16  O   UNL     1       7.438  38.929  12.066  1.00  0.00    -0.550 OA
ATOM     17  O   UNL     1       8.310  37.059  13.063  1.00  0.00    -0.550 OA
ENDBRANCH  14  15
ENDBRANCH  13  14
ENDBRANCH  12  13
ENDBRANCH  11  12
ENDBRANCH  10  11
ENDBRANCH   9  10
ENDBRANCH   8   9
ENDBRANCH   7   8
ENDBRANCH   6   7
ENDBRANCH   5   6
ENDBRANCH   4   5
ENDBRANCH   3   4
ENDBRANCH   2   3
ENDBRANCH   1   2
BRANCH   1  18
ATOM     18  C   UNL     1       4.105  32.310  18.340  1.00  0.00     0.000 C 
BRANCH  18  19
ATOM     19  C   UNL     1       2.698  32.134  18.935  1.00  0.00     0.000 C 
BRANCH  19  20
ATOM     20  C   UNL     1       1.574  32.451  17.932  1.00  0.00     0.000 C 
BRANCH  20  21
ATOM     21  C   UNL     1       1.154  33.935  17.851  1.00  0.00     0.000 C 
BRANCH  21  22
ATOM     22  C   UNL     1      -0.363  34.204  17.984  1.00  0.00     0.000 C 
BRANCH  22  23
ATOM     23  C   UNL     1      -0.931  35.165  16.922  1.00  0.00     0.000 C 
BRANCH  23  24
ATOM     24  C   UNL     1      -1.865  34.518  15.886  1.00  0.00    -0.000 C 
BRANCH  24  25
ATOM     25  C   UNL     1      -2.095  35.343  14.604  1.00  0.00    -0.000 C 
BRANCH  25  26
ATOM     26  C   UNL     1      -0.872  35.484  13.677  1.00  0.00    -0.000 C 
BRANCH  26  27
ATOM     27  C   UNL     1      -0.733  36.880  13.038  1.00  0.00    -0.000 C 
BRANCH  27  28
ATOM     28  C   UNL     1      -2.042  37.684  13.064  1.00  0.00    -0.000 C 
BRANCH  28  29
ATOM     29  C   UNL     1      -2.125  38.646  14.262  1.00  0.00    -0.000 C 
BRANCH  29  30
ATOM     30  C   UNL     1      -0.744  39.086  14.799  1.00  0.00    -0.000 C 
BRANCH  30  31
ATOM     31  C   UNL     1      -0.629  38.907  16.321  1.00  0.00    -0.003 C 
ATOM     32  C   UNL     1      -1.984  38.577  16.940  1.00  0.00     0.004 C 
ENDBRANCH  30  31
ENDBRANCH  29  30
ENDBRANCH  28  29
ENDBRANCH  27  28
ENDBRANCH  26  27
ENDBRANCH  25  26
ENDBRANCH  24  25
ENDBRANCH  23  24
ENDBRANCH  22  23
ENDBRANCH  21  22
ENDBRANCH  20  21
ENDBRANCH  19  20
ENDBRANCH  18  19
ENDBRANCH   1  18
TORSDOF 28
ENDMDL
MODEL 8
REMARK VINA RESULT:    -2.419     21.079     24.014
REMARK INTER + INTRA:          -8.494
REMARK INTER:                  -8.367
REMARK INTRA:                  -0.127
REMARK UNBOUND:                -2.115
REMARK SMILES CCCCCCCCCCCCCCCCCCCCCCCCCCCCCC(=O)[O-]
REMARK SMILES IDX 16 1 17 2 18 3 19 4 20 5 21 6 22 7 23 8 24 9 25 10 26 11
REMARK SMILES IDX 27 12 28 13 29 14 30 15 31 16 32 17 15 18 14 19 13 20 12 21
REMARK SMILES IDX 11 22 10 23 9 24 8 25 7 26 6 27 5 28 4 29 3 30 2 31 1 32
REMARK H PARENT
REMARK Flexibility Score: inf
ROOT
ATOM      1  C   UNL     1       2.171  36.077  15.384  1.00  0.00     0.000 C 
ENDROOT
BRANCH   1   2
ATOM      2  C   UNL     1       2.600  37.543  15.500  1.00  0.00     0.000 C 
BRANCH   2   3
ATOM      3  C   UNL     1       2.285  38.308  14.207  1.00  0.00     0.000 C 
BRANCH   3   4
ATOM      4  C   UNL     1       3.490  39.099  13.668  1.00  0.00     0.000 C 
BRANCH   4   5
ATOM      5  C   UNL     1       4.730  39.077  14.573  1.00  0.00     0.000 C 
BRANCH   5   6
ATOM      6  C   UNL     1       6.052  38.980  13.790  1.00  0.00     0.000 C 
BRANCH   6   7
ATOM      7  C   UNL     1       7.240  38.706  14.727  1.00  0.00     0.000 C 
BRANCH   7   8
ATOM      8  C   UNL     1       7.200  37.278  15.306  1.00  0.00     0.000 C 
BRANCH   8   9
ATOM      9  C   UNL     1       6.278  37.159  16.533  1.00  0.00     0.000 C 
BRANCH   9  10
ATOM     10  C   UNL     1       5.012  36.320  16.268  1.00  0.00     0.000 C 
BRANCH  10  11
ATOM     11  C   UNL     1       5.144  34.881  16.790  1.00  0.00     0.000 C 
BRANCH  11  12
ATOM     12  C   UNL     1       6.211  34.789  17.893  1.00  0.00     0.000 C 
BRANCH  12  13
ATOM     13  C   UNL     1       5.935  33.647  18.887  1.00  0.00     0.006 C 
BRANCH  13  14
ATOM     14  C   UNL     1       5.161  32.478  18.255  1.00  0.00     0.053 C 
BRANCH  14  15
ATOM     15  C   UNL     1       4.011  32.017  19.105  1.00  0.00     0.041 C 
ATOM     16  O   UNL     1       3.798  30.790  19.304  1.00  0.00    -0.550 OA
ATOM     17  O   UNL     1       3.206  32.961  19.733  1.00  0.00    -0.550 OA
ENDBRANCH  14  15
ENDBRANCH  13  14
ENDBRANCH  12  13
ENDBRANCH  11  12
ENDBRANCH  10  11
ENDBRANCH   9  10
ENDBRANCH   8   9
ENDBRANCH   7   8
ENDBRANCH   6   7
ENDBRANCH   5   6
ENDBRANCH   4   5
ENDBRANCH   3   4
ENDBRANCH   2   3
ENDBRANCH   1   2
BRANCH   1  18
ATOM     18  C   UNL     1       2.539  35.496  14.015  1.00  0.00     0.000 C 
BRANCH  18  19
ATOM     19  C   UNL     1       1.289  34.975  13.288  1.00  0.00     0.000 C 
BRANCH  19  20
ATOM     20  C   UNL     1       0.378  36.101  12.768  1.00  0.00     0.000 C 
BRANCH  20  21
ATOM     21  C   UNL     1      -0.909  35.637  12.052  1.00  0.00     0.000 C 
BRANCH  21  22
ATOM     22  C   UNL     1      -2.051  36.678  11.998  1.00  0.00     0.000 C 
BRANCH  22  23
ATOM     23  C   UNL     1      -2.068  37.661  13.185  1.00  0.00     0.000 C 
BRANCH  23  24
ATOM     24  C   UNL     1      -0.685  38.135  13.662  1.00  0.00    -0.000 C 
BRANCH  24  25
ATOM     25  C   UNL     1      -0.695  39.034  14.914  1.00  0.00    -0.000 C 
BRANCH  25  26
ATOM     26  C   UNL     1      -2.042  39.120  15.658  1.00  0.00    -0.000 C 
BRANCH  26  27
ATOM     27  C   UNL     1      -2.125  38.214  16.903  1.00  0.00    -0.000 C 
BRANCH  27  28
ATOM     28  C   UNL     1      -1.221  36.975  16.804  1.00  0.00    -0.000 C 
BRANCH  28  29
ATOM     29  C   UNL     1      -2.002  35.698  16.450  1.00  0.00    -0.000 C 
BRANCH  29  30
ATOM     30  C   UNL     1      -1.124  34.427  16.416  1.00  0.00    -0.000 C 
BRANCH  30  31
ATOM     31  C   UNL     1      -0.065  34.422  17.528  1.00  0.00    -0.003 C 
ATOM     32  C   UNL     1       1.164  33.618  17.114  1.00  0.00     0.004 C 
ENDBRANCH  30  31
ENDBRANCH  29  30
ENDBRANCH  28  29
ENDBRANCH  27  28
ENDBRANCH  26  27
ENDBRANCH  25  26
ENDBRANCH  24  25
ENDBRANCH  23  24
ENDBRANCH  22  23
ENDBRANCH  21  22
ENDBRANCH  20  21
ENDBRANCH  19  20
ENDBRANCH  18  19
ENDBRANCH   1  18
TORSDOF 28
ENDMDL
