MODEL 1
REMARK VINA RESULT:    -4.978      0.000      0.000
REMARK INTER + INTRA:          -5.655
REMARK INTER:                  -5.269
REMARK INTRA:                  -0.386
REMARK UNBOUND:                -0.386
REMARK SMILES CC1=CC[C@@H]2[C@H]3[C@H](C(C)C)CC[C@]2(C)[C@@H]13
REMARK SMILES IDX 1 1 2 2 3 3 4 4 5 5 6 6 15 7 13 8 12 9 11 10 7 11 14 12 8 13
REMARK SMILES IDX 9 14 10 15
REMARK H PARENT
REMARK Flexibility Score: inf
ROOT
ATOM      1  C   UNL     1      12.076   5.957  20.186  1.00  0.00     0.039 C 
ATOM      2  C   UNL     1      12.025   6.093  18.694  1.00  0.00    -0.073 C 
ATOM      3  C   UNL     1      10.877   5.865  18.004  1.00  0.00    -0.027 C 
ATOM      4  C   UNL     1      10.881   6.038  16.482  1.00  0.00     0.031 C 
ATOM      5  C   UNL     1      12.309   6.434  15.983  1.00  0.00     0.003 C 
ATOM      6  C   UNL     1      13.322   5.493  16.676  1.00  0.00     0.004 C 
ATOM      7  C   UNL     1      13.263   6.471  17.878  1.00  0.00     0.024 C 
ATOM      8  C   UNL     1      12.917   7.569  16.843  1.00  0.00    -0.022 C 
ATOM      9  C   UNL     1      14.210   8.096  16.147  1.00  0.00     0.008 C 
ATOM     10  C   UNL     1      15.295   6.995  15.996  1.00  0.00     0.005 C 
ATOM     11  C   UNL     1      14.688   5.559  15.928  1.00  0.00    -0.005 C 
ATOM     12  C   UNL     1      12.005   8.742  17.275  1.00  0.00     0.012 C 
ENDROOT
BRANCH  11  13
ATOM     13  C   UNL     1      15.662   4.429  16.376  1.00  0.00    -0.014 C 
ATOM     14  C   UNL     1      16.974   5.000  16.932  1.00  0.00     0.007 C 
ATOM     15  C   UNL     1      15.051   3.426  17.370  1.00  0.00     0.007 C 
ENDBRANCH  11  13
TORSDOF 1
ENDMDL
MODEL 2
REMARK VINA RESULT:    -4.870      1.374      4.494
REMARK INTER + INTRA:          -5.540
REMARK INTER:                  -5.118
REMARK INTRA:                  -0.422
REMARK UNBOUND:                -0.386
REMARK SMILES CC1=CC[C@@H]2[C@H]3[C@H](C(C)C)CC[C@]2(C)[C@@H]13
REMARK SMILES IDX 1 1 2 2 3 3 4 4 5 5 6 6 15 7 13 8 12 9 11 10 7 11 14 12 8 13
REMARK SMILES IDX 9 14 10 15
REMARK H PARENT
REMARK Flexibility Score: inf
ROOT
ATOM      1  C   UNL     1      16.248   6.813  18.704  1.00  0.00     0.039 C 
ATOM      2  C   UNL     1      15.397   5.997  17.777  1.00  0.00    -0.073 C 
ATOM      3  C   UNL     1      15.951   5.259  16.780  1.00  0.00    -0.027 C 
ATOM      4  C   UNL     1      15.032   4.431  15.875  1.00  0.00     0.031 C 
ATOM      5  C   UNL     1      13.536   4.639  16.281  1.00  0.00     0.003 C 
ATOM      6  C   UNL     1      13.311   6.159  16.460  1.00  0.00     0.004 C 
ATOM      7  C   UNL     1      13.872   5.976  17.894  1.00  0.00     0.024 C 
ATOM      8  C   UNL     1      13.342   4.524  17.812  1.00  0.00    -0.022 C 
ATOM      9  C   UNL     1      11.814   4.478  18.127  1.00  0.00     0.008 C 
ATOM     10  C   UNL     1      11.072   5.759  17.660  1.00  0.00     0.005 C 
ATOM     11  C   UNL     1      11.782   6.460  16.460  1.00  0.00    -0.005 C 
ATOM     12  C   UNL     1      14.096   3.409  18.574  1.00  0.00     0.012 C 
ENDROOT
BRANCH  11  13
ATOM     13  C   UNL     1      11.479   7.983  16.337  1.00  0.00    -0.014 C 
ATOM     14  C   UNL     1      10.884   8.549  17.634  1.00  0.00     0.007 C 
ATOM     15  C   UNL     1      12.682   8.831  15.886  1.00  0.00     0.007 C 
ENDBRANCH  11  13
TORSDOF 1
ENDMDL
MODEL 3
REMARK VINA RESULT:    -4.841      1.114      1.553
REMARK INTER + INTRA:          -5.510
REMARK INTER:                  -5.190
REMARK INTRA:                  -0.320
REMARK UNBOUND:                -0.386
REMARK SMILES CC1=CC[C@@H]2[C@H]3[C@H](C(C)C)CC[C@]2(C)[C@@H]13
REMARK SMILES IDX 1 1 2 2 3 3 4 4 5 5 6 6 15 7 13 8 12 9 11 10 7 11 14 12 8 13
REMARK SMILES IDX 9 14 10 15
REMARK H PARENT
REMARK Flexibility Score: inf
ROOT
ATOM      1  C   UNL     1      12.103   7.511  20.037  1.00  0.00     0.039 C 
ATOM      2  C   UNL     1      12.051   6.860  18.687  1.00  0.00    -0.073 C 
ATOM      3  C   UNL     1      10.875   6.703  18.025  1.00  0.00    -0.027 C 
ATOM      4  C   UNL     1      10.887   6.047  16.641  1.00  0.00     0.031 C 
ATOM      5  C   UNL     1      12.341   5.627  16.249  1.00  0.00     0.003 C 
ATOM      6  C   UNL     1      12.962   4.910  17.471  1.00  0.00     0.004 C 
ATOM      7  C   UNL     1      13.311   6.323  18.003  1.00  0.00     0.024 C 
ATOM      8  C   UNL     1      13.354   6.766  16.521  1.00  0.00    -0.022 C 
ATOM      9  C   UNL     1      14.724   6.390  15.875  1.00  0.00     0.008 C 
ATOM     10  C   UNL     1      15.323   5.085  16.467  1.00  0.00     0.005 C 
ATOM     11  C   UNL     1      14.228   4.120  17.021  1.00  0.00    -0.005 C 
ATOM     12  C   UNL     1      12.953   8.216  16.161  1.00  0.00     0.012 C 
ENDROOT
BRANCH  11  13
ATOM     13  C   UNL     1      14.735   3.139  18.120  1.00  0.00    -0.014 C 
ATOM     14  C   UNL     1      16.255   3.242  18.314  1.00  0.00     0.007 C 
ATOM     15  C   UNL     1      14.013   3.279  19.472  1.00  0.00     0.007 C 
ENDBRANCH  11  13
TORSDOF 1
ENDMDL
MODEL 4
REMARK VINA RESULT:    -4.407      1.841      3.213
REMARK INTER + INTRA:          -5.050
REMARK INTER:                  -4.634
REMARK INTRA:                  -0.416
REMARK UNBOUND:                -0.386
REMARK SMILES CC1=CC[C@@H]2[C@H]3[C@H](C(C)C)CC[C@]2(C)[C@@H]13
REMARK SMILES IDX 1 1 2 2 3 3 4 4 5 5 6 6 15 7 13 8 12 9 11 10 7 11 14 12 8 13
REMARK SMILES IDX 9 14 10 15
REMARK H PARENT
REMARK Flexibility Score: inf
ROOT
ATOM      1  C   UNL     1      14.852   9.137  19.165  1.00  0.00     0.039 C 
ATOM      2  C   UNL     1      13.408   8.753  19.039  1.00  0.00    -0.073 C 
ATOM      3  C   UNL     1      12.476   9.219  19.910  1.00  0.00    -0.027 C 
ATOM      4  C   UNL     1      11.013   8.807  19.719  1.00  0.00     0.031 C 
ATOM      5  C   UNL     1      10.875   7.837  18.500  1.00  0.00     0.003 C 
ATOM      6  C   UNL     1      11.988   6.771  18.626  1.00  0.00     0.004 C 
ATOM      7  C   UNL     1      12.922   7.803  17.942  1.00  0.00     0.024 C 
ATOM      8  C   UNL     1      11.647   8.363  17.266  1.00  0.00    -0.022 C 
ATOM      9  C   UNL     1      11.262   7.503  16.022  1.00  0.00     0.008 C 
ATOM     10  C   UNL     1      11.631   6.005  16.198  1.00  0.00     0.005 C 
ATOM     11  C   UNL     1      11.660   5.565  17.695  1.00  0.00    -0.005 C 
ATOM     12  C   UNL     1      11.578   9.872  16.936  1.00  0.00     0.012 C 
ENDROOT
BRANCH  11  13
ATOM     13  C   UNL     1      12.567   4.331  17.984  1.00  0.00    -0.014 C 
ATOM     14  C   UNL     1      13.750   4.258  17.008  1.00  0.00     0.007 C 
ATOM     15  C   UNL     1      13.065   4.241  19.436  1.00  0.00     0.007 C 
ENDBRANCH  11  13
TORSDOF 1
ENDMDL
MODEL 5
REMARK VINA RESULT:    -4.340      1.888      3.582
REMARK INTER + INTRA:          -4.979
REMARK INTER:                  -4.729
REMARK INTRA:                  -0.250
REMARK UNBOUND:                -0.386
REMARK SMILES CC1=CC[C@@H]2[C@H]3[C@H](C(C)C)CC[C@]2(C)[C@@H]13
REMARK SMILES IDX 1 1 2 2 3 3 4 4 5 5 6 6 15 7 13 8 12 9 11 10 7 11 14 12 8 13
REMARK SMILES IDX 9 14 10 15
REMARK H PARENT
REMARK Flexibility Score: inf
ROOT
ATOM      1  C   UNL     1      14.721   9.015  17.266  1.00  0.00     0.039 C 
ATOM      2  C   UNL     1      13.473   8.517  17.932  1.00  0.00    -0.073 C 
ATOM      3  C   UNL     1      12.740   9.322  18.745  1.00  0.00    -0.027 C 
ATOM      4  C   UNL     1      11.464   8.763  19.383  1.00  0.00     0.031 C 
ATOM      5  C   UNL     1      11.261   7.267  18.976  1.00  0.00     0.003 C 
ATOM      6  C   UNL     1      12.619   6.548  19.159  1.00  0.00     0.004 C 
ATOM      7  C   UNL     1      12.982   7.080  17.748  1.00  0.00     0.024 C 
ATOM      8  C   UNL     1      11.462   7.059  17.455  1.00  0.00    -0.022 C 
ATOM      9  C   UNL     1      10.995   5.620  17.073  1.00  0.00     0.008 C 
ATOM     10  C   UNL     1      11.809   4.518  17.804  1.00  0.00     0.005 C 
ATOM     11  C   UNL     1      12.393   5.006  19.166  1.00  0.00    -0.005 C 
ATOM     12  C   UNL     1      10.875   8.107  16.480  1.00  0.00     0.012 C 
ENDROOT
BRANCH  11  13
ATOM     13  C   UNL     1      13.655   4.225  19.640  1.00  0.00    -0.014 C 
ATOM     14  C   UNL     1      13.355   3.359  20.872  1.00  0.00     0.007 C 
ATOM     15  C   UNL     1      14.323   3.380  18.542  1.00  0.00     0.007 C 
ENDBRANCH  11  13
TORSDOF 1
ENDMDL
MODEL 6
REMARK VINA RESULT:    -4.093      1.372      4.021
REMARK INTER + INTRA:          -4.717
REMARK INTER:                  -4.329
REMARK INTRA:                  -0.389
REMARK UNBOUND:                -0.386
REMARK SMILES CC1=CC[C@@H]2[C@H]3[C@H](C(C)C)CC[C@]2(C)[C@@H]13
REMARK SMILES IDX 1 1 2 2 3 3 4 4 5 5 6 6 15 7 13 8 12 9 11 10 7 11 14 12 8 13
REMARK SMILES IDX 9 14 10 15
REMARK H PARENT
REMARK Flexibility Score: inf
ROOT
ATOM      1  C   UNL     1      14.428   3.863  16.251  1.00  0.00     0.039 C 
ATOM      2  C   UNL     1      14.119   5.277  16.645  1.00  0.00    -0.073 C 
ATOM      3  C   UNL     1      14.733   6.327  16.041  1.00  0.00    -0.027 C 
ATOM      4  C   UNL     1      14.363   7.749  16.474  1.00  0.00     0.031 C 
ATOM      5  C   UNL     1      13.309   7.710  17.628  1.00  0.00     0.003 C 
ATOM      6  C   UNL     1      13.791   6.667  18.663  1.00  0.00     0.004 C 
ATOM      7  C   UNL     1      13.121   5.601  17.759  1.00  0.00     0.024 C 
ATOM      8  C   UNL     1      12.156   6.726  17.312  1.00  0.00    -0.022 C 
ATOM      9  C   UNL     1      11.018   6.923  18.362  1.00  0.00     0.008 C 
ATOM     10  C   UNL     1      11.491   6.635  19.812  1.00  0.00     0.005 C 
ATOM     11  C   UNL     1      13.022   6.871  20.003  1.00  0.00    -0.005 C 
ATOM     12  C   UNL     1      11.583   6.692  15.876  1.00  0.00     0.012 C 
ENDROOT
BRANCH  11  13
ATOM     13  C   UNL     1      13.654   6.065  21.177  1.00  0.00    -0.014 C 
ATOM     14  C   UNL     1      12.651   5.075  21.788  1.00  0.00     0.007 C 
ATOM     15  C   UNL     1      14.963   5.343  20.813  1.00  0.00     0.007 C 
ENDBRANCH  11  13
TORSDOF 1
ENDMDL
MODEL 7
REMARK VINA RESULT:    -3.912      1.609      4.810
REMARK INTER + INTRA:          -4.526
REMARK INTER:                  -4.107
REMARK INTRA:                  -0.419
REMARK UNBOUND:                -0.386
REMARK SMILES CC1=CC[C@@H]2[C@H]3[C@H](C(C)C)CC[C@]2(C)[C@@H]13
REMARK SMILES IDX 1 1 2 2 3 3 4 4 5 5 6 6 15 7 13 8 12 9 11 10 7 11 14 12 8 13
REMARK SMILES IDX 9 14 10 15
REMARK H PARENT
REMARK Flexibility Score: inf
ROOT
ATOM      1  C   UNL     1      16.874   7.560  18.355  1.00  0.00     0.039 C 
ATOM      2  C   UNL     1      16.002   6.498  17.754  1.00  0.00    -0.073 C 
ATOM      3  C   UNL     1      16.062   6.204  16.429  1.00  0.00    -0.027 C 
ATOM      4  C   UNL     1      15.160   5.096  15.875  1.00  0.00     0.031 C 
ATOM      5  C   UNL     1      14.261   4.507  17.011  1.00  0.00     0.003 C 
ATOM      6  C   UNL     1      13.663   5.698  17.796  1.00  0.00     0.004 C 
ATOM      7  C   UNL     1      14.991   5.715  18.595  1.00  0.00     0.024 C 
ATOM      8  C   UNL     1      15.085   4.201  18.286  1.00  0.00    -0.022 C 
ATOM      9  C   UNL     1      14.201   3.383  19.278  1.00  0.00     0.008 C 
ATOM     10  C   UNL     1      12.930   4.157  19.720  1.00  0.00     0.005 C 
ATOM     11  C   UNL     1      12.463   5.202  18.658  1.00  0.00    -0.005 C 
ATOM     12  C   UNL     1      16.482   3.556  18.130  1.00  0.00     0.012 C 
ENDROOT
BRANCH  11  13
ATOM     13  C   UNL     1      11.626   6.379  19.240  1.00  0.00    -0.014 C 
ATOM     14  C   UNL     1      12.011   6.680  20.696  1.00  0.00     0.007 C 
ATOM     15  C   UNL     1      11.675   7.666  18.397  1.00  0.00     0.007 C 
ENDBRANCH  11  13
TORSDOF 1
ENDMDL
MODEL 8
REMARK VINA RESULT:    -3.908      1.594      2.737
REMARK INTER + INTRA:          -4.522
REMARK INTER:                  -4.140
REMARK INTRA:                  -0.381
REMARK UNBOUND:                -0.386
REMARK SMILES CC1=CC[C@@H]2[C@H]3[C@H](C(C)C)CC[C@]2(C)[C@@H]13
REMARK SMILES IDX 1 1 2 2 3 3 4 4 5 5 6 6 15 7 13 8 12 9 11 10 7 11 14 12 8 13
REMARK SMILES IDX 9 14 10 15
REMARK H PARENT
REMARK Flexibility Score: inf
ROOT
ATOM      1  C   UNL     1      14.657   6.764  21.123  1.00  0.00     0.039 C 
ATOM      2  C   UNL     1      14.196   5.689  20.185  1.00  0.00    -0.073 C 
ATOM      3  C   UNL     1      13.618   4.550  20.648  1.00  0.00    -0.027 C 
ATOM      4  C   UNL     1      13.150   3.495  19.640  1.00  0.00     0.031 C 
ATOM      5  C   UNL     1      13.485   3.950  18.182  1.00  0.00     0.003 C 
ATOM      6  C   UNL     1      14.945   4.458  18.176  1.00  0.00     0.004 C 
ATOM      7  C   UNL     1      14.375   5.812  18.670  1.00  0.00     0.024 C 
ATOM      8  C   UNL     1      13.070   5.421  17.936  1.00  0.00    -0.022 C 
ATOM      9  C   UNL     1      13.184   5.732  16.411  1.00  0.00     0.008 C 
ATOM     10  C   UNL     1      14.631   5.561  15.875  1.00  0.00     0.005 C 
ATOM     11  C   UNL     1      15.463   4.536  16.708  1.00  0.00    -0.005 C 
ATOM     12  C   UNL     1      11.718   5.915  18.501  1.00  0.00     0.012 C 
ENDROOT
BRANCH  11  13
ATOM     13  C   UNL     1      17.004   4.750  16.635  1.00  0.00    -0.014 C 
ATOM     14  C   UNL     1      17.368   6.242  16.629  1.00  0.00     0.007 C 
ATOM     15  C   UNL     1      17.796   4.010  17.726  1.00  0.00     0.007 C 
ENDBRANCH  11  13
TORSDOF 1
ENDMDL
