MODEL 1
REMARK VINA RESULT:     5.398      0.000      0.000
REMARK INTER + INTRA:           6.029
REMARK INTER:                   6.029
REMARK INTRA:                   0.000
REMARK UNBOUND:                 0.000
REMARK SMILES Oc1cc(O)c2c(c1)CCc1cc(O)c(O)cc1-2
REMARK SMILES IDX 10 1 9 2 7 3 6 4 18 5 17 6 15 7 13 8 12 9 11 10 4 11 3 12
REMARK SMILES IDX 2 13 8 14 14 15 5 17 1 19 16 21
REMARK H PARENT 14 16 5 18 1 20 16 22
REMARK Flexibility Score: inf
ROOT
ATOM      1  C   UNL     1     123.060 131.344 124.642  1.00  0.00     0.041 C 
ATOM      2  C   UNL     1     124.458 131.687 124.113  1.00  0.00     0.041 C 
ATOM      3  C   UNL     1     124.980 132.942 124.769  1.00  0.00    -0.032 A 
ATOM      4  C   UNL     1     124.679 133.211 126.126  1.00  0.00     0.027 A 
ATOM      5  C   UNL     1     123.864 132.204 126.879  1.00  0.00    -0.007 A 
ATOM      6  C   UNL     1     123.935 132.065 128.279  1.00  0.00     0.059 A 
ATOM      7  C   UNL     1     123.152 131.113 128.947  1.00  0.00     0.158 A 
ATOM      8  C   UNL     1     122.306 130.266 128.215  1.00  0.00     0.157 A 
ATOM      9  C   UNL     1     122.272 130.355 126.822  1.00  0.00     0.054 A 
ATOM     10  C   UNL     1     123.068 131.292 126.148  1.00  0.00    -0.036 A 
ATOM     11  C   UNL     1     125.096 134.444 126.683  1.00  0.00     0.127 A 
ATOM     12  C   UNL     1     125.902 135.313 125.934  1.00  0.00     0.093 A 
ATOM     13  C   UNL     1     126.259 134.999 124.619  1.00  0.00     0.119 A 
ATOM     14  C   UNL     1     125.792 133.821 124.038  1.00  0.00     0.050 A 
ENDROOT
BRANCH   8  15
ATOM     15  O   UNL     1     121.502 129.322 128.853  1.00  0.00    -0.504 OA
ATOM     16  H   UNL     1     120.526 129.496 129.059  1.00  0.00     0.293 HD
ENDBRANCH   8  15
BRANCH  11  17
ATOM     17  O   UNL     1     124.685 134.835 127.956  1.00  0.00    -0.507 OA
ATOM     18  H   UNL     1     123.705 134.885 128.209  1.00  0.00     0.293 HD
ENDBRANCH  11  17
BRANCH  13  19
ATOM     19  O   UNL     1     127.066 135.858 123.877  1.00  0.00    -0.508 OA
ATOM     20  H   UNL     1     126.974 135.934 122.870  1.00  0.00     0.293 HD
ENDBRANCH  13  19
BRANCH   7  21
ATOM     21  O   UNL     1     123.219 131.000 130.335  1.00  0.00    -0.504 OA
ATOM     22  H   UNL     1     122.671 131.597 130.943  1.00  0.00     0.293 HD
ENDBRANCH   7  21
TORSDOF 4
ENDMDL
MODEL 2
REMARK VINA RESULT:     6.825      2.545      4.439
REMARK INTER + INTRA:           7.623
REMARK INTER:                   7.623
REMARK INTRA:                   0.000
REMARK UNBOUND:                 0.000
REMARK SMILES Oc1cc(O)c2c(c1)CCc1cc(O)c(O)cc1-2
REMARK SMILES IDX 10 1 9 2 7 3 6 4 18 5 17 6 15 7 13 8 12 9 11 10 4 11 3 12
REMARK SMILES IDX 2 13 8 14 14 15 5 17 1 19 16 21
REMARK H PARENT 14 16 5 18 1 20 16 22
REMARK Flexibility Score: inf
ROOT
ATOM      1  C   UNL     1     126.185 134.853 126.933  1.00  0.00     0.041 C 
ATOM      2  C   UNL     1     126.131 134.533 125.434  1.00  0.00     0.041 C 
ATOM      3  C   UNL     1     125.278 133.313 125.183  1.00  0.00    -0.032 A 
ATOM      4  C   UNL     1     124.126 133.079 125.974  1.00  0.00     0.027 A 
ATOM      5  C   UNL     1     123.779 134.086 127.027  1.00  0.00    -0.007 A 
ATOM      6  C   UNL     1     122.462 134.271 127.494  1.00  0.00     0.059 A 
ATOM      7  C   UNL     1     122.179 135.221 128.485  1.00  0.00     0.158 A 
ATOM      8  C   UNL     1     123.210 136.021 129.001  1.00  0.00     0.157 A 
ATOM      9  C   UNL     1     124.507 135.888 128.503  1.00  0.00     0.054 A 
ATOM     10  C   UNL     1     124.791 134.952 127.498  1.00  0.00    -0.036 A 
ATOM     11  C   UNL     1     123.405 131.875 125.782  1.00  0.00     0.127 A 
ATOM     12  C   UNL     1     123.758 131.005 124.740  1.00  0.00     0.093 A 
ATOM     13  C   UNL     1     124.851 131.288 123.915  1.00  0.00     0.119 A 
ATOM     14  C   UNL     1     125.612 132.435 124.143  1.00  0.00     0.050 A 
ENDROOT
BRANCH   8  15
ATOM     15  O   UNL     1     122.960 136.962 130.000  1.00  0.00    -0.504 OA
ATOM     16  H   UNL     1     123.552 137.774 130.134  1.00  0.00     0.293 HD
ENDBRANCH   8  15
BRANCH  11  17
ATOM     17  O   UNL     1     122.369 131.512 126.641  1.00  0.00    -0.507 OA
ATOM     18  H   UNL     1     121.396 131.589 126.367  1.00  0.00     0.293 HD
ENDBRANCH  11  17
BRANCH  13  19
ATOM     19  O   UNL     1     125.198 130.429 122.875  1.00  0.00    -0.508 OA
ATOM     20  H   UNL     1     125.957 129.764 122.969  1.00  0.00     0.293 HD
ENDBRANCH  13  19
BRANCH   7  21
ATOM     21  O   UNL     1     120.875 135.379 128.952  1.00  0.00    -0.504 OA
ATOM     22  H   UNL     1     120.139 135.744 128.359  1.00  0.00     0.293 HD
ENDBRANCH   7  21
TORSDOF 4
ENDMDL
MODEL 3
REMARK VINA RESULT:     8.200      1.421      6.063
REMARK INTER + INTRA:           9.159
REMARK INTER:                   9.159
REMARK INTRA:                   0.000
REMARK UNBOUND:                 0.000
REMARK SMILES Oc1cc(O)c2c(c1)CCc1cc(O)c(O)cc1-2
REMARK SMILES IDX 10 1 9 2 7 3 6 4 18 5 17 6 15 7 13 8 12 9 11 10 4 11 3 12
REMARK SMILES IDX 2 13 8 14 14 15 5 17 1 19 16 21
REMARK H PARENT 14 16 5 18 1 20 16 22
REMARK Flexibility Score: inf
ROOT
ATOM      1  C   UNL     1     124.153 134.625 127.892  1.00  0.00     0.041 C 
ATOM      2  C   UNL     1     124.225 133.458 128.883  1.00  0.00     0.041 C 
ATOM      3  C   UNL     1     123.547 132.236 128.314  1.00  0.00    -0.032 A 
ATOM      4  C   UNL     1     123.630 131.960 126.927  1.00  0.00     0.027 A 
ATOM      5  C   UNL     1     124.429 132.894 126.071  1.00  0.00    -0.007 A 
ATOM      6  C   UNL     1     125.022 132.491 124.858  1.00  0.00     0.059 A 
ATOM      7  C   UNL     1     125.759 133.398 124.083  1.00  0.00     0.158 A 
ATOM      8  C   UNL     1     125.934 134.717 124.528  1.00  0.00     0.157 A 
ATOM      9  C   UNL     1     125.401 135.111 125.757  1.00  0.00     0.054 A 
ATOM     10  C   UNL     1     124.681 134.202 126.545  1.00  0.00    -0.036 A 
ATOM     11  C   UNL     1     122.898 130.864 126.408  1.00  0.00     0.127 A 
ATOM     12  C   UNL     1     122.217 130.002 127.277  1.00  0.00     0.093 A 
ATOM     13  C   UNL     1     122.208 130.240 128.656  1.00  0.00     0.119 A 
ATOM     14  C   UNL     1     122.865 131.359 129.168  1.00  0.00     0.050 A 
ENDROOT
BRANCH   8  15
ATOM     15  O   UNL     1     126.647 135.645 123.770  1.00  0.00    -0.504 OA
ATOM     16  H   UNL     1     126.835 135.505 122.784  1.00  0.00     0.293 HD
ENDBRANCH   8  15
BRANCH  11  17
ATOM     17  O   UNL     1     122.806 130.647 125.034  1.00  0.00    -0.507 OA
ATOM     18  H   UNL     1     123.145 131.325 124.361  1.00  0.00     0.293 HD
ENDBRANCH  11  17
BRANCH  13  19
ATOM     19  O   UNL     1     121.537 129.380 129.522  1.00  0.00    -0.508 OA
ATOM     20  H   UNL     1     121.421 129.602 130.504  1.00  0.00     0.293 HD
ENDBRANCH  13  19
BRANCH   7  21
ATOM     21  O   UNL     1     126.324 132.990 122.875  1.00  0.00    -0.504 OA
ATOM     22  H   UNL     1     127.328 132.937 122.750  1.00  0.00     0.293 HD
ENDBRANCH   7  21
TORSDOF 4
ENDMDL
