MODEL 1
REMARK VINA RESULT:    -6.241      0.000      0.000
REMARK INTER + INTRA:          -7.511
REMARK INTER:                  -7.518
REMARK INTRA:                   0.007
REMARK UNBOUND:                 0.007
REMARK SMILES O=c1c(O)c(-c2ccc(O)c(O)c2)oc2cc(O)cc(O)c12
REMARK SMILES IDX 5 1 3 2 2 3 1 4 22 5 20 6 19 7 17 8 16 9 15 10 14 11 6 12
REMARK SMILES IDX 7 13 8 14 9 15 13 16 11 17 10 18 12 20 4 22 21 24 18 26
REMARK H PARENT 10 19 12 21 4 23 21 25 18 27
REMARK Flexibility Score: inf
ROOT
ATOM      1  C   UNL     1     -32.174 -20.486  21.947  1.00  0.00     0.180 A 
ATOM      2  C   UNL     1     -32.535 -19.788  20.781  1.00  0.00     0.208 A 
ATOM      3  C   UNL     1     -32.385 -18.392  20.749  1.00  0.00     0.238 A 
ATOM      4  O   UNL     1     -32.657 -17.779  19.684  1.00  0.00    -0.285 OA
ATOM      5  C   UNL     1     -31.891 -17.712  21.888  1.00  0.00     0.111 A 
ATOM      6  C   UNL     1     -31.736 -16.295  21.980  1.00  0.00     0.134 A 
ATOM      7  C   UNL     1     -31.116 -15.742  23.108  1.00  0.00     0.093 A 
ATOM      8  C   UNL     1     -30.706 -16.547  24.173  1.00  0.00     0.123 A 
ATOM      9  C   UNL     1     -30.908 -17.923  24.117  1.00  0.00     0.094 A 
ATOM     10  C   UNL     1     -31.489 -18.509  22.991  1.00  0.00     0.146 A 
ATOM     11  O   UNL     1     -31.653 -19.827  22.974  1.00  0.00    -0.452 OA
ENDROOT
BRANCH   1  12
ATOM     12  C   UNL     1     -32.328 -21.955  22.065  1.00  0.00     0.025 A 
ATOM     13  C   UNL     1     -33.555 -22.550  21.734  1.00  0.00     0.016 A 
ATOM     14  C   UNL     1     -33.715 -23.935  21.818  1.00  0.00     0.051 A 
ATOM     15  C   UNL     1     -32.647 -24.748  22.219  1.00  0.00     0.157 A 
ATOM     16  C   UNL     1     -31.251 -22.775  22.448  1.00  0.00     0.062 A 
ATOM     17  C   UNL     1     -31.408 -24.163  22.531  1.00  0.00     0.158 A 
BRANCH  15  18
ATOM     18  O   UNL     1     -32.810 -26.129  22.305  1.00  0.00    -0.504 OA
ATOM     19  H   UNL     1     -33.518 -26.544  22.900  1.00  0.00     0.293 HD
ENDBRANCH  15  18
BRANCH  17  20
ATOM     20  O   UNL     1     -30.320 -24.945  22.920  1.00  0.00    -0.504 OA
ATOM     21  H   UNL     1     -29.975 -25.708  22.351  1.00  0.00     0.293 HD
ENDBRANCH  17  20
ENDBRANCH   1  12
BRANCH   2  22
ATOM     22  O   UNL     1     -32.999 -20.483  19.660  1.00  0.00    -0.502 OA
ATOM     23  H   UNL     1     -33.923 -20.896  19.620  1.00  0.00     0.293 HD
ENDBRANCH   2  22
BRANCH   6  24
ATOM     24  O   UNL     1     -32.194 -15.395  21.014  1.00  0.00    -0.507 OA
ATOM     25  H   UNL     1     -32.517 -14.459  21.208  1.00  0.00     0.293 HD
ENDBRANCH   6  24
BRANCH   8  26
ATOM     26  O   UNL     1     -30.104 -15.985  25.298  1.00  0.00    -0.508 OA
ATOM     27  H   UNL     1     -30.463 -16.153  26.230  1.00  0.00     0.293 HD
ENDBRANCH   8  26
TORSDOF 6
ENDMDL
MODEL 2
REMARK VINA RESULT:    -5.874      2.289      3.871
REMARK INTER + INTRA:          -7.070
REMARK INTER:                  -6.738
REMARK INTRA:                  -0.332
REMARK UNBOUND:                 0.007
REMARK SMILES O=c1c(O)c(-c2ccc(O)c(O)c2)oc2cc(O)cc(O)c12
REMARK SMILES IDX 5 1 3 2 2 3 1 4 22 5 20 6 19 7 17 8 16 9 15 10 14 11 6 12
REMARK SMILES IDX 7 13 8 14 9 15 13 16 11 17 10 18 12 20 4 22 21 24 18 26
REMARK H PARENT 10 19 12 21 4 23 21 25 18 27
REMARK Flexibility Score: inf
ROOT
ATOM      1  C   UNL     1     -31.186 -18.406  23.266  1.00  0.00     0.180 A 
ATOM      2  C   UNL     1     -31.917 -17.361  23.857  1.00  0.00     0.208 A 
ATOM      3  C   UNL     1     -31.224 -16.328  24.510  1.00  0.00     0.238 A 
ATOM      4  O   UNL     1     -31.882 -15.368  24.989  1.00  0.00    -0.285 OA
ATOM      5  C   UNL     1     -29.811 -16.362  24.576  1.00  0.00     0.111 A 
ATOM      6  C   UNL     1     -29.008 -15.389  25.245  1.00  0.00     0.134 A 
ATOM      7  C   UNL     1     -27.613 -15.452  25.136  1.00  0.00     0.093 A 
ATOM      8  C   UNL     1     -26.992 -16.489  24.436  1.00  0.00     0.123 A 
ATOM      9  C   UNL     1     -27.765 -17.475  23.830  1.00  0.00     0.094 A 
ATOM     10  C   UNL     1     -29.159 -17.420  23.890  1.00  0.00     0.146 A 
ATOM     11  O   UNL     1     -29.859 -18.375  23.288  1.00  0.00    -0.452 OA
ENDROOT
BRANCH   1  12
ATOM     12  C   UNL     1     -31.846 -19.542  22.583  1.00  0.00     0.025 A 
ATOM     13  C   UNL     1     -32.006 -19.512  21.190  1.00  0.00     0.016 A 
ATOM     14  C   UNL     1     -32.607 -20.582  20.522  1.00  0.00     0.051 A 
ATOM     15  C   UNL     1     -33.044 -21.705  21.236  1.00  0.00     0.157 A 
ATOM     16  C   UNL     1     -32.267 -20.680  23.296  1.00  0.00     0.062 A 
ATOM     17  C   UNL     1     -32.868 -21.755  22.630  1.00  0.00     0.158 A 
BRANCH  15  18
ATOM     18  O   UNL     1     -33.646 -22.770  20.569  1.00  0.00    -0.504 OA
ATOM     19  H   UNL     1     -34.630 -22.982  20.687  1.00  0.00     0.293 HD
ENDBRANCH  15  18
BRANCH  17  20
ATOM     20  O   UNL     1     -33.278 -22.864  23.368  1.00  0.00    -0.504 OA
ATOM     21  H   UNL     1     -32.630 -23.582  23.667  1.00  0.00     0.293 HD
ENDBRANCH  17  20
ENDBRANCH   1  12
BRANCH   2  22
ATOM     22  O   UNL     1     -33.312 -17.336  23.760  1.00  0.00    -0.502 OA
ATOM     23  H   UNL     1     -33.915 -17.643  24.514  1.00  0.00     0.293 HD
ENDBRANCH   2  22
BRANCH   6  24
ATOM     24  O   UNL     1     -29.526 -14.368  26.046  1.00  0.00    -0.507 OA
ATOM     25  H   UNL     1     -29.785 -13.451  25.714  1.00  0.00     0.293 HD
ENDBRANCH   6  24
BRANCH   8  26
ATOM     26  O   UNL     1     -25.602 -16.551  24.345  1.00  0.00    -0.508 OA
ATOM     27  H   UNL     1     -25.117 -17.436  24.252  1.00  0.00     0.293 HD
ENDBRANCH   8  26
TORSDOF 6
ENDMDL
MODEL 3
REMARK VINA RESULT:    -5.867      4.299      6.602
REMARK INTER + INTRA:          -7.061
REMARK INTER:                  -6.730
REMARK INTRA:                  -0.331
REMARK UNBOUND:                 0.007
REMARK SMILES O=c1c(O)c(-c2ccc(O)c(O)c2)oc2cc(O)cc(O)c12
REMARK SMILES IDX 5 1 3 2 2 3 1 4 22 5 20 6 19 7 17 8 16 9 15 10 14 11 6 12
REMARK SMILES IDX 7 13 8 14 9 15 13 16 11 17 10 18 12 20 4 22 21 24 18 26
REMARK H PARENT 10 19 12 21 4 23 21 25 18 27
REMARK Flexibility Score: inf
ROOT
ATOM      1  C   UNL     1     -30.058 -17.260  24.433  1.00  0.00     0.180 A 
ATOM      2  C   UNL     1     -30.788 -17.830  23.375  1.00  0.00     0.208 A 
ATOM      3  C   UNL     1     -30.206 -17.885  22.098  1.00  0.00     0.238 A 
ATOM      4  O   UNL     1     -30.842 -18.445  21.168  1.00  0.00    -0.285 OA
ATOM      5  C   UNL     1     -28.909 -17.356  21.893  1.00  0.00     0.111 A 
ATOM      6  C   UNL     1     -28.239 -17.323  20.633  1.00  0.00     0.134 A 
ATOM      7  C   UNL     1     -26.906 -16.894  20.571  1.00  0.00     0.093 A 
ATOM      8  C   UNL     1     -26.243 -16.437  21.712  1.00  0.00     0.123 A 
ATOM      9  C   UNL     1     -26.909 -16.410  22.934  1.00  0.00     0.094 A 
ATOM     10  C   UNL     1     -28.225 -16.865  23.035  1.00  0.00     0.146 A 
ATOM     11  O   UNL     1     -28.820 -16.832  24.223  1.00  0.00    -0.452 OA
ENDROOT
BRANCH   1  12
ATOM     12  C   UNL     1     -30.615 -17.144  25.801  1.00  0.00     0.025 A 
ATOM     13  C   UNL     1     -30.301 -18.119  26.759  1.00  0.00     0.016 A 
ATOM     14  C   UNL     1     -30.797 -18.017  28.062  1.00  0.00     0.051 A 
ATOM     15  C   UNL     1     -31.602 -16.932  28.429  1.00  0.00     0.157 A 
ATOM     16  C   UNL     1     -31.407 -16.044  26.177  1.00  0.00     0.062 A 
ATOM     17  C   UNL     1     -31.904 -15.938  27.482  1.00  0.00     0.158 A 
BRANCH  15  18
ATOM     18  O   UNL     1     -32.099 -16.834  29.727  1.00  0.00    -0.504 OA
ATOM     19  H   UNL     1     -31.838 -17.498  30.447  1.00  0.00     0.293 HD
ENDBRANCH  15  18
BRANCH  17  20
ATOM     20  O   UNL     1     -32.691 -14.837  27.819  1.00  0.00    -0.504 OA
ATOM     21  H   UNL     1     -33.702 -14.866  27.780  1.00  0.00     0.293 HD
ENDBRANCH  17  20
ENDBRANCH   1  12
BRANCH   2  22
ATOM     22  O   UNL     1     -32.058 -18.367  23.606  1.00  0.00    -0.502 OA
ATOM     23  H   UNL     1     -32.909 -17.877  23.357  1.00  0.00     0.293 HD
ENDBRANCH   2  22
BRANCH   6  24
ATOM     24  O   UNL     1     -28.840 -17.670  19.419  1.00  0.00    -0.507 OA
ATOM     25  H   UNL     1     -29.623 -18.298  19.325  1.00  0.00     0.293 HD
ENDBRANCH   6  24
BRANCH   8  26
ATOM     26  O   UNL     1     -24.923 -15.998  21.639  1.00  0.00    -0.508 OA
ATOM     27  H   UNL     1     -24.150 -16.600  21.897  1.00  0.00     0.293 HD
ENDBRANCH   8  26
TORSDOF 6
ENDMDL
MODEL 4
REMARK VINA RESULT:    -5.834      2.776      3.508
REMARK INTER + INTRA:          -7.021
REMARK INTER:                  -6.765
REMARK INTRA:                  -0.256
REMARK UNBOUND:                 0.007
REMARK SMILES O=c1c(O)c(-c2ccc(O)c(O)c2)oc2cc(O)cc(O)c12
REMARK SMILES IDX 5 1 3 2 2 3 1 4 22 5 20 6 19 7 17 8 16 9 15 10 14 11 6 12
REMARK SMILES IDX 7 13 8 14 9 15 13 16 11 17 10 18 12 20 4 22 21 24 18 26
REMARK H PARENT 10 19 12 21 4 23 21 25 18 27
REMARK Flexibility Score: inf
ROOT
ATOM      1  C   UNL     1     -31.019 -18.278  21.600  1.00  0.00     0.180 A 
ATOM      2  C   UNL     1     -31.699 -17.048  21.547  1.00  0.00     0.208 A 
ATOM      3  C   UNL     1     -30.954 -15.858  21.538  1.00  0.00     0.238 A 
ATOM      4  O   UNL     1     -31.566 -14.763  21.434  1.00  0.00    -0.285 OA
ATOM      5  C   UNL     1     -29.541 -15.912  21.598  1.00  0.00     0.111 A 
ATOM      6  C   UNL     1     -28.688 -14.767  21.634  1.00  0.00     0.134 A 
ATOM      7  C   UNL     1     -27.300 -14.939  21.562  1.00  0.00     0.093 A 
ATOM      8  C   UNL     1     -26.733 -16.215  21.520  1.00  0.00     0.123 A 
ATOM      9  C   UNL     1     -27.555 -17.338  21.544  1.00  0.00     0.094 A 
ATOM     10  C   UNL     1     -28.944 -17.199  21.579  1.00  0.00     0.146 A 
ATOM     11  O   UNL     1     -29.692 -18.297  21.590  1.00  0.00    -0.452 OA
ENDROOT
BRANCH   1  12
ATOM     12  C   UNL     1     -31.736 -19.574  21.639  1.00  0.00     0.025 A 
ATOM     13  C   UNL     1     -32.306 -20.083  20.462  1.00  0.00     0.016 A 
ATOM     14  C   UNL     1     -32.967 -21.313  20.471  1.00  0.00     0.051 A 
ATOM     15  C   UNL     1     -33.057 -22.060  21.652  1.00  0.00     0.157 A 
ATOM     16  C   UNL     1     -31.809 -20.335  22.819  1.00  0.00     0.062 A 
ATOM     17  C   UNL     1     -32.470 -21.569  22.831  1.00  0.00     0.158 A 
BRANCH  15  18
ATOM     18  O   UNL     1     -33.720 -23.286  21.660  1.00  0.00    -0.504 OA
ATOM     19  H   UNL     1     -33.237 -24.152  21.449  1.00  0.00     0.293 HD
ENDBRANCH  15  18
BRANCH  17  20
ATOM     20  O   UNL     1     -32.528 -22.294  24.021  1.00  0.00    -0.504 OA
ATOM     21  H   UNL     1     -32.077 -21.974  24.869  1.00  0.00     0.293 HD
ENDBRANCH  17  20
ENDBRANCH   1  12
BRANCH   2  22
ATOM     22  O   UNL     1     -33.094 -17.020  21.465  1.00  0.00    -0.502 OA
ATOM     23  H   UNL     1     -33.587 -16.976  20.580  1.00  0.00     0.293 HD
ENDBRANCH   2  22
BRANCH   6  24
ATOM     24  O   UNL     1     -29.149 -13.455  21.768  1.00  0.00    -0.507 OA
ATOM     25  H   UNL     1     -29.526 -13.062  22.618  1.00  0.00     0.293 HD
ENDBRANCH   6  24
BRANCH   8  26
ATOM     26  O   UNL     1     -25.350 -16.376  21.463  1.00  0.00    -0.508 OA
ATOM     27  H   UNL     1     -24.851 -16.366  20.582  1.00  0.00     0.293 HD
ENDBRANCH   8  26
TORSDOF 6
ENDMDL
MODEL 5
REMARK VINA RESULT:    -5.717      3.456      6.778
REMARK INTER + INTRA:          -6.880
REMARK INTER:                  -6.586
REMARK INTRA:                  -0.294
REMARK UNBOUND:                 0.007
REMARK SMILES O=c1c(O)c(-c2ccc(O)c(O)c2)oc2cc(O)cc(O)c12
REMARK SMILES IDX 5 1 3 2 2 3 1 4 22 5 20 6 19 7 17 8 16 9 15 10 14 11 6 12
REMARK SMILES IDX 7 13 8 14 9 15 13 16 11 17 10 18 12 20 4 22 21 24 18 26
REMARK H PARENT 10 19 12 21 4 23 21 25 18 27
REMARK Flexibility Score: inf
ROOT
ATOM      1  C   UNL     1     -30.519 -17.591  24.302  1.00  0.00     0.180 A 
ATOM      2  C   UNL     1     -29.267 -17.210  23.788  1.00  0.00     0.208 A 
ATOM      3  C   UNL     1     -28.965 -17.499  22.447  1.00  0.00     0.238 A 
ATOM      4  O   UNL     1     -27.865 -17.106  21.978  1.00  0.00    -0.285 OA
ATOM      5  C   UNL     1     -29.912 -18.178  21.644  1.00  0.00     0.111 A 
ATOM      6  C   UNL     1     -29.696 -18.557  20.284  1.00  0.00     0.134 A 
ATOM      7  C   UNL     1     -30.751 -19.110  19.546  1.00  0.00     0.093 A 
ATOM      8  C   UNL     1     -31.991 -19.357  20.137  1.00  0.00     0.123 A 
ATOM      9  C   UNL     1     -32.193 -19.045  21.479  1.00  0.00     0.094 A 
ATOM     10  C   UNL     1     -31.172 -18.459  22.232  1.00  0.00     0.146 A 
ATOM     11  O   UNL     1     -31.410 -18.168  23.506  1.00  0.00    -0.452 OA
ENDROOT
BRANCH   1  12
ATOM     12  C   UNL     1     -30.900 -17.344  25.713  1.00  0.00     0.025 A 
ATOM     13  C   UNL     1     -30.415 -18.193  26.718  1.00  0.00     0.016 A 
ATOM     14  C   UNL     1     -30.745 -17.966  28.057  1.00  0.00     0.051 A 
ATOM     15  C   UNL     1     -31.551 -16.878  28.411  1.00  0.00     0.157 A 
ATOM     16  C   UNL     1     -31.693 -16.239  26.073  1.00  0.00     0.062 A 
ATOM     17  C   UNL     1     -32.024 -16.008  27.414  1.00  0.00     0.158 A 
BRANCH  15  18
ATOM     18  O   UNL     1     -31.881 -16.655  29.747  1.00  0.00    -0.504 OA
ATOM     19  H   UNL     1     -31.571 -15.824  30.239  1.00  0.00     0.293 HD
ENDBRANCH  15  18
BRANCH  17  20
ATOM     20  O   UNL     1     -32.817 -14.907  27.735  1.00  0.00    -0.504 OA
ATOM     21  H   UNL     1     -33.828 -14.943  27.701  1.00  0.00     0.293 HD
ENDBRANCH  17  20
ENDBRANCH   1  12
BRANCH   2  22
ATOM     22  O   UNL     1     -28.357 -16.519  24.594  1.00  0.00    -0.502 OA
ATOM     23  H   UNL     1     -28.549 -15.595  24.962  1.00  0.00     0.293 HD
ENDBRANCH   2  22
BRANCH   6  24
ATOM     24  O   UNL     1     -28.468 -18.438  19.626  1.00  0.00    -0.507 OA
ATOM     25  H   UNL     1     -27.753 -19.149  19.612  1.00  0.00     0.293 HD
ENDBRANCH   6  24
BRANCH   8  26
ATOM     26  O   UNL     1     -33.030 -19.921  19.399  1.00  0.00    -0.508 OA
ATOM     27  H   UNL     1     -32.862 -20.377  18.510  1.00  0.00     0.293 HD
ENDBRANCH   8  26
TORSDOF 6
ENDMDL
MODEL 6
REMARK VINA RESULT:    -5.632      5.191      7.696
REMARK INTER + INTRA:          -6.777
REMARK INTER:                  -6.611
REMARK INTRA:                  -0.166
REMARK UNBOUND:                 0.007
REMARK SMILES O=c1c(O)c(-c2ccc(O)c(O)c2)oc2cc(O)cc(O)c12
REMARK SMILES IDX 5 1 3 2 2 3 1 4 22 5 20 6 19 7 17 8 16 9 15 10 14 11 6 12
REMARK SMILES IDX 7 13 8 14 9 15 13 16 11 17 10 18 12 20 4 22 21 24 18 26
REMARK H PARENT 10 19 12 21 4 23 21 25 18 27
REMARK Flexibility Score: inf
ROOT
ATOM      1  C   UNL     1     -28.979 -16.583  25.317  1.00  0.00     0.180 A 
ATOM      2  C   UNL     1     -27.758 -15.895  25.434  1.00  0.00     0.208 A 
ATOM      3  C   UNL     1     -26.893 -15.851  24.329  1.00  0.00     0.238 A 
ATOM      4  O   UNL     1     -25.827 -15.187  24.422  1.00  0.00    -0.285 OA
ATOM      5  C   UNL     1     -27.251 -16.508  23.128  1.00  0.00     0.111 A 
ATOM      6  C   UNL     1     -26.433 -16.562  21.959  1.00  0.00     0.134 A 
ATOM      7  C   UNL     1     -26.944 -17.129  20.785  1.00  0.00     0.093 A 
ATOM      8  C   UNL     1     -28.217 -17.701  20.756  1.00  0.00     0.123 A 
ATOM      9  C   UNL     1     -28.999 -17.706  21.907  1.00  0.00     0.094 A 
ATOM     10  C   UNL     1     -28.533 -17.116  23.084  1.00  0.00     0.146 A 
ATOM     11  O   UNL     1     -29.315 -17.133  24.157  1.00  0.00    -0.452 OA
ENDROOT
BRANCH   1  12
ATOM     12  C   UNL     1     -29.932 -16.694  26.445  1.00  0.00     0.025 A 
ATOM     13  C   UNL     1     -30.153 -17.945  27.041  1.00  0.00     0.016 A 
ATOM     14  C   UNL     1     -31.031 -18.070  28.120  1.00  0.00     0.051 A 
ATOM     15  C   UNL     1     -31.690 -16.944  28.629  1.00  0.00     0.157 A 
ATOM     16  C   UNL     1     -30.579 -15.562  26.971  1.00  0.00     0.062 A 
ATOM     17  C   UNL     1     -31.459 -15.683  28.054  1.00  0.00     0.158 A 
BRANCH  15  18
ATOM     18  O   UNL     1     -32.569 -17.071  29.704  1.00  0.00    -0.504 OA
ATOM     19  H   UNL     1     -33.332 -17.738  29.690  1.00  0.00     0.293 HD
ENDBRANCH  15  18
BRANCH  17  20
ATOM     20  O   UNL     1     -32.087 -14.540  28.546  1.00  0.00    -0.504 OA
ATOM     21  H   UNL     1     -32.425 -14.479  29.499  1.00  0.00     0.293 HD
ENDBRANCH  17  20
ENDBRANCH   1  12
BRANCH   2  22
ATOM     22  O   UNL     1     -27.435 -15.234  26.623  1.00  0.00    -0.502 OA
ATOM     23  H   UNL     1     -26.623 -15.477  27.177  1.00  0.00     0.293 HD
ENDBRANCH   2  22
BRANCH   6  24
ATOM     24  O   UNL     1     -25.113 -16.102  21.908  1.00  0.00    -0.507 OA
ATOM     25  H   UNL     1     -24.297 -16.689  21.987  1.00  0.00     0.293 HD
ENDBRANCH   6  24
BRANCH   8  26
ATOM     26  O   UNL     1     -28.711 -18.277  19.587  1.00  0.00    -0.508 OA
ATOM     27  H   UNL     1     -29.119 -19.204  19.584  1.00  0.00     0.293 HD
ENDBRANCH   8  26
TORSDOF 6
ENDMDL
MODEL 7
REMARK VINA RESULT:    -5.570      5.001      9.550
REMARK INTER + INTRA:          -6.704
REMARK INTER:                  -6.417
REMARK INTRA:                  -0.286
REMARK UNBOUND:                 0.007
REMARK SMILES O=c1c(O)c(-c2ccc(O)c(O)c2)oc2cc(O)cc(O)c12
REMARK SMILES IDX 5 1 3 2 2 3 1 4 22 5 20 6 19 7 17 8 16 9 15 10 14 11 6 12
REMARK SMILES IDX 7 13 8 14 9 15 13 16 11 17 10 18 12 20 4 22 21 24 18 26
REMARK H PARENT 10 19 12 21 4 23 21 25 18 27
REMARK Flexibility Score: inf
ROOT
ATOM      1  C   UNL     1     -29.248 -15.535  27.941  1.00  0.00     0.180 A 
ATOM      2  C   UNL     1     -30.625 -15.817  27.913  1.00  0.00     0.208 A 
ATOM      3  C   UNL     1     -31.176 -16.407  26.764  1.00  0.00     0.238 A 
ATOM      4  O   UNL     1     -32.398 -16.707  26.766  1.00  0.00    -0.285 OA
ATOM      5  C   UNL     1     -30.346 -16.693  25.654  1.00  0.00     0.111 A 
ATOM      6  C   UNL     1     -30.806 -17.255  24.424  1.00  0.00     0.134 A 
ATOM      7  C   UNL     1     -29.876 -17.616  23.441  1.00  0.00     0.093 A 
ATOM      8  C   UNL     1     -28.511 -17.377  23.617  1.00  0.00     0.123 A 
ATOM      9  C   UNL     1     -28.060 -16.776  24.789  1.00  0.00     0.094 A 
ATOM     10  C   UNL     1     -28.959 -16.437  25.803  1.00  0.00     0.146 A 
ATOM     11  O   UNL     1     -28.485 -15.875  26.909  1.00  0.00    -0.452 OA
ENDROOT
BRANCH   1  12
ATOM     12  C   UNL     1     -28.599 -14.890  29.107  1.00  0.00     0.025 A 
ATOM     13  C   UNL     1     -28.751 -13.510  29.306  1.00  0.00     0.016 A 
ATOM     14  C   UNL     1     -28.166 -12.885  30.410  1.00  0.00     0.051 A 
ATOM     15  C   UNL     1     -27.431 -13.633  31.338  1.00  0.00     0.157 A 
ATOM     16  C   UNL     1     -27.878 -15.643  30.052  1.00  0.00     0.062 A 
ATOM     17  C   UNL     1     -27.291 -15.020  31.160  1.00  0.00     0.158 A 
BRANCH  15  18
ATOM     18  O   UNL     1     -26.845 -13.007  32.437  1.00  0.00    -0.504 OA
ATOM     19  H   UNL     1     -27.401 -12.504  33.120  1.00  0.00     0.293 HD
ENDBRANCH  15  18
BRANCH  17  20
ATOM     20  O   UNL     1     -26.579 -15.796  32.074  1.00  0.00    -0.504 OA
ATOM     21  H   UNL     1     -25.883 -15.396  32.692  1.00  0.00     0.293 HD
ENDBRANCH  17  20
ENDBRANCH   1  12
BRANCH   2  22
ATOM     22  O   UNL     1     -31.421 -15.546  29.031  1.00  0.00    -0.502 OA
ATOM     23  H   UNL     1     -31.789 -16.279  29.626  1.00  0.00     0.293 HD
ENDBRANCH   2  22
BRANCH   6  24
ATOM     24  O   UNL     1     -32.154 -17.449  24.110  1.00  0.00    -0.507 OA
ATOM     25  H   UNL     1     -32.909 -17.433  24.779  1.00  0.00     0.293 HD
ENDBRANCH   6  24
BRANCH   8  26
ATOM     26  O   UNL     1     -27.595 -17.726  22.627  1.00  0.00    -0.508 OA
ATOM     27  H   UNL     1     -27.519 -17.198  21.766  1.00  0.00     0.293 HD
ENDBRANCH   8  26
TORSDOF 6
ENDMDL
MODEL 8
REMARK VINA RESULT:    -5.419      3.008      5.553
REMARK INTER + INTRA:          -6.521
REMARK INTER:                  -6.233
REMARK INTRA:                  -0.288
REMARK UNBOUND:                 0.007
REMARK SMILES O=c1c(O)c(-c2ccc(O)c(O)c2)oc2cc(O)cc(O)c12
REMARK SMILES IDX 5 1 3 2 2 3 1 4 22 5 20 6 19 7 17 8 16 9 15 10 14 11 6 12
REMARK SMILES IDX 7 13 8 14 9 15 13 16 11 17 10 18 12 20 4 22 21 24 18 26
REMARK H PARENT 10 19 12 21 4 23 21 25 18 27
REMARK Flexibility Score: inf
ROOT
ATOM      1  C   UNL     1     -31.870 -17.156  24.182  1.00  0.00     0.180 A 
ATOM      2  C   UNL     1     -32.868 -16.262  24.607  1.00  0.00     0.208 A 
ATOM      3  C   UNL     1     -32.855 -15.809  25.936  1.00  0.00     0.238 A 
ATOM      4  O   UNL     1     -33.719 -14.966  26.295  1.00  0.00    -0.285 OA
ATOM      5  C   UNL     1     -31.855 -16.267  26.827  1.00  0.00     0.111 A 
ATOM      6  C   UNL     1     -31.770 -15.904  28.205  1.00  0.00     0.134 A 
ATOM      7  C   UNL     1     -30.663 -16.314  28.959  1.00  0.00     0.093 A 
ATOM      8  C   UNL     1     -29.674 -17.127  28.403  1.00  0.00     0.123 A 
ATOM      9  C   UNL     1     -29.779 -17.535  27.076  1.00  0.00     0.094 A 
ATOM     10  C   UNL     1     -30.851 -17.113  26.287  1.00  0.00     0.146 A 
ATOM     11  O   UNL     1     -30.908 -17.516  25.023  1.00  0.00    -0.452 OA
ENDROOT
BRANCH   1  12
ATOM     12  C   UNL     1     -31.831 -17.698  22.804  1.00  0.00     0.025 A 
ATOM     13  C   UNL     1     -31.293 -16.918  21.770  1.00  0.00     0.016 A 
ATOM     14  C   UNL     1     -31.227 -17.417  20.467  1.00  0.00     0.051 A 
ATOM     15  C   UNL     1     -31.685 -18.709  20.181  1.00  0.00     0.157 A 
ATOM     16  C   UNL     1     -32.272 -19.003  22.519  1.00  0.00     0.062 A 
ATOM     17  C   UNL     1     -32.206 -19.507  21.214  1.00  0.00     0.158 A 
BRANCH  15  18
ATOM     18  O   UNL     1     -31.622 -19.205  18.880  1.00  0.00    -0.504 OA
ATOM     19  H   UNL     1     -30.740 -19.469  18.455  1.00  0.00     0.293 HD
ENDBRANCH  15  18
BRANCH  17  20
ATOM     20  O   UNL     1     -32.657 -20.803  20.966  1.00  0.00    -0.504 OA
ATOM     21  H   UNL     1     -33.185 -21.330  21.650  1.00  0.00     0.293 HD
ENDBRANCH  17  20
ENDBRANCH   1  12
BRANCH   2  22
ATOM     22  O   UNL     1     -33.832 -15.805  23.704  1.00  0.00    -0.502 OA
ATOM     23  H   UNL     1     -34.823 -15.819  23.914  1.00  0.00     0.293 HD
ENDBRANCH   2  22
BRANCH   6  24
ATOM     24  O   UNL     1     -32.750 -15.172  28.881  1.00  0.00    -0.507 OA
ATOM     25  H   UNL     1     -32.585 -14.308  29.374  1.00  0.00     0.293 HD
ENDBRANCH   6  24
BRANCH   8  26
ATOM     26  O   UNL     1     -28.584 -17.543  29.166  1.00  0.00    -0.508 OA
ATOM     27  H   UNL     1     -28.345 -17.089  30.039  1.00  0.00     0.293 HD
ENDBRANCH   8  26
TORSDOF 6
ENDMDL
