MODEL 1
REMARK VINA RESULT:    -4.447      0.000      0.000
REMARK INTER + INTRA:          -5.069
REMARK INTER:                  -4.966
REMARK INTRA:                  -0.102
REMARK UNBOUND:                -0.102
REMARK SMILES COc1cc2ccc(=O)oc2cc1OC
REMARK SMILES IDX 3 1 13 2 12 3 11 4 5 5 4 6 6 7 7 8 8 9 9 10 10 11 2 12 1 13
REMARK SMILES IDX 14 14 15 15
REMARK H PARENT
REMARK Flexibility Score: inf
ROOT
ATOM      1  C   UNL     1      22.346  43.204  26.054  1.00  0.00     0.161 A 
ATOM      2  C   UNL     1      22.562  44.116  27.102  1.00  0.00     0.164 A 
ATOM      3  C   UNL     1      22.213  43.761  28.421  1.00  0.00     0.098 A 
ATOM      4  C   UNL     1      21.656  42.510  28.693  1.00  0.00     0.142 A 
ATOM      5  C   UNL     1      21.439  41.594  27.643  1.00  0.00     0.022 A 
ATOM      6  C   UNL     1      21.783  41.941  26.331  1.00  0.00     0.062 A 
ATOM      7  C   UNL     1      20.880  40.350  27.949  1.00  0.00     0.019 A 
ATOM      8  C   UNL     1      20.553  40.051  29.271  1.00  0.00     0.094 A 
ATOM      9  C   UNL     1      20.796  41.009  30.261  1.00  0.00     0.336 A 
ATOM     10  O   UNL     1      20.509  40.759  31.460  1.00  0.00    -0.246 OA
ATOM     11  O   UNL     1      21.330  42.186  29.942  1.00  0.00    -0.423 OA
ENDROOT
BRANCH   1  12
ATOM     12  O   UNL     1      22.706  43.589  24.753  1.00  0.00    -0.493 OA
ATOM     13  C   UNL     1      22.366  42.867  23.574  1.00  0.00     0.278 C 
ENDBRANCH   1  12
BRANCH   2  14
ATOM     14  O   UNL     1      23.125  45.364  26.791  1.00  0.00    -0.493 OA
ATOM     15  C   UNL     1      22.978  46.535  27.587  1.00  0.00     0.278 C 
ENDBRANCH   2  14
TORSDOF 2
ENDMDL
MODEL 2
REMARK VINA RESULT:    -4.218      2.054      3.659
REMARK INTER + INTRA:          -4.813
REMARK INTER:                  -4.707
REMARK INTRA:                  -0.106
REMARK UNBOUND:                -0.102
REMARK SMILES COc1cc2ccc(=O)oc2cc1OC
REMARK SMILES IDX 3 1 13 2 12 3 11 4 5 5 4 6 6 7 7 8 8 9 9 10 10 11 2 12 1 13
REMARK SMILES IDX 14 14 15 15
REMARK H PARENT
REMARK Flexibility Score: inf
ROOT
ATOM      1  C   UNL     1      22.739  45.814  28.327  1.00  0.00     0.161 A 
ATOM      2  C   UNL     1      22.369  45.202  29.537  1.00  0.00     0.164 A 
ATOM      3  C   UNL     1      21.977  43.849  29.545  1.00  0.00     0.098 A 
ATOM      4  C   UNL     1      21.955  43.112  28.359  1.00  0.00     0.142 A 
ATOM      5  C   UNL     1      22.327  43.725  27.144  1.00  0.00     0.022 A 
ATOM      6  C   UNL     1      22.717  45.069  27.131  1.00  0.00     0.062 A 
ATOM      7  C   UNL     1      22.295  42.959  25.975  1.00  0.00     0.019 A 
ATOM      8  C   UNL     1      21.899  41.624  26.040  1.00  0.00     0.094 A 
ATOM      9  C   UNL     1      21.543  41.083  27.280  1.00  0.00     0.336 A 
ATOM     10  O   UNL     1      21.184  39.880  27.360  1.00  0.00    -0.246 OA
ATOM     11  O   UNL     1      21.583  41.833  28.378  1.00  0.00    -0.423 OA
ENDROOT
BRANCH   1  12
ATOM     12  O   UNL     1      23.125  47.164  28.356  1.00  0.00    -0.493 OA
ATOM     13  C   UNL     1      22.842  48.107  27.327  1.00  0.00     0.278 C 
ENDBRANCH   1  12
BRANCH   2  14
ATOM     14  O   UNL     1      22.403  45.974  30.710  1.00  0.00    -0.493 OA
ATOM     15  C   UNL     1      22.361  45.439  32.029  1.00  0.00     0.278 C 
ENDBRANCH   2  14
TORSDOF 2
ENDMDL
MODEL 3
REMARK VINA RESULT:    -4.162      2.313      4.027
REMARK INTER + INTRA:          -4.751
REMARK INTER:                  -4.632
REMARK INTRA:                  -0.119
REMARK UNBOUND:                -0.102
REMARK SMILES COc1cc2ccc(=O)oc2cc1OC
REMARK SMILES IDX 3 1 13 2 12 3 11 4 5 5 4 6 6 7 7 8 8 9 9 10 10 11 2 12 1 13
REMARK SMILES IDX 14 14 15 15
REMARK H PARENT
REMARK Flexibility Score: inf
ROOT
ATOM      1  C   UNL     1      22.035  44.807  30.604  1.00  0.00     0.161 A 
ATOM      2  C   UNL     1      22.395  45.010  29.260  1.00  0.00     0.164 A 
ATOM      3  C   UNL     1      22.221  43.970  28.325  1.00  0.00     0.098 A 
ATOM      4  C   UNL     1      21.693  42.741  28.724  1.00  0.00     0.142 A 
ATOM      5  C   UNL     1      21.332  42.535  30.071  1.00  0.00     0.022 A 
ATOM      6  C   UNL     1      21.502  43.565  31.005  1.00  0.00     0.062 A 
ATOM      7  C   UNL     1      20.805  41.293  30.438  1.00  0.00     0.019 A 
ATOM      8  C   UNL     1      20.655  40.300  29.472  1.00  0.00     0.094 A 
ATOM      9  C   UNL     1      21.036  40.574  28.154  1.00  0.00     0.336 A 
ATOM     10  O   UNL     1      20.908  39.691  27.266  1.00  0.00    -0.246 OA
ATOM     11  O   UNL     1      21.534  41.765  27.832  1.00  0.00    -0.423 OA
ENDROOT
BRANCH   1  12
ATOM     12  O   UNL     1      22.220  45.864  31.509  1.00  0.00    -0.493 OA
ATOM     13  C   UNL     1      23.125  45.837  32.608  1.00  0.00     0.278 C 
ENDBRANCH   1  12
BRANCH   2  14
ATOM     14  O   UNL     1      22.922  46.259  28.896  1.00  0.00    -0.493 OA
ATOM     15  C   UNL     1      22.790  46.844  27.604  1.00  0.00     0.278 C 
ENDBRANCH   2  14
TORSDOF 2
ENDMDL
MODEL 4
REMARK VINA RESULT:    -3.882      1.916      3.999
REMARK INTER + INTRA:          -4.438
REMARK INTER:                  -4.320
REMARK INTRA:                  -0.118
REMARK UNBOUND:                -0.102
REMARK SMILES COc1cc2ccc(=O)oc2cc1OC
REMARK SMILES IDX 3 1 13 2 12 3 11 4 5 5 4 6 6 7 7 8 8 9 9 10 10 11 2 12 1 13
REMARK SMILES IDX 14 14 15 15
REMARK H PARENT
REMARK Flexibility Score: inf
ROOT
ATOM      1  C   UNL     1      22.276  42.883  26.656  1.00  0.00     0.161 A 
ATOM      2  C   UNL     1      21.691  42.041  27.617  1.00  0.00     0.164 A 
ATOM      3  C   UNL     1      21.557  42.485  28.947  1.00  0.00     0.098 A 
ATOM      4  C   UNL     1      22.000  43.756  29.317  1.00  0.00     0.142 A 
ATOM      5  C   UNL     1      22.587  44.603  28.354  1.00  0.00     0.022 A 
ATOM      6  C   UNL     1      22.723  44.167  27.030  1.00  0.00     0.062 A 
ATOM      7  C   UNL     1      23.020  45.870  28.756  1.00  0.00     0.019 A 
ATOM      8  C   UNL     1      22.863  46.258  30.085  1.00  0.00     0.094 A 
ATOM      9  C   UNL     1      22.273  45.366  30.986  1.00  0.00     0.336 A 
ATOM     10  O   UNL     1      22.121  45.697  32.191  1.00  0.00    -0.246 OA
ATOM     11  O   UNL     1      21.869  44.166  30.577  1.00  0.00    -0.423 OA
ENDROOT
BRANCH   1  12
ATOM     12  O   UNL     1      22.394  42.409  25.340  1.00  0.00    -0.493 OA
ATOM     13  C   UNL     1      21.650  42.908  24.232  1.00  0.00     0.278 C 
ENDBRANCH   1  12
BRANCH   2  14
ATOM     14  O   UNL     1      21.257  40.769  27.209  1.00  0.00    -0.493 OA
ATOM     15  C   UNL     1      20.646  39.812  28.068  1.00  0.00     0.278 C 
ENDBRANCH   2  14
TORSDOF 2
ENDMDL
MODEL 5
REMARK VINA RESULT:    -3.833      2.387      3.109
REMARK INTER + INTRA:          -4.384
REMARK INTER:                  -4.439
REMARK INTRA:                   0.056
REMARK UNBOUND:                -0.102
REMARK SMILES COc1cc2ccc(=O)oc2cc1OC
REMARK SMILES IDX 3 1 13 2 12 3 11 4 5 5 4 6 6 7 7 8 8 9 9 10 10 11 2 12 1 13
REMARK SMILES IDX 14 14 15 15
REMARK H PARENT
REMARK Flexibility Score: inf
ROOT
ATOM      1  C   UNL     1      22.365  43.533  26.940  1.00  0.00     0.161 A 
ATOM      2  C   UNL     1      22.729  44.889  26.870  1.00  0.00     0.164 A 
ATOM      3  C   UNL     1      22.689  45.685  28.032  1.00  0.00     0.098 A 
ATOM      4  C   UNL     1      22.290  45.135  29.252  1.00  0.00     0.142 A 
ATOM      5  C   UNL     1      21.925  43.775  29.324  1.00  0.00     0.022 A 
ATOM      6  C   UNL     1      21.963  42.980  28.172  1.00  0.00     0.062 A 
ATOM      7  C   UNL     1      21.532  43.254  30.561  1.00  0.00     0.019 A 
ATOM      8  C   UNL     1      21.510  44.087  31.679  1.00  0.00     0.094 A 
ATOM      9  C   UNL     1      21.885  45.426  31.533  1.00  0.00     0.336 A 
ATOM     10  O   UNL     1      21.873  46.194  32.530  1.00  0.00    -0.246 OA
ATOM     11  O   UNL     1      22.256  45.896  30.344  1.00  0.00    -0.423 OA
ENDROOT
BRANCH   1  12
ATOM     12  O   UNL     1      22.417  42.770  25.763  1.00  0.00    -0.493 OA
ATOM     13  C   UNL     1      21.509  42.901  24.673  1.00  0.00     0.278 C 
ENDBRANCH   1  12
BRANCH   2  14
ATOM     14  O   UNL     1      23.124  45.408  25.626  1.00  0.00    -0.493 OA
ATOM     15  C   UNL     1      22.799  46.712  25.156  1.00  0.00     0.278 C 
ENDBRANCH   2  14
TORSDOF 2
ENDMDL
MODEL 6
REMARK VINA RESULT:    -3.306      1.443      3.221
REMARK INTER + INTRA:          -3.795
REMARK INTER:                  -3.687
REMARK INTRA:                  -0.108
REMARK UNBOUND:                -0.102
REMARK SMILES COc1cc2ccc(=O)oc2cc1OC
REMARK SMILES IDX 3 1 13 2 12 3 11 4 5 5 4 6 6 7 7 8 8 9 9 10 10 11 2 12 1 13
REMARK SMILES IDX 14 14 15 15
REMARK H PARENT
REMARK Flexibility Score: inf
ROOT
ATOM      1  C   UNL     1      22.701  45.314  27.016  1.00  0.00     0.161 A 
ATOM      2  C   UNL     1      22.544  44.016  26.502  1.00  0.00     0.164 A 
ATOM      3  C   UNL     1      22.119  42.974  27.351  1.00  0.00     0.098 A 
ATOM      4  C   UNL     1      21.854  43.224  28.699  1.00  0.00     0.142 A 
ATOM      5  C   UNL     1      22.011  44.526  29.216  1.00  0.00     0.022 A 
ATOM      6  C   UNL     1      22.433  45.565  28.377  1.00  0.00     0.062 A 
ATOM      7  C   UNL     1      21.736  44.744  30.570  1.00  0.00     0.019 A 
ATOM      8  C   UNL     1      21.320  43.677  31.364  1.00  0.00     0.094 A 
ATOM      9  C   UNL     1      21.186  42.412  30.783  1.00  0.00     0.336 A 
ATOM     10  O   UNL     1      20.811  41.435  31.483  1.00  0.00    -0.246 OA
ATOM     11  O   UNL     1      21.454  42.232  29.492  1.00  0.00    -0.423 OA
ENDROOT
BRANCH   1  12
ATOM     12  O   UNL     1      23.125  46.329  26.143  1.00  0.00    -0.493 OA
ATOM     13  C   UNL     1      22.696  47.685  26.211  1.00  0.00     0.278 C 
ENDBRANCH   1  12
BRANCH   2  14
ATOM     14  O   UNL     1      22.820  43.802  25.142  1.00  0.00    -0.493 OA
ATOM     15  C   UNL     1      22.148  42.851  24.322  1.00  0.00     0.278 C 
ENDBRANCH   2  14
TORSDOF 2
ENDMDL
MODEL 7
REMARK VINA RESULT:    -3.111      2.329      3.835
REMARK INTER + INTRA:          -3.577
REMARK INTER:                  -3.486
REMARK INTRA:                  -0.091
REMARK UNBOUND:                -0.102
REMARK SMILES COc1cc2ccc(=O)oc2cc1OC
REMARK SMILES IDX 3 1 13 2 12 3 11 4 5 5 4 6 6 7 7 8 8 9 9 10 10 11 2 12 1 13
REMARK SMILES IDX 14 14 15 15
REMARK H PARENT
REMARK Flexibility Score: inf
ROOT
ATOM      1  C   UNL     1      21.549  41.766  27.772  1.00  0.00     0.161 A 
ATOM      2  C   UNL     1      22.205  42.814  27.103  1.00  0.00     0.164 A 
ATOM      3  C   UNL     1      22.534  43.992  27.803  1.00  0.00     0.098 A 
ATOM      4  C   UNL     1      22.215  44.124  29.156  1.00  0.00     0.142 A 
ATOM      5  C   UNL     1      21.557  43.073  29.828  1.00  0.00     0.022 A 
ATOM      6  C   UNL     1      21.227  41.901  29.137  1.00  0.00     0.062 A 
ATOM      7  C   UNL     1      21.251  43.236  31.183  1.00  0.00     0.019 A 
ATOM      8  C   UNL     1      21.600  44.423  31.826  1.00  0.00     0.094 A 
ATOM      9  C   UNL     1      22.250  45.423  31.096  1.00  0.00     0.336 A 
ATOM     10  O   UNL     1      22.575  46.501  31.658  1.00  0.00    -0.246 OA
ATOM     11  O   UNL     1      22.530  45.242  29.807  1.00  0.00    -0.423 OA
ENDROOT
BRANCH   1  12
ATOM     12  O   UNL     1      21.236  40.607  27.045  1.00  0.00    -0.493 OA
ATOM     13  C   UNL     1      20.501  39.502  27.562  1.00  0.00     0.278 C 
ENDBRANCH   1  12
BRANCH   2  14
ATOM     14  O   UNL     1      22.511  42.646  25.743  1.00  0.00    -0.493 OA
ATOM     15  C   UNL     1      21.667  43.054  24.671  1.00  0.00     0.278 C 
ENDBRANCH   2  14
TORSDOF 2
ENDMDL
MODEL 8
REMARK VINA RESULT:    -2.788      1.879      6.031
REMARK INTER + INTRA:          -3.217
REMARK INTER:                  -3.114
REMARK INTRA:                  -0.102
REMARK UNBOUND:                -0.102
REMARK SMILES COc1cc2ccc(=O)oc2cc1OC
REMARK SMILES IDX 3 1 13 2 12 3 11 4 5 5 4 6 6 7 7 8 8 9 9 10 10 11 2 12 1 13
REMARK SMILES IDX 14 14 15 15
REMARK H PARENT
REMARK Flexibility Score: inf
ROOT
ATOM      1  C   UNL     1      21.993  44.465  30.084  1.00  0.00     0.161 A 
ATOM      2  C   UNL     1      21.892  43.335  29.255  1.00  0.00     0.164 A 
ATOM      3  C   UNL     1      22.111  43.463  27.869  1.00  0.00     0.098 A 
ATOM      4  C   UNL     1      22.430  44.704  27.315  1.00  0.00     0.142 A 
ATOM      5  C   UNL     1      22.532  45.839  28.146  1.00  0.00     0.022 A 
ATOM      6  C   UNL     1      22.315  45.718  29.523  1.00  0.00     0.062 A 
ATOM      7  C   UNL     1      22.854  47.067  27.560  1.00  0.00     0.019 A 
ATOM      8  C   UNL     1      23.061  47.137  26.183  1.00  0.00     0.094 A 
ATOM      9  C   UNL     1      22.941  45.970  25.421  1.00  0.00     0.336 A 
ATOM     10  O   UNL     1      23.124  46.011  24.176  1.00  0.00    -0.246 OA
ATOM     11  O   UNL     1      22.635  44.814  26.003  1.00  0.00    -0.423 OA
ENDROOT
BRANCH   1  12
ATOM     12  O   UNL     1      21.769  44.302  31.461  1.00  0.00    -0.493 OA
ATOM     13  C   UNL     1      21.808  45.357  32.416  1.00  0.00     0.278 C 
ENDBRANCH   1  12
BRANCH   2  14
ATOM     14  O   UNL     1      21.569  42.103  29.847  1.00  0.00    -0.493 OA
ATOM     15  C   UNL     1      20.980  41.006  29.156  1.00  0.00     0.278 C 
ENDBRANCH   2  14
TORSDOF 2
ENDMDL
MODEL 9
REMARK VINA RESULT:    -2.549      1.767      5.352
REMARK INTER + INTRA:          -2.949
REMARK INTER:                  -2.840
REMARK INTRA:                  -0.109
REMARK UNBOUND:                -0.102
REMARK SMILES COc1cc2ccc(=O)oc2cc1OC
REMARK SMILES IDX 3 1 13 2 12 3 11 4 5 5 4 6 6 7 7 8 8 9 9 10 10 11 2 12 1 13
REMARK SMILES IDX 14 14 15 15
REMARK H PARENT
REMARK Flexibility Score: inf
ROOT
ATOM      1  C   UNL     1      21.992  44.417  29.924  1.00  0.00     0.161 A 
ATOM      2  C   UNL     1      21.582  43.074  29.842  1.00  0.00     0.164 A 
ATOM      3  C   UNL     1      21.586  42.418  28.595  1.00  0.00     0.098 A 
ATOM      4  C   UNL     1      21.995  43.091  27.442  1.00  0.00     0.142 A 
ATOM      5  C   UNL     1      22.406  44.437  27.523  1.00  0.00     0.022 A 
ATOM      6  C   UNL     1      22.404  45.095  28.759  1.00  0.00     0.062 A 
ATOM      7  C   UNL     1      22.810  45.083  26.350  1.00  0.00     0.019 A 
ATOM      8  C   UNL     1      22.793  44.385  25.144  1.00  0.00     0.094 A 
ATOM      9  C   UNL     1      22.372  43.051  25.138  1.00  0.00     0.336 A 
ATOM     10  O   UNL     1      22.351  42.403  24.060  1.00  0.00    -0.246 OA
ATOM     11  O   UNL     1      21.993  42.460  26.269  1.00  0.00    -0.423 OA
ENDROOT
BRANCH   1  12
ATOM     12  O   UNL     1      21.977  45.040  31.182  1.00  0.00    -0.493 OA
ATOM     13  C   UNL     1      23.036  45.838  31.701  1.00  0.00     0.278 C 
ENDBRANCH   1  12
BRANCH   2  14
ATOM     14  O   UNL     1      21.178  42.430  31.022  1.00  0.00    -0.493 OA
ATOM     15  C   UNL     1      20.731  41.079  31.090  1.00  0.00     0.278 C 
ENDBRANCH   2  14
TORSDOF 2
ENDMDL
