MODEL 1
REMARK VINA RESULT:    -5.626      0.000      0.000
REMARK INTER + INTRA:          -6.481
REMARK INTER:                  -5.954
REMARK INTRA:                  -0.527
REMARK UNBOUND:                -0.527
REMARK SMILES CC1=CC[C@@]23[C@H]([C@H](C(C)C)CC[C@H]2C)[C@H]13
REMARK SMILES IDX 14 1 13 2 12 3 11 4 7 5 6 6 5 7 15 8 2 9 3 10 4 11 1 12 8 13
REMARK SMILES IDX 9 14 10 15
REMARK H PARENT
REMARK Flexibility Score: inf
ROOT
ATOM      1  C   UNL     1       0.045  12.360  18.842  1.00  0.00     0.008 C 
ATOM      2  C   UNL     1       0.289  13.739  18.220  1.00  0.00    -0.007 C 
ATOM      3  C   UNL     1      -1.060  14.458  17.912  1.00  0.00     0.004 C 
ATOM      4  C   UNL     1      -0.910  15.785  17.101  1.00  0.00     0.004 C 
ATOM      5  C   UNL     1       0.175  15.750  15.974  1.00  0.00    -0.004 C 
ATOM      6  C   UNL     1       1.420  15.147  16.639  1.00  0.00     0.007 C 
ATOM      7  C   UNL     1       1.080  13.635  16.899  1.00  0.00    -0.013 C 
ATOM      8  C   UNL     1       2.433  14.082  16.353  1.00  0.00     0.025 C 
ATOM      9  C   UNL     1       2.476  13.591  14.948  1.00  0.00    -0.073 C 
ATOM     10  C   UNL     1       1.418  12.864  14.632  1.00  0.00    -0.027 C 
ATOM     11  C   UNL     1       0.476  12.742  15.776  1.00  0.00     0.035 C 
ATOM     12  C   UNL     1       3.597  13.879  14.000  1.00  0.00     0.039 C 
ENDROOT
BRANCH   5  13
ATOM     13  C   UNL     1       0.497  17.172  15.431  1.00  0.00    -0.014 C 
ATOM     14  C   UNL     1       1.482  17.907  16.357  1.00  0.00     0.007 C 
ATOM     15  C   UNL     1       1.085  17.121  14.010  1.00  0.00     0.007 C 
ENDBRANCH   5  13
TORSDOF 1
ENDMDL
MODEL 2
REMARK VINA RESULT:    -5.082      0.945      1.259
REMARK INTER + INTRA:          -5.906
REMARK INTER:                  -5.505
REMARK INTRA:                  -0.401
REMARK UNBOUND:                -0.527
REMARK SMILES CC1=CC[C@@]23[C@H]([C@H](C(C)C)CC[C@H]2C)[C@H]13
REMARK SMILES IDX 14 1 13 2 12 3 11 4 7 5 6 6 5 7 15 8 2 9 3 10 4 11 1 12 8 13
REMARK SMILES IDX 9 14 10 15
REMARK H PARENT
REMARK Flexibility Score: inf
ROOT
ATOM      1  C   UNL     1       0.305  12.366  17.970  1.00  0.00     0.008 C 
ATOM      2  C   UNL     1       0.579  13.752  17.380  1.00  0.00    -0.007 C 
ATOM      3  C   UNL     1      -0.753  14.483  17.028  1.00  0.00     0.004 C 
ATOM      4  C   UNL     1      -0.565  15.821  16.244  1.00  0.00     0.004 C 
ATOM      5  C   UNL     1       0.566  15.798  15.162  1.00  0.00    -0.004 C 
ATOM      6  C   UNL     1       1.780  15.180  15.868  1.00  0.00     0.007 C 
ATOM      7  C   UNL     1       1.424  13.665  16.090  1.00  0.00    -0.013 C 
ATOM      8  C   UNL     1       2.800  14.115  15.607  1.00  0.00     0.025 C 
ATOM      9  C   UNL     1       2.899  13.645  14.198  1.00  0.00    -0.073 C 
ATOM     10  C   UNL     1       1.852  12.927  13.827  1.00  0.00    -0.027 C 
ATOM     11  C   UNL     1       0.863  12.792  14.930  1.00  0.00     0.035 C 
ATOM     12  C   UNL     1       4.058  13.942  13.301  1.00  0.00     0.039 C 
ENDROOT
BRANCH   5  13
ATOM     13  C   UNL     1       0.916  17.227  14.654  1.00  0.00    -0.014 C 
ATOM     14  C   UNL     1       1.565  17.174  13.261  1.00  0.00     0.007 C 
ATOM     15  C   UNL     1      -0.327  18.132  14.597  1.00  0.00     0.007 C 
ENDBRANCH   5  13
TORSDOF 1
ENDMDL
MODEL 3
REMARK VINA RESULT:    -5.013      0.945      1.295
REMARK INTER + INTRA:          -5.834
REMARK INTER:                  -5.420
REMARK INTRA:                  -0.414
REMARK UNBOUND:                -0.527
REMARK SMILES CC1=CC[C@@]23[C@H]([C@H](C(C)C)CC[C@H]2C)[C@H]13
REMARK SMILES IDX 14 1 13 2 12 3 11 4 7 5 6 6 5 7 15 8 2 9 3 10 4 11 1 12 8 13
REMARK SMILES IDX 9 14 10 15
REMARK H PARENT
REMARK Flexibility Score: inf
ROOT
ATOM      1  C   UNL     1      -0.103  12.218  18.939  1.00  0.00     0.008 C 
ATOM      2  C   UNL     1       0.419  13.452  18.197  1.00  0.00    -0.007 C 
ATOM      3  C   UNL     1      -0.620  14.613  18.243  1.00  0.00     0.004 C 
ATOM      4  C   UNL     1      -0.254  15.841  17.349  1.00  0.00     0.004 C 
ATOM      5  C   UNL     1       0.383  15.482  15.965  1.00  0.00    -0.004 C 
ATOM      6  C   UNL     1       1.473  14.450  16.284  1.00  0.00     0.007 C 
ATOM      7  C   UNL     1       0.715  13.142  16.713  1.00  0.00    -0.013 C 
ATOM      8  C   UNL     1       1.923  13.112  15.783  1.00  0.00     0.025 C 
ATOM      9  C   UNL     1       1.391  12.706  14.453  1.00  0.00    -0.073 C 
ATOM     10  C   UNL     1       0.102  12.412  14.490  1.00  0.00    -0.027 C 
ATOM     11  C   UNL     1      -0.457  12.574  15.859  1.00  0.00     0.035 C 
ATOM     12  C   UNL     1       2.222  12.629  13.212  1.00  0.00     0.039 C 
ENDROOT
BRANCH   5  13
ATOM     13  C   UNL     1       1.013  16.726  15.274  1.00  0.00    -0.014 C 
ATOM     14  C   UNL     1       1.451  16.396  13.836  1.00  0.00     0.007 C 
ATOM     15  C   UNL     1       0.040  17.916  15.244  1.00  0.00     0.007 C 
ENDBRANCH   5  13
TORSDOF 1
ENDMDL
MODEL 4
REMARK VINA RESULT:    -4.802      1.166      4.190
REMARK INTER + INTRA:          -5.610
REMARK INTER:                  -5.211
REMARK INTRA:                  -0.399
REMARK UNBOUND:                -0.527
REMARK SMILES CC1=CC[C@@]23[C@H]([C@H](C(C)C)CC[C@H]2C)[C@H]13
REMARK SMILES IDX 14 1 13 2 12 3 11 4 7 5 6 6 5 7 15 8 2 9 3 10 4 11 1 12 8 13
REMARK SMILES IDX 9 14 10 15
REMARK H PARENT
REMARK Flexibility Score: inf
ROOT
ATOM      1  C   UNL     1       3.557  14.112  13.789  1.00  0.00     0.008 C 
ATOM      2  C   UNL     1       2.612  14.130  14.994  1.00  0.00    -0.007 C 
ATOM      3  C   UNL     1       1.885  12.760  15.152  1.00  0.00     0.004 C 
ATOM      4  C   UNL     1       0.761  12.750  16.237  1.00  0.00     0.004 C 
ATOM      5  C   UNL     1      -0.107  14.051  16.300  1.00  0.00    -0.004 C 
ATOM      6  C   UNL     1       0.905  15.205  16.296  1.00  0.00     0.007 C 
ATOM      7  C   UNL     1       1.532  15.224  14.855  1.00  0.00    -0.013 C 
ATOM      8  C   UNL     1       1.116  16.501  15.578  1.00  0.00     0.025 C 
ATOM      9  C   UNL     1      -0.056  17.022  14.823  1.00  0.00    -0.073 C 
ATOM     10  C   UNL     1      -0.322  16.307  13.742  1.00  0.00    -0.027 C 
ATOM     11  C   UNL     1       0.631  15.176  13.586  1.00  0.00     0.035 C 
ATOM     12  C   UNL     1      -0.843  18.226  15.235  1.00  0.00     0.039 C 
ENDROOT
BRANCH   5  13
ATOM     13  C   UNL     1      -0.977  14.110  17.589  1.00  0.00    -0.014 C 
ATOM     14  C   UNL     1      -0.378  13.230  18.700  1.00  0.00     0.007 C 
ATOM     15  C   UNL     1      -1.125  15.550  18.111  1.00  0.00     0.007 C 
ENDBRANCH   5  13
TORSDOF 1
ENDMDL
MODEL 5
REMARK VINA RESULT:    -4.798      1.194      3.756
REMARK INTER + INTRA:          -5.605
REMARK INTER:                  -5.192
REMARK INTRA:                  -0.414
REMARK UNBOUND:                -0.527
REMARK SMILES CC1=CC[C@@]23[C@H]([C@H](C(C)C)CC[C@H]2C)[C@H]13
REMARK SMILES IDX 14 1 13 2 12 3 11 4 7 5 6 6 5 7 15 8 2 9 3 10 4 11 1 12 8 13
REMARK SMILES IDX 9 14 10 15
REMARK H PARENT
REMARK Flexibility Score: inf
ROOT
ATOM      1  C   UNL     1      -0.544  14.183  18.257  1.00  0.00     0.008 C 
ATOM      2  C   UNL     1       0.112  14.021  16.883  1.00  0.00    -0.007 C 
ATOM      3  C   UNL     1       1.532  13.391  17.013  1.00  0.00     0.004 C 
ATOM      4  C   UNL     1       2.350  13.367  15.682  1.00  0.00     0.004 C 
ATOM      5  C   UNL     1       2.195  14.643  14.789  1.00  0.00    -0.004 C 
ATOM      6  C   UNL     1       0.683  14.900  14.722  1.00  0.00     0.007 C 
ATOM      7  C   UNL     1       0.262  15.377  16.159  1.00  0.00    -0.013 C 
ATOM      8  C   UNL     1      -0.263  16.048  14.894  1.00  0.00     0.025 C 
ATOM      9  C   UNL     1       0.354  17.403  14.878  1.00  0.00    -0.073 C 
ATOM     10  C   UNL     1       1.069  17.649  15.963  1.00  0.00    -0.027 C 
ATOM     11  C   UNL     1       1.055  16.493  16.900  1.00  0.00     0.035 C 
ATOM     12  C   UNL     1       0.180  18.384  13.762  1.00  0.00     0.039 C 
ENDROOT
BRANCH   5  13
ATOM     13  C   UNL     1       2.761  14.425  13.357  1.00  0.00    -0.014 C 
ATOM     14  C   UNL     1       2.794  15.746  12.569  1.00  0.00     0.007 C 
ATOM     15  C   UNL     1       4.177  13.823  13.389  1.00  0.00     0.007 C 
ENDBRANCH   5  13
TORSDOF 1
ENDMDL
MODEL 6
REMARK VINA RESULT:    -4.792      1.282      4.208
REMARK INTER + INTRA:          -5.599
REMARK INTER:                  -5.106
REMARK INTRA:                  -0.493
REMARK UNBOUND:                -0.527
REMARK SMILES CC1=CC[C@@]23[C@H]([C@H](C(C)C)CC[C@H]2C)[C@H]13
REMARK SMILES IDX 14 1 13 2 12 3 11 4 7 5 6 6 5 7 15 8 2 9 3 10 4 11 1 12 8 13
REMARK SMILES IDX 9 14 10 15
REMARK H PARENT
REMARK Flexibility Score: inf
ROOT
ATOM      1  C   UNL     1       1.889  17.620  17.507  1.00  0.00     0.008 C 
ATOM      2  C   UNL     1       1.775  16.378  16.619  1.00  0.00    -0.007 C 
ATOM      3  C   UNL     1       1.076  16.721  15.268  1.00  0.00     0.004 C 
ATOM      4  C   UNL     1       0.744  15.478  14.381  1.00  0.00     0.004 C 
ATOM      5  C   UNL     1       0.240  14.223  15.169  1.00  0.00    -0.004 C 
ATOM      6  C   UNL     1       1.230  14.058  16.330  1.00  0.00     0.007 C 
ATOM      7  C   UNL     1       0.957  15.262  17.303  1.00  0.00    -0.013 C 
ATOM      8  C   UNL     1       1.185  13.842  17.811  1.00  0.00     0.025 C 
ATOM      9  C   UNL     1      -0.125  13.401  18.362  1.00  0.00    -0.073 C 
ATOM     10  C   UNL     1      -1.036  14.360  18.336  1.00  0.00    -0.027 C 
ATOM     11  C   UNL     1      -0.489  15.617  17.757  1.00  0.00     0.035 C 
ATOM     12  C   UNL     1      -0.385  12.028  18.897  1.00  0.00     0.039 C 
ENDROOT
BRANCH   5  13
ATOM     13  C   UNL     1       0.239  12.942  14.284  1.00  0.00    -0.014 C 
ATOM     14  C   UNL     1       1.479  12.076  14.566  1.00  0.00     0.007 C 
ATOM     15  C   UNL     1      -1.026  12.097  14.506  1.00  0.00     0.007 C 
ENDBRANCH   5  13
TORSDOF 1
ENDMDL
MODEL 7
REMARK VINA RESULT:    -4.675      1.074      3.878
REMARK INTER + INTRA:          -5.476
REMARK INTER:                  -4.957
REMARK INTRA:                  -0.519
REMARK UNBOUND:                -0.527
REMARK SMILES CC1=CC[C@@]23[C@H]([C@H](C(C)C)CC[C@H]2C)[C@H]13
REMARK SMILES IDX 14 1 13 2 12 3 11 4 7 5 6 6 5 7 15 8 2 9 3 10 4 11 1 12 8 13
REMARK SMILES IDX 9 14 10 15
REMARK H PARENT
REMARK Flexibility Score: inf
ROOT
ATOM      1  C   UNL     1       1.373  17.749  13.904  1.00  0.00     0.008 C 
ATOM      2  C   UNL     1       0.805  16.882  15.032  1.00  0.00    -0.007 C 
ATOM      3  C   UNL     1       1.469  17.236  16.397  1.00  0.00     0.004 C 
ATOM      4  C   UNL     1       1.091  16.272  17.566  1.00  0.00     0.004 C 
ATOM      5  C   UNL     1       0.993  14.761  17.169  1.00  0.00    -0.004 C 
ATOM      6  C   UNL     1       0.144  14.740  15.891  1.00  0.00     0.007 C 
ATOM      7  C   UNL     1       1.040  15.379  14.769  1.00  0.00    -0.013 C 
ATOM      8  C   UNL     1       0.201  14.129  14.525  1.00  0.00     0.025 C 
ATOM      9  C   UNL     1       1.180  13.021  14.351  1.00  0.00    -0.073 C 
ATOM     10  C   UNL     1       2.433  13.444  14.364  1.00  0.00    -0.027 C 
ATOM     11  C   UNL     1       2.511  14.917  14.553  1.00  0.00     0.035 C 
ATOM     12  C   UNL     1       0.791  11.587  14.171  1.00  0.00     0.039 C 
ENDROOT
BRANCH   5  13
ATOM     13  C   UNL     1       0.307  13.911  18.278  1.00  0.00    -0.014 C 
ATOM     14  C   UNL     1      -1.125  14.404  18.546  1.00  0.00     0.007 C 
ATOM     15  C   UNL     1       0.265  12.418  17.907  1.00  0.00     0.007 C 
ENDBRANCH   5  13
TORSDOF 1
ENDMDL
MODEL 8
REMARK VINA RESULT:    -4.524      1.535      2.849
REMARK INTER + INTRA:          -5.315
REMARK INTER:                  -4.790
REMARK INTRA:                  -0.526
REMARK UNBOUND:                -0.527
REMARK SMILES CC1=CC[C@@]23[C@H]([C@H](C(C)C)CC[C@H]2C)[C@H]13
REMARK SMILES IDX 14 1 13 2 12 3 11 4 7 5 6 6 5 7 15 8 2 9 3 10 4 11 1 12 8 13
REMARK SMILES IDX 9 14 10 15
REMARK H PARENT
REMARK Flexibility Score: inf
ROOT
ATOM      1  C   UNL     1       1.131  11.253  14.123  1.00  0.00     0.008 C 
ATOM      2  C   UNL     1       1.265  12.521  14.973  1.00  0.00    -0.007 C 
ATOM      3  C   UNL     1       0.002  12.733  15.862  1.00  0.00     0.004 C 
ATOM      4  C   UNL     1      -0.031  14.100  16.616  1.00  0.00     0.004 C 
ATOM      5  C   UNL     1       0.497  15.321  15.791  1.00  0.00    -0.004 C 
ATOM      6  C   UNL     1       1.823  14.846  15.183  1.00  0.00     0.007 C 
ATOM      7  C   UNL     1       1.440  13.779  14.095  1.00  0.00    -0.013 C 
ATOM      8  C   UNL     1       2.501  14.846  13.848  1.00  0.00     0.025 C 
ATOM      9  C   UNL     1       1.918  15.757  12.825  1.00  0.00    -0.073 C 
ATOM     10  C   UNL     1       0.744  15.338  12.383  1.00  0.00    -0.027 C 
ATOM     11  C   UNL     1       0.334  14.068  13.039  1.00  0.00     0.035 C 
ATOM     12  C   UNL     1       2.588  17.004  12.342  1.00  0.00     0.039 C 
ENDROOT
BRANCH   5  13
ATOM     13  C   UNL     1       0.739  16.570  16.688  1.00  0.00    -0.014 C 
ATOM     14  C   UNL     1       1.860  16.307  17.709  1.00  0.00     0.007 C 
ATOM     15  C   UNL     1       1.099  17.810  15.853  1.00  0.00     0.007 C 
ENDBRANCH   5  13
TORSDOF 1
ENDMDL
MODEL 9
REMARK VINA RESULT:    -4.397      1.553      3.147
REMARK INTER + INTRA:          -5.181
REMARK INTER:                  -4.822
REMARK INTRA:                  -0.359
REMARK UNBOUND:                -0.527
REMARK SMILES CC1=CC[C@@]23[C@H]([C@H](C(C)C)CC[C@H]2C)[C@H]13
REMARK SMILES IDX 14 1 13 2 12 3 11 4 7 5 6 6 5 7 15 8 2 9 3 10 4 11 1 12 8 13
REMARK SMILES IDX 9 14 10 15
REMARK H PARENT
REMARK Flexibility Score: inf
ROOT
ATOM      1  C   UNL     1       0.371  15.587  17.814  1.00  0.00     0.008 C 
ATOM      2  C   UNL     1       1.242  15.560  16.555  1.00  0.00    -0.007 C 
ATOM      3  C   UNL     1       0.920  16.771  15.627  1.00  0.00     0.004 C 
ATOM      4  C   UNL     1       1.623  16.718  14.233  1.00  0.00     0.004 C 
ATOM      5  C   UNL     1       1.692  15.296  13.583  1.00  0.00    -0.004 C 
ATOM      6  C   UNL     1       2.198  14.373  14.700  1.00  0.00     0.007 C 
ATOM      7  C   UNL     1       1.023  14.269  15.738  1.00  0.00    -0.013 C 
ATOM      8  C   UNL     1       1.835  13.052  15.305  1.00  0.00     0.025 C 
ATOM      9  C   UNL     1       0.898  12.211  14.511  1.00  0.00    -0.073 C 
ATOM     10  C   UNL     1      -0.331  12.697  14.494  1.00  0.00    -0.027 C 
ATOM     11  C   UNL     1      -0.432  13.957  15.278  1.00  0.00     0.035 C 
ATOM     12  C   UNL     1       1.299  10.949  13.815  1.00  0.00     0.039 C 
ENDROOT
BRANCH   5  13
ATOM     13  C   UNL     1       2.671  15.255  12.374  1.00  0.00    -0.014 C 
ATOM     14  C   UNL     1       3.051  16.675  11.923  1.00  0.00     0.007 C 
ATOM     15  C   UNL     1       3.953  14.472  12.706  1.00  0.00     0.007 C 
ENDBRANCH   5  13
TORSDOF 1
ENDMDL
