MODEL 1
REMARK VINA RESULT:    -5.112      0.000      0.000
REMARK INTER + INTRA:          -5.753
REMARK INTER:                  -5.560
REMARK INTRA:                  -0.193
REMARK UNBOUND:                -0.193
REMARK SMILES Cc1ccc(C(C)C)c(O)c1
REMARK SMILES IDX 1 1 2 2 11 3 9 4 5 5 4 6 3 7 10 8 6 10 7 11 8 12
REMARK H PARENT 10 9
REMARK Flexibility Score: inf
ROOT
ATOM      1  C   UNL     1      -6.560  -1.932  10.873  1.00  0.00     0.044 C 
ATOM      2  C   UNL     1      -5.133  -2.093  11.306  1.00  0.00    -0.047 A 
ATOM      3  C   UNL     1      -4.470  -3.311  11.115  1.00  0.00     0.049 A 
ATOM      4  C   UNL     1      -3.147  -3.482  11.550  1.00  0.00     0.119 A 
ATOM      5  C   UNL     1      -2.473  -2.421  12.201  1.00  0.00    -0.004 A 
ATOM      6  C   UNL     1      -3.158  -1.208  12.403  1.00  0.00     0.008 A 
ATOM      7  C   UNL     1      -4.475  -1.048  11.967  1.00  0.00     0.004 A 
ENDROOT
BRANCH   4   8
ATOM      8  O   UNL     1      -2.512  -4.705  11.338  1.00  0.00    -0.508 OA
ATOM      9  H   UNL     1      -2.718  -5.519  11.905  1.00  0.00     0.293 HD
ENDBRANCH   4   8
BRANCH   5  10
ATOM     10  C   UNL     1      -1.038  -2.545  12.694  1.00  0.00     0.017 C 
ATOM     11  C   UNL     1      -0.026  -2.187  11.599  1.00  0.00     0.012 C 
ATOM     12  C   UNL     1      -0.801  -1.726  13.970  1.00  0.00     0.012 C 
ENDBRANCH   5  10
TORSDOF 2
ENDMDL
MODEL 2
REMARK VINA RESULT:    -5.085      2.691      4.564
REMARK INTER + INTRA:          -5.724
REMARK INTER:                  -5.540
REMARK INTRA:                  -0.184
REMARK UNBOUND:                -0.193
REMARK SMILES Cc1ccc(C(C)C)c(O)c1
REMARK SMILES IDX 1 1 2 2 11 3 9 4 5 5 4 6 3 7 10 8 6 10 7 11 8 12
REMARK H PARENT 10 9
REMARK Flexibility Score: inf
ROOT
ATOM      1  C   UNL     1      -3.097  -3.725  11.614  1.00  0.00     0.044 C 
ATOM      2  C   UNL     1      -3.747  -2.448  12.056  1.00  0.00    -0.047 A 
ATOM      3  C   UNL     1      -3.430  -1.888  13.299  1.00  0.00     0.049 A 
ATOM      4  C   UNL     1      -4.060  -0.713  13.736  1.00  0.00     0.119 A 
ATOM      5  C   UNL     1      -5.036  -0.088  12.924  1.00  0.00    -0.004 A 
ATOM      6  C   UNL     1      -5.359  -0.673  11.685  1.00  0.00     0.008 A 
ATOM      7  C   UNL     1      -4.726  -1.843  11.258  1.00  0.00     0.004 A 
ENDROOT
BRANCH   4   8
ATOM      8  O   UNL     1      -3.716  -0.175  14.976  1.00  0.00    -0.508 OA
ATOM      9  H   UNL     1      -4.282  -0.334  15.802  1.00  0.00     0.293 HD
ENDBRANCH   4   8
BRANCH   5  10
ATOM     10  C   UNL     1      -5.754   1.188  13.343  1.00  0.00     0.017 C 
ATOM     11  C   UNL     1      -4.932   2.439  13.007  1.00  0.00     0.012 C 
ATOM     12  C   UNL     1      -7.168   1.266  12.753  1.00  0.00     0.012 C 
ENDBRANCH   5  10
TORSDOF 2
ENDMDL
MODEL 3
REMARK VINA RESULT:    -5.071     17.568     18.302
REMARK INTER + INTRA:          -5.708
REMARK INTER:                  -5.514
REMARK INTRA:                  -0.195
REMARK UNBOUND:                -0.193
REMARK SMILES Cc1ccc(C(C)C)c(O)c1
REMARK SMILES IDX 1 1 2 2 11 3 9 4 5 5 4 6 3 7 10 8 6 10 7 11 8 12
REMARK H PARENT 10 9
REMARK Flexibility Score: inf
ROOT
ATOM      1  C   UNL     1     -15.780  -9.145  22.870  1.00  0.00     0.044 C 
ATOM      2  C   UNL     1     -15.028 -10.437  22.745  1.00  0.00    -0.047 A 
ATOM      3  C   UNL     1     -14.690 -11.170  23.889  1.00  0.00     0.049 A 
ATOM      4  C   UNL     1     -13.955 -12.361  23.784  1.00  0.00     0.119 A 
ATOM      5  C   UNL     1     -13.537 -12.826  22.515  1.00  0.00    -0.004 A 
ATOM      6  C   UNL     1     -13.868 -12.069  21.375  1.00  0.00     0.008 A 
ATOM      7  C   UNL     1     -14.599 -10.885  21.489  1.00  0.00     0.004 A 
ENDROOT
BRANCH   4   8
ATOM      8  O   UNL     1     -13.641 -13.073  24.942  1.00  0.00    -0.508 OA
ATOM      9  H   UNL     1     -13.530 -12.612  25.838  1.00  0.00     0.293 HD
ENDBRANCH   4   8
BRANCH   5  10
ATOM     10  C   UNL     1     -12.739 -14.111  22.336  1.00  0.00     0.017 C 
ATOM     11  C   UNL     1     -13.110 -14.836  21.037  1.00  0.00     0.012 C 
ATOM     12  C   UNL     1     -11.229 -13.861  22.431  1.00  0.00     0.012 C 
ENDBRANCH   5  10
TORSDOF 2
ENDMDL
MODEL 4
REMARK VINA RESULT:    -5.070      1.854      2.041
REMARK INTER + INTRA:          -5.708
REMARK INTER:                  -5.519
REMARK INTRA:                  -0.189
REMARK UNBOUND:                -0.193
REMARK SMILES Cc1ccc(C(C)C)c(O)c1
REMARK SMILES IDX 1 1 2 2 11 3 9 4 5 5 4 6 3 7 10 8 6 10 7 11 8 12
REMARK H PARENT 10 9
REMARK Flexibility Score: inf
ROOT
ATOM      1  C   UNL     1      -5.159  -2.790   7.823  1.00  0.00     0.044 C 
ATOM      2  C   UNL     1      -4.136  -2.812   8.919  1.00  0.00    -0.047 A 
ATOM      3  C   UNL     1      -4.293  -3.669  10.015  1.00  0.00     0.049 A 
ATOM      4  C   UNL     1      -3.360  -3.670  11.063  1.00  0.00     0.119 A 
ATOM      5  C   UNL     1      -2.252  -2.790  11.025  1.00  0.00    -0.004 A 
ATOM      6  C   UNL     1      -2.116  -1.920   9.926  1.00  0.00     0.008 A 
ATOM      7  C   UNL     1      -3.051  -1.927   8.889  1.00  0.00     0.004 A 
ENDROOT
BRANCH   4   8
ATOM      8  O   UNL     1      -3.541  -4.541  12.137  1.00  0.00    -0.508 OA
ATOM      9  H   UNL     1      -2.856  -5.252  12.367  1.00  0.00     0.293 HD
ENDBRANCH   4   8
BRANCH   5  10
ATOM     10  C   UNL     1      -1.206  -2.745  12.131  1.00  0.00     0.017 C 
ATOM     11  C   UNL     1       0.182  -2.379  11.587  1.00  0.00     0.012 C 
ATOM     12  C   UNL     1      -1.626  -1.815  13.276  1.00  0.00     0.012 C 
ENDBRANCH   5  10
TORSDOF 2
ENDMDL
MODEL 5
REMARK VINA RESULT:    -5.042      3.401      4.502
REMARK INTER + INTRA:          -5.677
REMARK INTER:                  -5.482
REMARK INTRA:                  -0.195
REMARK UNBOUND:                -0.193
REMARK SMILES Cc1ccc(C(C)C)c(O)c1
REMARK SMILES IDX 1 1 2 2 11 3 9 4 5 5 4 6 3 7 10 8 6 10 7 11 8 12
REMARK H PARENT 10 9
REMARK Flexibility Score: inf
ROOT
ATOM      1  C   UNL     1      -5.646   2.121  12.435  1.00  0.00     0.044 C 
ATOM      2  C   UNL     1      -5.598   0.834  11.667  1.00  0.00    -0.047 A 
ATOM      3  C   UNL     1      -6.704  -0.025  11.660  1.00  0.00     0.049 A 
ATOM      4  C   UNL     1      -6.656  -1.249  10.975  1.00  0.00     0.119 A 
ATOM      5  C   UNL     1      -5.477  -1.632  10.291  1.00  0.00    -0.004 A 
ATOM      6  C   UNL     1      -4.367  -0.767  10.323  1.00  0.00     0.008 A 
ATOM      7  C   UNL     1      -4.424   0.448  11.008  1.00  0.00     0.004 A 
ENDROOT
BRANCH   4   8
ATOM      8  O   UNL     1      -7.777  -2.078  10.980  1.00  0.00    -0.508 OA
ATOM      9  H   UNL     1      -7.887  -2.822  11.658  1.00  0.00     0.293 HD
ENDBRANCH   4   8
BRANCH   5  10
ATOM     10  C   UNL     1      -5.364  -2.945   9.530  1.00  0.00     0.017 C 
ATOM     11  C   UNL     1      -5.506  -2.740   8.016  1.00  0.00     0.012 C 
ATOM     12  C   UNL     1      -4.073  -3.697   9.878  1.00  0.00     0.012 C 
ENDBRANCH   5  10
TORSDOF 2
ENDMDL
MODEL 6
REMARK VINA RESULT:    -5.030      2.704      4.913
REMARK INTER + INTRA:          -5.664
REMARK INTER:                  -5.467
REMARK INTRA:                  -0.197
REMARK UNBOUND:                -0.193
REMARK SMILES Cc1ccc(C(C)C)c(O)c1
REMARK SMILES IDX 1 1 2 2 11 3 9 4 5 5 4 6 3 7 10 8 6 10 7 11 8 12
REMARK H PARENT 10 9
REMARK Flexibility Score: inf
ROOT
ATOM      1  C   UNL     1      -0.186  -1.641  12.134  1.00  0.00     0.044 C 
ATOM      2  C   UNL     1      -1.533  -1.021  12.358  1.00  0.00    -0.047 A 
ATOM      3  C   UNL     1      -2.040  -0.885  13.656  1.00  0.00     0.049 A 
ATOM      4  C   UNL     1      -3.315  -0.340  13.873  1.00  0.00     0.119 A 
ATOM      5  C   UNL     1      -4.108   0.067  12.773  1.00  0.00    -0.004 A 
ATOM      6  C   UNL     1      -3.592  -0.093  11.473  1.00  0.00     0.008 A 
ATOM      7  C   UNL     1      -2.323  -0.637  11.267  1.00  0.00     0.004 A 
ENDROOT
BRANCH   4   8
ATOM      8  O   UNL     1      -3.789  -0.211  15.178  1.00  0.00    -0.508 OA
ATOM      9  H   UNL     1      -4.699  -0.562  15.453  1.00  0.00     0.293 HD
ENDBRANCH   4   8
BRANCH   5  10
ATOM     10  C   UNL     1      -5.497   0.666  12.944  1.00  0.00     0.017 C 
ATOM     11  C   UNL     1      -5.452   2.198  13.013  1.00  0.00     0.012 C 
ATOM     12  C   UNL     1      -6.465   0.179  11.858  1.00  0.00     0.012 C 
ENDBRANCH   5  10
TORSDOF 2
ENDMDL
MODEL 7
REMARK VINA RESULT:    -4.868      3.779      4.680
REMARK INTER + INTRA:          -5.488
REMARK INTER:                  -5.292
REMARK INTRA:                  -0.196
REMARK UNBOUND:                -0.193
REMARK SMILES Cc1ccc(C(C)C)c(O)c1
REMARK SMILES IDX 1 1 2 2 11 3 9 4 5 5 4 6 3 7 10 8 6 10 7 11 8 12
REMARK H PARENT 10 9
REMARK Flexibility Score: inf
ROOT
ATOM      1  C   UNL     1      -6.892   1.348  12.438  1.00  0.00     0.044 C 
ATOM      2  C   UNL     1      -6.282   0.433  11.418  1.00  0.00    -0.047 A 
ATOM      3  C   UNL     1      -6.025   0.894  10.121  1.00  0.00     0.049 A 
ATOM      4  C   UNL     1      -5.488   0.035   9.150  1.00  0.00     0.119 A 
ATOM      5  C   UNL     1      -5.212  -1.315   9.473  1.00  0.00    -0.004 A 
ATOM      6  C   UNL     1      -5.493  -1.769  10.776  1.00  0.00     0.008 A 
ATOM      7  C   UNL     1      -6.028  -0.907  11.735  1.00  0.00     0.004 A 
ENDROOT
BRANCH   4   8
ATOM      8  O   UNL     1      -5.236   0.527   7.870  1.00  0.00    -0.508 OA
ATOM      9  H   UNL     1      -4.307   0.506   7.464  1.00  0.00     0.293 HD
ENDBRANCH   4   8
BRANCH   5  10
ATOM     10  C   UNL     1      -4.629  -2.294   8.463  1.00  0.00     0.017 C 
ATOM     11  C   UNL     1      -3.095  -2.274   8.471  1.00  0.00     0.012 C 
ATOM     12  C   UNL     1      -5.175  -3.714   8.665  1.00  0.00     0.012 C 
ENDBRANCH   5  10
TORSDOF 2
ENDMDL
MODEL 8
REMARK VINA RESULT:    -4.814      2.603      2.899
REMARK INTER + INTRA:          -5.429
REMARK INTER:                  -5.233
REMARK INTRA:                  -0.196
REMARK UNBOUND:                -0.193
REMARK SMILES Cc1ccc(C(C)C)c(O)c1
REMARK SMILES IDX 1 1 2 2 11 3 9 4 5 5 4 6 3 7 10 8 6 10 7 11 8 12
REMARK H PARENT 10 9
REMARK Flexibility Score: inf
ROOT
ATOM      1  C   UNL     1      -4.841  -3.050   7.816  1.00  0.00     0.044 C 
ATOM      2  C   UNL     1      -3.885  -2.441   8.798  1.00  0.00    -0.047 A 
ATOM      3  C   UNL     1      -2.561  -2.179   8.425  1.00  0.00     0.049 A 
ATOM      4  C   UNL     1      -1.650  -1.643   9.348  1.00  0.00     0.119 A 
ATOM      5  C   UNL     1      -2.062  -1.374  10.675  1.00  0.00    -0.004 A 
ATOM      6  C   UNL     1      -3.391  -1.660  11.041  1.00  0.00     0.008 A 
ATOM      7  C   UNL     1      -4.290  -2.193  10.116  1.00  0.00     0.004 A 
ENDROOT
BRANCH   4   8
ATOM      8  O   UNL     1      -0.340  -1.386   8.944  1.00  0.00    -0.508 OA
ATOM      9  H   UNL     1      -0.080  -1.359   7.964  1.00  0.00     0.293 HD
ENDBRANCH   4   8
BRANCH   5  10
ATOM     10  C   UNL     1      -1.121  -0.792  11.721  1.00  0.00     0.017 C 
ATOM     11  C   UNL     1      -1.830   0.226  12.623  1.00  0.00     0.012 C 
ATOM     12  C   UNL     1      -0.433  -1.890  12.543  1.00  0.00     0.012 C 
ENDBRANCH   5  10
TORSDOF 2
ENDMDL
MODEL 9
REMARK VINA RESULT:    -4.794      3.242      5.380
REMARK INTER + INTRA:          -5.407
REMARK INTER:                  -5.211
REMARK INTRA:                  -0.196
REMARK UNBOUND:                -0.193
REMARK SMILES Cc1ccc(C(C)C)c(O)c1
REMARK SMILES IDX 1 1 2 2 11 3 9 4 5 5 4 6 3 7 10 8 6 10 7 11 8 12
REMARK H PARENT 10 9
REMARK Flexibility Score: inf
ROOT
ATOM      1  C   UNL     1      -0.165  -1.227  12.371  1.00  0.00     0.044 C 
ATOM      2  C   UNL     1      -1.434  -0.472  12.110  1.00  0.00    -0.047 A 
ATOM      3  C   UNL     1      -1.445   0.927  12.157  1.00  0.00     0.049 A 
ATOM      4  C   UNL     1      -2.636   1.641  11.950  1.00  0.00     0.119 A 
ATOM      5  C   UNL     1      -3.844   0.947  11.702  1.00  0.00    -0.004 A 
ATOM      6  C   UNL     1      -3.821  -0.461  11.675  1.00  0.00     0.008 A 
ATOM      7  C   UNL     1      -2.631  -1.162  11.883  1.00  0.00     0.004 A 
ENDROOT
BRANCH   4   8
ATOM      8  O   UNL     1      -2.612   3.035  11.996  1.00  0.00    -0.508 OA
ATOM      9  H   UNL     1      -2.766   3.598  11.168  1.00  0.00     0.293 HD
ENDBRANCH   4   8
BRANCH   5  10
ATOM     10  C   UNL     1      -5.166   1.665  11.468  1.00  0.00     0.017 C 
ATOM     11  C   UNL     1      -5.966   1.027  10.325  1.00  0.00     0.012 C 
ATOM     12  C   UNL     1      -5.998   1.759  12.753  1.00  0.00     0.012 C 
ENDBRANCH   5  10
TORSDOF 2
ENDMDL
