MODEL 1
REMARK VINA RESULT:    -4.150      0.000      0.000
REMARK INTER + INTRA:          -5.079
REMARK INTER:                  -4.999
REMARK INTRA:                  -0.081
REMARK UNBOUND:                -0.081
REMARK SMILES CC[C@@H](C)[C@@H]([NH3+])C(=O)[O-]
REMARK SMILES IDX 3 1 4 2 5 3 6 4 7 8 8 9 9 10 2 11 1 12
REMARK H PARENT 6 5 6 6 6 7
REMARK Flexibility Score: inf
ROOT
ATOM      1  C   UNL     1      49.589  16.682  95.573  1.00  0.00     0.050 C 
ATOM      2  C   UNL     1      50.651  16.889  94.477  1.00  0.00     0.014 C 
ENDROOT
BRANCH   1   3
ATOM      3  C   UNL     1      49.091  15.203  95.665  1.00  0.00     0.230 C 
BRANCH   3   4
ATOM      4  N   UNL     1      49.544  14.548  96.901  1.00  0.00    -0.350 N 
ATOM      5  H   UNL     1      50.134  13.718  96.659  1.00  0.00     0.345 HD
ATOM      6  H   UNL     1      50.129  15.209  97.463  1.00  0.00     0.345 HD
ATOM      7  H   UNL     1      48.739  14.220  97.482  1.00  0.00     0.345 HD
ENDBRANCH   3   4
BRANCH   3   8
ATOM      8  C   UNL     1      47.593  15.082  95.520  1.00  0.00     0.099 C 
ATOM      9  O   UNL     1      46.938  16.006  94.970  1.00  0.00    -0.544 OA
ATOM     10  O   UNL     1      46.920  13.969  96.010  1.00  0.00    -0.544 OA
ENDBRANCH   3   8
ENDBRANCH   1   3
BRANCH   1  11
ATOM     11  C   UNL     1      50.129  17.224  96.921  1.00  0.00     0.006 C 
ATOM     12  C   UNL     1      50.900  18.538  96.781  1.00  0.00     0.004 C 
ENDBRANCH   1  11
TORSDOF 4
ENDMDL
MODEL 2
REMARK VINA RESULT:    -3.978      2.279      4.174
REMARK INTER + INTRA:          -4.873
REMARK INTER:                  -4.805
REMARK INTRA:                  -0.068
REMARK UNBOUND:                -0.081
REMARK SMILES CC[C@@H](C)[C@@H]([NH3+])C(=O)[O-]
REMARK SMILES IDX 3 1 4 2 5 3 6 4 7 8 8 9 9 10 2 11 1 12
REMARK H PARENT 6 5 6 6 6 7
REMARK Flexibility Score: inf
ROOT
ATOM      1  C   UNL     1      47.775  14.115  95.072  1.00  0.00     0.050 C 
ATOM      2  C   UNL     1      47.183  14.660  93.760  1.00  0.00     0.014 C 
ENDROOT
BRANCH   1   3
ATOM      3  C   UNL     1      48.607  15.184  95.853  1.00  0.00     0.230 C 
BRANCH   3   4
ATOM      4  N   UNL     1      49.418  14.576  96.918  1.00  0.00    -0.350 N 
ATOM      5  H   UNL     1      50.434  14.718  96.706  1.00  0.00     0.345 HD
ATOM      6  H   UNL     1      49.211  15.036  97.834  1.00  0.00     0.345 HD
ATOM      7  H   UNL     1      49.241  13.549  97.000  1.00  0.00     0.345 HD
ENDBRANCH   3   4
BRANCH   3   8
ATOM      8  C   UNL     1      49.471  16.027  94.946  1.00  0.00     0.099 C 
ATOM      9  O   UNL     1      50.492  15.527  94.405  1.00  0.00    -0.544 OA
ATOM     10  O   UNL     1      49.166  17.364  94.716  1.00  0.00    -0.544 OA
ENDBRANCH   3   8
ENDBRANCH   1   3
BRANCH   1  11
ATOM     11  C   UNL     1      46.644  13.486  95.925  1.00  0.00     0.006 C 
ATOM     12  C   UNL     1      46.059  12.212  95.313  1.00  0.00     0.004 C 
ENDBRANCH   1  11
TORSDOF 4
ENDMDL
MODEL 3
REMARK VINA RESULT:    -3.950     10.786     11.706
REMARK INTER + INTRA:          -4.839
REMARK INTER:                  -4.739
REMARK INTRA:                  -0.099
REMARK UNBOUND:                -0.081
REMARK SMILES CC[C@@H](C)[C@@H]([NH3+])C(=O)[O-]
REMARK SMILES IDX 3 1 4 2 5 3 6 4 7 8 8 9 9 10 2 11 1 12
REMARK H PARENT 6 5 6 6 6 7
REMARK Flexibility Score: inf
ROOT
ATOM      1  C   UNL     1      58.052  10.993  89.097  1.00  0.00     0.050 C 
ATOM      2  C   UNL     1      57.715   9.912  90.140  1.00  0.00     0.014 C 
ENDROOT
BRANCH   1   3
ATOM      3  C   UNL     1      57.138  12.256  89.213  1.00  0.00     0.230 C 
BRANCH   3   4
ATOM      4  N   UNL     1      55.894  12.104  88.444  1.00  0.00    -0.350 N 
ATOM      5  H   UNL     1      55.075  12.311  89.062  1.00  0.00     0.345 HD
ATOM      6  H   UNL     1      55.879  12.783  87.648  1.00  0.00     0.345 HD
ATOM      7  H   UNL     1      55.786  11.133  88.071  1.00  0.00     0.345 HD
ENDBRANCH   3   4
BRANCH   3   8
ATOM      8  C   UNL     1      56.833  12.625  90.645  1.00  0.00     0.099 C 
ATOM      9  O   UNL     1      55.670  12.471  91.101  1.00  0.00    -0.544 OA
ATOM     10  O   UNL     1      57.820  13.159  91.465  1.00  0.00    -0.544 OA
ENDBRANCH   3   8
ENDBRANCH   1   3
BRANCH   1  11
ATOM     11  C   UNL     1      59.563  11.329  89.175  1.00  0.00     0.006 C 
ATOM     12  C   UNL     1      60.300  10.560  90.273  1.00  0.00     0.004 C 
ENDBRANCH   1  11
TORSDOF 4
ENDMDL
MODEL 4
REMARK VINA RESULT:    -3.823     10.399     11.260
REMARK INTER + INTRA:          -4.686
REMARK INTER:                  -4.557
REMARK INTRA:                  -0.129
REMARK UNBOUND:                -0.081
REMARK SMILES CC[C@@H](C)[C@@H]([NH3+])C(=O)[O-]
REMARK SMILES IDX 3 1 4 2 5 3 6 4 7 8 8 9 9 10 2 11 1 12
REMARK H PARENT 6 5 6 6 6 7
REMARK Flexibility Score: inf
ROOT
ATOM      1  C   UNL     1      57.760  11.113  90.084  1.00  0.00     0.050 C 
ATOM      2  C   UNL     1      57.433  11.345  88.597  1.00  0.00     0.014 C 
ENDROOT
BRANCH   1   3
ATOM      3  C   UNL     1      56.482  11.023  90.980  1.00  0.00     0.230 C 
BRANCH   3   4
ATOM      4  N   UNL     1      55.925   9.663  91.005  1.00  0.00    -0.350 N 
ATOM      5  H   UNL     1      56.002   9.237  90.052  1.00  0.00     0.345 HD
ATOM      6  H   UNL     1      56.468   9.066  91.671  1.00  0.00     0.345 HD
ATOM      7  H   UNL     1      54.918   9.662  91.285  1.00  0.00     0.345 HD
ENDBRANCH   3   4
BRANCH   3   8
ATOM      8  C   UNL     1      56.718  11.526  92.384  1.00  0.00     0.099 C 
ATOM      9  O   UNL     1      55.928  11.202  93.309  1.00  0.00    -0.544 OA
ATOM     10  O   UNL     1      57.789  12.366  92.666  1.00  0.00    -0.544 OA
ENDBRANCH   3   8
ENDBRANCH   1   3
BRANCH   1  11
ATOM     11  C   UNL     1      58.683   9.875  90.219  1.00  0.00     0.006 C 
ATOM     12  C   UNL     1      60.119  10.228  90.610  1.00  0.00     0.004 C 
ENDBRANCH   1  11
TORSDOF 4
ENDMDL
MODEL 5
REMARK VINA RESULT:    -3.767     11.501     12.302
REMARK INTER + INTRA:          -4.618
REMARK INTER:                  -4.483
REMARK INTRA:                  -0.135
REMARK UNBOUND:                -0.081
REMARK SMILES CC[C@@H](C)[C@@H]([NH3+])C(=O)[O-]
REMARK SMILES IDX 3 1 4 2 5 3 6 4 7 8 8 9 9 10 2 11 1 12
REMARK H PARENT 6 5 6 6 6 7
REMARK Flexibility Score: inf
ROOT
ATOM      1  C   UNL     1      58.352  12.616  89.741  1.00  0.00     0.050 C 
ATOM      2  C   UNL     1      58.480  14.142  89.899  1.00  0.00     0.014 C 
ENDROOT
BRANCH   1   3
ATOM      3  C   UNL     1      58.917  11.828  90.967  1.00  0.00     0.230 C 
BRANCH   3   4
ATOM      4  N   UNL     1      57.891  11.608  91.997  1.00  0.00    -0.350 N 
ATOM      5  H   UNL     1      58.350  11.300  92.886  1.00  0.00     0.345 HD
ATOM      6  H   UNL     1      57.378  12.500  92.189  1.00  0.00     0.345 HD
ATOM      7  H   UNL     1      57.206  10.872  91.709  1.00  0.00     0.345 HD
ENDBRANCH   3   4
BRANCH   3   8
ATOM      8  C   UNL     1      59.561  10.520  90.573  1.00  0.00     0.099 C 
ATOM      9  O   UNL     1      60.816  10.427  90.521  1.00  0.00    -0.544 OA
ATOM     10  O   UNL     1      58.782   9.417  90.243  1.00  0.00    -0.544 OA
ENDBRANCH   3   8
ENDBRANCH   1   3
BRANCH   1  11
ATOM     11  C   UNL     1      56.880  12.255  89.415  1.00  0.00     0.006 C 
ATOM     12  C   UNL     1      56.726  11.430  88.136  1.00  0.00     0.004 C 
ENDBRANCH   1  11
TORSDOF 4
ENDMDL
MODEL 6
REMARK VINA RESULT:    -3.764     14.316     15.219
REMARK INTER + INTRA:          -4.614
REMARK INTER:                  -4.511
REMARK INTRA:                  -0.103
REMARK UNBOUND:                -0.081
REMARK SMILES CC[C@@H](C)[C@@H]([NH3+])C(=O)[O-]
REMARK SMILES IDX 3 1 4 2 5 3 6 4 7 8 8 9 9 10 2 11 1 12
REMARK H PARENT 6 5 6 6 6 7
REMARK Flexibility Score: inf
ROOT
ATOM      1  C   UNL     1      51.129   3.449 103.797  1.00  0.00     0.050 C 
ATOM      2  C   UNL     1      52.537   3.078 104.298  1.00  0.00     0.014 C 
ENDROOT
BRANCH   1   3
ATOM      3  C   UNL     1      50.037   2.420 104.236  1.00  0.00     0.230 C 
BRANCH   3   4
ATOM      4  N   UNL     1      49.128   2.983 105.245  1.00  0.00    -0.350 N 
ATOM      5  H   UNL     1      49.441   2.686 106.199  1.00  0.00     0.345 HD
ATOM      6  H   UNL     1      49.152   4.028 105.207  1.00  0.00     0.345 HD
ATOM      7  H   UNL     1      48.145   2.655 105.106  1.00  0.00     0.345 HD
ENDBRANCH   3   4
BRANCH   3   8
ATOM      8  C   UNL     1      49.255   1.866 103.069  1.00  0.00     0.099 C 
ATOM      9  O   UNL     1      49.722   1.948 101.903  1.00  0.00    -0.544 OA
ATOM     10  O   UNL     1      48.007   1.285 103.263  1.00  0.00    -0.544 OA
ENDBRANCH   3   8
ENDBRANCH   1   3
BRANCH   1  11
ATOM     11  C   UNL     1      50.799   4.902 104.224  1.00  0.00     0.006 C 
ATOM     12  C   UNL     1      50.877   5.906 103.072  1.00  0.00     0.004 C 
ENDBRANCH   1  11
TORSDOF 4
ENDMDL
MODEL 7
REMARK VINA RESULT:    -3.748      8.637      9.511
REMARK INTER + INTRA:          -4.596
REMARK INTER:                  -4.525
REMARK INTRA:                  -0.070
REMARK UNBOUND:                -0.081
REMARK SMILES CC[C@@H](C)[C@@H]([NH3+])C(=O)[O-]
REMARK SMILES IDX 3 1 4 2 5 3 6 4 7 8 8 9 9 10 2 11 1 12
REMARK H PARENT 6 5 6 6 6 7
REMARK Flexibility Score: inf
ROOT
ATOM      1  C   UNL     1      54.618   8.877  94.286  1.00  0.00     0.050 C 
ATOM      2  C   UNL     1      54.465   9.228  92.794  1.00  0.00     0.014 C 
ENDROOT
BRANCH   1   3
ATOM      3  C   UNL     1      54.518  10.128  95.218  1.00  0.00     0.230 C 
BRANCH   3   4
ATOM      4  N   UNL     1      53.798   9.827  96.464  1.00  0.00    -0.350 N 
ATOM      5  H   UNL     1      53.340   8.889  96.383  1.00  0.00     0.345 HD
ATOM      6  H   UNL     1      54.469   9.791  97.266  1.00  0.00     0.345 HD
ATOM      7  H   UNL     1      53.059  10.537  96.665  1.00  0.00     0.345 HD
ENDBRANCH   3   4
BRANCH   3   8
ATOM      8  C   UNL     1      55.865  10.741  95.519  1.00  0.00     0.099 C 
ATOM      9  O   UNL     1      56.407  11.511  94.683  1.00  0.00    -0.544 OA
ATOM     10  O   UNL     1      56.531  10.444  96.703  1.00  0.00    -0.544 OA
ENDBRANCH   3   8
ENDBRANCH   1   3
BRANCH   1  11
ATOM     11  C   UNL     1      53.608   7.762  94.657  1.00  0.00     0.006 C 
ATOM     12  C   UNL     1      52.910   7.146  93.443  1.00  0.00     0.004 C 
ENDBRANCH   1  11
TORSDOF 4
ENDMDL
MODEL 8
REMARK VINA RESULT:    -3.716      9.846     10.632
REMARK INTER + INTRA:          -4.557
REMARK INTER:                  -4.490
REMARK INTRA:                  -0.067
REMARK UNBOUND:                -0.081
REMARK SMILES CC[C@@H](C)[C@@H]([NH3+])C(=O)[O-]
REMARK SMILES IDX 3 1 4 2 5 3 6 4 7 8 8 9 9 10 2 11 1 12
REMARK H PARENT 6 5 6 6 6 7
REMARK Flexibility Score: inf
ROOT
ATOM      1  C   UNL     1      54.494   7.239  95.453  1.00  0.00     0.050 C 
ATOM      2  C   UNL     1      55.190   8.546  95.874  1.00  0.00     0.014 C 
ENDROOT
BRANCH   1   3
ATOM      3  C   UNL     1      53.635   6.612  96.600  1.00  0.00     0.230 C 
BRANCH   3   4
ATOM      4  N   UNL     1      52.531   7.495  97.002  1.00  0.00    -0.350 N 
ATOM      5  H   UNL     1      52.785   8.488  96.792  1.00  0.00     0.345 HD
ATOM      6  H   UNL     1      51.668   7.259  96.460  1.00  0.00     0.345 HD
ATOM      7  H   UNL     1      52.327   7.418  98.024  1.00  0.00     0.345 HD
ENDBRANCH   3   4
BRANCH   3   8
ATOM      8  C   UNL     1      53.116   5.237  96.253  1.00  0.00     0.099 C 
ATOM      9  O   UNL     1      53.866   4.233  96.369  1.00  0.00    -0.544 OA
ATOM     10  O   UNL     1      51.819   5.067  95.782  1.00  0.00    -0.544 OA
ENDBRANCH   3   8
ENDBRANCH   1   3
BRANCH   1  11
ATOM     11  C   UNL     1      53.685   7.483  94.154  1.00  0.00     0.006 C 
ATOM     12  C   UNL     1      54.278   8.579  93.267  1.00  0.00     0.004 C 
ENDBRANCH   1  11
TORSDOF 4
ENDMDL
MODEL 9
REMARK VINA RESULT:    -3.675     20.250     20.729
REMARK INTER + INTRA:          -4.508
REMARK INTER:                  -4.496
REMARK INTRA:                  -0.012
REMARK UNBOUND:                -0.081
REMARK SMILES CC[C@@H](C)[C@@H]([NH3+])C(=O)[O-]
REMARK SMILES IDX 3 1 4 2 5 3 6 4 7 8 8 9 9 10 2 11 1 12
REMARK H PARENT 6 5 6 6 6 7
REMARK Flexibility Score: inf
ROOT
ATOM      1  C   UNL     1      62.910   4.174 106.053  1.00  0.00     0.050 C 
ATOM      2  C   UNL     1      62.744   5.477 105.249  1.00  0.00     0.014 C 
ENDROOT
BRANCH   1   3
ATOM      3  C   UNL     1      61.913   3.055 105.608  1.00  0.00     0.230 C 
BRANCH   3   4
ATOM      4  N   UNL     1      62.379   1.718 106.003  1.00  0.00    -0.350 N 
ATOM      5  H   UNL     1      61.572   1.052 105.999  1.00  0.00     0.345 HD
ATOM      6  H   UNL     1      63.090   1.369 105.319  1.00  0.00     0.345 HD
ATOM      7  H   UNL     1      62.796   1.722 106.962  1.00  0.00     0.345 HD
ENDBRANCH   3   4
BRANCH   3   8
ATOM      8  C   UNL     1      60.508   3.295 106.106  1.00  0.00     0.099 C 
ATOM      9  O   UNL     1      60.089   2.686 107.125  1.00  0.00    -0.544 OA
ATOM     10  O   UNL     1      59.657   4.166 105.435  1.00  0.00    -0.544 OA
ENDBRANCH   3   8
ENDBRANCH   1   3
BRANCH   1  11
ATOM     11  C   UNL     1      64.392   3.722 105.998  1.00  0.00     0.006 C 
ATOM     12  C   UNL     1      65.371   4.877 105.775  1.00  0.00     0.004 C 
ENDBRANCH   1  11
TORSDOF 4
ENDMDL
