MODEL 1
REMARK VINA RESULT:    -2.487      0.000      0.000
REMARK INTER + INTRA:          -3.412
REMARK INTER:                  -3.360
REMARK INTRA:                  -0.052
REMARK UNBOUND:                -0.052
REMARK SMILES CCCCCCC=CC(=O)[O-]
REMARK SMILES IDX 5 1 6 2 7 3 8 4 9 5 10 6 11 7 4 8 3 9 2 10 1 11
REMARK H PARENT
REMARK Flexibility Score: inf
ROOT
ATOM      1  C   UNL     1       5.937  39.095  15.172  1.00  0.00     0.004 C 
ENDROOT
BRANCH   1   2
ATOM      2  C   UNL     1       7.012  39.773  16.037  1.00  0.00     0.027 C 
BRANCH   2   3
ATOM      3  C   UNL     1       7.952  40.590  15.193  1.00  0.00    -0.025 C 
ATOM      4  C   UNL     1       9.203  40.245  14.846  1.00  0.00     0.020 C 
BRANCH   4   5
ATOM      5  C   UNL     1       9.892  38.980  15.179  1.00  0.00     0.064 C 
ATOM      6  O   UNL     1       9.310  37.889  14.943  1.00  0.00    -0.545 OA
ATOM      7  O   UNL     1      11.148  38.954  15.772  1.00  0.00    -0.545 OA
ENDBRANCH   4   5
ENDBRANCH   2   3
ENDBRANCH   1   2
BRANCH   1   8
ATOM      8  C   UNL     1       4.521  39.257  15.752  1.00  0.00     0.000 C 
BRANCH   8   9
ATOM      9  C   UNL     1       3.742  37.936  15.893  1.00  0.00    -0.000 C 
BRANCH   9  10
ATOM     10  C   UNL     1       2.412  37.947  15.123  1.00  0.00    -0.003 C 
ATOM     11  C   UNL     1       1.224  37.875  16.079  1.00  0.00     0.004 C 
ENDBRANCH   9  10
ENDBRANCH   8   9
ENDBRANCH   1   8
TORSDOF 6
ENDMDL
MODEL 2
REMARK VINA RESULT:    -1.053      1.988      2.483
REMARK INTER + INTRA:          -1.474
REMARK INTER:                  -2.494
REMARK INTRA:                   1.020
REMARK UNBOUND:                -0.052
REMARK SMILES CCCCCCC=CC(=O)[O-]
REMARK SMILES IDX 5 1 6 2 7 3 8 4 9 5 10 6 11 7 4 8 3 9 2 10 1 11
REMARK H PARENT
REMARK Flexibility Score: inf
ROOT
ATOM      1  C   UNL     1       7.409  37.948  15.279  1.00  0.00     0.004 C 
ENDROOT
BRANCH   1   2
ATOM      2  C   UNL     1       8.690  38.021  16.125  1.00  0.00     0.027 C 
BRANCH   2   3
ATOM      3  C   UNL     1       9.567  39.161  15.683  1.00  0.00    -0.025 C 
ATOM      4  C   UNL     1       9.147  40.315  15.139  1.00  0.00     0.020 C 
BRANCH   4   5
ATOM      5  C   UNL     1       7.744  40.721  14.908  1.00  0.00     0.064 C 
ATOM      6  O   UNL     1       7.252  40.583  13.758  1.00  0.00    -0.545 OA
ATOM      7  O   UNL     1       6.959  41.277  15.910  1.00  0.00    -0.545 OA
ENDBRANCH   4   5
ENDBRANCH   2   3
ENDBRANCH   1   2
BRANCH   1   8
ATOM      8  C   UNL     1       6.133  38.142  16.118  1.00  0.00     0.000 C 
BRANCH   8   9
ATOM      9  C   UNL     1       4.826  37.877  15.349  1.00  0.00    -0.000 C 
BRANCH   9  10
ATOM     10  C   UNL     1       3.683  38.807  15.784  1.00  0.00    -0.003 C 
ATOM     11  C   UNL     1       2.323  38.167  15.518  1.00  0.00     0.004 C 
ENDBRANCH   9  10
ENDBRANCH   8   9
ENDBRANCH   1   8
TORSDOF 6
ENDMDL
MODEL 3
REMARK VINA RESULT:    -0.577      3.267      6.043
REMARK INTER + INTRA:          -0.831
REMARK INTER:                  -1.526
REMARK INTRA:                   0.695
REMARK UNBOUND:                -0.052
REMARK SMILES CCCCCCC=CC(=O)[O-]
REMARK SMILES IDX 5 1 6 2 7 3 8 4 9 5 10 6 11 7 4 8 3 9 2 10 1 11
REMARK H PARENT
REMARK Flexibility Score: inf
ROOT
ATOM      1  C   UNL     1       6.955  38.553  15.369  1.00  0.00     0.004 C 
ENDROOT
BRANCH   1   2
ATOM      2  C   UNL     1       5.641  38.257  16.110  1.00  0.00     0.027 C 
BRANCH   2   3
ATOM      3  C   UNL     1       4.743  39.464  16.125  1.00  0.00    -0.025 C 
ATOM      4  C   UNL     1       3.499  39.528  15.623  1.00  0.00     0.020 C 
BRANCH   4   5
ATOM      5  C   UNL     1       2.742  38.421  15.000  1.00  0.00     0.064 C 
ATOM      6  O   UNL     1       3.203  37.876  13.965  1.00  0.00    -0.545 OA
ATOM      7  O   UNL     1       1.524  37.982  15.503  1.00  0.00    -0.545 OA
ENDBRANCH   4   5
ENDBRANCH   2   3
ENDBRANCH   1   2
BRANCH   1   8
ATOM      8  C   UNL     1       8.191  38.030  16.124  1.00  0.00     0.000 C 
BRANCH   8   9
ATOM      9  C   UNL     1       9.508  38.143  15.334  1.00  0.00    -0.000 C 
BRANCH   9  10
ATOM     10  C   UNL     1       9.476  39.267  14.286  1.00  0.00    -0.003 C 
ATOM     11  C   UNL     1       8.786  40.511  14.837  1.00  0.00     0.004 C 
ENDBRANCH   9  10
ENDBRANCH   8   9
ENDBRANCH   1   8
TORSDOF 6
ENDMDL
