MODEL 1
REMARK VINA RESULT:    -5.979      0.000      0.000
REMARK INTER + INTRA:          -8.036
REMARK INTER:                  -7.552
REMARK INTRA:                  -0.485
REMARK UNBOUND:                -0.485
REMARK SMILES CC(C)=CCCC(C)=CCO
REMARK SMILES IDX 7 1 9 2 8 3 6 4 5 5 4 6 1 7 2 8 3 9 10 10 11 11
REMARK H PARENT 11 12
REMARK Flexibility Score: inf
ROOT
ATOM      1  C   UNL     1      -2.060  -4.495   2.492  1.00  0.00    -0.075 C 
ATOM      2  C   UNL     1      -3.364  -4.479   2.137  1.00  0.00    -0.000 C 
ATOM      3  C   UNL     1      -1.452  -5.687   3.192  1.00  0.00     0.039 C 
ENDROOT
BRANCH   1   4
ATOM      4  C   UNL     1      -1.192  -3.297   2.178  1.00  0.00     0.034 C 
BRANCH   4   5
ATOM      5  C   UNL     1       0.292  -3.649   2.319  1.00  0.00     0.032 C 
BRANCH   5   6
ATOM      6  C   UNL     1       0.939  -3.792   0.963  1.00  0.00    -0.028 C 
ATOM      7  C   UNL     1       2.177  -4.902  -0.846  1.00  0.00     0.039 C 
ATOM      8  C   UNL     1       1.619  -4.886   0.554  1.00  0.00    -0.080 C 
ATOM      9  C   UNL     1       1.846  -6.073   1.460  1.00  0.00     0.039 C 
ENDBRANCH   5   6
ENDBRANCH   4   5
ENDBRANCH   1   4
BRANCH   2  10
ATOM     10  C   UNL     1      -4.308  -5.622   2.405  1.00  0.00     0.183 C 
BRANCH  10  11
ATOM     11  O   UNL     1      -5.502  -5.146   2.963  1.00  0.00    -0.392 OA
ATOM     12  H   UNL     1      -6.189  -5.192   2.246  1.00  0.00     0.210 HD
ENDBRANCH  10  11
ENDBRANCH   2  10
TORSDOF 5
ENDMDL
MODEL 2
REMARK VINA RESULT:    -5.966      1.058      1.330
REMARK INTER + INTRA:          -8.020
REMARK INTER:                  -7.750
REMARK INTRA:                  -0.270
REMARK UNBOUND:                -0.485
REMARK SMILES CC(C)=CCCC(C)=CCO
REMARK SMILES IDX 7 1 9 2 8 3 6 4 5 5 4 6 1 7 2 8 3 9 10 10 11 11
REMARK H PARENT 11 12
REMARK Flexibility Score: inf
ROOT
ATOM      1  C   UNL     1      -2.536  -3.263   2.688  1.00  0.00    -0.075 C 
ATOM      2  C   UNL     1      -3.023  -4.404   2.152  1.00  0.00    -0.000 C 
ATOM      3  C   UNL     1      -3.279  -2.529   3.780  1.00  0.00     0.039 C 
ENDROOT
BRANCH   1   4
ATOM      4  C   UNL     1      -1.219  -2.712   2.188  1.00  0.00     0.034 C 
BRANCH   4   5
ATOM      5  C   UNL     1      -0.113  -3.767   2.292  1.00  0.00     0.032 C 
BRANCH   5   6
ATOM      6  C   UNL     1       0.724  -3.791   1.037  1.00  0.00    -0.028 C 
ATOM      7  C   UNL     1       2.296  -4.704  -0.616  1.00  0.00     0.039 C 
ATOM      8  C   UNL     1       1.553  -4.801   0.692  1.00  0.00    -0.080 C 
ATOM      9  C   UNL     1       1.764  -6.004   1.581  1.00  0.00     0.039 C 
ENDBRANCH   5   6
ENDBRANCH   4   5
ENDBRANCH   1   4
BRANCH   2  10
ATOM     10  C   UNL     1      -4.323  -5.030   2.582  1.00  0.00     0.183 C 
BRANCH  10  11
ATOM     11  O   UNL     1      -4.910  -5.718   1.511  1.00  0.00    -0.392 OA
ATOM     12  H   UNL     1      -4.536  -5.323   0.680  1.00  0.00     0.210 HD
ENDBRANCH  10  11
ENDBRANCH   2  10
TORSDOF 5
ENDMDL
MODEL 3
REMARK VINA RESULT:    -5.956      2.846      5.476
REMARK INTER + INTRA:          -8.007
REMARK INTER:                  -7.678
REMARK INTRA:                  -0.329
REMARK UNBOUND:                -0.485
REMARK SMILES CC(C)=CCCC(C)=CCO
REMARK SMILES IDX 7 1 9 2 8 3 6 4 5 5 4 6 1 7 2 8 3 9 10 10 11 11
REMARK H PARENT 11 12
REMARK Flexibility Score: inf
ROOT
ATOM      1  C   UNL     1       1.078  -3.890   1.328  1.00  0.00    -0.075 C 
ATOM      2  C   UNL     1       1.176  -4.248   0.028  1.00  0.00    -0.000 C 
ATOM      3  C   UNL     1       2.247  -4.038   2.273  1.00  0.00     0.039 C 
ENDROOT
BRANCH   1   4
ATOM      4  C   UNL     1      -0.227  -3.327   1.844  1.00  0.00     0.034 C 
BRANCH   4   5
ATOM      5  C   UNL     1      -0.738  -4.142   3.037  1.00  0.00     0.032 C 
BRANCH   5   6
ATOM      6  C   UNL     1      -2.051  -4.807   2.707  1.00  0.00    -0.028 C 
ATOM      7  C   UNL     1      -4.492  -5.066   2.605  1.00  0.00     0.039 C 
ATOM      8  C   UNL     1      -3.263  -4.309   3.038  1.00  0.00    -0.080 C 
ATOM      9  C   UNL     1      -3.416  -3.036   3.836  1.00  0.00     0.039 C 
ENDBRANCH   5   6
ENDBRANCH   4   5
ENDBRANCH   1   4
BRANCH   2  10
ATOM     10  C   UNL     1       2.431  -4.819  -0.580  1.00  0.00     0.183 C 
BRANCH  10  11
ATOM     11  O   UNL     1       2.341  -6.215  -0.663  1.00  0.00    -0.392 OA
ATOM     12  H   UNL     1       2.839  -6.579   0.115  1.00  0.00     0.210 HD
ENDBRANCH  10  11
ENDBRANCH   2  10
TORSDOF 5
ENDMDL
MODEL 4
REMARK VINA RESULT:    -5.759      2.397      2.941
REMARK INTER + INTRA:          -7.759
REMARK INTER:                  -7.464
REMARK INTRA:                  -0.295
REMARK UNBOUND:                -0.485
REMARK SMILES CC(C)=CCCC(C)=CCO
REMARK SMILES IDX 7 1 9 2 8 3 6 4 5 5 4 6 1 7 2 8 3 9 10 10 11 11
REMARK H PARENT 11 12
REMARK Flexibility Score: inf
ROOT
ATOM      1  C   UNL     1      -2.236  -2.942   2.643  1.00  0.00    -0.075 C 
ATOM      2  C   UNL     1      -1.975  -1.684   2.224  1.00  0.00    -0.000 C 
ATOM      3  C   UNL     1      -3.368  -3.232   3.599  1.00  0.00     0.039 C 
ENDROOT
BRANCH   1   4
ATOM      4  C   UNL     1      -1.380  -4.083   2.140  1.00  0.00     0.034 C 
BRANCH   4   5
ATOM      5  C   UNL     1       0.109  -3.742   2.264  1.00  0.00     0.032 C 
BRANCH   5   6
ATOM      6  C   UNL     1       0.796  -3.849   0.925  1.00  0.00    -0.028 C 
ATOM      7  C   UNL     1       2.163  -4.877  -0.839  1.00  0.00     0.039 C 
ATOM      8  C   UNL     1       1.574  -4.888   0.548  1.00  0.00    -0.080 C 
ATOM      9  C   UNL     1       1.878  -6.040   1.477  1.00  0.00     0.039 C 
ENDBRANCH   5   6
ENDBRANCH   4   5
ENDBRANCH   1   4
BRANCH   2  10
ATOM     10  C   UNL     1      -2.770  -0.484   2.667  1.00  0.00     0.183 C 
BRANCH  10  11
ATOM     11  O   UNL     1      -2.497   0.613   1.838  1.00  0.00    -0.392 OA
ATOM     12  H   UNL     1      -1.727   1.091   2.244  1.00  0.00     0.210 HD
ENDBRANCH  10  11
ENDBRANCH   2  10
TORSDOF 5
ENDMDL
MODEL 5
REMARK VINA RESULT:    -5.757      2.841      4.995
REMARK INTER + INTRA:          -7.756
REMARK INTER:                  -7.127
REMARK INTRA:                  -0.630
REMARK UNBOUND:                -0.485
REMARK SMILES CC(C)=CCCC(C)=CCO
REMARK SMILES IDX 7 1 9 2 8 3 6 4 5 5 4 6 1 7 2 8 3 9 10 10 11 11
REMARK H PARENT 11 12
REMARK Flexibility Score: inf
ROOT
ATOM      1  C   UNL     1       1.990  -4.792   2.010  1.00  0.00    -0.075 C 
ATOM      2  C   UNL     1       2.270  -4.319   0.776  1.00  0.00    -0.000 C 
ATOM      3  C   UNL     1       1.582  -6.230   2.226  1.00  0.00     0.039 C 
ENDROOT
BRANCH   1   4
ATOM      4  C   UNL     1       2.090  -3.863   3.200  1.00  0.00     0.034 C 
BRANCH   4   5
ATOM      5  C   UNL     1       0.791  -3.877   4.012  1.00  0.00     0.032 C 
BRANCH   5   6
ATOM      6  C   UNL     1      -0.146  -2.792   3.541  1.00  0.00    -0.028 C 
ATOM      7  C   UNL     1      -2.118  -1.832   2.433  1.00  0.00     0.039 C 
ATOM      8  C   UNL     1      -1.253  -3.011   2.796  1.00  0.00    -0.080 C 
ATOM      9  C   UNL     1      -1.632  -4.390   2.310  1.00  0.00     0.039 C 
ENDBRANCH   5   6
ENDBRANCH   4   5
ENDBRANCH   1   4
BRANCH   2  10
ATOM     10  C   UNL     1       2.199  -5.164  -0.469  1.00  0.00     0.183 C 
BRANCH  10  11
ATOM     11  O   UNL     1       1.417  -4.529  -1.444  1.00  0.00    -0.392 OA
ATOM     12  H   UNL     1       0.572  -4.258  -0.999  1.00  0.00     0.210 HD
ENDBRANCH  10  11
ENDBRANCH   2  10
TORSDOF 5
ENDMDL
MODEL 6
REMARK VINA RESULT:    -5.751      3.284      5.693
REMARK INTER + INTRA:          -7.748
REMARK INTER:                  -7.453
REMARK INTRA:                  -0.296
REMARK UNBOUND:                -0.485
REMARK SMILES CC(C)=CCCC(C)=CCO
REMARK SMILES IDX 7 1 9 2 8 3 6 4 5 5 4 6 1 7 2 8 3 9 10 10 11 11
REMARK H PARENT 11 12
REMARK Flexibility Score: inf
ROOT
ATOM      1  C   UNL     1       0.923  -3.864   1.432  1.00  0.00    -0.075 C 
ATOM      2  C   UNL     1       1.091  -4.228   0.141  1.00  0.00    -0.000 C 
ATOM      3  C   UNL     1       2.061  -3.933   2.422  1.00  0.00     0.039 C 
ENDROOT
BRANCH   1   4
ATOM      4  C   UNL     1      -0.432  -3.373   1.892  1.00  0.00     0.034 C 
BRANCH   4   5
ATOM      5  C   UNL     1      -0.522  -3.379   3.422  1.00  0.00     0.032 C 
BRANCH   5   6
ATOM      6  C   UNL     1      -1.031  -2.053   3.933  1.00  0.00    -0.028 C 
ATOM      7  C   UNL     1      -2.678  -0.438   4.781  1.00  0.00     0.039 C 
ATOM      8  C   UNL     1      -2.323  -1.800   4.241  1.00  0.00    -0.080 C 
ATOM      9  C   UNL     1      -3.410  -2.831   4.047  1.00  0.00     0.039 C 
ENDBRANCH   5   6
ENDBRANCH   4   5
ENDBRANCH   1   4
BRANCH   2  10
ATOM     10  C   UNL     1       2.400  -4.729  -0.412  1.00  0.00     0.183 C 
BRANCH  10  11
ATOM     11  O   UNL     1       2.307  -6.093  -0.721  1.00  0.00    -0.392 OA
ATOM     12  H   UNL     1       1.765  -6.511  -0.001  1.00  0.00     0.210 HD
ENDBRANCH  10  11
ENDBRANCH   2  10
TORSDOF 5
ENDMDL
MODEL 7
REMARK VINA RESULT:    -5.717      1.657      2.255
REMARK INTER + INTRA:          -7.705
REMARK INTER:                  -7.002
REMARK INTRA:                  -0.703
REMARK UNBOUND:                -0.485
REMARK SMILES CC(C)=CCCC(C)=CCO
REMARK SMILES IDX 7 1 9 2 8 3 6 4 5 5 4 6 1 7 2 8 3 9 10 10 11 11
REMARK H PARENT 11 12
REMARK Flexibility Score: inf
ROOT
ATOM      1  C   UNL     1      -0.484  -3.542   3.264  1.00  0.00    -0.075 C 
ATOM      2  C   UNL     1      -0.967  -4.705   3.753  1.00  0.00    -0.000 C 
ATOM      3  C   UNL     1      -1.232  -2.763   2.208  1.00  0.00     0.039 C 
ENDROOT
BRANCH   1   4
ATOM      4  C   UNL     1       0.831  -3.007   3.787  1.00  0.00     0.034 C 
BRANCH   4   5
ATOM      5  C   UNL     1       1.979  -3.969   3.459  1.00  0.00     0.032 C 
BRANCH   5   6
ATOM      6  C   UNL     1       2.265  -3.974   1.977  1.00  0.00    -0.028 C 
ATOM      7  C   UNL     1       2.381  -4.888  -0.300  1.00  0.00     0.039 C 
ATOM      8  C   UNL     1       2.090  -5.044   1.170  1.00  0.00    -0.080 C 
ATOM      9  C   UNL     1       1.631  -6.382   1.701  1.00  0.00     0.039 C 
ENDBRANCH   5   6
ENDBRANCH   4   5
ENDBRANCH   1   4
BRANCH   2  10
ATOM     10  C   UNL     1      -2.265  -5.318   3.297  1.00  0.00     0.183 C 
BRANCH  10  11
ATOM     11  O   UNL     1      -2.020  -6.349   2.379  1.00  0.00    -0.392 OA
ATOM     12  H   UNL     1      -2.698  -7.053   2.556  1.00  0.00     0.210 HD
ENDBRANCH  10  11
ENDBRANCH   2  10
TORSDOF 5
ENDMDL
MODEL 8
REMARK VINA RESULT:    -5.554      2.891      4.939
REMARK INTER + INTRA:          -7.499
REMARK INTER:                  -6.880
REMARK INTRA:                  -0.619
REMARK UNBOUND:                -0.485
REMARK SMILES CC(C)=CCCC(C)=CCO
REMARK SMILES IDX 7 1 9 2 8 3 6 4 5 5 4 6 1 7 2 8 3 9 10 10 11 11
REMARK H PARENT 11 12
REMARK Flexibility Score: inf
ROOT
ATOM      1  C   UNL     1       1.820  -4.623   2.340  1.00  0.00    -0.075 C 
ATOM      2  C   UNL     1       1.359  -5.823   2.756  1.00  0.00    -0.000 C 
ATOM      3  C   UNL     1       2.228  -4.392   0.905  1.00  0.00     0.039 C 
ENDROOT
BRANCH   1   4
ATOM      4  C   UNL     1       1.927  -3.486   3.333  1.00  0.00     0.034 C 
BRANCH   4   5
ATOM      5  C   UNL     1       0.670  -3.407   4.207  1.00  0.00     0.032 C 
BRANCH   5   6
ATOM      6  C   UNL     1      -0.291  -2.376   3.668  1.00  0.00    -0.028 C 
ATOM      7  C   UNL     1      -2.341  -1.532   2.608  1.00  0.00     0.039 C 
ATOM      8  C   UNL     1      -1.462  -2.670   3.060  1.00  0.00    -0.080 C 
ATOM      9  C   UNL     1      -1.900  -4.094   2.808  1.00  0.00     0.039 C 
ENDBRANCH   5   6
ENDBRANCH   4   5
ENDBRANCH   1   4
BRANCH   2  10
ATOM     10  C   UNL     1       1.217  -7.014   1.845  1.00  0.00     0.183 C 
BRANCH  10  11
ATOM     11  O   UNL     1       2.026  -8.068   2.291  1.00  0.00    -0.392 OA
ATOM     12  H   UNL     1       2.708  -7.667   2.892  1.00  0.00     0.210 HD
ENDBRANCH  10  11
ENDBRANCH   2  10
TORSDOF 5
ENDMDL
MODEL 9
REMARK VINA RESULT:    -5.504      1.130      2.090
REMARK INTER + INTRA:          -7.436
REMARK INTER:                  -6.863
REMARK INTRA:                  -0.573
REMARK UNBOUND:                -0.485
REMARK SMILES CC(C)=CCCC(C)=CCO
REMARK SMILES IDX 7 1 9 2 8 3 6 4 5 5 4 6 1 7 2 8 3 9 10 10 11 11
REMARK H PARENT 11 12
REMARK Flexibility Score: inf
ROOT
ATOM      1  C   UNL     1      -1.171  -6.087   3.027  1.00  0.00    -0.075 C 
ATOM      2  C   UNL     1      -2.297  -6.099   2.279  1.00  0.00    -0.000 C 
ATOM      3  C   UNL     1      -1.020  -5.152   4.203  1.00  0.00     0.039 C 
ENDROOT
BRANCH   1   4
ATOM      4  C   UNL     1      -0.043  -7.032   2.681  1.00  0.00     0.034 C 
BRANCH   4   5
ATOM      5  C   UNL     1       1.306  -6.305   2.713  1.00  0.00     0.032 C 
BRANCH   5   6
ATOM      6  C   UNL     1       1.842  -6.112   1.316  1.00  0.00    -0.028 C 
ATOM      7  C   UNL     1       2.319  -4.918  -0.778  1.00  0.00     0.039 C 
ATOM      8  C   UNL     1       1.692  -4.981   0.591  1.00  0.00    -0.080 C 
ATOM      9  C   UNL     1       0.905  -3.798   1.105  1.00  0.00     0.039 C 
ENDBRANCH   5   6
ENDBRANCH   4   5
ENDBRANCH   1   4
BRANCH   2  10
ATOM     10  C   UNL     1      -3.474  -5.197   2.543  1.00  0.00     0.183 C 
BRANCH  10  11
ATOM     11  O   UNL     1      -4.652  -5.776   2.051  1.00  0.00    -0.392 OA
ATOM     12  H   UNL     1      -4.532  -6.761   2.113  1.00  0.00     0.210 HD
ENDBRANCH  10  11
ENDBRANCH   2  10
TORSDOF 5
ENDMDL
