MODEL 1
REMARK VINA RESULT:    -4.067      0.000      0.000
REMARK INTER + INTRA:          -5.335
REMARK INTER:                  -5.255
REMARK INTRA:                  -0.080
REMARK UNBOUND:                -0.080
REMARK SMILES CCCCCCC(C)=O
REMARK SMILES IDX 4 1 3 2 2 3 1 4 5 5 6 6 7 7 9 8 8 9
REMARK H PARENT
REMARK Flexibility Score: inf
ROOT
ATOM      1  C   UNL     1      27.467  46.452  -0.803  1.00  0.00     0.000 C 
ENDROOT
BRANCH   1   2
ATOM      2  C   UNL     1      26.799  46.704  -2.170  1.00  0.00    -0.000 C 
BRANCH   2   3
ATOM      3  C   UNL     1      25.852  47.916  -2.215  1.00  0.00    -0.003 C 
ATOM      4  C   UNL     1      24.620  47.678  -3.088  1.00  0.00     0.004 C 
ENDBRANCH   2   3
ENDBRANCH   1   2
BRANCH   1   5
ATOM      5  C   UNL     1      28.392  45.223  -0.747  1.00  0.00     0.008 C 
BRANCH   5   6
ATOM      6  C   UNL     1      29.448  45.321   0.363  1.00  0.00     0.075 C 
BRANCH   6   7
ATOM      7  C   UNL     1      30.710  44.605  -0.039  1.00  0.00     0.129 C 
ATOM      8  O   UNL     1      30.654  43.700  -0.858  1.00  0.00    -0.300 OA
ATOM      9  C   UNL     1      32.043  44.985   0.537  1.00  0.00     0.087 C 
ENDBRANCH   6   7
ENDBRANCH   5   6
ENDBRANCH   1   5
TORSDOF 5
ENDMDL
MODEL 2
REMARK VINA RESULT:    -4.000      1.114      1.542
REMARK INTER + INTRA:          -5.249
REMARK INTER:                  -5.151
REMARK INTRA:                  -0.098
REMARK UNBOUND:                -0.080
REMARK SMILES CCCCCCC(C)=O
REMARK SMILES IDX 4 1 3 2 2 3 1 4 5 5 6 6 7 7 9 8 8 9
REMARK H PARENT
REMARK Flexibility Score: inf
ROOT
ATOM      1  C   UNL     1      28.207  45.401  -0.840  1.00  0.00     0.000 C 
ENDROOT
BRANCH   1   2
ATOM      2  C   UNL     1      27.216  46.583  -0.812  1.00  0.00    -0.000 C 
BRANCH   2   3
ATOM      3  C   UNL     1      27.102  47.366  -2.131  1.00  0.00    -0.003 C 
ATOM      4  C   UNL     1      25.673  47.417  -2.672  1.00  0.00     0.004 C 
ENDBRANCH   2   3
ENDBRANCH   1   2
BRANCH   1   5
ATOM      5  C   UNL     1      29.232  45.383   0.307  1.00  0.00     0.008 C 
BRANCH   5   6
ATOM      6  C   UNL     1      30.574  44.759  -0.101  1.00  0.00     0.075 C 
BRANCH   6   7
ATOM      7  C   UNL     1      31.442  44.528   1.107  1.00  0.00     0.129 C 
ATOM      8  O   UNL     1      31.805  43.394   1.379  1.00  0.00    -0.300 OA
ATOM      9  C   UNL     1      31.882  45.665   1.982  1.00  0.00     0.087 C 
ENDBRANCH   6   7
ENDBRANCH   5   6
ENDBRANCH   1   5
TORSDOF 5
ENDMDL
MODEL 3
REMARK VINA RESULT:    -3.984      1.309      1.336
REMARK INTER + INTRA:          -5.228
REMARK INTER:                  -5.142
REMARK INTRA:                  -0.086
REMARK UNBOUND:                -0.080
REMARK SMILES CCCCCCC(C)=O
REMARK SMILES IDX 4 1 3 2 2 3 1 4 5 5 6 6 7 7 9 8 8 9
REMARK H PARENT
REMARK Flexibility Score: inf
ROOT
ATOM      1  C   UNL     1      27.521  45.561  -1.111  1.00  0.00     0.000 C 
ENDROOT
BRANCH   1   2
ATOM      2  C   UNL     1      26.659  46.836  -1.008  1.00  0.00    -0.000 C 
BRANCH   2   3
ATOM      3  C   UNL     1      26.513  47.627  -2.320  1.00  0.00    -0.003 C 
ATOM      4  C   UNL     1      25.178  47.376  -3.021  1.00  0.00     0.004 C 
ENDBRANCH   2   3
ENDBRANCH   1   2
BRANCH   1   5
ATOM      5  C   UNL     1      28.854  45.612  -0.343  1.00  0.00     0.008 C 
BRANCH   5   6
ATOM      6  C   UNL     1      29.572  44.255  -0.302  1.00  0.00     0.075 C 
BRANCH   6   7
ATOM      7  C   UNL     1      30.786  44.323   0.585  1.00  0.00     0.129 C 
ATOM      8  O   UNL     1      30.848  45.178   1.455  1.00  0.00    -0.300 OA
ATOM      9  C   UNL     1      31.922  43.355   0.431  1.00  0.00     0.087 C 
ENDBRANCH   6   7
ENDBRANCH   5   6
ENDBRANCH   1   5
TORSDOF 5
ENDMDL
MODEL 4
REMARK VINA RESULT:    -3.824      2.467      5.874
REMARK INTER + INTRA:          -5.022
REMARK INTER:                  -4.863
REMARK INTRA:                  -0.159
REMARK UNBOUND:                -0.080
REMARK SMILES CCCCCCC(C)=O
REMARK SMILES IDX 4 1 3 2 2 3 1 4 5 5 6 6 7 7 9 8 8 9
REMARK H PARENT
REMARK Flexibility Score: inf
ROOT
ATOM      1  C   UNL     1      32.297  45.217   2.195  1.00  0.00     0.000 C 
ENDROOT
BRANCH   1   2
ATOM      2  C   UNL     1      32.878  46.543   2.728  1.00  0.00    -0.000 C 
BRANCH   2   3
ATOM      3  C   UNL     1      31.902  47.389   3.564  1.00  0.00    -0.003 C 
ATOM      4  C   UNL     1      32.465  48.763   3.927  1.00  0.00     0.004 C 
ENDBRANCH   2   3
ENDBRANCH   1   2
BRANCH   1   5
ATOM      5  C   UNL     1      31.531  45.330   0.865  1.00  0.00     0.008 C 
BRANCH   5   6
ATOM      6  C   UNL     1      30.007  45.316   1.052  1.00  0.00     0.075 C 
BRANCH   6   7
ATOM      7  C   UNL     1      29.319  44.923  -0.228  1.00  0.00     0.129 C 
ATOM      8  O   UNL     1      29.695  43.931  -0.834  1.00  0.00    -0.300 OA
ATOM      9  C   UNL     1      28.171  45.720  -0.775  1.00  0.00     0.087 C 
ENDBRANCH   6   7
ENDBRANCH   5   6
ENDBRANCH   1   5
TORSDOF 5
ENDMDL
MODEL 5
REMARK VINA RESULT:    -3.780     13.034     15.327
REMARK INTER + INTRA:          -4.965
REMARK INTER:                  -4.801
REMARK INTRA:                  -0.164
REMARK UNBOUND:                -0.080
REMARK SMILES CCCCCCC(C)=O
REMARK SMILES IDX 4 1 3 2 2 3 1 4 5 5 6 6 7 7 9 8 8 9
REMARK H PARENT
REMARK Flexibility Score: inf
ROOT
ATOM      1  C   UNL     1      24.892  57.211  -9.172  1.00  0.00     0.000 C 
ENDROOT
BRANCH   1   2
ATOM      2  C   UNL     1      25.615  55.985  -8.577  1.00  0.00    -0.000 C 
BRANCH   2   3
ATOM      3  C   UNL     1      24.694  54.816  -8.186  1.00  0.00    -0.003 C 
ATOM      4  C   UNL     1      23.216  55.203  -8.162  1.00  0.00     0.004 C 
ENDBRANCH   2   3
ENDBRANCH   1   2
BRANCH   1   5
ATOM      5  C   UNL     1      25.794  58.426  -9.453  1.00  0.00     0.008 C 
BRANCH   5   6
ATOM      6  C   UNL     1      26.861  58.143 -10.520  1.00  0.00     0.075 C 
BRANCH   6   7
ATOM      7  C   UNL     1      27.756  59.340 -10.706  1.00  0.00     0.129 C 
ATOM      8  O   UNL     1      28.890  59.183 -11.133  1.00  0.00    -0.300 OA
ATOM      9  C   UNL     1      27.282  60.727 -10.386  1.00  0.00     0.087 C 
ENDBRANCH   6   7
ENDBRANCH   5   6
ENDBRANCH   1   5
TORSDOF 5
ENDMDL
MODEL 6
REMARK VINA RESULT:    -3.707     16.697     17.878
REMARK INTER + INTRA:          -4.871
REMARK INTER:                  -4.615
REMARK INTRA:                  -0.256
REMARK UNBOUND:                -0.080
REMARK SMILES CCCCCCC(C)=O
REMARK SMILES IDX 4 1 3 2 2 3 1 4 5 5 6 6 7 7 9 8 8 9
REMARK H PARENT
REMARK Flexibility Score: inf
ROOT
ATOM      1  C   UNL     1      29.912  57.451 -13.434  1.00  0.00     0.000 C 
ENDROOT
BRANCH   1   2
ATOM      2  C   UNL     1      31.180  56.637 -13.761  1.00  0.00    -0.000 C 
BRANCH   2   3
ATOM      3  C   UNL     1      32.324  57.446 -14.396  1.00  0.00    -0.003 C 
ATOM      4  C   UNL     1      33.700  57.060 -13.854  1.00  0.00     0.004 C 
ENDBRANCH   2   3
ENDBRANCH   1   2
BRANCH   1   5
ATOM      5  C   UNL     1      30.166  58.897 -12.972  1.00  0.00     0.008 C 
BRANCH   5   6
ATOM      6  C   UNL     1      29.907  59.100 -11.473  1.00  0.00     0.075 C 
BRANCH   6   7
ATOM      7  C   UNL     1      28.503  59.592 -11.239  1.00  0.00     0.129 C 
ATOM      8  O   UNL     1      28.249  60.777 -11.388  1.00  0.00    -0.300 OA
ATOM      9  C   UNL     1      27.403  58.655 -10.833  1.00  0.00     0.087 C 
ENDBRANCH   6   7
ENDBRANCH   5   6
ENDBRANCH   1   5
TORSDOF 5
ENDMDL
MODEL 7
REMARK VINA RESULT:    -3.645     16.646     17.284
REMARK INTER + INTRA:          -4.791
REMARK INTER:                  -4.567
REMARK INTRA:                  -0.224
REMARK UNBOUND:                -0.080
REMARK SMILES CCCCCCC(C)=O
REMARK SMILES IDX 4 1 3 2 2 3 1 4 5 5 6 6 7 7 9 8 8 9
REMARK H PARENT
REMARK Flexibility Score: inf
ROOT
ATOM      1  C   UNL     1      30.488  58.580 -12.163  1.00  0.00     0.000 C 
ENDROOT
BRANCH   1   2
ATOM      2  C   UNL     1      29.437  59.639 -11.769  1.00  0.00    -0.000 C 
BRANCH   2   3
ATOM      3  C   UNL     1      28.624  59.307 -10.506  1.00  0.00    -0.003 C 
ATOM      4  C   UNL     1      27.296  58.617 -10.817  1.00  0.00     0.004 C 
ENDBRANCH   2   3
ENDBRANCH   1   2
BRANCH   1   5
ATOM      5  C   UNL     1      30.150  57.765 -13.424  1.00  0.00     0.008 C 
BRANCH   5   6
ATOM      6  C   UNL     1      31.137  56.616 -13.675  1.00  0.00     0.075 C 
BRANCH   6   7
ATOM      7  C   UNL     1      32.494  57.154 -14.046  1.00  0.00     0.129 C 
ATOM      8  O   UNL     1      32.583  58.023 -14.900  1.00  0.00    -0.300 OA
ATOM      9  C   UNL     1      33.743  56.651 -13.383  1.00  0.00     0.087 C 
ENDBRANCH   6   7
ENDBRANCH   5   6
ENDBRANCH   1   5
TORSDOF 5
ENDMDL
MODEL 8
REMARK VINA RESULT:    -3.627      2.972      4.771
REMARK INTER + INTRA:          -4.767
REMARK INTER:                  -4.588
REMARK INTRA:                  -0.179
REMARK UNBOUND:                -0.080
REMARK SMILES CCCCCCC(C)=O
REMARK SMILES IDX 4 1 3 2 2 3 1 4 5 5 6 6 7 7 9 8 8 9
REMARK H PARENT
REMARK Flexibility Score: inf
ROOT
ATOM      1  C   UNL     1      31.316  44.508   1.095  1.00  0.00     0.000 C 
ENDROOT
BRANCH   1   2
ATOM      2  C   UNL     1      29.977  45.250   0.913  1.00  0.00    -0.000 C 
BRANCH   2   3
ATOM      3  C   UNL     1      29.151  44.809  -0.308  1.00  0.00    -0.003 C 
ATOM      4  C   UNL     1      28.116  45.849  -0.736  1.00  0.00     0.004 C 
ENDBRANCH   2   3
ENDBRANCH   1   2
BRANCH   1   5
ATOM      5  C   UNL     1      32.181  45.003   2.267  1.00  0.00     0.008 C 
BRANCH   5   6
ATOM      6  C   UNL     1      32.817  46.375   2.004  1.00  0.00     0.075 C 
BRANCH   6   7
ATOM      7  C   UNL     1      32.477  47.339   3.108  1.00  0.00     0.129 C 
ATOM      8  O   UNL     1      31.460  47.169   3.764  1.00  0.00    -0.300 OA
ATOM      9  C   UNL     1      33.366  48.504   3.431  1.00  0.00     0.087 C 
ENDBRANCH   6   7
ENDBRANCH   5   6
ENDBRANCH   1   5
TORSDOF 5
ENDMDL
MODEL 9
REMARK VINA RESULT:    -3.569     16.953     17.853
REMARK INTER + INTRA:          -4.692
REMARK INTER:                  -4.226
REMARK INTRA:                  -0.466
REMARK UNBOUND:                -0.080
REMARK SMILES CCCCCCC(C)=O
REMARK SMILES IDX 4 1 3 2 2 3 1 4 5 5 6 6 7 7 9 8 8 9
REMARK H PARENT
REMARK Flexibility Score: inf
ROOT
ATOM      1  C   UNL     1      31.536  56.623 -14.254  1.00  0.00     0.000 C 
ENDROOT
BRANCH   1   2
ATOM      2  C   UNL     1      32.562  57.738 -14.540  1.00  0.00    -0.000 C 
BRANCH   2   3
ATOM      3  C   UNL     1      33.962  57.499 -13.947  1.00  0.00    -0.003 C 
ATOM      4  C   UNL     1      33.952  56.521 -12.772  1.00  0.00     0.004 C 
ENDBRANCH   2   3
ENDBRANCH   1   2
BRANCH   1   5
ATOM      5  C   UNL     1      30.265  57.081 -13.517  1.00  0.00     0.008 C 
BRANCH   5   6
ATOM      6  C   UNL     1      30.193  58.605 -13.340  1.00  0.00     0.075 C 
BRANCH   6   7
ATOM      7  C   UNL     1      30.089  58.966 -11.883  1.00  0.00     0.129 C 
ATOM      8  O   UNL     1      28.996  58.963 -11.338  1.00  0.00    -0.300 OA
ATOM      9  C   UNL     1      31.304  59.322 -11.077  1.00  0.00     0.087 C 
ENDBRANCH   6   7
ENDBRANCH   5   6
ENDBRANCH   1   5
TORSDOF 5
ENDMDL
