MODEL 1
REMARK VINA RESULT:     0.000      0.000      0.000
REMARK INTER + INTRA:          -0.224
REMARK INTER:                   0.000
REMARK INTRA:                  -0.224
REMARK UNBOUND:                -0.224
REMARK SMILES OCC(O)CO
REMARK SMILES IDX 3 1 5 2 6 3 2 5 1 6 4 8
REMARK H PARENT 6 4 1 7 4 9
REMARK Flexibility Score: inf
ROOT
ATOM      1  C   UNL     1       0.136  20.763 -48.858  1.00  0.00     0.165 C 
ENDROOT
BRANCH   1   2
ATOM      2  C   UNL     1       1.088  19.626 -48.440  1.00  0.00     0.190 C 
BRANCH   2   3
ATOM      3  O   UNL     1       2.288  20.141 -47.929  1.00  0.00    -0.394 OA
ATOM      4  H   UNL     1       2.691  19.425 -47.373  1.00  0.00     0.210 HD
ENDBRANCH   2   3
ENDBRANCH   1   2
BRANCH   1   5
ATOM      5  C   UNL     1      -0.528  21.449 -47.654  1.00  0.00     0.190 C 
BRANCH   5   6
ATOM      6  O   UNL     1       0.420  22.150 -46.897  1.00  0.00    -0.394 OA
ATOM      7  H   UNL     1      -0.021  22.994 -46.615  1.00  0.00     0.210 HD
ENDBRANCH   5   6
ENDBRANCH   1   5
BRANCH   1   8
ATOM      8  O   UNL     1      -0.837  20.290 -49.758  1.00  0.00    -0.388 OA
ATOM      9  H   UNL     1      -1.729  20.525 -49.392  1.00  0.00     0.211 HD
ENDBRANCH   1   8
TORSDOF 5
ENDMDL
MODEL 2
REMARK VINA RESULT:     0.000     11.731     13.079
REMARK INTER + INTRA:          -0.224
REMARK INTER:                   0.000
REMARK INTRA:                  -0.224
REMARK UNBOUND:                -0.224
REMARK SMILES OCC(O)CO
REMARK SMILES IDX 3 1 5 2 6 3 2 5 1 6 4 8
REMARK H PARENT 6 4 1 7 4 9
REMARK Flexibility Score: inf
ROOT
ATOM      1  C   UNL     1      12.373  15.997 -44.663  1.00  0.00     0.165 C 
ENDROOT
BRANCH   1   2
ATOM      2  C   UNL     1      12.249  14.592 -45.283  1.00  0.00     0.190 C 
BRANCH   2   3
ATOM      3  O   UNL     1      10.918  14.153 -45.266  1.00  0.00    -0.394 OA
ATOM      4  H   UNL     1      10.351  14.967 -45.220  1.00  0.00     0.210 HD
ENDBRANCH   2   3
ENDBRANCH   1   2
BRANCH   1   5
ATOM      5  C   UNL     1      11.778  17.093 -45.561  1.00  0.00     0.190 C 
BRANCH   5   6
ATOM      6  O   UNL     1      10.379  17.018 -45.576  1.00  0.00    -0.394 OA
ATOM      7  H   UNL     1      10.071  17.431 -44.728  1.00  0.00     0.210 HD
ENDBRANCH   5   6
ENDBRANCH   1   5
BRANCH   1   8
ATOM      8  O   UNL     1      13.714  16.285 -44.351  1.00  0.00    -0.388 OA
ATOM      9  H   UNL     1      14.237  15.448 -44.456  1.00  0.00     0.211 HD
ENDBRANCH   1   8
TORSDOF 5
ENDMDL
MODEL 3
REMARK VINA RESULT:     0.000      5.812      6.833
REMARK INTER + INTRA:          -0.224
REMARK INTER:                   0.000
REMARK INTRA:                  -0.224
REMARK UNBOUND:                -0.224
REMARK SMILES OCC(O)CO
REMARK SMILES IDX 3 1 5 2 6 3 2 5 1 6 4 8
REMARK H PARENT 6 4 1 7 4 9
REMARK Flexibility Score: inf
ROOT
ATOM      1  C   UNL     1       6.136  20.724 -44.496  1.00  0.00     0.165 C 
ENDROOT
BRANCH   1   2
ATOM      2  C   UNL     1       4.771  20.393 -45.131  1.00  0.00     0.190 C 
BRANCH   2   3
ATOM      3  O   UNL     1       3.914  21.502 -45.081  1.00  0.00    -0.394 OA
ATOM      4  H   UNL     1       3.103  21.258 -45.598  1.00  0.00     0.210 HD
ENDBRANCH   2   3
ENDBRANCH   1   2
BRANCH   1   5
ATOM      5  C   UNL     1       6.027  21.037 -42.995  1.00  0.00     0.190 C 
BRANCH   5   6
ATOM      6  O   UNL     1       4.829  20.537 -42.468  1.00  0.00    -0.394 OA
ATOM      7  H   UNL     1       4.776  20.871 -41.535  1.00  0.00     0.210 HD
ENDBRANCH   5   6
ENDBRANCH   1   5
BRANCH   1   8
ATOM      8  O   UNL     1       6.757  21.784 -45.180  1.00  0.00    -0.388 OA
ATOM      9  H   UNL     1       7.736  21.708 -45.033  1.00  0.00     0.211 HD
ENDBRANCH   1   8
TORSDOF 5
ENDMDL
MODEL 4
REMARK VINA RESULT:     0.000      4.049      5.157
REMARK INTER + INTRA:          -0.224
REMARK INTER:                   0.000
REMARK INTRA:                  -0.224
REMARK UNBOUND:                -0.224
REMARK SMILES OCC(O)CO
REMARK SMILES IDX 3 1 5 2 6 3 2 5 1 6 4 8
REMARK H PARENT 6 4 1 7 4 9
REMARK Flexibility Score: inf
ROOT
ATOM      1  C   UNL     1       4.315  20.026 -45.965  1.00  0.00     0.165 C 
ENDROOT
BRANCH   1   2
ATOM      2  C   UNL     1       4.707  19.379 -44.622  1.00  0.00     0.190 C 
BRANCH   2   3
ATOM      3  O   UNL     1       3.934  19.897 -43.574  1.00  0.00    -0.394 OA
ATOM      4  H   UNL     1       4.494  19.849 -42.756  1.00  0.00     0.210 HD
ENDBRANCH   2   3
ENDBRANCH   1   2
BRANCH   1   5
ATOM      5  C   UNL     1       3.008  19.454 -46.537  1.00  0.00     0.190 C 
BRANCH   5   6
ATOM      6  O   UNL     1       2.480  18.475 -45.685  1.00  0.00    -0.394 OA
ATOM      7  H   UNL     1       2.835  17.607 -46.008  1.00  0.00     0.210 HD
ENDBRANCH   5   6
ENDBRANCH   1   5
BRANCH   1   8
ATOM      8  O   UNL     1       5.361  19.904 -46.898  1.00  0.00    -0.388 OA
ATOM      9  H   UNL     1       4.984  20.072 -47.801  1.00  0.00     0.211 HD
ENDBRANCH   1   8
TORSDOF 5
ENDMDL
MODEL 5
REMARK VINA RESULT:     0.000      5.428      6.254
REMARK INTER + INTRA:          -0.224
REMARK INTER:                   0.000
REMARK INTRA:                  -0.224
REMARK UNBOUND:                -0.224
REMARK SMILES OCC(O)CO
REMARK SMILES IDX 3 1 5 2 6 3 2 5 1 6 4 8
REMARK H PARENT 6 4 1 7 4 9
REMARK Flexibility Score: inf
ROOT
ATOM      1  C   UNL     1       2.352  22.839 -42.314  1.00  0.00     0.165 C 
ENDROOT
BRANCH   1   2
ATOM      2  C   UNL     1       2.997  22.414 -43.647  1.00  0.00     0.190 C 
BRANCH   2   3
ATOM      3  O   UNL     1       2.503  23.185 -44.709  1.00  0.00    -0.394 OA
ATOM      4  H   UNL     1       1.971  23.918 -44.305  1.00  0.00     0.210 HD
ENDBRANCH   2   3
ENDBRANCH   1   2
BRANCH   1   5
ATOM      5  C   UNL     1       1.016  22.126 -42.051  1.00  0.00     0.190 C 
BRANCH   5   6
ATOM      6  O   UNL     1       0.430  21.708 -43.254  1.00  0.00    -0.394 OA
ATOM      7  H   UNL     1      -0.308  22.345 -43.438  1.00  0.00     0.210 HD
ENDBRANCH   5   6
ENDBRANCH   1   5
BRANCH   1   8
ATOM      8  O   UNL     1       2.187  24.235 -42.265  1.00  0.00    -0.388 OA
ATOM      9  H   UNL     1       3.084  24.643 -42.140  1.00  0.00     0.211 HD
ENDBRANCH   1   8
TORSDOF 5
ENDMDL
MODEL 6
REMARK VINA RESULT:     0.000     10.303     11.239
REMARK INTER + INTRA:          -0.224
REMARK INTER:                   0.000
REMARK INTRA:                  -0.224
REMARK UNBOUND:                -0.224
REMARK SMILES OCC(O)CO
REMARK SMILES IDX 3 1 5 2 6 3 2 5 1 6 4 8
REMARK H PARENT 6 4 1 7 4 9
REMARK Flexibility Score: inf
ROOT
ATOM      1  C   UNL     1       4.740  11.724 -45.493  1.00  0.00     0.165 C 
ENDROOT
BRANCH   1   2
ATOM      2  C   UNL     1       3.270  11.828 -45.944  1.00  0.00     0.190 C 
BRANCH   2   3
ATOM      3  O   UNL     1       2.632  10.582 -45.862  1.00  0.00    -0.394 OA
ATOM      4  H   UNL     1       1.876  10.691 -45.228  1.00  0.00     0.210 HD
ENDBRANCH   2   3
ENDBRANCH   1   2
BRANCH   1   5
ATOM      5  C   UNL     1       5.623  11.000 -46.522  1.00  0.00     0.190 C 
BRANCH   5   6
ATOM      6  O   UNL     1       5.315   9.634 -46.568  1.00  0.00    -0.394 OA
ATOM      7  H   UNL     1       4.929   9.407 -45.683  1.00  0.00     0.210 HD
ENDBRANCH   5   6
ENDBRANCH   1   5
BRANCH   1   8
ATOM      8  O   UNL     1       4.830  11.099 -44.236  1.00  0.00    -0.388 OA
ATOM      9  H   UNL     1       4.764  10.119 -44.378  1.00  0.00     0.211 HD
ENDBRANCH   1   8
TORSDOF 5
ENDMDL
MODEL 7
REMARK VINA RESULT:     0.000      6.581      7.335
REMARK INTER + INTRA:          -0.224
REMARK INTER:                   0.000
REMARK INTRA:                  -0.224
REMARK UNBOUND:                -0.224
REMARK SMILES OCC(O)CO
REMARK SMILES IDX 3 1 5 2 6 3 2 5 1 6 4 8
REMARK H PARENT 6 4 1 7 4 9
REMARK Flexibility Score: inf
ROOT
ATOM      1  C   UNL     1       6.864  21.700 -48.411  1.00  0.00     0.165 C 
ENDROOT
BRANCH   1   2
ATOM      2  C   UNL     1       7.976  21.110 -49.300  1.00  0.00     0.190 C 
BRANCH   2   3
ATOM      3  O   UNL     1       9.073  21.979 -49.371  1.00  0.00    -0.394 OA
ATOM      4  H   UNL     1       8.711  22.878 -49.588  1.00  0.00     0.210 HD
ENDBRANCH   2   3
ENDBRANCH   1   2
BRANCH   1   5
ATOM      5  C   UNL     1       5.944  22.663 -49.178  1.00  0.00     0.190 C 
BRANCH   5   6
ATOM      6  O   UNL     1       6.548  23.084 -50.370  1.00  0.00    -0.394 OA
ATOM      7  H   UNL     1       5.851  23.019 -51.073  1.00  0.00     0.210 HD
ENDBRANCH   5   6
ENDBRANCH   1   5
BRANCH   1   8
ATOM      8  O   UNL     1       7.415  22.333 -47.283  1.00  0.00    -0.388 OA
ATOM      9  H   UNL     1       7.860  21.638 -46.731  1.00  0.00     0.211 HD
ENDBRANCH   1   8
TORSDOF 5
ENDMDL
MODEL 8
REMARK VINA RESULT:     0.000      9.518     10.178
REMARK INTER + INTRA:          -0.224
REMARK INTER:                   0.000
REMARK INTRA:                  -0.224
REMARK UNBOUND:                -0.224
REMARK SMILES OCC(O)CO
REMARK SMILES IDX 3 1 5 2 6 3 2 5 1 6 4 8
REMARK H PARENT 6 4 1 7 4 9
REMARK Flexibility Score: inf
ROOT
ATOM      1  C   UNL     1       5.629  25.480 -40.353  1.00  0.00     0.165 C 
ENDROOT
BRANCH   1   2
ATOM      2  C   UNL     1       6.275  25.625 -41.745  1.00  0.00     0.190 C 
BRANCH   2   3
ATOM      3  O   UNL     1       5.667  24.764 -42.670  1.00  0.00    -0.394 OA
ATOM      4  H   UNL     1       5.791  25.175 -43.565  1.00  0.00     0.210 HD
ENDBRANCH   2   3
ENDBRANCH   1   2
BRANCH   1   5
ATOM      5  C   UNL     1       6.116  24.229 -39.604  1.00  0.00     0.190 C 
BRANCH   5   6
ATOM      6  O   UNL     1       5.736  23.064 -40.283  1.00  0.00    -0.394 OA
ATOM      7  H   UNL     1       5.648  22.357 -39.592  1.00  0.00     0.210 HD
ENDBRANCH   5   6
ENDBRANCH   1   5
BRANCH   1   8
ATOM      8  O   UNL     1       4.226  25.481 -40.455  1.00  0.00    -0.388 OA
ATOM      9  H   UNL     1       3.975  24.895 -41.216  1.00  0.00     0.211 HD
ENDBRANCH   1   8
TORSDOF 5
ENDMDL
MODEL 9
REMARK VINA RESULT:     0.000      8.081      9.091
REMARK INTER + INTRA:          -0.224
REMARK INTER:                   0.000
REMARK INTRA:                  -0.224
REMARK UNBOUND:                -0.224
REMARK SMILES OCC(O)CO
REMARK SMILES IDX 3 1 5 2 6 3 2 5 1 6 4 8
REMARK H PARENT 6 4 1 7 4 9
REMARK Flexibility Score: inf
ROOT
ATOM      1  C   UNL     1       7.515  16.070 -48.123  1.00  0.00     0.165 C 
ENDROOT
BRANCH   1   2
ATOM      2  C   UNL     1       7.014  16.820 -46.873  1.00  0.00     0.190 C 
BRANCH   2   3
ATOM      3  O   UNL     1       7.773  16.475 -45.746  1.00  0.00    -0.394 OA
ATOM      4  H   UNL     1       8.668  16.205 -46.078  1.00  0.00     0.210 HD
ENDBRANCH   2   3
ENDBRANCH   1   2
BRANCH   1   5
ATOM      5  C   UNL     1       8.950  15.546 -47.961  1.00  0.00     0.190 C 
BRANCH   5   6
ATOM      6  O   UNL     1       9.852  16.608 -47.808  1.00  0.00    -0.394 OA
ATOM      7  H   UNL     1      10.269  16.490 -46.916  1.00  0.00     0.210 HD
ENDBRANCH   5   6
ENDBRANCH   1   5
BRANCH   1   8
ATOM      8  O   UNL     1       7.409  16.884 -49.265  1.00  0.00    -0.388 OA
ATOM      9  H   UNL     1       6.878  17.686 -49.019  1.00  0.00     0.211 HD
ENDBRANCH   1   8
TORSDOF 5
ENDMDL
