MODEL 1
REMARK VINA RESULT:    -5.871      0.000      0.000
REMARK INTER + INTRA:         -17.429
REMARK INTER:                 -13.422
REMARK INTRA:                  -4.007
REMARK UNBOUND:                -4.007
REMARK SMILES CCCCCCCCCCCCCCCCCCCCCCCC(=O)[O-]
REMARK SMILES IDX 13 1 14 2 15 3 16 4 17 5 18 6 19 7 20 8 21 9 22 10 23 11
REMARK SMILES IDX 24 12 25 13 26 14 12 15 11 16 10 17 9 18 8 19 7 20 6 21 5 22
REMARK SMILES IDX 4 23 3 24 2 25 1 26
REMARK H PARENT
REMARK Flexibility Score: inf
ROOT
ATOM      1  C   UNL     1     101.225 104.342 229.407  1.00  0.00     0.000 C 
ENDROOT
BRANCH   1   2
ATOM      2  C   UNL     1     100.702 103.168 230.255  1.00  0.00     0.000 C 
BRANCH   2   3
ATOM      3  C   UNL     1     101.820 102.215 230.714  1.00  0.00     0.000 C 
BRANCH   3   4
ATOM      4  C   UNL     1     103.183 102.565 230.092  1.00  0.00     0.000 C 
BRANCH   4   5
ATOM      5  C   UNL     1     104.307 102.659 231.139  1.00  0.00     0.000 C 
BRANCH   5   6
ATOM      6  C   UNL     1     105.284 101.473 231.067  1.00  0.00     0.000 C 
BRANCH   6   7
ATOM      7  C   UNL     1     106.714 101.864 231.478  1.00  0.00     0.000 C 
BRANCH   7   8
ATOM      8  C   UNL     1     106.865 103.374 231.725  1.00  0.00     0.000 C 
BRANCH   8   9
ATOM      9  C   UNL     1     107.986 104.005 230.882  1.00  0.00     0.000 C 
BRANCH   9  10
ATOM     10  C   UNL     1     108.276 103.227 229.585  1.00  0.00     0.006 C 
BRANCH  10  11
ATOM     11  C   UNL     1     109.615 102.470 229.598  1.00  0.00     0.053 C 
BRANCH  11  12
ATOM     12  C   UNL     1     110.736 103.272 229.008  1.00  0.00     0.041 C 
ATOM     13  O   UNL     1     110.941 103.252 227.766  1.00  0.00    -0.550 OA
ATOM     14  O   UNL     1     111.531 104.069 229.823  1.00  0.00    -0.550 OA
ENDBRANCH  11  12
ENDBRANCH  10  11
ENDBRANCH   9  10
ENDBRANCH   8   9
ENDBRANCH   7   8
ENDBRANCH   6   7
ENDBRANCH   5   6
ENDBRANCH   4   5
ENDBRANCH   3   4
ENDBRANCH   2   3
ENDBRANCH   1   2
BRANCH   1  15
ATOM     15  C   UNL     1     100.977 105.743 229.997  1.00  0.00     0.000 C 
BRANCH  15  16
ATOM     16  C   UNL     1     100.238 105.703 231.347  1.00  0.00     0.000 C 
BRANCH  16  17
ATOM     17  C   UNL     1     101.197 105.793 232.546  1.00  0.00     0.000 C 
BRANCH  17  18
ATOM     18  C   UNL     1     102.551 106.423 232.170  1.00  0.00    -0.000 C 
BRANCH  18  19
ATOM     19  C   UNL     1     103.701 105.935 233.067  1.00  0.00    -0.000 C 
BRANCH  19  20
ATOM     20  C   UNL     1     105.065 106.514 232.648  1.00  0.00    -0.000 C 
BRANCH  20  21
ATOM     21  C   UNL     1     104.972 107.420 231.407  1.00  0.00    -0.000 C 
BRANCH  21  22
ATOM     22  C   UNL     1     105.609 106.845 230.126  1.00  0.00    -0.000 C 
BRANCH  22  23
ATOM     23  C   UNL     1     104.649 106.054 229.217  1.00  0.00    -0.000 C 
BRANCH  23  24
ATOM     24  C   UNL     1     105.307 104.926 228.399  1.00  0.00    -0.000 C 
BRANCH  24  25
ATOM     25  C   UNL     1     104.834 104.824 226.939  1.00  0.00    -0.003 C 
ATOM     26  C   UNL     1     103.497 105.523 226.696  1.00  0.00     0.004 C 
ENDBRANCH  24  25
ENDBRANCH  23  24
ENDBRANCH  22  23
ENDBRANCH  21  22
ENDBRANCH  20  21
ENDBRANCH  19  20
ENDBRANCH  18  19
ENDBRANCH  17  18
ENDBRANCH  16  17
ENDBRANCH  15  16
ENDBRANCH   1  15
TORSDOF 22
ENDMDL
MODEL 2
REMARK VINA RESULT:    -5.797      3.931      7.130
REMARK INTER + INTRA:         -17.260
REMARK INTER:                 -13.285
REMARK INTRA:                  -3.975
REMARK UNBOUND:                -4.007
REMARK SMILES CCCCCCCCCCCCCCCCCCCCCCCC(=O)[O-]
REMARK SMILES IDX 13 1 14 2 15 3 16 4 17 5 18 6 19 7 20 8 21 9 22 10 23 11
REMARK SMILES IDX 24 12 25 13 26 14 12 15 11 16 10 17 9 18 8 19 7 20 6 21 5 22
REMARK SMILES IDX 4 23 3 24 2 25 1 26
REMARK H PARENT
REMARK Flexibility Score: inf
ROOT
ATOM      1  C   UNL     1     105.140 105.704 228.794  1.00  0.00     0.000 C 
ENDROOT
BRANCH   1   2
ATOM      2  C   UNL     1     105.337 107.231 228.762  1.00  0.00     0.000 C 
BRANCH   2   3
ATOM      3  C   UNL     1     104.474 107.968 229.802  1.00  0.00     0.000 C 
BRANCH   3   4
ATOM      4  C   UNL     1     104.083 107.069 230.986  1.00  0.00     0.000 C 
BRANCH   4   5
ATOM      5  C   UNL     1     105.109 107.115 232.133  1.00  0.00     0.000 C 
BRANCH   5   6
ATOM      6  C   UNL     1     104.669 106.290 233.354  1.00  0.00     0.000 C 
BRANCH   6   7
ATOM      7  C   UNL     1     103.361 105.521 233.105  1.00  0.00     0.000 C 
BRANCH   7   8
ATOM      8  C   UNL     1     102.186 106.073 233.931  1.00  0.00     0.000 C 
BRANCH   8   9
ATOM      9  C   UNL     1     100.999 106.511 233.057  1.00  0.00     0.000 C 
BRANCH   9  10
ATOM     10  C   UNL     1     101.006 105.860 231.662  1.00  0.00     0.006 C 
BRANCH  10  11
ATOM     11  C   UNL     1      99.710 106.086 230.862  1.00  0.00     0.053 C 
BRANCH  11  12
ATOM     12  C   UNL     1      98.529 105.393 231.472  1.00  0.00     0.041 C 
ATOM     13  O   UNL     1      97.625 106.063 232.036  1.00  0.00    -0.550 OA
ATOM     14  O   UNL     1      98.409 104.011 231.387  1.00  0.00    -0.550 OA
ENDBRANCH  11  12
ENDBRANCH  10  11
ENDBRANCH   9  10
ENDBRANCH   8   9
ENDBRANCH   7   8
ENDBRANCH   6   7
ENDBRANCH   5   6
ENDBRANCH   4   5
ENDBRANCH   3   4
ENDBRANCH   2   3
ENDBRANCH   1   2
BRANCH   1  15
ATOM     15  C   UNL     1     104.728 105.066 227.454  1.00  0.00     0.000 C 
BRANCH  15  16
ATOM     16  C   UNL     1     103.284 105.409 227.046  1.00  0.00     0.000 C 
BRANCH  16  17
ATOM     17  C   UNL     1     102.295 105.287 228.219  1.00  0.00     0.000 C 
BRANCH  17  18
ATOM     18  C   UNL     1     101.367 104.066 228.081  1.00  0.00    -0.000 C 
BRANCH  18  19
ATOM     19  C   UNL     1     101.401 103.153 229.318  1.00  0.00    -0.000 C 
BRANCH  19  20
ATOM     20  C   UNL     1     102.734 103.243 230.083  1.00  0.00    -0.000 C 
BRANCH  20  21
ATOM     21  C   UNL     1     103.056 101.961 230.872  1.00  0.00    -0.000 C 
BRANCH  21  22
ATOM     22  C   UNL     1     104.523 101.494 230.794  1.00  0.00    -0.000 C 
BRANCH  22  23
ATOM     23  C   UNL     1     105.567 102.625 230.738  1.00  0.00    -0.000 C 
BRANCH  23  24
ATOM     24  C   UNL     1     106.346 102.859 232.048  1.00  0.00    -0.000 C 
BRANCH  24  25
ATOM     25  C   UNL     1     107.262 104.095 232.045  1.00  0.00    -0.003 C 
ATOM     26  C   UNL     1     108.266 104.090 230.893  1.00  0.00     0.004 C 
ENDBRANCH  24  25
ENDBRANCH  23  24
ENDBRANCH  22  23
ENDBRANCH  21  22
ENDBRANCH  20  21
ENDBRANCH  19  20
ENDBRANCH  18  19
ENDBRANCH  17  18
ENDBRANCH  16  17
ENDBRANCH  15  16
ENDBRANCH   1  15
TORSDOF 22
ENDMDL
MODEL 3
REMARK VINA RESULT:    -5.787      1.083      4.352
REMARK INTER + INTRA:         -17.237
REMARK INTER:                 -13.116
REMARK INTRA:                  -4.121
REMARK UNBOUND:                -4.007
REMARK SMILES CCCCCCCCCCCCCCCCCCCCCCCC(=O)[O-]
REMARK SMILES IDX 13 1 14 2 15 3 16 4 17 5 18 6 19 7 20 8 21 9 22 10 23 11
REMARK SMILES IDX 24 12 25 13 26 14 12 15 11 16 10 17 9 18 8 19 7 20 6 21 5 22
REMARK SMILES IDX 4 23 3 24 2 25 1 26
REMARK H PARENT
REMARK Flexibility Score: inf
ROOT
ATOM      1  C   UNL     1     104.459 108.224 230.909  1.00  0.00     0.000 C 
ENDROOT
BRANCH   1   2
ATOM      2  C   UNL     1     103.142 107.439 230.768  1.00  0.00     0.000 C 
BRANCH   2   3
ATOM      3  C   UNL     1     102.759 106.676 232.049  1.00  0.00     0.000 C 
BRANCH   3   4
ATOM      4  C   UNL     1     103.762 105.562 232.392  1.00  0.00     0.000 C 
BRANCH   4   5
ATOM      5  C   UNL     1     104.639 105.906 233.609  1.00  0.00     0.000 C 
BRANCH   5   6
ATOM      6  C   UNL     1     106.137 105.675 233.343  1.00  0.00     0.000 C 
BRANCH   6   7
ATOM      7  C   UNL     1     106.414 104.315 232.681  1.00  0.00     0.000 C 
BRANCH   7   8
ATOM      8  C   UNL     1     107.665 104.339 231.786  1.00  0.00     0.000 C 
BRANCH   8   9
ATOM      9  C   UNL     1     107.687 103.190 230.765  1.00  0.00     0.000 C 
BRANCH   9  10
ATOM     10  C   UNL     1     108.787 103.351 229.700  1.00  0.00     0.006 C 
BRANCH  10  11
ATOM     11  C   UNL     1     110.217 103.262 230.261  1.00  0.00     0.053 C 
BRANCH  11  12
ATOM     12  C   UNL     1     111.263 103.387 229.194  1.00  0.00     0.041 C 
ATOM     13  O   UNL     1     112.113 104.314 229.248  1.00  0.00    -0.550 OA
ATOM     14  O   UNL     1     111.322 102.459 228.161  1.00  0.00    -0.550 OA
ENDBRANCH  11  12
ENDBRANCH  10  11
ENDBRANCH   9  10
ENDBRANCH   8   9
ENDBRANCH   7   8
ENDBRANCH   6   7
ENDBRANCH   5   6
ENDBRANCH   4   5
ENDBRANCH   3   4
ENDBRANCH   2   3
ENDBRANCH   1   2
BRANCH   1  15
ATOM     15  C   UNL     1     105.641 107.680 230.084  1.00  0.00     0.000 C 
BRANCH  15  16
ATOM     16  C   UNL     1     105.193 106.913 228.828  1.00  0.00     0.000 C 
BRANCH  16  17
ATOM     17  C   UNL     1     105.423 105.397 228.950  1.00  0.00     0.000 C 
BRANCH  17  18
ATOM     18  C   UNL     1     104.491 104.585 228.031  1.00  0.00    -0.000 C 
BRANCH  18  19
ATOM     19  C   UNL     1     103.686 105.474 227.069  1.00  0.00    -0.000 C 
BRANCH  19  20
ATOM     20  C   UNL     1     102.179 105.470 227.380  1.00  0.00    -0.000 C 
BRANCH  20  21
ATOM     21  C   UNL     1     101.727 104.200 228.122  1.00  0.00    -0.000 C 
BRANCH  21  22
ATOM     22  C   UNL     1     101.076 104.441 229.499  1.00  0.00    -0.000 C 
BRANCH  22  23
ATOM     23  C   UNL     1     101.414 103.391 230.575  1.00  0.00    -0.000 C 
BRANCH  23  24
ATOM     24  C   UNL     1     102.477 102.354 230.162  1.00  0.00    -0.000 C 
BRANCH  24  25
ATOM     25  C   UNL     1     103.789 102.417 230.963  1.00  0.00    -0.003 C 
ATOM     26  C   UNL     1     104.720 101.239 230.677  1.00  0.00     0.004 C 
ENDBRANCH  24  25
ENDBRANCH  23  24
ENDBRANCH  22  23
ENDBRANCH  21  22
ENDBRANCH  20  21
ENDBRANCH  19  20
ENDBRANCH  18  19
ENDBRANCH  17  18
ENDBRANCH  16  17
ENDBRANCH  15  16
ENDBRANCH   1  15
TORSDOF 22
ENDMDL
MODEL 4
REMARK VINA RESULT:    -5.765      1.201      3.263
REMARK INTER + INTRA:         -17.186
REMARK INTER:                 -13.667
REMARK INTRA:                  -3.520
REMARK UNBOUND:                -4.007
REMARK SMILES CCCCCCCCCCCCCCCCCCCCCCCC(=O)[O-]
REMARK SMILES IDX 13 1 14 2 15 3 16 4 17 5 18 6 19 7 20 8 21 9 22 10 23 11
REMARK SMILES IDX 24 12 25 13 26 14 12 15 11 16 10 17 9 18 8 19 7 20 6 21 5 22
REMARK SMILES IDX 4 23 3 24 2 25 1 26
REMARK H PARENT
REMARK Flexibility Score: inf
ROOT
ATOM      1  C   UNL     1     101.781 104.203 229.459  1.00  0.00     0.000 C 
ENDROOT
BRANCH   1   2
ATOM      2  C   UNL     1     101.395 102.761 229.838  1.00  0.00     0.000 C 
BRANCH   2   3
ATOM      3  C   UNL     1     102.279 102.179 230.955  1.00  0.00     0.000 C 
BRANCH   3   4
ATOM      4  C   UNL     1     103.683 101.798 230.456  1.00  0.00     0.000 C 
BRANCH   4   5
ATOM      5  C   UNL     1     104.792 102.665 231.080  1.00  0.00     0.000 C 
BRANCH   5   6
ATOM      6  C   UNL     1     106.061 101.860 231.406  1.00  0.00     0.000 C 
BRANCH   6   7
ATOM      7  C   UNL     1     107.255 102.762 231.759  1.00  0.00     0.000 C 
BRANCH   7   8
ATOM      8  C   UNL     1     107.539 103.815 230.674  1.00  0.00     0.000 C 
BRANCH   8   9
ATOM      9  C   UNL     1     108.127 103.204 229.391  1.00  0.00     0.000 C 
BRANCH   9  10
ATOM     10  C   UNL     1     109.485 102.516 229.619  1.00  0.00     0.006 C 
BRANCH  10  11
ATOM     11  C   UNL     1     110.671 103.246 228.964  1.00  0.00     0.053 C 
BRANCH  11  12
ATOM     12  C   UNL     1     111.493 104.014 229.955  1.00  0.00     0.041 C 
ATOM     13  O   UNL     1     112.750 103.983 229.893  1.00  0.00    -0.550 OA
ATOM     14  O   UNL     1     110.871 104.792 230.924  1.00  0.00    -0.550 OA
ENDBRANCH  11  12
ENDBRANCH  10  11
ENDBRANCH   9  10
ENDBRANCH   8   9
ENDBRANCH   7   8
ENDBRANCH   6   7
ENDBRANCH   5   6
ENDBRANCH   4   5
ENDBRANCH   3   4
ENDBRANCH   2   3
ENDBRANCH   1   2
BRANCH   1  15
ATOM     15  C   UNL     1     101.712 104.530 227.956  1.00  0.00     0.000 C 
BRANCH  15  16
ATOM     16  C   UNL     1     103.000 105.185 227.425  1.00  0.00     0.000 C 
BRANCH  16  17
ATOM     17  C   UNL     1     104.264 104.650 228.121  1.00  0.00     0.000 C 
BRANCH  17  18
ATOM     18  C   UNL     1     105.101 105.772 228.762  1.00  0.00    -0.000 C 
BRANCH  18  19
ATOM     19  C   UNL     1     104.604 107.175 228.377  1.00  0.00    -0.000 C 
BRANCH  19  20
ATOM     20  C   UNL     1     105.068 108.259 229.367  1.00  0.00    -0.000 C 
BRANCH  20  21
ATOM     21  C   UNL     1     104.507 108.051 230.785  1.00  0.00    -0.000 C 
BRANCH  21  22
ATOM     22  C   UNL     1     102.969 107.996 230.882  1.00  0.00    -0.000 C 
BRANCH  22  23
ATOM     23  C   UNL     1     102.406 106.795 231.665  1.00  0.00    -0.000 C 
BRANCH  23  24
ATOM     24  C   UNL     1     103.458 105.769 232.131  1.00  0.00    -0.000 C 
BRANCH  24  25
ATOM     25  C   UNL     1     104.162 106.118 233.454  1.00  0.00    -0.003 C 
ATOM     26  C   UNL     1     105.644 105.744 233.457  1.00  0.00     0.004 C 
ENDBRANCH  24  25
ENDBRANCH  23  24
ENDBRANCH  22  23
ENDBRANCH  21  22
ENDBRANCH  20  21
ENDBRANCH  19  20
ENDBRANCH  18  19
ENDBRANCH  17  18
ENDBRANCH  16  17
ENDBRANCH  15  16
ENDBRANCH   1  15
TORSDOF 22
ENDMDL
MODEL 5
REMARK VINA RESULT:    -5.701      2.335      3.924
REMARK INTER + INTRA:         -17.041
REMARK INTER:                 -13.388
REMARK INTRA:                  -3.653
REMARK UNBOUND:                -4.007
REMARK SMILES CCCCCCCCCCCCCCCCCCCCCCCC(=O)[O-]
REMARK SMILES IDX 13 1 14 2 15 3 16 4 17 5 18 6 19 7 20 8 21 9 22 10 23 11
REMARK SMILES IDX 24 12 25 13 26 14 12 15 11 16 10 17 9 18 8 19 7 20 6 21 5 22
REMARK SMILES IDX 4 23 3 24 2 25 1 26
REMARK H PARENT
REMARK Flexibility Score: inf
ROOT
ATOM      1  C   UNL     1     102.411 104.513 228.832  1.00  0.00     0.000 C 
ENDROOT
BRANCH   1   2
ATOM      2  C   UNL     1     102.187 105.250 227.499  1.00  0.00     0.000 C 
BRANCH   2   3
ATOM      3  C   UNL     1     103.498 105.544 226.749  1.00  0.00     0.000 C 
BRANCH   3   4
ATOM      4  C   UNL     1     104.696 104.778 227.336  1.00  0.00     0.000 C 
BRANCH   4   5
ATOM      5  C   UNL     1     105.634 104.220 226.250  1.00  0.00     0.000 C 
BRANCH   5   6
ATOM      6  C   UNL     1     107.019 103.843 226.802  1.00  0.00     0.000 C 
BRANCH   6   7
ATOM      7  C   UNL     1     107.027 103.715 228.335  1.00  0.00     0.000 C 
BRANCH   7   8
ATOM      8  C   UNL     1     108.373 103.206 228.877  1.00  0.00     0.000 C 
BRANCH   8   9
ATOM      9  C   UNL     1     108.417 103.163 230.413  1.00  0.00     0.000 C 
BRANCH   9  10
ATOM     10  C   UNL     1     107.710 101.929 231.002  1.00  0.00     0.006 C 
BRANCH  10  11
ATOM     11  C   UNL     1     106.431 102.261 231.792  1.00  0.00     0.053 C 
BRANCH  11  12
ATOM     12  C   UNL     1     105.211 101.610 231.212  1.00  0.00     0.041 C 
ATOM     13  O   UNL     1     105.257 100.414 230.822  1.00  0.00    -0.550 OA
ATOM     14  O   UNL     1     104.015 102.313 231.133  1.00  0.00    -0.550 OA
ENDBRANCH  11  12
ENDBRANCH  10  11
ENDBRANCH   9  10
ENDBRANCH   8   9
ENDBRANCH   7   8
ENDBRANCH   6   7
ENDBRANCH   5   6
ENDBRANCH   4   5
ENDBRANCH   3   4
ENDBRANCH   2   3
ENDBRANCH   1   2
BRANCH   1  15
ATOM     15  C   UNL     1     101.260 103.591 229.276  1.00  0.00     0.000 C 
BRANCH  15  16
ATOM     16  C   UNL     1     100.413 104.193 230.411  1.00  0.00     0.000 C 
BRANCH  16  17
ATOM     17  C   UNL     1     100.857 105.618 230.785  1.00  0.00     0.000 C 
BRANCH  17  18
ATOM     18  C   UNL     1     100.372 106.036 232.185  1.00  0.00    -0.000 C 
BRANCH  18  19
ATOM     19  C   UNL     1     101.531 106.277 233.167  1.00  0.00    -0.000 C 
BRANCH  19  20
ATOM     20  C   UNL     1     102.834 105.586 232.724  1.00  0.00    -0.000 C 
BRANCH  20  21
ATOM     21  C   UNL     1     104.052 106.018 233.560  1.00  0.00    -0.000 C 
BRANCH  21  22
ATOM     22  C   UNL     1     105.351 106.243 232.760  1.00  0.00    -0.000 C 
BRANCH  22  23
ATOM     23  C   UNL     1     105.338 105.685 231.324  1.00  0.00    -0.000 C 
BRANCH  23  24
ATOM     24  C   UNL     1     105.756 106.689 230.231  1.00  0.00    -0.000 C 
BRANCH  24  25
ATOM     25  C   UNL     1     105.034 108.046 230.289  1.00  0.00    -0.003 C 
ATOM     26  C   UNL     1     103.541 107.941 229.980  1.00  0.00     0.004 C 
ENDBRANCH  24  25
ENDBRANCH  23  24
ENDBRANCH  22  23
ENDBRANCH  21  22
ENDBRANCH  20  21
ENDBRANCH  19  20
ENDBRANCH  18  19
ENDBRANCH  17  18
ENDBRANCH  16  17
ENDBRANCH  15  16
ENDBRANCH   1  15
TORSDOF 22
ENDMDL
MODEL 6
REMARK VINA RESULT:    -5.675      1.322      3.245
REMARK INTER + INTRA:         -16.981
REMARK INTER:                 -13.184
REMARK INTRA:                  -3.797
REMARK UNBOUND:                -4.007
REMARK SMILES CCCCCCCCCCCCCCCCCCCCCCCC(=O)[O-]
REMARK SMILES IDX 13 1 14 2 15 3 16 4 17 5 18 6 19 7 20 8 21 9 22 10 23 11
REMARK SMILES IDX 24 12 25 13 26 14 12 15 11 16 10 17 9 18 8 19 7 20 6 21 5 22
REMARK SMILES IDX 4 23 3 24 2 25 1 26
REMARK H PARENT
REMARK Flexibility Score: inf
ROOT
ATOM      1  C   UNL     1     101.124 103.214 229.563  1.00  0.00     0.000 C 
ENDROOT
BRANCH   1   2
ATOM      2  C   UNL     1     101.282 102.214 230.724  1.00  0.00     0.000 C 
BRANCH   2   3
ATOM      3  C   UNL     1     102.728 102.124 231.244  1.00  0.00     0.000 C 
BRANCH   3   4
ATOM      4  C   UNL     1     103.743 102.749 230.273  1.00  0.00     0.000 C 
BRANCH   4   5
ATOM      5  C   UNL     1     105.145 102.127 230.396  1.00  0.00     0.000 C 
BRANCH   5   6
ATOM      6  C   UNL     1     105.873 102.557 231.680  1.00  0.00     0.000 C 
BRANCH   6   7
ATOM      7  C   UNL     1     107.225 103.232 231.392  1.00  0.00     0.000 C 
BRANCH   7   8
ATOM      8  C   UNL     1     107.284 103.860 229.990  1.00  0.00     0.000 C 
BRANCH   8   9
ATOM      9  C   UNL     1     108.353 103.213 229.093  1.00  0.00     0.000 C 
BRANCH   9  10
ATOM     10  C   UNL     1     109.478 102.531 229.894  1.00  0.00     0.006 C 
BRANCH  10  11
ATOM     11  C   UNL     1     110.879 103.100 229.609  1.00  0.00     0.053 C 
BRANCH  11  12
ATOM     12  C   UNL     1     111.350 104.035 230.681  1.00  0.00     0.041 C 
ATOM     13  O   UNL     1     110.580 104.925 231.127  1.00  0.00    -0.550 OA
ATOM     14  O   UNL     1     112.627 103.901 231.215  1.00  0.00    -0.550 OA
ENDBRANCH  11  12
ENDBRANCH  10  11
ENDBRANCH   9  10
ENDBRANCH   8   9
ENDBRANCH   7   8
ENDBRANCH   6   7
ENDBRANCH   5   6
ENDBRANCH   4   5
ENDBRANCH   3   4
ENDBRANCH   2   3
ENDBRANCH   1   2
BRANCH   1  15
ATOM     15  C   UNL     1     100.946 104.685 229.980  1.00  0.00     0.000 C 
BRANCH  15  16
ATOM     16  C   UNL     1     101.118 105.666 228.807  1.00  0.00     0.000 C 
BRANCH  16  17
ATOM     17  C   UNL     1     101.590 104.968 227.519  1.00  0.00     0.000 C 
BRANCH  17  18
ATOM     18  C   UNL     1     102.871 105.600 226.944  1.00  0.00    -0.000 C 
BRANCH  18  19
ATOM     19  C   UNL     1     104.145 104.851 227.370  1.00  0.00    -0.000 C 
BRANCH  19  20
ATOM     20  C   UNL     1     105.130 105.749 228.138  1.00  0.00    -0.000 C 
BRANCH  20  21
ATOM     21  C   UNL     1     104.627 107.197 228.287  1.00  0.00    -0.000 C 
BRANCH  21  22
ATOM     22  C   UNL     1     105.022 107.897 229.602  1.00  0.00    -0.000 C 
BRANCH  22  23
ATOM     23  C   UNL     1     105.182 106.964 230.817  1.00  0.00    -0.000 C 
BRANCH  23  24
ATOM     24  C   UNL     1     103.863 106.554 231.502  1.00  0.00    -0.000 C 
BRANCH  24  25
ATOM     25  C   UNL     1     104.030 105.683 232.760  1.00  0.00    -0.003 C 
ATOM     26  C   UNL     1     105.389 105.865 233.434  1.00  0.00     0.004 C 
ENDBRANCH  24  25
ENDBRANCH  23  24
ENDBRANCH  22  23
ENDBRANCH  21  22
ENDBRANCH  20  21
ENDBRANCH  19  20
ENDBRANCH  18  19
ENDBRANCH  17  18
ENDBRANCH  16  17
ENDBRANCH  15  16
ENDBRANCH   1  15
TORSDOF 22
ENDMDL
MODEL 7
REMARK VINA RESULT:    -5.660      3.414      6.341
REMARK INTER + INTRA:         -16.947
REMARK INTER:                 -13.416
REMARK INTRA:                  -3.532
REMARK UNBOUND:                -4.007
REMARK SMILES CCCCCCCCCCCCCCCCCCCCCCCC(=O)[O-]
REMARK SMILES IDX 13 1 14 2 15 3 16 4 17 5 18 6 19 7 20 8 21 9 22 10 23 11
REMARK SMILES IDX 24 12 25 13 26 14 12 15 11 16 10 17 9 18 8 19 7 20 6 21 5 22
REMARK SMILES IDX 4 23 3 24 2 25 1 26
REMARK H PARENT
REMARK Flexibility Score: inf
ROOT
ATOM      1  C   UNL     1     102.126 105.262 227.955  1.00  0.00     0.000 C 
ENDROOT
BRANCH   1   2
ATOM      2  C   UNL     1     103.273 105.106 226.940  1.00  0.00     0.000 C 
BRANCH   2   3
ATOM      3  C   UNL     1     104.639 104.875 227.611  1.00  0.00     0.000 C 
BRANCH   3   4
ATOM      4  C   UNL     1     104.919 105.883 228.738  1.00  0.00     0.000 C 
BRANCH   4   5
ATOM      5  C   UNL     1     104.988 107.336 228.233  1.00  0.00     0.000 C 
BRANCH   5   6
ATOM      6  C   UNL     1     104.804 108.364 229.362  1.00  0.00     0.000 C 
BRANCH   6   7
ATOM      7  C   UNL     1     105.699 108.069 230.577  1.00  0.00     0.000 C 
BRANCH   7   8
ATOM      8  C   UNL     1     104.889 107.858 231.868  1.00  0.00     0.000 C 
BRANCH   8   9
ATOM      9  C   UNL     1     104.949 106.408 232.376  1.00  0.00     0.000 C 
BRANCH   9  10
ATOM     10  C   UNL     1     103.589 105.890 232.879  1.00  0.00     0.006 C 
BRANCH  10  11
ATOM     11  C   UNL     1     102.380 106.490 232.139  1.00  0.00     0.053 C 
BRANCH  11  12
ATOM     12  C   UNL     1     101.116 106.407 232.940  1.00  0.00     0.041 C 
ATOM     13  O   UNL     1     101.120 106.713 234.162  1.00  0.00    -0.550 OA
ATOM     14  O   UNL     1      99.925 106.028 232.331  1.00  0.00    -0.550 OA
ENDBRANCH  11  12
ENDBRANCH  10  11
ENDBRANCH   9  10
ENDBRANCH   8   9
ENDBRANCH   7   8
ENDBRANCH   6   7
ENDBRANCH   5   6
ENDBRANCH   4   5
ENDBRANCH   3   4
ENDBRANCH   2   3
ENDBRANCH   1   2
BRANCH   1  15
ATOM     15  C   UNL     1     101.442 103.951 228.385  1.00  0.00     0.000 C 
BRANCH  15  16
ATOM     16  C   UNL     1     101.521 103.702 229.901  1.00  0.00     0.000 C 
BRANCH  16  17
ATOM     17  C   UNL     1     102.330 102.441 230.250  1.00  0.00     0.000 C 
BRANCH  17  18
ATOM     18  C   UNL     1     103.790 102.761 230.620  1.00  0.00    -0.000 C 
BRANCH  18  19
ATOM     19  C   UNL     1     104.602 101.504 230.972  1.00  0.00    -0.000 C 
BRANCH  19  20
ATOM     20  C   UNL     1     106.100 101.801 231.165  1.00  0.00    -0.000 C 
BRANCH  20  21
ATOM     21  C   UNL     1     106.372 103.265 231.555  1.00  0.00    -0.000 C 
BRANCH  21  22
ATOM     22  C   UNL     1     107.485 103.964 230.749  1.00  0.00    -0.000 C 
BRANCH  22  23
ATOM     23  C   UNL     1     107.904 103.243 229.453  1.00  0.00    -0.000 C 
BRANCH  23  24
ATOM     24  C   UNL     1     109.287 102.564 229.502  1.00  0.00    -0.000 C 
BRANCH  24  25
ATOM     25  C   UNL     1     110.394 103.400 230.167  1.00  0.00    -0.003 C 
ATOM     26  C   UNL     1     111.565 103.691 229.229  1.00  0.00     0.004 C 
ENDBRANCH  24  25
ENDBRANCH  23  24
ENDBRANCH  22  23
ENDBRANCH  21  22
ENDBRANCH  20  21
ENDBRANCH  19  20
ENDBRANCH  18  19
ENDBRANCH  17  18
ENDBRANCH  16  17
ENDBRANCH  15  16
ENDBRANCH   1  15
TORSDOF 22
ENDMDL
MODEL 8
REMARK VINA RESULT:    -5.608      1.359      3.385
REMARK INTER + INTRA:         -16.828
REMARK INTER:                 -12.981
REMARK INTRA:                  -3.847
REMARK UNBOUND:                -4.007
REMARK SMILES CCCCCCCCCCCCCCCCCCCCCCCC(=O)[O-]
REMARK SMILES IDX 13 1 14 2 15 3 16 4 17 5 18 6 19 7 20 8 21 9 22 10 23 11
REMARK SMILES IDX 24 12 25 13 26 14 12 15 11 16 10 17 9 18 8 19 7 20 6 21 5 22
REMARK SMILES IDX 4 23 3 24 2 25 1 26
REMARK H PARENT
REMARK Flexibility Score: inf
ROOT
ATOM      1  C   UNL     1     102.253 105.509 233.642  1.00  0.00     0.000 C 
ENDROOT
BRANCH   1   2
ATOM      2  C   UNL     1     101.072 106.407 233.231  1.00  0.00     0.000 C 
BRANCH   2   3
ATOM      3  C   UNL     1     100.387 105.941 231.934  1.00  0.00     0.000 C 
BRANCH   3   4
ATOM      4  C   UNL     1     101.380 105.327 230.933  1.00  0.00     0.000 C 
BRANCH   4   5
ATOM      5  C   UNL     1     100.954 103.927 230.455  1.00  0.00     0.000 C 
BRANCH   5   6
ATOM      6  C   UNL     1     102.153 103.032 230.103  1.00  0.00     0.000 C 
BRANCH   6   7
ATOM      7  C   UNL     1     103.070 102.774 231.310  1.00  0.00     0.000 C 
BRANCH   7   8
ATOM      8  C   UNL     1     104.413 102.141 230.907  1.00  0.00     0.000 C 
BRANCH   8   9
ATOM      9  C   UNL     1     105.479 103.188 230.544  1.00  0.00     0.000 C 
BRANCH   9  10
ATOM     10  C   UNL     1     106.848 102.901 231.185  1.00  0.00     0.006 C 
BRANCH  10  11
ATOM     11  C   UNL     1     108.031 103.555 230.449  1.00  0.00     0.053 C 
BRANCH  11  12
ATOM     12  C   UNL     1     109.034 102.550 229.967  1.00  0.00     0.041 C 
ATOM     13  O   UNL     1     108.895 101.331 230.249  1.00  0.00    -0.550 OA
ATOM     14  O   UNL     1     110.104 102.954 229.177  1.00  0.00    -0.550 OA
ENDBRANCH  11  12
ENDBRANCH  10  11
ENDBRANCH   9  10
ENDBRANCH   8   9
ENDBRANCH   7   8
ENDBRANCH   6   7
ENDBRANCH   5   6
ENDBRANCH   4   5
ENDBRANCH   3   4
ENDBRANCH   2   3
ENDBRANCH   1   2
BRANCH   1  15
ATOM     15  C   UNL     1     103.443 106.241 234.290  1.00  0.00     0.000 C 
BRANCH  15  16
ATOM     16  C   UNL     1     104.789 105.904 233.623  1.00  0.00     0.000 C 
BRANCH  16  17
ATOM     17  C   UNL     1     104.805 106.244 232.123  1.00  0.00     0.000 C 
BRANCH  17  18
ATOM     18  C   UNL     1     104.670 107.755 231.861  1.00  0.00    -0.000 C 
BRANCH  18  19
ATOM     19  C   UNL     1     105.454 108.213 230.619  1.00  0.00    -0.000 C 
BRANCH  19  20
ATOM     20  C   UNL     1     105.794 107.049 229.672  1.00  0.00    -0.000 C 
BRANCH  20  21
ATOM     21  C   UNL     1     104.834 106.956 228.472  1.00  0.00    -0.000 C 
BRANCH  21  22
ATOM     22  C   UNL     1     103.965 105.683 228.425  1.00  0.00    -0.000 C 
BRANCH  22  23
ATOM     23  C   UNL     1     103.734 105.101 227.017  1.00  0.00    -0.000 C 
BRANCH  23  24
ATOM     24  C   UNL     1     105.010 104.645 226.283  1.00  0.00    -0.000 C 
BRANCH  24  25
ATOM     25  C   UNL     1     105.979 103.802 227.131  1.00  0.00    -0.003 C 
ATOM     26  C   UNL     1     107.423 103.879 226.639  1.00  0.00     0.004 C 
ENDBRANCH  24  25
ENDBRANCH  23  24
ENDBRANCH  22  23
ENDBRANCH  21  22
ENDBRANCH  20  21
ENDBRANCH  19  20
ENDBRANCH  18  19
ENDBRANCH  17  18
ENDBRANCH  16  17
ENDBRANCH  15  16
ENDBRANCH   1  15
TORSDOF 22
ENDMDL
MODEL 9
REMARK VINA RESULT:    -5.587      1.033      3.550
REMARK INTER + INTRA:         -16.778
REMARK INTER:                 -13.443
REMARK INTRA:                  -3.335
REMARK UNBOUND:                -4.007
REMARK SMILES CCCCCCCCCCCCCCCCCCCCCCCC(=O)[O-]
REMARK SMILES IDX 13 1 14 2 15 3 16 4 17 5 18 6 19 7 20 8 21 9 22 10 23 11
REMARK SMILES IDX 24 12 25 13 26 14 12 15 11 16 10 17 9 18 8 19 7 20 6 21 5 22
REMARK SMILES IDX 4 23 3 24 2 25 1 26
REMARK H PARENT
REMARK Flexibility Score: inf
ROOT
ATOM      1  C   UNL     1     101.741 105.305 227.416  1.00  0.00     0.000 C 
ENDROOT
BRANCH   1   2
ATOM      2  C   UNL     1     101.144 104.825 228.752  1.00  0.00     0.000 C 
BRANCH   2   3
ATOM      3  C   UNL     1     101.255 103.303 228.945  1.00  0.00     0.000 C 
BRANCH   3   4
ATOM      4  C   UNL     1     101.069 102.880 230.411  1.00  0.00     0.000 C 
BRANCH   4   5
ATOM      5  C   UNL     1     102.243 102.037 230.941  1.00  0.00     0.000 C 
BRANCH   5   6
ATOM      6  C   UNL     1     103.597 102.474 230.357  1.00  0.00     0.000 C 
BRANCH   6   7
ATOM      7  C   UNL     1     104.688 101.404 230.534  1.00  0.00     0.000 C 
BRANCH   7   8
ATOM      8  C   UNL     1     105.822 101.866 231.464  1.00  0.00     0.000 C 
BRANCH   8   9
ATOM      9  C   UNL     1     106.016 103.392 231.450  1.00  0.00     0.000 C 
BRANCH   9  10
ATOM     10  C   UNL     1     107.466 103.812 231.145  1.00  0.00     0.006 C 
BRANCH  10  11
ATOM     11  C   UNL     1     108.131 102.991 230.026  1.00  0.00     0.053 C 
BRANCH  11  12
ATOM     12  C   UNL     1     109.598 103.269 229.903  1.00  0.00     0.041 C 
ATOM     13  O   UNL     1     110.327 102.520 229.201  1.00  0.00    -0.550 OA
ATOM     14  O   UNL     1     110.156 104.376 230.533  1.00  0.00    -0.550 OA
ENDBRANCH  11  12
ENDBRANCH  10  11
ENDBRANCH   9  10
ENDBRANCH   8   9
ENDBRANCH   7   8
ENDBRANCH   6   7
ENDBRANCH   5   6
ENDBRANCH   4   5
ENDBRANCH   3   4
ENDBRANCH   2   3
ENDBRANCH   1   2
BRANCH   1  15
ATOM     15  C   UNL     1     103.268 105.153 227.284  1.00  0.00     0.000 C 
BRANCH  15  16
ATOM     16  C   UNL     1     104.026 105.605 228.545  1.00  0.00     0.000 C 
BRANCH  16  17
ATOM     17  C   UNL     1     104.798 106.918 228.329  1.00  0.00     0.000 C 
BRANCH  17  18
ATOM     18  C   UNL     1     105.742 107.244 229.501  1.00  0.00    -0.000 C 
BRANCH  18  19
ATOM     19  C   UNL     1     105.289 108.475 230.303  1.00  0.00    -0.000 C 
BRANCH  19  20
ATOM     20  C   UNL     1     105.011 108.149 231.781  1.00  0.00    -0.000 C 
BRANCH  20  21
ATOM     21  C   UNL     1     105.115 106.644 232.090  1.00  0.00    -0.000 C 
BRANCH  21  22
ATOM     22  C   UNL     1     104.735 106.242 233.529  1.00  0.00    -0.000 C 
BRANCH  22  23
ATOM     23  C   UNL     1     103.256 105.860 233.732  1.00  0.00    -0.000 C 
BRANCH  23  24
ATOM     24  C   UNL     1     102.463 105.611 232.434  1.00  0.00    -0.000 C 
BRANCH  24  25
ATOM     25  C   UNL     1     100.995 106.072 232.474  1.00  0.00    -0.003 C 
ATOM     26  C   UNL     1     100.672 106.925 233.700  1.00  0.00     0.004 C 
ENDBRANCH  24  25
ENDBRANCH  23  24
ENDBRANCH  22  23
ENDBRANCH  21  22
ENDBRANCH  20  21
ENDBRANCH  19  20
ENDBRANCH  18  19
ENDBRANCH  17  18
ENDBRANCH  16  17
ENDBRANCH  15  16
ENDBRANCH   1  15
TORSDOF 22
ENDMDL
