MODEL 1
REMARK VINA RESULT:    -3.055      0.000      0.000
REMARK INTER + INTRA:          -4.047
REMARK INTER:                  -3.770
REMARK INTRA:                  -0.277
REMARK UNBOUND:                -0.277
REMARK SMILES CCCCC=CC(C)=O
REMARK SMILES IDX 4 1 3 2 2 3 1 4 5 5 6 6 7 7 9 8 8 9
REMARK H PARENT
REMARK Flexibility Score: inf
ROOT
ATOM      1  C   UNL     1     151.369 152.703 166.699  1.00  0.00     0.027 C 
ENDROOT
BRANCH   1   2
ATOM      2  C   UNL     1     150.594 153.227 165.481  1.00  0.00     0.004 C 
BRANCH   2   3
ATOM      3  C   UNL     1     150.823 154.725 165.236  1.00  0.00    -0.003 C 
ATOM      4  C   UNL     1     149.611 155.579 165.609  1.00  0.00     0.004 C 
ENDBRANCH   2   3
ENDBRANCH   1   2
BRANCH   1   5
ATOM      5  C   UNL     1     150.449 152.047 167.688  1.00  0.00    -0.023 C 
ATOM      6  C   UNL     1     149.133 152.291 167.684  1.00  0.00     0.042 C 
BRANCH   6   7
ATOM      7  C   UNL     1     148.191 151.680 168.644  1.00  0.00     0.152 C 
ATOM      8  O   UNL     1     146.984 152.041 168.620  1.00  0.00    -0.295 OA
ATOM      9  C   UNL     1     148.618 150.645 169.642  1.00  0.00     0.093 C 
ENDBRANCH   6   7
ENDBRANCH   1   5
TORSDOF 4
ENDMDL
MODEL 2
REMARK VINA RESULT:    -3.018      4.908      7.313
REMARK INTER + INTRA:          -4.001
REMARK INTER:                  -3.845
REMARK INTRA:                  -0.155
REMARK UNBOUND:                -0.277
REMARK SMILES CCCCC=CC(C)=O
REMARK SMILES IDX 4 1 3 2 2 3 1 4 5 5 6 6 7 7 9 8 8 9
REMARK H PARENT
REMARK Flexibility Score: inf
ROOT
ATOM      1  C   UNL     1     148.478 159.407 162.432  1.00  0.00     0.027 C 
ENDROOT
BRANCH   1   2
ATOM      2  C   UNL     1     147.761 159.769 163.741  1.00  0.00     0.004 C 
BRANCH   2   3
ATOM      3  C   UNL     1     146.359 160.349 163.504  1.00  0.00    -0.003 C 
ATOM      4  C   UNL     1     145.782 161.031 164.745  1.00  0.00     0.004 C 
ENDBRANCH   2   3
ENDBRANCH   1   2
BRANCH   1   5
ATOM      5  C   UNL     1     149.227 158.112 162.564  1.00  0.00    -0.023 C 
ATOM      6  C   UNL     1     149.271 157.447 163.725  1.00  0.00     0.042 C 
BRANCH   6   7
ATOM      7  C   UNL     1     150.005 156.177 163.905  1.00  0.00     0.152 C 
ATOM      8  O   UNL     1     150.347 155.526 162.882  1.00  0.00    -0.295 OA
ATOM      9  C   UNL     1     150.359 155.638 165.259  1.00  0.00     0.093 C 
ENDBRANCH   6   7
ENDBRANCH   1   5
TORSDOF 4
ENDMDL
MODEL 3
REMARK VINA RESULT:    -2.991      2.326      4.831
REMARK INTER + INTRA:          -3.968
REMARK INTER:                  -3.731
REMARK INTRA:                  -0.236
REMARK UNBOUND:                -0.277
REMARK SMILES CCCCC=CC(C)=O
REMARK SMILES IDX 4 1 3 2 2 3 1 4 5 5 6 6 7 7 9 8 8 9
REMARK H PARENT
REMARK Flexibility Score: inf
ROOT
ATOM      1  C   UNL     1     150.318 151.891 166.578  1.00  0.00     0.027 C 
ENDROOT
BRANCH   1   2
ATOM      2  C   UNL     1     150.486 151.878 168.105  1.00  0.00     0.004 C 
BRANCH   2   3
ATOM      3  C   UNL     1     149.239 151.351 168.830  1.00  0.00    -0.003 C 
ATOM      4  C   UNL     1     147.966 152.105 168.444  1.00  0.00     0.004 C 
ENDBRANCH   2   3
ENDBRANCH   1   2
BRANCH   1   5
ATOM      5  C   UNL     1     150.737 153.211 165.998  1.00  0.00    -0.023 C 
ATOM      6  C   UNL     1     149.845 154.051 165.458  1.00  0.00     0.042 C 
BRANCH   6   7
ATOM      7  C   UNL     1     150.211 155.353 164.865  1.00  0.00     0.152 C 
ATOM      8  O   UNL     1     150.388 156.338 165.630  1.00  0.00    -0.295 OA
ATOM      9  C   UNL     1     150.381 155.544 163.387  1.00  0.00     0.093 C 
ENDBRANCH   6   7
ENDBRANCH   1   5
TORSDOF 4
ENDMDL
MODEL 4
REMARK VINA RESULT:    -2.989     14.740     16.212
REMARK INTER + INTRA:          -3.966
REMARK INTER:                  -3.881
REMARK INTRA:                  -0.084
REMARK UNBOUND:                -0.277
REMARK SMILES CCCCC=CC(C)=O
REMARK SMILES IDX 4 1 3 2 2 3 1 4 5 5 6 6 7 7 9 8 8 9
REMARK H PARENT
REMARK Flexibility Score: inf
ROOT
ATOM      1  C   UNL     1     146.297 165.791 175.626  1.00  0.00     0.027 C 
ENDROOT
BRANCH   1   2
ATOM      2  C   UNL     1     145.725 166.112 177.015  1.00  0.00     0.004 C 
BRANCH   2   3
ATOM      3  C   UNL     1     146.373 165.274 178.127  1.00  0.00    -0.003 C 
ATOM      4  C   UNL     1     147.163 166.122 179.124  1.00  0.00     0.004 C 
ENDBRANCH   2   3
ENDBRANCH   1   2
BRANCH   1   5
ATOM      5  C   UNL     1     145.249 165.940 174.560  1.00  0.00    -0.023 C 
ATOM      6  C   UNL     1     145.467 165.528 173.306  1.00  0.00     0.042 C 
BRANCH   6   7
ATOM      7  C   UNL     1     144.472 165.665 172.222  1.00  0.00     0.152 C 
ATOM      8  O   UNL     1     143.257 165.789 172.530  1.00  0.00    -0.295 OA
ATOM      9  C   UNL     1     144.857 165.666 170.773  1.00  0.00     0.093 C 
ENDBRANCH   6   7
ENDBRANCH   1   5
TORSDOF 4
ENDMDL
MODEL 5
REMARK VINA RESULT:    -2.963      3.600      5.334
REMARK INTER + INTRA:          -3.933
REMARK INTER:                  -3.770
REMARK INTRA:                  -0.163
REMARK UNBOUND:                -0.277
REMARK SMILES CCCCC=CC(C)=O
REMARK SMILES IDX 4 1 3 2 2 3 1 4 5 5 6 6 7 7 9 8 8 9
REMARK H PARENT
REMARK Flexibility Score: inf
ROOT
ATOM      1  C   UNL     1     149.785 151.804 166.452  1.00  0.00     0.027 C 
ENDROOT
BRANCH   1   2
ATOM      2  C   UNL     1     150.423 152.301 167.758  1.00  0.00     0.004 C 
BRANCH   2   3
ATOM      3  C   UNL     1     150.256 151.302 168.913  1.00  0.00    -0.003 C 
ATOM      4  C   UNL     1     148.791 151.027 169.252  1.00  0.00     0.004 C 
ENDBRANCH   2   3
ENDBRANCH   1   2
BRANCH   1   5
ATOM      5  C   UNL     1     150.830 151.524 165.411  1.00  0.00    -0.023 C 
ATOM      6  C   UNL     1     150.903 150.337 164.797  1.00  0.00     0.042 C 
BRANCH   6   7
ATOM      7  C   UNL     1     151.921 150.011 163.777  1.00  0.00     0.152 C 
ATOM      8  O   UNL     1     153.129 149.949 164.128  1.00  0.00    -0.295 OA
ATOM      9  C   UNL     1     151.567 149.749 162.343  1.00  0.00     0.093 C 
ENDBRANCH   6   7
ENDBRANCH   1   5
TORSDOF 4
ENDMDL
MODEL 6
REMARK VINA RESULT:    -2.902      2.567      5.124
REMARK INTER + INTRA:          -3.858
REMARK INTER:                  -3.589
REMARK INTRA:                  -0.270
REMARK UNBOUND:                -0.277
REMARK SMILES CCCCC=CC(C)=O
REMARK SMILES IDX 4 1 3 2 2 3 1 4 5 5 6 6 7 7 9 8 8 9
REMARK H PARENT
REMARK Flexibility Score: inf
ROOT
ATOM      1  C   UNL     1     147.592 153.088 166.550  1.00  0.00     0.027 C 
ENDROOT
BRANCH   1   2
ATOM      2  C   UNL     1     148.054 153.183 168.012  1.00  0.00     0.004 C 
BRANCH   2   3
ATOM      3  C   UNL     1     148.513 151.829 168.574  1.00  0.00    -0.003 C 
ATOM      4  C   UNL     1     149.977 151.522 168.257  1.00  0.00     0.004 C 
ENDBRANCH   2   3
ENDBRANCH   1   2
BRANCH   1   5
ATOM      5  C   UNL     1     148.504 153.864 165.642  1.00  0.00    -0.023 C 
ATOM      6  C   UNL     1     149.245 154.879 166.101  1.00  0.00     0.042 C 
BRANCH   6   7
ATOM      7  C   UNL     1     150.145 155.679 165.244  1.00  0.00     0.152 C 
ATOM      8  O   UNL     1     151.384 155.455 165.294  1.00  0.00    -0.295 OA
ATOM      9  C   UNL     1     149.638 156.744 164.318  1.00  0.00     0.093 C 
ENDBRANCH   6   7
ENDBRANCH   1   5
TORSDOF 4
ENDMDL
MODEL 7
REMARK VINA RESULT:    -2.896      4.406      7.008
REMARK INTER + INTRA:          -3.850
REMARK INTER:                  -3.681
REMARK INTRA:                  -0.169
REMARK UNBOUND:                -0.277
REMARK SMILES CCCCC=CC(C)=O
REMARK SMILES IDX 4 1 3 2 2 3 1 4 5 5 6 6 7 7 9 8 8 9
REMARK H PARENT
REMARK Flexibility Score: inf
ROOT
ATOM      1  C   UNL     1     150.379 155.730 163.714  1.00  0.00     0.027 C 
ENDROOT
BRANCH   1   2
ATOM      2  C   UNL     1     150.124 155.788 165.228  1.00  0.00     0.004 C 
BRANCH   2   3
ATOM      3  C   UNL     1     149.297 154.596 165.732  1.00  0.00    -0.003 C 
ATOM      4  C   UNL     1     150.146 153.350 165.985  1.00  0.00     0.004 C 
ENDBRANCH   2   3
ENDBRANCH   1   2
BRANCH   1   5
ATOM      5  C   UNL     1     149.611 156.801 162.994  1.00  0.00    -0.023 C 
ATOM      6  C   UNL     1     149.338 157.975 163.576  1.00  0.00     0.042 C 
BRANCH   6   7
ATOM      7  C   UNL     1     148.576 159.052 162.912  1.00  0.00     0.152 C 
ATOM      8  O   UNL     1     148.815 159.304 161.701  1.00  0.00    -0.295 OA
ATOM      9  C   UNL     1     147.528 159.854 163.626  1.00  0.00     0.093 C 
ENDBRANCH   6   7
ENDBRANCH   1   5
TORSDOF 4
ENDMDL
MODEL 8
REMARK VINA RESULT:    -2.874      3.747      4.619
REMARK INTER + INTRA:          -3.823
REMARK INTER:                  -3.638
REMARK INTRA:                  -0.185
REMARK UNBOUND:                -0.277
REMARK SMILES CCCCC=CC(C)=O
REMARK SMILES IDX 4 1 3 2 2 3 1 4 5 5 6 6 7 7 9 8 8 9
REMARK H PARENT
REMARK Flexibility Score: inf
ROOT
ATOM      1  C   UNL     1     151.652 150.103 163.904  1.00  0.00     0.027 C 
ENDROOT
BRANCH   1   2
ATOM      2  C   UNL     1     150.865 149.331 162.834  1.00  0.00     0.004 C 
BRANCH   2   3
ATOM      3  C   UNL     1     149.533 148.781 163.366  1.00  0.00    -0.003 C 
ATOM      4  C   UNL     1     149.025 147.582 162.565  1.00  0.00     0.004 C 
ENDBRANCH   2   3
ENDBRANCH   1   2
BRANCH   1   5
ATOM      5  C   UNL     1     150.754 150.549 165.022  1.00  0.00    -0.023 C 
ATOM      6  C   UNL     1     150.962 151.704 165.665  1.00  0.00     0.042 C 
BRANCH   6   7
ATOM      7  C   UNL     1     150.114 152.178 166.778  1.00  0.00     0.152 C 
ATOM      8  O   UNL     1     149.405 153.204 166.604  1.00  0.00    -0.295 OA
ATOM      9  C   UNL     1     150.066 151.480 168.105  1.00  0.00     0.093 C 
ENDBRANCH   6   7
ENDBRANCH   1   5
TORSDOF 4
ENDMDL
MODEL 9
REMARK VINA RESULT:    -2.866      1.482      2.137
REMARK INTER + INTRA:          -3.813
REMARK INTER:                  -3.689
REMARK INTRA:                  -0.124
REMARK UNBOUND:                -0.277
REMARK SMILES CCCCC=CC(C)=O
REMARK SMILES IDX 4 1 3 2 2 3 1 4 5 5 6 6 7 7 9 8 8 9
REMARK H PARENT
REMARK Flexibility Score: inf
ROOT
ATOM      1  C   UNL     1     149.295 155.117 165.637  1.00  0.00     0.027 C 
ENDROOT
BRANCH   1   2
ATOM      2  C   UNL     1     150.604 155.351 164.868  1.00  0.00     0.004 C 
BRANCH   2   3
ATOM      3  C   UNL     1     150.366 155.882 163.447  1.00  0.00    -0.003 C 
ATOM      4  C   UNL     1     149.591 157.200 163.429  1.00  0.00     0.004 C 
ENDBRANCH   2   3
ENDBRANCH   1   2
BRANCH   1   5
ATOM      5  C   UNL     1     149.299 153.780 166.321  1.00  0.00    -0.023 C 
ATOM      6  C   UNL     1     148.544 153.546 167.401  1.00  0.00     0.042 C 
BRANCH   6   7
ATOM      7  C   UNL     1     148.525 152.253 168.113  1.00  0.00     0.152 C 
ATOM      8  O   UNL     1     147.424 151.815 168.542  1.00  0.00    -0.295 OA
ATOM      9  C   UNL     1     149.766 151.442 168.343  1.00  0.00     0.093 C 
ENDBRANCH   6   7
ENDBRANCH   1   5
TORSDOF 4
ENDMDL
