MODEL 1
REMARK VINA RESULT:    -4.822      0.000      0.000
REMARK INTER + INTRA:          -9.870
REMARK INTER:                  -8.487
REMARK INTRA:                  -1.383
REMARK UNBOUND:                -1.383
REMARK SMILES CCCCCCCCCCCCCCC(=O)[O-]
REMARK SMILES IDX 9 1 10 2 11 3 12 4 13 5 14 6 15 7 16 8 17 9 8 10 7 11 6 12
REMARK SMILES IDX 5 13 4 14 3 15 2 16 1 17
REMARK H PARENT
REMARK Flexibility Score: inf
ROOT
ATOM      1  C   UNL     1     -29.263  63.492  83.231  1.00  0.00     0.000 C 
ENDROOT
BRANCH   1   2
ATOM      2  C   UNL     1     -29.559  64.849  82.571  1.00  0.00     0.000 C 
BRANCH   2   3
ATOM      3  C   UNL     1     -28.308  65.482  81.938  1.00  0.00     0.000 C 
BRANCH   3   4
ATOM      4  C   UNL     1     -28.174  66.978  82.264  1.00  0.00     0.000 C 
BRANCH   4   5
ATOM      5  C   UNL     1     -28.510  67.299  83.728  1.00  0.00     0.006 C 
BRANCH   5   6
ATOM      6  C   UNL     1     -27.336  66.950  84.648  1.00  0.00     0.053 C 
BRANCH   6   7
ATOM      7  C   UNL     1     -27.219  67.950  85.754  1.00  0.00     0.041 C 
ATOM      8  O   UNL     1     -26.327  68.838  85.714  1.00  0.00    -0.550 OA
ATOM      9  O   UNL     1     -28.129  67.935  86.804  1.00  0.00    -0.550 OA
ENDBRANCH   6   7
ENDBRANCH   5   6
ENDBRANCH   4   5
ENDBRANCH   3   4
ENDBRANCH   2   3
ENDBRANCH   1   2
BRANCH   1  10
ATOM     10  C   UNL     1     -28.949  63.620  84.733  1.00  0.00     0.000 C 
BRANCH  10  11
ATOM     11  C   UNL     1     -30.210  63.824  85.588  1.00  0.00    -0.000 C 
BRANCH  11  12
ATOM     12  C   UNL     1     -30.235  65.195  86.286  1.00  0.00    -0.000 C 
BRANCH  12  13
ATOM     13  C   UNL     1     -31.100  66.223  85.539  1.00  0.00    -0.000 C 
BRANCH  13  14
ATOM     14  C   UNL     1     -32.253  66.766  86.397  1.00  0.00    -0.000 C 
BRANCH  14  15
ATOM     15  C   UNL     1     -31.943  68.180  86.901  1.00  0.00    -0.000 C 
BRANCH  15  16
ATOM     16  C   UNL     1     -30.900  68.865  86.009  1.00  0.00    -0.003 C 
ATOM     17  C   UNL     1     -30.886  70.374  86.238  1.00  0.00     0.004 C 
ENDBRANCH  15  16
ENDBRANCH  14  15
ENDBRANCH  13  14
ENDBRANCH  12  13
ENDBRANCH  11  12
ENDBRANCH  10  11
ENDBRANCH   1  10
TORSDOF 13
ENDMDL
MODEL 2
REMARK VINA RESULT:    -4.724      1.257      4.038
REMARK INTER + INTRA:          -9.698
REMARK INTER:                  -7.858
REMARK INTRA:                  -1.840
REMARK UNBOUND:                -1.383
REMARK SMILES CCCCCCCCCCCCCCC(=O)[O-]
REMARK SMILES IDX 9 1 10 2 11 3 12 4 13 5 14 6 15 7 16 8 17 9 8 10 7 11 6 12
REMARK SMILES IDX 5 13 4 14 3 15 2 16 1 17
REMARK H PARENT
REMARK Flexibility Score: inf
ROOT
ATOM      1  C   UNL     1     -28.925  63.330  84.554  1.00  0.00     0.000 C 
ENDROOT
BRANCH   1   2
ATOM      2  C   UNL     1     -30.122  63.406  85.516  1.00  0.00     0.000 C 
BRANCH   2   3
ATOM      3  C   UNL     1     -30.145  64.715  86.325  1.00  0.00     0.000 C 
BRANCH   3   4
ATOM      4  C   UNL     1     -30.914  65.837  85.610  1.00  0.00     0.000 C 
BRANCH   4   5
ATOM      5  C   UNL     1     -31.024  67.114  86.457  1.00  0.00     0.006 C 
BRANCH   5   6
ATOM      6  C   UNL     1     -31.019  68.362  85.568  1.00  0.00     0.053 C 
BRANCH   6   7
ATOM      7  C   UNL     1     -30.486  69.540  86.321  1.00  0.00     0.041 C 
ATOM      8  O   UNL     1     -29.571  69.387  87.173  1.00  0.00    -0.550 OA
ATOM      9  O   UNL     1     -30.963  70.816  86.045  1.00  0.00    -0.550 OA
ENDBRANCH   6   7
ENDBRANCH   5   6
ENDBRANCH   4   5
ENDBRANCH   3   4
ENDBRANCH   2   3
ENDBRANCH   1   2
BRANCH   1  10
ATOM     10  C   UNL     1     -29.354  63.226  83.080  1.00  0.00     0.000 C 
BRANCH  10  11
ATOM     11  C   UNL     1     -29.583  64.601  82.431  1.00  0.00    -0.000 C 
BRANCH  11  12
ATOM     12  C   UNL     1     -28.279  65.237  81.919  1.00  0.00    -0.000 C 
BRANCH  12  13
ATOM     13  C   UNL     1     -28.298  66.772  82.005  1.00  0.00    -0.000 C 
BRANCH  13  14
ATOM     14  C   UNL     1     -28.395  67.286  83.449  1.00  0.00    -0.000 C 
BRANCH  14  15
ATOM     15  C   UNL     1     -27.496  66.469  84.384  1.00  0.00    -0.000 C 
BRANCH  15  16
ATOM     16  C   UNL     1     -27.329  67.169  85.738  1.00  0.00    -0.003 C 
ATOM     17  C   UNL     1     -26.704  68.552  85.569  1.00  0.00     0.004 C 
ENDBRANCH  15  16
ENDBRANCH  14  15
ENDBRANCH  13  14
ENDBRANCH  12  13
ENDBRANCH  11  12
ENDBRANCH  10  11
ENDBRANCH   1  10
TORSDOF 13
ENDMDL
MODEL 3
REMARK VINA RESULT:    -4.715      2.311      4.858
REMARK INTER + INTRA:          -9.682
REMARK INTER:                  -7.835
REMARK INTRA:                  -1.847
REMARK UNBOUND:                -1.383
REMARK SMILES CCCCCCCCCCCCCCC(=O)[O-]
REMARK SMILES IDX 9 1 10 2 11 3 12 4 13 5 14 6 15 7 16 8 17 9 8 10 7 11 6 12
REMARK SMILES IDX 5 13 4 14 3 15 2 16 1 17
REMARK H PARENT
REMARK Flexibility Score: inf
ROOT
ATOM      1  C   UNL     1     -28.239  68.285  86.936  1.00  0.00     0.000 C 
ENDROOT
BRANCH   1   2
ATOM      2  C   UNL     1     -27.309  68.563  85.744  1.00  0.00     0.000 C 
BRANCH   2   3
ATOM      3  C   UNL     1     -26.578  67.299  85.259  1.00  0.00     0.000 C 
BRANCH   3   4
ATOM      4  C   UNL     1     -27.504  66.336  84.500  1.00  0.00     0.000 C 
BRANCH   4   5
ATOM      5  C   UNL     1     -28.331  67.040  83.413  1.00  0.00     0.006 C 
BRANCH   5   6
ATOM      6  C   UNL     1     -29.521  66.176  82.985  1.00  0.00     0.053 C 
BRANCH   6   7
ATOM      7  C   UNL     1     -29.086  65.132  82.006  1.00  0.00     0.041 C 
ATOM      8  O   UNL     1     -29.842  64.160  81.738  1.00  0.00    -0.550 OA
ATOM      9  O   UNL     1     -27.868  65.258  81.350  1.00  0.00    -0.550 OA
ENDBRANCH   6   7
ENDBRANCH   5   6
ENDBRANCH   4   5
ENDBRANCH   3   4
ENDBRANCH   2   3
ENDBRANCH   1   2
BRANCH   1  10
ATOM     10  C   UNL     1     -29.552  69.087  86.864  1.00  0.00     0.000 C 
BRANCH  10  11
ATOM     11  C   UNL     1     -30.563  68.483  85.876  1.00  0.00    -0.000 C 
BRANCH  11  12
ATOM     12  C   UNL     1     -31.420  67.375  86.512  1.00  0.00    -0.000 C 
BRANCH  12  13
ATOM     13  C   UNL     1     -31.141  65.990  85.905  1.00  0.00    -0.000 C 
BRANCH  13  14
ATOM     14  C   UNL     1     -29.968  65.269  86.585  1.00  0.00    -0.000 C 
BRANCH  14  15
ATOM     15  C   UNL     1     -30.173  63.750  86.568  1.00  0.00    -0.000 C 
BRANCH  15  16
ATOM     16  C   UNL     1     -30.113  63.203  85.136  1.00  0.00    -0.003 C 
ATOM     17  C   UNL     1     -28.679  62.857  84.739  1.00  0.00     0.004 C 
ENDBRANCH  15  16
ENDBRANCH  14  15
ENDBRANCH  13  14
ENDBRANCH  12  13
ENDBRANCH  11  12
ENDBRANCH  10  11
ENDBRANCH   1  10
TORSDOF 13
ENDMDL
MODEL 4
REMARK VINA RESULT:    -4.689      2.491      5.379
REMARK INTER + INTRA:          -9.636
REMARK INTER:                  -7.793
REMARK INTRA:                  -1.843
REMARK UNBOUND:                -1.383
REMARK SMILES CCCCCCCCCCCCCCC(=O)[O-]
REMARK SMILES IDX 9 1 10 2 11 3 12 4 13 5 14 6 15 7 16 8 17 9 8 10 7 11 6 12
REMARK SMILES IDX 5 13 4 14 3 15 2 16 1 17
REMARK H PARENT
REMARK Flexibility Score: inf
ROOT
ATOM      1  C   UNL     1     -31.755  68.242  86.861  1.00  0.00     0.000 C 
ENDROOT
BRANCH   1   2
ATOM      2  C   UNL     1     -32.226  66.857  86.388  1.00  0.00     0.000 C 
BRANCH   2   3
ATOM      3  C   UNL     1     -31.179  66.146  85.512  1.00  0.00     0.000 C 
BRANCH   3   4
ATOM      4  C   UNL     1     -30.322  65.149  86.308  1.00  0.00     0.000 C 
BRANCH   4   5
ATOM      5  C   UNL     1     -30.153  63.803  85.588  1.00  0.00     0.006 C 
BRANCH   5   6
ATOM      6  C   UNL     1     -28.726  63.643  85.056  1.00  0.00     0.053 C 
BRANCH   6   7
ATOM      7  C   UNL     1     -28.703  62.710  83.886  1.00  0.00     0.041 C 
ATOM      8  O   UNL     1     -27.965  61.690  83.903  1.00  0.00    -0.550 OA
ATOM      9  O   UNL     1     -29.535  62.940  82.797  1.00  0.00    -0.550 OA
ENDBRANCH   6   7
ENDBRANCH   5   6
ENDBRANCH   4   5
ENDBRANCH   3   4
ENDBRANCH   2   3
ENDBRANCH   1   2
BRANCH   1  10
ATOM     10  C   UNL     1     -30.502  68.731  86.112  1.00  0.00     0.000 C 
BRANCH  10  11
ATOM     11  C   UNL     1     -29.314  68.994  87.051  1.00  0.00    -0.000 C 
BRANCH  11  12
ATOM     12  C   UNL     1     -28.187  67.960  86.882  1.00  0.00    -0.000 C 
BRANCH  12  13
ATOM     13  C   UNL     1     -27.378  68.174  85.592  1.00  0.00    -0.000 C 
BRANCH  13  14
ATOM     14  C   UNL     1     -27.553  67.029  84.584  1.00  0.00    -0.000 C 
BRANCH  14  15
ATOM     15  C   UNL     1     -28.447  67.459  83.415  1.00  0.00    -0.000 C 
BRANCH  15  16
ATOM     16  C   UNL     1     -28.951  66.242  82.631  1.00  0.00    -0.003 C 
ATOM     17  C   UNL     1     -27.917  65.779  81.609  1.00  0.00     0.004 C 
ENDBRANCH  15  16
ENDBRANCH  14  15
ENDBRANCH  13  14
ENDBRANCH  12  13
ENDBRANCH  11  12
ENDBRANCH  10  11
ENDBRANCH   1  10
TORSDOF 13
ENDMDL
MODEL 5
REMARK VINA RESULT:    -4.685      1.709      3.739
REMARK INTER + INTRA:          -9.628
REMARK INTER:                  -8.116
REMARK INTRA:                  -1.512
REMARK UNBOUND:                -1.383
REMARK SMILES CCCCCCCCCCCCCCC(=O)[O-]
REMARK SMILES IDX 9 1 10 2 11 3 12 4 13 5 14 6 15 7 16 8 17 9 8 10 7 11 6 12
REMARK SMILES IDX 5 13 4 14 3 15 2 16 1 17
REMARK H PARENT
REMARK Flexibility Score: inf
ROOT
ATOM      1  C   UNL     1     -28.609  67.303  83.505  1.00  0.00     0.000 C 
ENDROOT
BRANCH   1   2
ATOM      2  C   UNL     1     -28.177  66.815  82.113  1.00  0.00     0.000 C 
BRANCH   2   3
ATOM      3  C   UNL     1     -28.247  65.283  81.978  1.00  0.00     0.000 C 
BRANCH   3   4
ATOM      4  C   UNL     1     -29.609  64.715  82.403  1.00  0.00     0.000 C 
BRANCH   4   5
ATOM      5  C   UNL     1     -29.482  63.437  83.247  1.00  0.00     0.006 C 
BRANCH   5   6
ATOM      6  C   UNL     1     -28.668  63.698  84.517  1.00  0.00     0.053 C 
BRANCH   6   7
ATOM      7  C   UNL     1     -29.571  63.828  85.703  1.00  0.00     0.041 C 
ATOM      8  O   UNL     1     -30.529  63.026  85.860  1.00  0.00    -0.550 OA
ATOM      9  O   UNL     1     -29.324  64.803  86.662  1.00  0.00    -0.550 OA
ENDBRANCH   6   7
ENDBRANCH   5   6
ENDBRANCH   4   5
ENDBRANCH   3   4
ENDBRANCH   2   3
ENDBRANCH   1   2
BRANCH   1  10
ATOM     10  C   UNL     1     -27.530  67.066  84.578  1.00  0.00     0.000 C 
BRANCH  10  11
ATOM     11  C   UNL     1     -27.424  68.227  85.580  1.00  0.00    -0.000 C 
BRANCH  11  12
ATOM     12  C   UNL     1     -28.222  67.968  86.870  1.00  0.00    -0.000 C 
BRANCH  12  13
ATOM     13  C   UNL     1     -29.357  68.984  87.076  1.00  0.00    -0.000 C 
BRANCH  13  14
ATOM     14  C   UNL     1     -30.540  68.756  86.123  1.00  0.00    -0.000 C 
BRANCH  14  15
ATOM     15  C   UNL     1     -31.761  68.224  86.883  1.00  0.00    -0.000 C 
BRANCH  15  16
ATOM     16  C   UNL     1     -32.135  66.816  86.406  1.00  0.00    -0.003 C 
ATOM     17  C   UNL     1     -31.611  66.554  84.996  1.00  0.00     0.004 C 
ENDBRANCH  15  16
ENDBRANCH  14  15
ENDBRANCH  13  14
ENDBRANCH  12  13
ENDBRANCH  11  12
ENDBRANCH  10  11
ENDBRANCH   1  10
TORSDOF 13
ENDMDL
MODEL 6
REMARK VINA RESULT:    -4.660      2.327      4.472
REMARK INTER + INTRA:          -9.584
REMARK INTER:                  -7.826
REMARK INTRA:                  -1.758
REMARK UNBOUND:                -1.383
REMARK SMILES CCCCCCCCCCCCCCC(=O)[O-]
REMARK SMILES IDX 9 1 10 2 11 3 12 4 13 5 14 6 15 7 16 8 17 9 8 10 7 11 6 12
REMARK SMILES IDX 5 13 4 14 3 15 2 16 1 17
REMARK H PARENT
REMARK Flexibility Score: inf
ROOT
ATOM      1  C   UNL     1     -27.004  68.725  86.061  1.00  0.00     0.000 C 
ENDROOT
BRANCH   1   2
ATOM      2  C   UNL     1     -26.331  67.602  85.254  1.00  0.00     0.000 C 
BRANCH   2   3
ATOM      3  C   UNL     1     -27.352  66.676  84.568  1.00  0.00     0.000 C 
BRANCH   3   4
ATOM      4  C   UNL     1     -28.166  67.398  83.483  1.00  0.00     0.000 C 
BRANCH   4   5
ATOM      5  C   UNL     1     -29.203  66.484  82.813  1.00  0.00     0.006 C 
BRANCH   5   6
ATOM      6  C   UNL     1     -28.528  65.263  82.181  1.00  0.00     0.053 C 
BRANCH   6   7
ATOM      7  C   UNL     1     -29.240  64.007  82.574  1.00  0.00     0.041 C 
ATOM      8  O   UNL     1     -30.284  63.652  81.963  1.00  0.00    -0.550 OA
ATOM      9  O   UNL     1     -28.724  63.201  83.580  1.00  0.00    -0.550 OA
ENDBRANCH   6   7
ENDBRANCH   5   6
ENDBRANCH   4   5
ENDBRANCH   3   4
ENDBRANCH   2   3
ENDBRANCH   1   2
BRANCH   1  10
ATOM     10  C   UNL     1     -28.142  68.210  86.960  1.00  0.00     0.000 C 
BRANCH  10  11
ATOM     11  C   UNL     1     -29.365  69.142  86.961  1.00  0.00    -0.000 C 
BRANCH  11  12
ATOM     12  C   UNL     1     -30.493  68.638  86.044  1.00  0.00    -0.000 C 
BRANCH  12  13
ATOM     13  C   UNL     1     -31.636  67.969  86.826  1.00  0.00    -0.000 C 
BRANCH  13  14
ATOM     14  C   UNL     1     -32.256  66.783  86.073  1.00  0.00    -0.000 C 
BRANCH  14  15
ATOM     15  C   UNL     1     -31.221  66.105  85.169  1.00  0.00    -0.000 C 
BRANCH  15  16
ATOM     16  C   UNL     1     -30.792  64.750  85.745  1.00  0.00    -0.003 C 
ATOM     17  C   UNL     1     -29.539  64.889  86.606  1.00  0.00     0.004 C 
ENDBRANCH  15  16
ENDBRANCH  14  15
ENDBRANCH  13  14
ENDBRANCH  12  13
ENDBRANCH  11  12
ENDBRANCH  10  11
ENDBRANCH   1  10
TORSDOF 13
ENDMDL
MODEL 7
REMARK VINA RESULT:    -4.652      2.215      5.626
REMARK INTER + INTRA:          -9.571
REMARK INTER:                  -8.152
REMARK INTRA:                  -1.419
REMARK UNBOUND:                -1.383
REMARK SMILES CCCCCCCCCCCCCCC(=O)[O-]
REMARK SMILES IDX 9 1 10 2 11 3 12 4 13 5 14 6 15 7 16 8 17 9 8 10 7 11 6 12
REMARK SMILES IDX 5 13 4 14 3 15 2 16 1 17
REMARK H PARENT
REMARK Flexibility Score: inf
ROOT
ATOM      1  C   UNL     1     -29.390  68.996  87.195  1.00  0.00     0.000 C 
ENDROOT
BRANCH   1   2
ATOM      2  C   UNL     1     -30.473  68.572  86.189  1.00  0.00     0.000 C 
BRANCH   2   3
ATOM      3  C   UNL     1     -31.716  67.979  86.875  1.00  0.00     0.000 C 
BRANCH   3   4
ATOM      4  C   UNL     1     -32.282  66.764  86.124  1.00  0.00     0.000 C 
BRANCH   4   5
ATOM      5  C   UNL     1     -31.223  66.047  85.273  1.00  0.00     0.006 C 
BRANCH   5   6
ATOM      6  C   UNL     1     -30.310  65.183  86.149  1.00  0.00     0.053 C 
BRANCH   6   7
ATOM      7  C   UNL     1     -30.149  63.819  85.556  1.00  0.00     0.041 C 
ATOM      8  O   UNL     1     -30.569  62.805  86.175  1.00  0.00    -0.550 OA
ATOM      9  O   UNL     1     -29.583  63.671  84.296  1.00  0.00    -0.550 OA
ENDBRANCH   6   7
ENDBRANCH   5   6
ENDBRANCH   4   5
ENDBRANCH   3   4
ENDBRANCH   2   3
ENDBRANCH   1   2
BRANCH   1  10
ATOM     10  C   UNL     1     -28.093  68.180  87.048  1.00  0.00     0.000 C 
BRANCH  10  11
ATOM     11  C   UNL     1     -27.280  68.577  85.805  1.00  0.00    -0.000 C 
BRANCH  11  12
ATOM     12  C   UNL     1     -26.574  67.375  85.153  1.00  0.00    -0.000 C 
BRANCH  12  13
ATOM     13  C   UNL     1     -27.550  66.446  84.415  1.00  0.00    -0.000 C 
BRANCH  13  14
ATOM     14  C   UNL     1     -28.523  67.208  83.504  1.00  0.00    -0.000 C 
BRANCH  14  15
ATOM     15  C   UNL     1     -28.186  66.977  82.026  1.00  0.00    -0.000 C 
BRANCH  15  16
ATOM     16  C   UNL     1     -27.875  65.500  81.757  1.00  0.00    -0.003 C 
ATOM     17  C   UNL     1     -28.700  64.968  80.588  1.00  0.00     0.004 C 
ENDBRANCH  15  16
ENDBRANCH  14  15
ENDBRANCH  13  14
ENDBRANCH  12  13
ENDBRANCH  11  12
ENDBRANCH  10  11
ENDBRANCH   1  10
TORSDOF 13
ENDMDL
MODEL 8
REMARK VINA RESULT:    -4.645      1.420      2.681
REMARK INTER + INTRA:          -9.559
REMARK INTER:                  -8.067
REMARK INTRA:                  -1.492
REMARK UNBOUND:                -1.383
REMARK SMILES CCCCCCCCCCCCCCC(=O)[O-]
REMARK SMILES IDX 9 1 10 2 11 3 12 4 13 5 14 6 15 7 16 8 17 9 8 10 7 11 6 12
REMARK SMILES IDX 5 13 4 14 3 15 2 16 1 17
REMARK H PARENT
REMARK Flexibility Score: inf
ROOT
ATOM      1  C   UNL     1     -28.284  65.270  81.665  1.00  0.00     0.000 C 
ENDROOT
BRANCH   1   2
ATOM      2  C   UNL     1     -28.064  66.773  81.905  1.00  0.00     0.000 C 
BRANCH   2   3
ATOM      3  C   UNL     1     -28.466  67.208  83.325  1.00  0.00     0.000 C 
BRANCH   3   4
ATOM      4  C   UNL     1     -27.345  66.982  84.351  1.00  0.00     0.000 C 
BRANCH   4   5
ATOM      5  C   UNL     1     -27.266  68.102  85.400  1.00  0.00     0.006 C 
BRANCH   5   6
ATOM      6  C   UNL     1     -27.792  67.621  86.755  1.00  0.00     0.053 C 
BRANCH   6   7
ATOM      7  C   UNL     1     -28.559  68.710  87.437  1.00  0.00     0.041 C 
ATOM      8  O   UNL     1     -28.215  69.107  88.582  1.00  0.00    -0.550 OA
ATOM      9  O   UNL     1     -29.624  69.323  86.787  1.00  0.00    -0.550 OA
ENDBRANCH   6   7
ENDBRANCH   5   6
ENDBRANCH   4   5
ENDBRANCH   3   4
ENDBRANCH   2   3
ENDBRANCH   1   2
BRANCH   1  10
ATOM     10  C   UNL     1     -29.529  64.729  82.391  1.00  0.00     0.000 C 
BRANCH  10  11
ATOM     11  C   UNL     1     -29.244  63.438  83.176  1.00  0.00    -0.000 C 
BRANCH  11  12
ATOM     12  C   UNL     1     -28.936  63.705  84.660  1.00  0.00    -0.000 C 
BRANCH  12  13
ATOM     13  C   UNL     1     -30.088  63.282  85.586  1.00  0.00    -0.000 C 
BRANCH  13  14
ATOM     14  C   UNL     1     -30.503  64.392  86.563  1.00  0.00    -0.000 C 
BRANCH  14  15
ATOM     15  C   UNL     1     -30.276  65.778  85.948  1.00  0.00    -0.000 C 
BRANCH  15  16
ATOM     16  C   UNL     1     -31.595  66.383  85.454  1.00  0.00    -0.003 C 
ATOM     17  C   UNL     1     -32.310  67.134  86.574  1.00  0.00     0.004 C 
ENDBRANCH  15  16
ENDBRANCH  14  15
ENDBRANCH  13  14
ENDBRANCH  12  13
ENDBRANCH  11  12
ENDBRANCH  10  11
ENDBRANCH   1  10
TORSDOF 13
ENDMDL
MODEL 9
REMARK VINA RESULT:    -4.579      1.841      4.873
REMARK INTER + INTRA:          -9.443
REMARK INTER:                  -7.826
REMARK INTRA:                  -1.617
REMARK UNBOUND:                -1.383
REMARK SMILES CCCCCCCCCCCCCCC(=O)[O-]
REMARK SMILES IDX 9 1 10 2 11 3 12 4 13 5 14 6 15 7 16 8 17 9 8 10 7 11 6 12
REMARK SMILES IDX 5 13 4 14 3 15 2 16 1 17
REMARK H PARENT
REMARK Flexibility Score: inf
ROOT
ATOM      1  C   UNL     1     -27.568  66.750  84.632  1.00  0.00     0.000 C 
ENDROOT
BRANCH   1   2
ATOM      2  C   UNL     1     -26.660  67.936  84.999  1.00  0.00     0.000 C 
BRANCH   2   3
ATOM      3  C   UNL     1     -27.066  68.600  86.328  1.00  0.00     0.000 C 
BRANCH   3   4
ATOM      4  C   UNL     1     -28.338  67.984  86.930  1.00  0.00     0.000 C 
BRANCH   4   5
ATOM      5  C   UNL     1     -29.461  69.014  87.125  1.00  0.00     0.006 C 
BRANCH   5   6
ATOM      6  C   UNL     1     -30.500  68.909  86.005  1.00  0.00     0.053 C 
BRANCH   6   7
ATOM      7  C   UNL     1     -31.387  67.723  86.222  1.00  0.00     0.041 C 
ATOM      8  O   UNL     1     -32.027  67.599  87.300  1.00  0.00    -0.550 OA
ATOM      9  O   UNL     1     -31.548  66.781  85.213  1.00  0.00    -0.550 OA
ENDBRANCH   6   7
ENDBRANCH   5   6
ENDBRANCH   4   5
ENDBRANCH   3   4
ENDBRANCH   2   3
ENDBRANCH   1   2
BRANCH   1  10
ATOM     10  C   UNL     1     -28.570  67.094  83.515  1.00  0.00     0.000 C 
BRANCH  10  11
ATOM     11  C   UNL     1     -28.050  66.721  82.117  1.00  0.00    -0.000 C 
BRANCH  11  12
ATOM     12  C   UNL     1     -28.311  65.246  81.764  1.00  0.00    -0.000 C 
BRANCH  12  13
ATOM     13  C   UNL     1     -29.588  64.698  82.423  1.00  0.00    -0.000 C 
BRANCH  13  14
ATOM     14  C   UNL     1     -29.383  63.314  83.056  1.00  0.00    -0.000 C 
BRANCH  14  15
ATOM     15  C   UNL     1     -28.918  63.441  84.512  1.00  0.00    -0.000 C 
BRANCH  15  16
ATOM     16  C   UNL     1     -30.110  63.650  85.454  1.00  0.00    -0.003 C 
ATOM     17  C   UNL     1     -29.712  64.486  86.667  1.00  0.00     0.004 C 
ENDBRANCH  15  16
ENDBRANCH  14  15
ENDBRANCH  13  14
ENDBRANCH  12  13
ENDBRANCH  11  12
ENDBRANCH  10  11
ENDBRANCH   1  10
TORSDOF 13
ENDMDL
