MODEL 1
REMARK VINA RESULT:    -5.799      0.000      0.000
REMARK INTER + INTRA:         -10.786
REMARK INTER:                  -9.019
REMARK INTRA:                  -1.767
REMARK UNBOUND:                -1.767
REMARK SMILES COc1cc(CNC(=O)CCCCC=CC(C)C)ccc1O
REMARK SMILES IDX 11 1 12 2 13 3 14 4 15 5 16 6 17 7 18 8 10 9 8 10 9 11 7 12
REMARK SMILES IDX 6 14 5 15 4 16 19 17 3 18 20 19 21 20 2 21 1 22 22 23
REMARK H PARENT 7 13 22 24
REMARK Flexibility Score: inf
ROOT
ATOM      1  C   UNL     1      26.546  14.769  24.487  1.00  0.00     0.010 C 
ENDROOT
BRANCH   1   2
ATOM      2  C   UNL     1      28.052  15.064  24.496  1.00  0.00     0.005 C 
BRANCH   2   3
ATOM      3  C   UNL     1      28.419  16.286  23.636  1.00  0.00     0.027 C 
BRANCH   3   4
ATOM      4  C   UNL     1      28.528  15.904  22.183  1.00  0.00    -0.031 C 
ATOM      5  C   UNL     1      27.825  16.481  21.186  1.00  0.00    -0.028 C 
BRANCH   5   6
ATOM      6  C   UNL     1      26.764  17.547  21.377  1.00  0.00     0.005 C 
ATOM      7  C   UNL     1      25.402  16.885  21.602  1.00  0.00     0.012 C 
ATOM      8  C   UNL     1      26.722  18.467  20.155  1.00  0.00     0.012 C 
ENDBRANCH   5   6
ENDBRANCH   3   4
ENDBRANCH   2   3
ENDBRANCH   1   2
BRANCH   1   9
ATOM      9  C   UNL     1      26.230  13.283  24.706  1.00  0.00     0.100 C 
BRANCH   9  10
ATOM     10  C   UNL     1      26.454  12.524  23.434  1.00  0.00     0.220 C 
ATOM     11  O   UNL     1      26.982  11.380  23.478  1.00  0.00    -0.275 OA
ATOM     12  N   UNL     1      26.011  13.070  22.185  1.00  0.00    -0.352 N 
ATOM     13  H   UNL     1      25.640  14.047  22.164  1.00  0.00     0.163 HD
BRANCH  12  14
ATOM     14  C   UNL     1      25.850  12.247  20.991  1.00  0.00     0.151 C 
BRANCH  14  15
ATOM     15  C   UNL     1      26.716  12.785  19.885  1.00  0.00    -0.025 A 
ATOM     16  C   UNL     1      26.249  13.833  19.076  1.00  0.00     0.056 A 
ATOM     17  C   UNL     1      27.962  12.202  19.609  1.00  0.00     0.009 A 
ATOM     18  C   UNL     1      27.031  14.317  18.009  1.00  0.00     0.160 A 
ATOM     19  C   UNL     1      28.741  12.678  18.552  1.00  0.00     0.050 A 
ATOM     20  C   UNL     1      28.281  13.735  17.753  1.00  0.00     0.157 A 
BRANCH  18  21
ATOM     21  O   UNL     1      26.603  15.370  17.182  1.00  0.00    -0.493 OA
ATOM     22  C   UNL     1      25.707  15.217  16.086  1.00  0.00     0.278 C 
ENDBRANCH  18  21
BRANCH  20  23
ATOM     23  O   UNL     1      29.061  14.209  16.699  1.00  0.00    -0.504 OA
ATOM     24  H   UNL     1      28.902  15.124  16.292  1.00  0.00     0.293 HD
ENDBRANCH  20  23
ENDBRANCH  14  15
ENDBRANCH  12  14
ENDBRANCH   9  10
ENDBRANCH   1   9
TORSDOF 10
ENDMDL
MODEL 2
REMARK VINA RESULT:    -5.610      1.322      2.006
REMARK INTER + INTRA:         -10.493
REMARK INTER:                  -8.997
REMARK INTRA:                  -1.496
REMARK UNBOUND:                -1.767
REMARK SMILES COc1cc(CNC(=O)CCCCC=CC(C)C)ccc1O
REMARK SMILES IDX 11 1 12 2 13 3 14 4 15 5 16 6 17 7 18 8 10 9 8 10 9 11 7 12
REMARK SMILES IDX 6 14 5 15 4 16 19 17 3 18 20 19 21 20 2 21 1 22 22 23
REMARK H PARENT 7 13 22 24
REMARK Flexibility Score: inf
ROOT
ATOM      1  C   UNL     1      27.524  12.822  23.533  1.00  0.00     0.010 C 
ENDROOT
BRANCH   1   2
ATOM      2  C   UNL     1      26.881  13.612  24.681  1.00  0.00     0.005 C 
BRANCH   2   3
ATOM      3  C   UNL     1      26.787  15.118  24.382  1.00  0.00     0.027 C 
BRANCH   3   4
ATOM      4  C   UNL     1      28.153  15.701  24.128  1.00  0.00    -0.031 C 
ATOM      5  C   UNL     1      28.545  16.252  22.961  1.00  0.00    -0.028 C 
BRANCH   5   6
ATOM      6  C   UNL     1      27.704  16.303  21.701  1.00  0.00     0.005 C 
ATOM      7  C   UNL     1      28.613  16.252  20.470  1.00  0.00     0.012 C 
ATOM      8  C   UNL     1      26.855  17.576  21.692  1.00  0.00     0.012 C 
ENDBRANCH   5   6
ENDBRANCH   3   4
ENDBRANCH   2   3
ENDBRANCH   1   2
BRANCH   1   9
ATOM      9  C   UNL     1      26.680  11.618  23.095  1.00  0.00     0.100 C 
BRANCH   9  10
ATOM     10  C   UNL     1      26.277  11.775  21.661  1.00  0.00     0.220 C 
ATOM     11  O   UNL     1      25.513  10.923  21.133  1.00  0.00    -0.275 OA
ATOM     12  N   UNL     1      26.707  12.923  20.917  1.00  0.00    -0.352 N 
ATOM     13  H   UNL     1      27.394  13.579  21.352  1.00  0.00     0.163 HD
BRANCH  12  14
ATOM     14  C   UNL     1      26.060  13.329  19.673  1.00  0.00     0.151 C 
BRANCH  14  15
ATOM     15  C   UNL     1      27.100  13.549  18.610  1.00  0.00    -0.025 A 
ATOM     16  C   UNL     1      26.890  14.517  17.614  1.00  0.00     0.056 A 
ATOM     17  C   UNL     1      28.250  12.748  18.563  1.00  0.00     0.009 A 
ATOM     18  C   UNL     1      27.836  14.703  16.586  1.00  0.00     0.160 A 
ATOM     19  C   UNL     1      29.191  12.929  17.547  1.00  0.00     0.050 A 
ATOM     20  C   UNL     1      28.989  13.905  16.560  1.00  0.00     0.157 A 
BRANCH  18  21
ATOM     21  O   UNL     1      27.666  15.666  15.577  1.00  0.00    -0.493 OA
ATOM     22  C   UNL     1      27.906  17.059  15.747  1.00  0.00     0.278 C 
ENDBRANCH  18  21
BRANCH  20  23
ATOM     23  O   UNL     1      29.930  14.084  15.547  1.00  0.00    -0.504 OA
ATOM     24  H   UNL     1      30.846  13.651  15.591  1.00  0.00     0.293 HD
ENDBRANCH  20  23
ENDBRANCH  14  15
ENDBRANCH  12  14
ENDBRANCH   9  10
ENDBRANCH   1   9
TORSDOF 10
ENDMDL
MODEL 3
REMARK VINA RESULT:    -5.525      0.977      1.850
REMARK INTER + INTRA:         -10.360
REMARK INTER:                  -8.501
REMARK INTRA:                  -1.859
REMARK UNBOUND:                -1.767
REMARK SMILES COc1cc(CNC(=O)CCCCC=CC(C)C)ccc1O
REMARK SMILES IDX 11 1 12 2 13 3 14 4 15 5 16 6 17 7 18 8 10 9 8 10 9 11 7 12
REMARK SMILES IDX 6 14 5 15 4 16 19 17 3 18 20 19 21 20 2 21 1 22 22 23
REMARK H PARENT 7 13 22 24
REMARK Flexibility Score: inf
ROOT
ATOM      1  C   UNL     1      26.758  14.683  23.634  1.00  0.00     0.010 C 
ENDROOT
BRANCH   1   2
ATOM      2  C   UNL     1      28.006  15.329  24.252  1.00  0.00     0.005 C 
BRANCH   2   3
ATOM      3  C   UNL     1      28.507  16.538  23.445  1.00  0.00     0.027 C 
BRANCH   3   4
ATOM      4  C   UNL     1      28.546  16.221  21.973  1.00  0.00    -0.031 C 
ATOM      5  C   UNL     1      27.786  16.828  21.039  1.00  0.00    -0.028 C 
BRANCH   5   6
ATOM      6  C   UNL     1      26.722  17.869  21.330  1.00  0.00     0.005 C 
ATOM      7  C   UNL     1      25.334  17.230  21.234  1.00  0.00     0.012 C 
ATOM      8  C   UNL     1      26.849  19.034  20.345  1.00  0.00     0.012 C 
ENDBRANCH   5   6
ENDBRANCH   3   4
ENDBRANCH   2   3
ENDBRANCH   1   2
BRANCH   1   9
ATOM      9  C   UNL     1      26.607  13.203  24.009  1.00  0.00     0.100 C 
BRANCH   9  10
ATOM     10  C   UNL     1      27.000  12.342  22.848  1.00  0.00     0.220 C 
ATOM     11  O   UNL     1      26.525  11.179  22.748  1.00  0.00    -0.275 OA
ATOM     12  N   UNL     1      27.859  12.865  21.826  1.00  0.00    -0.352 N 
ATOM     13  H   UNL     1      28.295  13.804  21.965  1.00  0.00     0.163 HD
BRANCH  12  14
ATOM     14  C   UNL     1      27.972  12.240  20.512  1.00  0.00     0.151 C 
BRANCH  14  15
ATOM     15  C   UNL     1      27.464  13.184  19.458  1.00  0.00    -0.025 A 
ATOM     16  C   UNL     1      28.294  13.548  18.385  1.00  0.00     0.056 A 
ATOM     17  C   UNL     1      26.190  13.760  19.572  1.00  0.00     0.009 A 
ATOM     18  C   UNL     1      27.847  14.467  17.414  1.00  0.00     0.160 A 
ATOM     19  C   UNL     1      25.742  14.670  18.612  1.00  0.00     0.050 A 
ATOM     20  C   UNL     1      26.565  15.024  17.533  1.00  0.00     0.157 A 
BRANCH  18  21
ATOM     21  O   UNL     1      28.643  14.850  16.322  1.00  0.00    -0.493 OA
ATOM     22  C   UNL     1      29.490  13.966  15.595  1.00  0.00     0.278 C 
ENDBRANCH  18  21
BRANCH  20  23
ATOM     23  O   UNL     1      26.115  15.932  16.575  1.00  0.00    -0.504 OA
ATOM     24  H   UNL     1      25.272  15.760  16.037  1.00  0.00     0.293 HD
ENDBRANCH  20  23
ENDBRANCH  14  15
ENDBRANCH  12  14
ENDBRANCH   9  10
ENDBRANCH   1   9
TORSDOF 10
ENDMDL
MODEL 4
REMARK VINA RESULT:    -5.396      1.248      2.056
REMARK INTER + INTRA:         -10.159
REMARK INTER:                  -8.372
REMARK INTRA:                  -1.787
REMARK UNBOUND:                -1.767
REMARK SMILES COc1cc(CNC(=O)CCCCC=CC(C)C)ccc1O
REMARK SMILES IDX 11 1 12 2 13 3 14 4 15 5 16 6 17 7 18 8 10 9 8 10 9 11 7 12
REMARK SMILES IDX 6 14 5 15 4 16 19 17 3 18 20 19 21 20 2 21 1 22 22 23
REMARK H PARENT 7 13 22 24
REMARK Flexibility Score: inf
ROOT
ATOM      1  C   UNL     1      25.391  13.308  24.181  1.00  0.00     0.010 C 
ENDROOT
BRANCH   1   2
ATOM      2  C   UNL     1      24.997  14.759  23.875  1.00  0.00     0.005 C 
BRANCH   2   3
ATOM      3  C   UNL     1      24.899  15.039  22.366  1.00  0.00     0.027 C 
BRANCH   3   4
ATOM      4  C   UNL     1      25.257  16.470  22.062  1.00  0.00    -0.031 C 
ATOM      5  C   UNL     1      26.514  16.919  21.865  1.00  0.00    -0.028 C 
BRANCH   5   6
ATOM      6  C   UNL     1      27.766  16.074  21.993  1.00  0.00     0.005 C 
ATOM      7  C   UNL     1      28.518  16.456  23.271  1.00  0.00     0.012 C 
ATOM      8  C   UNL     1      28.656  16.271  20.764  1.00  0.00     0.012 C 
ENDBRANCH   5   6
ENDBRANCH   3   4
ENDBRANCH   2   3
ENDBRANCH   1   2
BRANCH   1   9
ATOM      9  C   UNL     1      26.864  13.013  23.871  1.00  0.00     0.100 C 
BRANCH   9  10
ATOM     10  C   UNL     1      26.961  12.083  22.701  1.00  0.00     0.220 C 
ATOM     11  O   UNL     1      26.465  10.927  22.783  1.00  0.00    -0.275 OA
ATOM     12  N   UNL     1      27.556  12.530  21.476  1.00  0.00    -0.352 N 
ATOM     13  H   UNL     1      28.021  13.466  21.453  1.00  0.00     0.163 HD
BRANCH  12  14
ATOM     14  C   UNL     1      27.346  11.834  20.211  1.00  0.00     0.151 C 
BRANCH  14  15
ATOM     15  C   UNL     1      27.683  12.750  19.067  1.00  0.00    -0.025 A 
ATOM     16  C   UNL     1      26.807  13.791  18.721  1.00  0.00     0.056 A 
ATOM     17  C   UNL     1      28.835  12.533  18.297  1.00  0.00     0.009 A 
ATOM     18  C   UNL     1      27.088  14.629  17.624  1.00  0.00     0.160 A 
ATOM     19  C   UNL     1      29.119  13.361  17.208  1.00  0.00     0.050 A 
ATOM     20  C   UNL     1      28.251  14.409  16.870  1.00  0.00     0.157 A 
BRANCH  18  21
ATOM     21  O   UNL     1      26.241  15.686  17.251  1.00  0.00    -0.493 OA
ATOM     22  C   UNL     1      25.217  16.226  18.079  1.00  0.00     0.278 C 
ENDBRANCH  18  21
BRANCH  20  23
ATOM     23  O   UNL     1      28.537  15.235  15.784  1.00  0.00    -0.504 OA
ATOM     24  H   UNL     1      28.777  16.213  15.911  1.00  0.00     0.293 HD
ENDBRANCH  20  23
ENDBRANCH  14  15
ENDBRANCH  12  14
ENDBRANCH   9  10
ENDBRANCH   1   9
TORSDOF 10
ENDMDL
MODEL 5
REMARK VINA RESULT:    -5.391      1.326      2.251
REMARK INTER + INTRA:         -10.152
REMARK INTER:                  -8.126
REMARK INTRA:                  -2.026
REMARK UNBOUND:                -1.767
REMARK SMILES COc1cc(CNC(=O)CCCCC=CC(C)C)ccc1O
REMARK SMILES IDX 11 1 12 2 13 3 14 4 15 5 16 6 17 7 18 8 10 9 8 10 9 11 7 12
REMARK SMILES IDX 6 14 5 15 4 16 19 17 3 18 20 19 21 20 2 21 1 22 22 23
REMARK H PARENT 7 13 22 24
REMARK Flexibility Score: inf
ROOT
ATOM      1  C   UNL     1      26.491  13.524  24.734  1.00  0.00     0.010 C 
ENDROOT
BRANCH   1   2
ATOM      2  C   UNL     1      27.171  14.867  25.035  1.00  0.00     0.005 C 
BRANCH   2   3
ATOM      3  C   UNL     1      28.367  15.144  24.109  1.00  0.00     0.027 C 
BRANCH   3   4
ATOM      4  C   UNL     1      28.345  16.567  23.616  1.00  0.00    -0.031 C 
ATOM      5  C   UNL     1      28.026  16.936  22.358  1.00  0.00    -0.028 C 
BRANCH   5   6
ATOM      6  C   UNL     1      27.716  15.978  21.225  1.00  0.00     0.005 C 
ATOM      7  C   UNL     1      28.209  16.566  19.901  1.00  0.00     0.012 C 
ATOM      8  C   UNL     1      26.211  15.706  21.169  1.00  0.00     0.012 C 
ENDBRANCH   5   6
ENDBRANCH   3   4
ENDBRANCH   2   3
ENDBRANCH   1   2
BRANCH   1   9
ATOM      9  C   UNL     1      27.177  12.751  23.600  1.00  0.00     0.100 C 
BRANCH   9  10
ATOM     10  C   UNL     1      26.147  12.225  22.647  1.00  0.00     0.220 C 
ATOM     11  O   UNL     1      24.940  12.558  22.791  1.00  0.00    -0.275 OA
ATOM     12  N   UNL     1      26.546  11.403  21.543  1.00  0.00    -0.352 N 
ATOM     13  H   UNL     1      27.540  11.084  21.483  1.00  0.00     0.163 HD
BRANCH  12  14
ATOM     14  C   UNL     1      25.681  11.178  20.390  1.00  0.00     0.151 C 
BRANCH  14  15
ATOM     15  C   UNL     1      25.879  12.280  19.386  1.00  0.00    -0.025 A 
ATOM     16  C   UNL     1      27.174  12.621  18.966  1.00  0.00     0.056 A 
ATOM     17  C   UNL     1      24.783  13.018  18.914  1.00  0.00     0.009 A 
ATOM     18  C   UNL     1      27.378  13.680  18.060  1.00  0.00     0.160 A 
ATOM     19  C   UNL     1      24.979  14.069  18.016  1.00  0.00     0.050 A 
ATOM     20  C   UNL     1      26.272  14.401  17.585  1.00  0.00     0.157 A 
BRANCH  18  21
ATOM     21  O   UNL     1      28.658  14.047  17.610  1.00  0.00    -0.493 OA
ATOM     22  C   UNL     1      29.229  13.621  16.378  1.00  0.00     0.278 C 
ENDBRANCH  18  21
BRANCH  20  23
ATOM     23  O   UNL     1      26.465  15.450  16.687  1.00  0.00    -0.504 OA
ATOM     24  H   UNL     1      26.910  15.302  15.788  1.00  0.00     0.293 HD
ENDBRANCH  20  23
ENDBRANCH  14  15
ENDBRANCH  12  14
ENDBRANCH   9  10
ENDBRANCH   1   9
TORSDOF 10
ENDMDL
MODEL 6
REMARK VINA RESULT:    -5.389     13.935     16.482
REMARK INTER + INTRA:         -10.149
REMARK INTER:                  -8.881
REMARK INTRA:                  -1.268
REMARK UNBOUND:                -1.767
REMARK SMILES COc1cc(CNC(=O)CCCCC=CC(C)C)ccc1O
REMARK SMILES IDX 11 1 12 2 13 3 14 4 15 5 16 6 17 7 18 8 10 9 8 10 9 11 7 12
REMARK SMILES IDX 6 14 5 15 4 16 19 17 3 18 20 19 21 20 2 21 1 22 22 23
REMARK H PARENT 7 13 22 24
REMARK Flexibility Score: inf
ROOT
ATOM      1  C   UNL     1      40.393  14.399  24.269  1.00  0.00     0.010 C 
ENDROOT
BRANCH   1   2
ATOM      2  C   UNL     1      39.311  15.095  23.432  1.00  0.00     0.005 C 
BRANCH   2   3
ATOM      3  C   UNL     1      39.236  14.551  21.995  1.00  0.00     0.027 C 
BRANCH   3   4
ATOM      4  C   UNL     1      38.795  13.111  21.989  1.00  0.00    -0.031 C 
ATOM      5  C   UNL     1      39.485  12.102  21.418  1.00  0.00    -0.028 C 
BRANCH   5   6
ATOM      6  C   UNL     1      40.770  12.267  20.630  1.00  0.00     0.005 C 
ATOM      7  C   UNL     1      40.801  11.261  19.476  1.00  0.00     0.012 C 
ATOM      8  C   UNL     1      41.976  12.071  21.550  1.00  0.00     0.012 C 
ENDBRANCH   5   6
ENDBRANCH   3   4
ENDBRANCH   2   3
ENDBRANCH   1   2
BRANCH   1   9
ATOM      9  C   UNL     1      41.815  14.752  23.815  1.00  0.00     0.100 C 
BRANCH   9  10
ATOM     10  C   UNL     1      42.673  15.039  25.009  1.00  0.00     0.220 C 
ATOM     11  O   UNL     1      43.534  15.958  24.949  1.00  0.00    -0.275 OA
ATOM     12  N   UNL     1      42.469  14.315  26.230  1.00  0.00    -0.352 N 
ATOM     13  H   UNL     1      41.800  13.513  26.235  1.00  0.00     0.163 HD
BRANCH  12  14
ATOM     14  C   UNL     1      42.987  14.788  27.509  1.00  0.00     0.151 C 
BRANCH  14  15
ATOM     15  C   UNL     1      42.039  15.797  28.097  1.00  0.00    -0.025 A 
ATOM     16  C   UNL     1      42.525  17.033  28.551  1.00  0.00     0.056 A 
ATOM     17  C   UNL     1      40.680  15.488  28.257  1.00  0.00     0.009 A 
ATOM     18  C   UNL     1      41.655  17.971  29.144  1.00  0.00     0.160 A 
ATOM     19  C   UNL     1      39.814  16.413  28.844  1.00  0.00     0.050 A 
ATOM     20  C   UNL     1      40.296  17.654  29.286  1.00  0.00     0.157 A 
BRANCH  18  21
ATOM     21  O   UNL     1      42.101  19.221  29.605  1.00  0.00    -0.493 OA
ATOM     22  C   UNL     1      42.752  19.432  30.853  1.00  0.00     0.278 C 
ENDBRANCH  18  21
BRANCH  20  23
ATOM     23  O   UNL     1      39.429  18.576  29.870  1.00  0.00    -0.504 OA
ATOM     24  H   UNL     1      38.424  18.445  29.850  1.00  0.00     0.293 HD
ENDBRANCH  20  23
ENDBRANCH  14  15
ENDBRANCH  12  14
ENDBRANCH   9  10
ENDBRANCH   1   9
TORSDOF 10
ENDMDL
MODEL 7
REMARK VINA RESULT:    -5.370      2.118      3.900
REMARK INTER + INTRA:         -10.120
REMARK INTER:                  -8.651
REMARK INTRA:                  -1.469
REMARK UNBOUND:                -1.767
REMARK SMILES COc1cc(CNC(=O)CCCCC=CC(C)C)ccc1O
REMARK SMILES IDX 11 1 12 2 13 3 14 4 15 5 16 6 17 7 18 8 10 9 8 10 9 11 7 12
REMARK SMILES IDX 6 14 5 15 4 16 19 17 3 18 20 19 21 20 2 21 1 22 22 23
REMARK H PARENT 7 13 22 24
REMARK Flexibility Score: inf
ROOT
ATOM      1  C   UNL     1      28.294  16.182  22.375  1.00  0.00     0.010 C 
ENDROOT
BRANCH   1   2
ATOM      2  C   UNL     1      28.487  16.313  23.891  1.00  0.00     0.005 C 
BRANCH   2   3
ATOM      3  C   UNL     1      27.998  15.072  24.659  1.00  0.00     0.027 C 
BRANCH   3   4
ATOM      4  C   UNL     1      26.590  14.716  24.260  1.00  0.00    -0.031 C 
ATOM      5  C   UNL     1      26.218  13.523  23.753  1.00  0.00    -0.028 C 
BRANCH   5   6
ATOM      6  C   UNL     1      27.165  12.382  23.434  1.00  0.00     0.005 C 
ATOM      7  C   UNL     1      27.692  12.532  22.005  1.00  0.00     0.012 C 
ATOM      8  C   UNL     1      26.445  11.043  23.606  1.00  0.00     0.012 C 
ENDBRANCH   5   6
ENDBRANCH   3   4
ENDBRANCH   2   3
ENDBRANCH   1   2
BRANCH   1   9
ATOM      9  C   UNL     1      27.513  17.356  21.771  1.00  0.00     0.100 C 
BRANCH   9  10
ATOM     10  C   UNL     1      26.592  16.858  20.700  1.00  0.00     0.220 C 
ATOM     11  O   UNL     1      26.058  17.679  19.907  1.00  0.00    -0.275 OA
ATOM     12  N   UNL     1      26.374  15.450  20.540  1.00  0.00    -0.352 N 
ATOM     13  H   UNL     1      26.771  14.794  21.250  1.00  0.00     0.163 HD
BRANCH  12  14
ATOM     14  C   UNL     1      25.815  14.884  19.316  1.00  0.00     0.151 C 
BRANCH  14  15
ATOM     15  C   UNL     1      26.914  14.655  18.316  1.00  0.00    -0.025 A 
ATOM     16  C   UNL     1      27.043  15.508  17.209  1.00  0.00     0.056 A 
ATOM     17  C   UNL     1      27.773  13.553  18.443  1.00  0.00     0.009 A 
ATOM     18  C   UNL     1      28.040  15.279  16.240  1.00  0.00     0.160 A 
ATOM     19  C   UNL     1      28.764  13.322  17.486  1.00  0.00     0.050 A 
ATOM     20  C   UNL     1      28.902  14.181  16.387  1.00  0.00     0.157 A 
BRANCH  18  21
ATOM     21  O   UNL     1      28.206  16.114  15.122  1.00  0.00    -0.493 OA
ATOM     22  C   UNL     1      27.838  17.488  15.084  1.00  0.00     0.278 C 
ENDBRANCH  18  21
BRANCH  20  23
ATOM     23  O   UNL     1      29.892  13.949  15.433  1.00  0.00    -0.504 OA
ATOM     24  H   UNL     1      30.870  14.129  15.631  1.00  0.00     0.293 HD
ENDBRANCH  20  23
ENDBRANCH  14  15
ENDBRANCH  12  14
ENDBRANCH   9  10
ENDBRANCH   1   9
TORSDOF 10
ENDMDL
MODEL 8
REMARK VINA RESULT:    -5.354      3.054      5.822
REMARK INTER + INTRA:         -10.094
REMARK INTER:                  -8.824
REMARK INTRA:                  -1.270
REMARK UNBOUND:                -1.767
REMARK SMILES COc1cc(CNC(=O)CCCCC=CC(C)C)ccc1O
REMARK SMILES IDX 11 1 12 2 13 3 14 4 15 5 16 6 17 7 18 8 10 9 8 10 9 11 7 12
REMARK SMILES IDX 6 14 5 15 4 16 19 17 3 18 20 19 21 20 2 21 1 22 22 23
REMARK H PARENT 7 13 22 24
REMARK Flexibility Score: inf
ROOT
ATOM      1  C   UNL     1      28.065  13.326  18.888  1.00  0.00     0.010 C 
ENDROOT
BRANCH   1   2
ATOM      2  C   UNL     1      27.872  12.193  19.904  1.00  0.00     0.005 C 
BRANCH   2   3
ATOM      3  C   UNL     1      28.099  12.654  21.354  1.00  0.00     0.027 C 
BRANCH   3   4
ATOM      4  C   UNL     1      26.953  13.508  21.830  1.00  0.00    -0.031 C 
ATOM      5  C   UNL     1      27.047  14.822  22.120  1.00  0.00    -0.028 C 
BRANCH   5   6
ATOM      6  C   UNL     1      28.331  15.628  22.086  1.00  0.00     0.005 C 
ATOM      7  C   UNL     1      28.456  16.455  23.368  1.00  0.00     0.012 C 
ATOM      8  C   UNL     1      28.345  16.536  20.854  1.00  0.00     0.012 C 
ENDBRANCH   5   6
ENDBRANCH   3   4
ENDBRANCH   2   3
ENDBRANCH   1   2
BRANCH   1   9
ATOM      9  C   UNL     1      29.038  12.955  17.761  1.00  0.00     0.100 C 
BRANCH   9  10
ATOM     10  C   UNL     1      28.965  13.978  16.669  1.00  0.00     0.220 C 
ATOM     11  O   UNL     1      29.427  13.704  15.529  1.00  0.00    -0.275 OA
ATOM     12  N   UNL     1      28.316  15.234  16.906  1.00  0.00    -0.352 N 
ATOM     13  H   UNL     1      28.004  15.467  17.875  1.00  0.00     0.163 HD
BRANCH  12  14
ATOM     14  C   UNL     1      27.879  16.100  15.815  1.00  0.00     0.151 C 
BRANCH  14  15
ATOM     15  C   UNL     1      27.932  17.536  16.256  1.00  0.00    -0.025 A 
ATOM     16  C   UNL     1      27.552  17.883  17.561  1.00  0.00     0.056 A 
ATOM     17  C   UNL     1      28.295  18.545  15.351  1.00  0.00     0.009 A 
ATOM     18  C   UNL     1      27.555  19.231  17.974  1.00  0.00     0.160 A 
ATOM     19  C   UNL     1      28.300  19.882  15.755  1.00  0.00     0.050 A 
ATOM     20  C   UNL     1      27.934  20.228  17.063  1.00  0.00     0.157 A 
BRANCH  18  21
ATOM     21  O   UNL     1      27.189  19.618  19.274  1.00  0.00    -0.493 OA
ATOM     22  C   UNL     1      25.852  19.625  19.764  1.00  0.00     0.278 C 
ENDBRANCH  18  21
BRANCH  20  23
ATOM     23  O   UNL     1      27.941  21.563  17.464  1.00  0.00    -0.504 OA
ATOM     24  H   UNL     1      27.105  22.136  17.412  1.00  0.00     0.293 HD
ENDBRANCH  20  23
ENDBRANCH  14  15
ENDBRANCH  12  14
ENDBRANCH   9  10
ENDBRANCH   1   9
TORSDOF 10
ENDMDL
MODEL 9
REMARK VINA RESULT:    -5.291      2.093      4.676
REMARK INTER + INTRA:          -9.997
REMARK INTER:                  -8.547
REMARK INTRA:                  -1.450
REMARK UNBOUND:                -1.767
REMARK SMILES COc1cc(CNC(=O)CCCCC=CC(C)C)ccc1O
REMARK SMILES IDX 11 1 12 2 13 3 14 4 15 5 16 6 17 7 18 8 10 9 8 10 9 11 7 12
REMARK SMILES IDX 6 14 5 15 4 16 19 17 3 18 20 19 21 20 2 21 1 22 22 23
REMARK H PARENT 7 13 22 24
REMARK Flexibility Score: inf
ROOT
ATOM      1  C   UNL     1      26.323  17.378  21.234  1.00  0.00     0.010 C 
ENDROOT
BRANCH   1   2
ATOM      2  C   UNL     1      27.671  17.592  21.936  1.00  0.00     0.005 C 
BRANCH   2   3
ATOM      3  C   UNL     1      28.435  16.276  22.161  1.00  0.00     0.027 C 
BRANCH   3   4
ATOM      4  C   UNL     1      28.465  15.917  23.623  1.00  0.00    -0.031 C 
ATOM      5  C   UNL     1      27.732  14.932  24.183  1.00  0.00    -0.028 C 
BRANCH   5   6
ATOM      6  C   UNL     1      26.711  14.086  23.449  1.00  0.00     0.005 C 
ATOM      7  C   UNL     1      25.299  14.580  23.776  1.00  0.00     0.012 C 
ATOM      8  C   UNL     1      26.873  12.616  23.841  1.00  0.00     0.012 C 
ENDBRANCH   5   6
ENDBRANCH   3   4
ENDBRANCH   2   3
ENDBRANCH   1   2
BRANCH   1   9
ATOM      9  C   UNL     1      25.872  18.603  20.428  1.00  0.00     0.100 C 
BRANCH   9  10
ATOM     10  C   UNL     1      26.356  18.489  19.015  1.00  0.00     0.220 C 
ATOM     11  O   UNL     1      27.123  19.373  18.547  1.00  0.00    -0.275 OA
ATOM     12  N   UNL     1      26.000  17.346  18.226  1.00  0.00    -0.352 N 
ATOM     13  H   UNL     1      25.310  16.662  18.610  1.00  0.00     0.163 HD
BRANCH  12  14
ATOM     14  C   UNL     1      26.725  16.985  17.012  1.00  0.00     0.151 C 
BRANCH  14  15
ATOM     15  C   UNL     1      27.450  15.685  17.223  1.00  0.00    -0.025 A 
ATOM     16  C   UNL     1      27.369  15.030  18.462  1.00  0.00     0.056 A 
ATOM     17  C   UNL     1      28.265  15.153  16.213  1.00  0.00     0.009 A 
ATOM     18  C   UNL     1      28.079  13.834  18.688  1.00  0.00     0.160 A 
ATOM     19  C   UNL     1      28.971  13.967  16.431  1.00  0.00     0.050 A 
ATOM     20  C   UNL     1      28.879  13.305  17.664  1.00  0.00     0.157 A 
BRANCH  18  21
ATOM     21  O   UNL     1      28.016  13.144  19.911  1.00  0.00    -0.493 OA
ATOM     22  C   UNL     1      27.230  11.980  20.138  1.00  0.00     0.278 C 
ENDBRANCH  18  21
BRANCH  20  23
ATOM     23  O   UNL     1      29.583  12.121  17.880  1.00  0.00    -0.504 OA
ATOM     24  H   UNL     1      30.575  12.127  18.092  1.00  0.00     0.293 HD
ENDBRANCH  20  23
ENDBRANCH  14  15
ENDBRANCH  12  14
ENDBRANCH   9  10
ENDBRANCH   1   9
TORSDOF 10
ENDMDL
