MODEL 1
REMARK VINA RESULT:    -3.190      0.000      0.000
REMARK INTER + INTRA:          -3.878
REMARK INTER:                  -3.750
REMARK INTRA:                  -0.128
REMARK UNBOUND:                -0.128
REMARK SMILES O=C([O-])CCC(=O)[O-]
REMARK SMILES IDX 4 1 2 2 1 3 3 4 5 5 6 6 7 7 8 8
REMARK H PARENT
REMARK Flexibility Score: inf
ROOT
ATOM      1  C   UNL     1     -15.317  43.996  34.051  1.00  0.00     0.059 C 
ENDROOT
BRANCH   1   2
ATOM      2  C   UNL     1     -14.352  45.135  34.159  1.00  0.00     0.042 C 
ATOM      3  O   UNL     1     -13.364  45.205  33.382  1.00  0.00    -0.550 OA
ATOM      4  O   UNL     1     -14.571  46.146  35.087  1.00  0.00    -0.550 OA
ENDBRANCH   1   2
BRANCH   1   5
ATOM      5  C   UNL     1     -16.602  44.448  33.354  1.00  0.00     0.059 C 
BRANCH   5   6
ATOM      6  C   UNL     1     -16.484  44.273  31.873  1.00  0.00     0.042 C 
ATOM      7  O   UNL     1     -15.752  43.364  31.400  1.00  0.00    -0.550 OA
ATOM      8  O   UNL     1     -17.220  45.080  31.016  1.00  0.00    -0.550 OA
ENDBRANCH   5   6
ENDBRANCH   1   5
TORSDOF 3
ENDMDL
MODEL 2
REMARK VINA RESULT:    -3.168      1.751      2.578
REMARK INTER + INTRA:          -3.852
REMARK INTER:                  -3.707
REMARK INTRA:                  -0.145
REMARK UNBOUND:                -0.128
REMARK SMILES O=C([O-])CCC(=O)[O-]
REMARK SMILES IDX 4 1 2 2 1 3 3 4 5 5 6 6 7 7 8 8
REMARK H PARENT
REMARK Flexibility Score: inf
ROOT
ATOM      1  C   UNL     1     -17.043  44.509  33.553  1.00  0.00     0.059 C 
ENDROOT
BRANCH   1   2
ATOM      2  C   UNL     1     -16.117  43.391  33.915  1.00  0.00     0.042 C 
ATOM      3  O   UNL     1     -14.930  43.636  34.255  1.00  0.00    -0.550 OA
ATOM      4  O   UNL     1     -16.579  42.081  33.924  1.00  0.00    -0.550 OA
ENDBRANCH   1   2
BRANCH   1   5
ATOM      5  C   UNL     1     -18.054  44.047  32.502  1.00  0.00     0.059 C 
BRANCH   5   6
ATOM      6  C   UNL     1     -17.447  44.094  31.136  1.00  0.00     0.042 C 
ATOM      7  O   UNL     1     -17.289  45.198  30.551  1.00  0.00    -0.550 OA
ATOM      8  O   UNL     1     -17.010  42.925  30.528  1.00  0.00    -0.550 OA
ENDBRANCH   5   6
ENDBRANCH   1   5
TORSDOF 3
ENDMDL
MODEL 3
REMARK VINA RESULT:    -3.167      0.165      3.557
REMARK INTER + INTRA:          -3.850
REMARK INTER:                  -3.724
REMARK INTRA:                  -0.126
REMARK UNBOUND:                -0.128
REMARK SMILES O=C([O-])CCC(=O)[O-]
REMARK SMILES IDX 4 1 2 2 1 3 3 4 5 5 6 6 7 7 8 8
REMARK H PARENT
REMARK Flexibility Score: inf
ROOT
ATOM      1  C   UNL     1     -16.738  44.483  33.249  1.00  0.00     0.059 C 
ENDROOT
BRANCH   1   2
ATOM      2  C   UNL     1     -16.566  44.294  31.775  1.00  0.00     0.042 C 
ATOM      3  O   UNL     1     -15.916  43.310  31.334  1.00  0.00    -0.550 OA
ATOM      4  O   UNL     1     -17.165  45.178  30.887  1.00  0.00    -0.550 OA
ENDBRANCH   1   2
BRANCH   1   5
ATOM      5  C   UNL     1     -15.483  44.029  33.997  1.00  0.00     0.059 C 
BRANCH   5   6
ATOM      6  C   UNL     1     -14.508  45.156  34.115  1.00  0.00     0.042 C 
ATOM      7  O   UNL     1     -13.515  45.218  33.344  1.00  0.00    -0.550 OA
ATOM      8  O   UNL     1     -14.721  46.167  35.044  1.00  0.00    -0.550 OA
ENDBRANCH   5   6
ENDBRANCH   1   5
TORSDOF 3
ENDMDL
MODEL 4
REMARK VINA RESULT:    -3.155      1.729      3.836
REMARK INTER + INTRA:          -3.835
REMARK INTER:                  -3.695
REMARK INTRA:                  -0.140
REMARK UNBOUND:                -0.128
REMARK SMILES O=C([O-])CCC(=O)[O-]
REMARK SMILES IDX 4 1 2 2 1 3 3 4 5 5 6 6 7 7 8 8
REMARK H PARENT
REMARK Flexibility Score: inf
ROOT
ATOM      1  C   UNL     1     -18.034  44.001  32.429  1.00  0.00     0.059 C 
ENDROOT
BRANCH   1   2
ATOM      2  C   UNL     1     -17.368  44.046  31.090  1.00  0.00     0.042 C 
ATOM      3  O   UNL     1     -16.984  42.983  30.537  1.00  0.00    -0.550 OA
ATOM      4  O   UNL     1     -17.216  45.259  30.430  1.00  0.00    -0.550 OA
ENDBRANCH   1   2
BRANCH   1   5
ATOM      5  C   UNL     1     -17.085  44.510  33.516  1.00  0.00     0.059 C 
BRANCH   5   6
ATOM      6  C   UNL     1     -16.138  43.431  33.932  1.00  0.00     0.042 C 
ATOM      7  O   UNL     1     -14.963  43.719  34.283  1.00  0.00    -0.550 OA
ATOM      8  O   UNL     1     -16.565  42.110  33.980  1.00  0.00    -0.550 OA
ENDBRANCH   5   6
ENDBRANCH   1   5
TORSDOF 3
ENDMDL
MODEL 5
REMARK VINA RESULT:    -3.150      2.672      4.227
REMARK INTER + INTRA:          -3.830
REMARK INTER:                  -3.648
REMARK INTRA:                  -0.181
REMARK UNBOUND:                -0.128
REMARK SMILES O=C([O-])CCC(=O)[O-]
REMARK SMILES IDX 4 1 2 2 1 3 3 4 5 5 6 6 7 7 8 8
REMARK H PARENT
REMARK Flexibility Score: inf
ROOT
ATOM      1  C   UNL     1     -18.553  43.599  32.096  1.00  0.00     0.059 C 
ENDROOT
BRANCH   1   2
ATOM      2  C   UNL     1     -19.213  43.599  33.439  1.00  0.00     0.042 C 
ATOM      3  O   UNL     1     -19.686  44.666  33.912  1.00  0.00    -0.550 OA
ATOM      4  O   UNL     1     -19.350  42.412  34.146  1.00  0.00    -0.550 OA
ENDBRANCH   1   2
BRANCH   1   5
ATOM      5  C   UNL     1     -17.353  44.548  32.089  1.00  0.00     0.059 C 
BRANCH   5   6
ATOM      6  C   UNL     1     -16.322  44.095  33.073  1.00  0.00     0.042 C 
ATOM      7  O   UNL     1     -15.950  44.862  33.999  1.00  0.00    -0.550 OA
ATOM      8  O   UNL     1     -15.808  42.807  32.999  1.00  0.00    -0.550 OA
ENDBRANCH   5   6
ENDBRANCH   1   5
TORSDOF 3
ENDMDL
MODEL 6
REMARK VINA RESULT:    -3.133      3.498      4.649
REMARK INTER + INTRA:          -3.811
REMARK INTER:                  -3.746
REMARK INTRA:                  -0.065
REMARK UNBOUND:                -0.128
REMARK SMILES O=C([O-])CCC(=O)[O-]
REMARK SMILES IDX 4 1 2 2 1 3 3 4 5 5 6 6 7 7 8 8
REMARK H PARENT
REMARK Flexibility Score: inf
ROOT
ATOM      1  C   UNL     1     -18.958  42.415  33.561  1.00  0.00     0.059 C 
ENDROOT
BRANCH   1   2
ATOM      2  C   UNL     1     -18.778  43.900  33.521  1.00  0.00     0.042 C 
ATOM      3  O   UNL     1     -19.716  44.662  33.877  1.00  0.00    -0.550 OA
ATOM      4  O   UNL     1     -17.558  44.443  33.139  1.00  0.00    -0.550 OA
ENDBRANCH   1   2
BRANCH   1   5
ATOM      5  C   UNL     1     -18.189  41.753  32.416  1.00  0.00     0.059 C 
BRANCH   5   6
ATOM      6  C   UNL     1     -17.570  40.471  32.874  1.00  0.00     0.042 C 
ATOM      7  O   UNL     1     -17.171  40.349  34.062  1.00  0.00    -0.550 OA
ATOM      8  O   UNL     1     -17.479  39.392  32.004  1.00  0.00    -0.550 OA
ENDBRANCH   5   6
ENDBRANCH   1   5
TORSDOF 3
ENDMDL
MODEL 7
REMARK VINA RESULT:    -3.133      2.779      3.598
REMARK INTER + INTRA:          -3.810
REMARK INTER:                  -3.656
REMARK INTRA:                  -0.153
REMARK UNBOUND:                -0.128
REMARK SMILES O=C([O-])CCC(=O)[O-]
REMARK SMILES IDX 4 1 2 2 1 3 3 4 5 5 6 6 7 7 8 8
REMARK H PARENT
REMARK Flexibility Score: inf
ROOT
ATOM      1  C   UNL     1     -16.916  44.249  32.656  1.00  0.00     0.059 C 
ENDROOT
BRANCH   1   2
ATOM      2  C   UNL     1     -16.066  43.239  33.361  1.00  0.00     0.042 C 
ATOM      3  O   UNL     1     -15.336  43.587  34.326  1.00  0.00    -0.550 OA
ATOM      4  O   UNL     1     -16.116  41.903  32.983  1.00  0.00    -0.550 OA
ENDBRANCH   1   2
BRANCH   1   5
ATOM      5  C   UNL     1     -18.260  43.635  32.262  1.00  0.00     0.059 C 
BRANCH   5   6
ATOM      6  C   UNL     1     -19.173  43.569  33.445  1.00  0.00     0.042 C 
ATOM      7  O   UNL     1     -19.647  44.626  33.938  1.00  0.00    -0.550 OA
ATOM      8  O   UNL     1     -19.540  42.338  33.973  1.00  0.00    -0.550 OA
ENDBRANCH   5   6
ENDBRANCH   1   5
TORSDOF 3
ENDMDL
MODEL 8
REMARK VINA RESULT:    -3.114      2.736      3.307
REMARK INTER + INTRA:          -3.788
REMARK INTER:                  -3.608
REMARK INTRA:                  -0.181
REMARK UNBOUND:                -0.128
REMARK SMILES O=C([O-])CCC(=O)[O-]
REMARK SMILES IDX 4 1 2 2 1 3 3 4 5 5 6 6 7 7 8 8
REMARK H PARENT
REMARK Flexibility Score: inf
ROOT
ATOM      1  C   UNL     1     -17.415  41.778  34.173  1.00  0.00     0.059 C 
ENDROOT
BRANCH   1   2
ATOM      2  C   UNL     1     -16.168  42.399  33.628  1.00  0.00     0.042 C 
ATOM      3  O   UNL     1     -15.612  41.915  32.607  1.00  0.00    -0.550 OA
ATOM      4  O   UNL     1     -15.646  43.544  34.218  1.00  0.00    -0.550 OA
ENDBRANCH   1   2
BRANCH   1   5
ATOM      5  C   UNL     1     -18.541  41.841  33.139  1.00  0.00     0.059 C 
BRANCH   5   6
ATOM      6  C   UNL     1     -18.911  43.262  32.855  1.00  0.00     0.042 C 
ATOM      7  O   UNL     1     -18.767  43.734  31.696  1.00  0.00    -0.550 OA
ATOM      8  O   UNL     1     -19.462  44.052  33.856  1.00  0.00    -0.550 OA
ENDBRANCH   5   6
ENDBRANCH   1   5
TORSDOF 3
ENDMDL
MODEL 9
REMARK VINA RESULT:    -3.070      2.687      3.955
REMARK INTER + INTRA:          -3.736
REMARK INTER:                  -3.651
REMARK INTRA:                  -0.085
REMARK UNBOUND:                -0.128
REMARK SMILES O=C([O-])CCC(=O)[O-]
REMARK SMILES IDX 4 1 2 2 1 3 3 4 5 5 6 6 7 7 8 8
REMARK H PARENT
REMARK Flexibility Score: inf
ROOT
ATOM      1  C   UNL     1     -18.517  43.478  32.071  1.00  0.00     0.059 C 
ENDROOT
BRANCH   1   2
ATOM      2  C   UNL     1     -17.362  44.429  32.026  1.00  0.00     0.042 C 
ATOM      3  O   UNL     1     -16.585  44.529  33.011  1.00  0.00    -0.550 OA
ATOM      4  O   UNL     1     -17.116  45.170  30.877  1.00  0.00    -0.550 OA
ENDBRANCH   1   2
BRANCH   1   5
ATOM      5  C   UNL     1     -18.487  42.661  33.363  1.00  0.00     0.059 C 
BRANCH   5   6
ATOM      6  C   UNL     1     -17.907  41.306  33.112  1.00  0.00     0.042 C 
ATOM      7  O   UNL     1     -17.956  40.799  31.961  1.00  0.00    -0.550 OA
ATOM      8  O   UNL     1     -17.266  40.622  34.138  1.00  0.00    -0.550 OA
ENDBRANCH   5   6
ENDBRANCH   1   5
TORSDOF 3
ENDMDL
