MODEL 1
REMARK VINA RESULT:    -4.430      0.000      0.000
REMARK INTER + INTRA:          -6.393
REMARK INTER:                  -5.984
REMARK INTRA:                  -0.409
REMARK UNBOUND:                -0.409
REMARK SMILES CCCCCCCC(=O)[O-]
REMARK SMILES IDX 5 1 6 2 7 3 8 4 9 5 10 6 4 7 3 8 2 9 1 10
REMARK H PARENT
REMARK Flexibility Score: inf
ROOT
ATOM      1  C   UNL     1      12.945  -0.117  26.723  1.00  0.00     0.000 C 
ENDROOT
BRANCH   1   2
ATOM      2  C   UNL     1      13.493  -1.488  26.299  1.00  0.00     0.006 C 
BRANCH   2   3
ATOM      3  C   UNL     1      15.025  -1.491  26.307  1.00  0.00     0.053 C 
BRANCH   3   4
ATOM      4  C   UNL     1      15.542  -2.165  27.539  1.00  0.00     0.041 C 
ATOM      5  O   UNL     1      16.249  -3.203  27.443  1.00  0.00    -0.550 OA
ATOM      6  O   UNL     1      15.286  -1.618  28.789  1.00  0.00    -0.550 OA
ENDBRANCH   3   4
ENDBRANCH   2   3
ENDBRANCH   1   2
BRANCH   1   7
ATOM      7  C   UNL     1      12.181   0.593  25.593  1.00  0.00     0.000 C 
BRANCH   7   8
ATOM      8  C   UNL     1      13.082   1.529  24.770  1.00  0.00    -0.000 C 
BRANCH   8   9
ATOM      9  C   UNL     1      14.330   1.978  25.546  1.00  0.00    -0.003 C 
ATOM     10  C   UNL     1      15.618   1.836  24.734  1.00  0.00     0.004 C 
ENDBRANCH   8   9
ENDBRANCH   7   8
ENDBRANCH   1   7
TORSDOF 6
ENDMDL
MODEL 2
REMARK VINA RESULT:    -4.424      3.086      4.644
REMARK INTER + INTRA:          -6.384
REMARK INTER:                  -5.961
REMARK INTRA:                  -0.423
REMARK UNBOUND:                -0.409
REMARK SMILES CCCCCCCC(=O)[O-]
REMARK SMILES IDX 5 1 6 2 7 3 8 4 9 5 10 6 4 7 3 8 2 9 1 10
REMARK H PARENT
REMARK Flexibility Score: inf
ROOT
ATOM      1  C   UNL     1      14.782  -0.826  26.284  1.00  0.00     0.000 C 
ENDROOT
BRANCH   1   2
ATOM      2  C   UNL     1      13.312  -1.149  25.980  1.00  0.00     0.006 C 
BRANCH   2   3
ATOM      3  C   UNL     1      12.429   0.088  26.171  1.00  0.00     0.053 C 
BRANCH   3   4
ATOM      4  C   UNL     1      12.461   0.949  24.948  1.00  0.00     0.041 C 
ATOM      5  O   UNL     1      11.656   0.737  24.002  1.00  0.00    -0.550 OA
ATOM      6  O   UNL     1      13.345   2.018  24.873  1.00  0.00    -0.550 OA
ENDBRANCH   3   4
ENDBRANCH   2   3
ENDBRANCH   1   2
BRANCH   1   7
ATOM      7  C   UNL     1      15.420  -1.824  27.265  1.00  0.00     0.000 C 
BRANCH   7   8
ATOM      8  C   UNL     1      15.106  -1.489  28.733  1.00  0.00    -0.000 C 
BRANCH   8   9
ATOM      9  C   UNL     1      14.879   0.015  28.959  1.00  0.00    -0.003 C 
ATOM     10  C   UNL     1      13.610   0.310  29.758  1.00  0.00     0.004 C 
ENDBRANCH   8   9
ENDBRANCH   7   8
ENDBRANCH   1   7
TORSDOF 6
ENDMDL
MODEL 3
REMARK VINA RESULT:    -4.405      3.108      4.544
REMARK INTER + INTRA:          -6.360
REMARK INTER:                  -5.916
REMARK INTRA:                  -0.444
REMARK UNBOUND:                -0.409
REMARK SMILES CCCCCCCC(=O)[O-]
REMARK SMILES IDX 5 1 6 2 7 3 8 4 9 5 10 6 4 7 3 8 2 9 1 10
REMARK H PARENT
REMARK Flexibility Score: inf
ROOT
ATOM      1  C   UNL     1      13.230   0.225  27.801  1.00  0.00     0.000 C 
ENDROOT
BRANCH   1   2
ATOM      2  C   UNL     1      12.416  -0.448  26.686  1.00  0.00     0.006 C 
BRANCH   2   3
ATOM      3  C   UNL     1      11.492   0.562  25.999  1.00  0.00     0.053 C 
BRANCH   3   4
ATOM      4  C   UNL     1      12.088   1.024  24.706  1.00  0.00     0.041 C 
ATOM      5  O   UNL     1      11.554   0.702  23.612  1.00  0.00    -0.550 OA
ATOM      6  O   UNL     1      13.203   1.851  24.712  1.00  0.00    -0.550 OA
ENDBRANCH   3   4
ENDBRANCH   2   3
ENDBRANCH   1   2
BRANCH   1   7
ATOM      7  C   UNL     1      14.748   0.102  27.587  1.00  0.00     0.000 C 
BRANCH   7   8
ATOM      8  C   UNL     1      15.102  -0.661  26.299  1.00  0.00    -0.000 C 
BRANCH   8   9
ATOM      9  C   UNL     1      15.840  -1.981  26.581  1.00  0.00    -0.003 C 
ATOM     10  C   UNL     1      15.504  -2.568  27.952  1.00  0.00     0.004 C 
ENDBRANCH   8   9
ENDBRANCH   7   8
ENDBRANCH   1   7
TORSDOF 6
ENDMDL
MODEL 4
REMARK VINA RESULT:    -4.359      8.335     10.092
REMARK INTER + INTRA:          -6.297
REMARK INTER:                  -5.735
REMARK INTRA:                  -0.562
REMARK UNBOUND:                -0.409
REMARK SMILES CCCCCCCC(=O)[O-]
REMARK SMILES IDX 5 1 6 2 7 3 8 4 9 5 10 6 4 7 3 8 2 9 1 10
REMARK H PARENT
REMARK Flexibility Score: inf
ROOT
ATOM      1  C   UNL     1      16.702  -5.214  35.887  1.00  0.00     0.000 C 
ENDROOT
BRANCH   1   2
ATOM      2  C   UNL     1      17.764  -4.106  35.962  1.00  0.00     0.006 C 
BRANCH   2   3
ATOM      3  C   UNL     1      19.004  -4.481  35.145  1.00  0.00     0.053 C 
BRANCH   3   4
ATOM      4  C   UNL     1      19.371  -3.372  34.209  1.00  0.00     0.041 C 
ATOM      5  O   UNL     1      18.496  -2.550  33.828  1.00  0.00    -0.550 OA
ATOM      6  O   UNL     1      20.688  -3.217  33.798  1.00  0.00    -0.550 OA
ENDBRANCH   3   4
ENDBRANCH   2   3
ENDBRANCH   1   2
BRANCH   1   7
ATOM      7  C   UNL     1      15.778  -5.071  34.666  1.00  0.00     0.000 C 
BRANCH   7   8
ATOM      8  C   UNL     1      15.590  -6.397  33.910  1.00  0.00    -0.000 C 
BRANCH   8   9
ATOM      9  C   UNL     1      16.451  -6.476  32.639  1.00  0.00    -0.003 C 
ATOM     10  C   UNL     1      16.775  -5.101  32.054  1.00  0.00     0.004 C 
ENDBRANCH   8   9
ENDBRANCH   7   8
ENDBRANCH   1   7
TORSDOF 6
ENDMDL
MODEL 5
REMARK VINA RESULT:    -4.348      1.291      2.436
REMARK INTER + INTRA:          -6.282
REMARK INTER:                  -5.894
REMARK INTRA:                  -0.389
REMARK UNBOUND:                -0.409
REMARK SMILES CCCCCCCC(=O)[O-]
REMARK SMILES IDX 5 1 6 2 7 3 8 4 9 5 10 6 4 7 3 8 2 9 1 10
REMARK H PARENT
REMARK Flexibility Score: inf
ROOT
ATOM      1  C   UNL     1      15.126   0.007  26.087  1.00  0.00     0.000 C 
ENDROOT
BRANCH   1   2
ATOM      2  C   UNL     1      14.834  -1.500  26.133  1.00  0.00     0.006 C 
BRANCH   2   3
ATOM      3  C   UNL     1      15.925  -2.245  26.907  1.00  0.00     0.053 C 
BRANCH   3   4
ATOM      4  C   UNL     1      15.500  -2.476  28.323  1.00  0.00     0.041 C 
ATOM      5  O   UNL     1      15.149  -1.506  29.045  1.00  0.00    -0.550 OA
ATOM      6  O   UNL     1      15.442  -3.768  28.830  1.00  0.00    -0.550 OA
ENDBRANCH   3   4
ENDBRANCH   2   3
ENDBRANCH   1   2
BRANCH   1   7
ATOM      7  C   UNL     1      13.956   0.855  26.613  1.00  0.00     0.000 C 
BRANCH   7   8
ATOM      8  C   UNL     1      12.736   0.002  27.002  1.00  0.00    -0.000 C 
BRANCH   8   9
ATOM      9  C   UNL     1      11.482   0.364  26.190  1.00  0.00    -0.003 C 
ATOM     10  C   UNL     1      11.801   0.750  24.745  1.00  0.00     0.004 C 
ENDBRANCH   8   9
ENDBRANCH   7   8
ENDBRANCH   1   7
TORSDOF 6
ENDMDL
MODEL 6
REMARK VINA RESULT:    -4.306      8.965      9.777
REMARK INTER + INTRA:          -6.226
REMARK INTER:                  -5.702
REMARK INTRA:                  -0.524
REMARK UNBOUND:                -0.409
REMARK SMILES CCCCCCCC(=O)[O-]
REMARK SMILES IDX 5 1 6 2 7 3 8 4 9 5 10 6 4 7 3 8 2 9 1 10
REMARK H PARENT
REMARK Flexibility Score: inf
ROOT
ATOM      1  C   UNL     1      17.065  -4.933  35.677  1.00  0.00     0.000 C 
ENDROOT
BRANCH   1   2
ATOM      2  C   UNL     1      15.995  -4.848  34.579  1.00  0.00     0.006 C 
BRANCH   2   3
ATOM      3  C   UNL     1      15.703  -6.232  33.991  1.00  0.00     0.053 C 
BRANCH   3   4
ATOM      4  C   UNL     1      16.275  -6.348  32.613  1.00  0.00     0.041 C 
ATOM      5  O   UNL     1      16.509  -7.482  32.118  1.00  0.00    -0.550 OA
ATOM      6  O   UNL     1      16.502  -5.206  31.857  1.00  0.00    -0.550 OA
ENDBRANCH   3   4
ENDBRANCH   2   3
ENDBRANCH   1   2
BRANCH   1   7
ATOM      7  C   UNL     1      18.061  -3.761  35.629  1.00  0.00     0.000 C 
BRANCH   7   8
ATOM      8  C   UNL     1      18.417  -3.348  34.191  1.00  0.00    -0.000 C 
BRANCH   8   9
ATOM      9  C   UNL     1      19.846  -3.755  33.798  1.00  0.00    -0.003 C 
ATOM     10  C   UNL     1      19.891  -5.031  32.957  1.00  0.00     0.004 C 
ENDBRANCH   8   9
ENDBRANCH   7   8
ENDBRANCH   1   7
TORSDOF 6
ENDMDL
MODEL 7
REMARK VINA RESULT:    -4.294      9.388     10.228
REMARK INTER + INTRA:          -6.209
REMARK INTER:                  -5.558
REMARK INTRA:                  -0.651
REMARK UNBOUND:                -0.409
REMARK SMILES CCCCCCCC(=O)[O-]
REMARK SMILES IDX 5 1 6 2 7 3 8 4 9 5 10 6 4 7 3 8 2 9 1 10
REMARK H PARENT
REMARK Flexibility Score: inf
ROOT
ATOM      1  C   UNL     1      15.781  -6.348  34.021  1.00  0.00     0.000 C 
ENDROOT
BRANCH   1   2
ATOM      2  C   UNL     1      16.622  -6.470  32.742  1.00  0.00     0.006 C 
BRANCH   2   3
ATOM      3  C   UNL     1      17.629  -7.618  32.856  1.00  0.00     0.053 C 
BRANCH   3   4
ATOM      4  C   UNL     1      18.889  -7.147  33.513  1.00  0.00     0.041 C 
ATOM      5  O   UNL     1      19.624  -6.300  32.939  1.00  0.00    -0.550 OA
ATOM      6  O   UNL     1      19.226  -7.605  34.779  1.00  0.00    -0.550 OA
ENDBRANCH   3   4
ENDBRANCH   2   3
ENDBRANCH   1   2
BRANCH   1   7
ATOM      7  C   UNL     1      15.887  -4.959  34.672  1.00  0.00     0.000 C 
BRANCH   7   8
ATOM      8  C   UNL     1      16.939  -4.913  35.794  1.00  0.00    -0.000 C 
BRANCH   8   9
ATOM      9  C   UNL     1      18.036  -3.869  35.529  1.00  0.00    -0.003 C 
ATOM     10  C   UNL     1      18.008  -3.328  34.100  1.00  0.00     0.004 C 
ENDBRANCH   8   9
ENDBRANCH   7   8
ENDBRANCH   1   7
TORSDOF 6
ENDMDL
MODEL 8
REMARK VINA RESULT:    -4.273      8.893     10.290
REMARK INTER + INTRA:          -6.182
REMARK INTER:                  -5.578
REMARK INTRA:                  -0.603
REMARK UNBOUND:                -0.409
REMARK SMILES CCCCCCCC(=O)[O-]
REMARK SMILES IDX 5 1 6 2 7 3 8 4 9 5 10 6 4 7 3 8 2 9 1 10
REMARK H PARENT
REMARK Flexibility Score: inf
ROOT
ATOM      1  C   UNL     1      15.533  -6.443  33.860  1.00  0.00     0.000 C 
ENDROOT
BRANCH   1   2
ATOM      2  C   UNL     1      15.873  -5.111  34.547  1.00  0.00     0.006 C 
BRANCH   2   3
ATOM      3  C   UNL     1      16.656  -4.194  33.603  1.00  0.00     0.053 C 
BRANCH   3   4
ATOM      4  C   UNL     1      17.877  -3.659  34.285  1.00  0.00     0.041 C 
ATOM      5  O   UNL     1      18.518  -2.702  33.775  1.00  0.00    -0.550 OA
ATOM      6  O   UNL     1      18.277  -4.184  35.506  1.00  0.00    -0.550 OA
ENDBRANCH   3   4
ENDBRANCH   2   3
ENDBRANCH   1   2
BRANCH   1   7
ATOM      7  C   UNL     1      16.377  -6.694  32.599  1.00  0.00     0.000 C 
BRANCH   7   8
ATOM      8  C   UNL     1      17.382  -7.844  32.781  1.00  0.00    -0.000 C 
BRANCH   8   9
ATOM      9  C   UNL     1      18.790  -7.344  33.141  1.00  0.00    -0.003 C 
ATOM     10  C   UNL     1      19.111  -7.493  34.629  1.00  0.00     0.004 C 
ENDBRANCH   8   9
ENDBRANCH   7   8
ENDBRANCH   1   7
TORSDOF 6
ENDMDL
MODEL 9
REMARK VINA RESULT:    -4.230      9.061     10.485
REMARK INTER + INTRA:          -6.123
REMARK INTER:                  -5.446
REMARK INTRA:                  -0.677
REMARK UNBOUND:                -0.409
REMARK SMILES CCCCCCCC(=O)[O-]
REMARK SMILES IDX 5 1 6 2 7 3 8 4 9 5 10 6 4 7 3 8 2 9 1 10
REMARK H PARENT
REMARK Flexibility Score: inf
ROOT
ATOM      1  C   UNL     1      10.365   4.402  20.919  1.00  0.00     0.000 C 
ENDROOT
BRANCH   1   2
ATOM      2  C   UNL     1      11.727   5.105  20.833  1.00  0.00     0.006 C 
BRANCH   2   3
ATOM      3  C   UNL     1      11.588   6.490  20.193  1.00  0.00     0.053 C 
BRANCH   3   4
ATOM      4  C   UNL     1      11.935   6.434  18.738  1.00  0.00     0.041 C 
ATOM      5  O   UNL     1      12.533   5.431  18.269  1.00  0.00    -0.550 OA
ATOM      6  O   UNL     1      11.553   7.467  17.893  1.00  0.00    -0.550 OA
ENDBRANCH   3   4
ENDBRANCH   2   3
ENDBRANCH   1   2
BRANCH   1   7
ATOM      7  C   UNL     1      10.227   3.247  19.913  1.00  0.00     0.000 C 
BRANCH   7   8
ATOM      8  C   UNL     1       9.228   3.561  18.786  1.00  0.00    -0.000 C 
BRANCH   8   9
ATOM      9  C   UNL     1       8.323   4.758  19.120  1.00  0.00    -0.003 C 
ATOM     10  C   UNL     1       8.320   5.824  18.025  1.00  0.00     0.004 C 
ENDBRANCH   8   9
ENDBRANCH   7   8
ENDBRANCH   1   7
TORSDOF 6
ENDMDL
