MODEL 1
REMARK VINA RESULT:    -5.037      0.000      0.000
REMARK INTER + INTRA:         -15.808
REMARK INTER:                 -13.283
REMARK INTRA:                  -2.526
REMARK UNBOUND:                -2.526
REMARK SMILES CCCCCCCCCCCCCCCCCCCCCCCCCCCCCC(=O)[O-]
REMARK SMILES IDX 16 1 17 2 18 3 19 4 20 5 21 6 22 7 23 8 24 9 25 10 26 11
REMARK SMILES IDX 27 12 28 13 29 14 30 15 31 16 32 17 15 18 14 19 13 20 12 21
REMARK SMILES IDX 11 22 10 23 9 24 8 25 7 26 6 27 5 28 4 29 3 30 2 31 1 32
REMARK H PARENT
REMARK Flexibility Score: inf
ROOT
ATOM      1  C   UNL     1      54.753 144.486 -24.548  1.00  0.00     0.000 C 
ENDROOT
BRANCH   1   2
ATOM      2  C   UNL     1      55.291 143.250 -23.807  1.00  0.00     0.000 C 
BRANCH   2   3
ATOM      3  C   UNL     1      54.309 142.067 -23.825  1.00  0.00     0.000 C 
BRANCH   3   4
ATOM      4  C   UNL     1      54.962 140.764 -24.317  1.00  0.00     0.000 C 
BRANCH   4   5
ATOM      5  C   UNL     1      56.458 140.671 -23.963  1.00  0.00     0.000 C 
BRANCH   5   6
ATOM      6  C   UNL     1      56.773 140.182 -22.533  1.00  0.00     0.000 C 
BRANCH   6   7
ATOM      7  C   UNL     1      57.709 141.091 -21.717  1.00  0.00     0.000 C 
BRANCH   7   8
ATOM      8  C   UNL     1      58.449 142.123 -22.582  1.00  0.00     0.000 C 
BRANCH   8   9
ATOM      9  C   UNL     1      58.382 143.518 -21.939  1.00  0.00     0.000 C 
BRANCH   9  10
ATOM     10  C   UNL     1      59.608 143.822 -21.061  1.00  0.00     0.000 C 
BRANCH  10  11
ATOM     11  C   UNL     1      59.220 144.074 -19.592  1.00  0.00     0.000 C 
BRANCH  11  12
ATOM     12  C   UNL     1      60.302 144.835 -18.804  1.00  0.00     0.000 C 
BRANCH  12  13
ATOM     13  C   UNL     1      61.629 145.048 -19.555  1.00  0.00     0.006 C 
BRANCH  13  14
ATOM     14  C   UNL     1      62.222 146.447 -19.341  1.00  0.00     0.053 C 
BRANCH  14  15
ATOM     15  C   UNL     1      61.818 147.365 -20.453  1.00  0.00     0.041 C 
ATOM     16  O   UNL     1      61.625 148.589 -20.224  1.00  0.00    -0.550 OA
ATOM     17  O   UNL     1      61.697 146.878 -21.749  1.00  0.00    -0.550 OA
ENDBRANCH  14  15
ENDBRANCH  13  14
ENDBRANCH  12  13
ENDBRANCH  11  12
ENDBRANCH  10  11
ENDBRANCH   9  10
ENDBRANCH   8   9
ENDBRANCH   7   8
ENDBRANCH   6   7
ENDBRANCH   5   6
ENDBRANCH   4   5
ENDBRANCH   3   4
ENDBRANCH   2   3
ENDBRANCH   1   2
BRANCH   1  18
ATOM     18  C   UNL     1      54.984 144.405 -26.065  1.00  0.00     0.000 C 
BRANCH  18  19
ATOM     19  C   UNL     1      56.322 143.746 -26.427  1.00  0.00     0.000 C 
BRANCH  19  20
ATOM     20  C   UNL     1      56.852 144.291 -27.760  1.00  0.00     0.000 C 
BRANCH  20  21
ATOM     21  C   UNL     1      55.991 143.810 -28.938  1.00  0.00     0.000 C 
BRANCH  21  22
ATOM     22  C   UNL     1      56.816 143.632 -30.226  1.00  0.00     0.000 C 
BRANCH  22  23
ATOM     23  C   UNL     1      58.245 144.187 -30.086  1.00  0.00     0.000 C 
BRANCH  23  24
ATOM     24  C   UNL     1      59.238 143.553 -31.083  1.00  0.00    -0.000 C 
BRANCH  24  25
ATOM     25  C   UNL     1      59.274 144.240 -32.462  1.00  0.00    -0.000 C 
BRANCH  25  26
ATOM     26  C   UNL     1      60.058 143.499 -33.563  1.00  0.00    -0.000 C 
BRANCH  26  27
ATOM     27  C   UNL     1      60.854 144.396 -34.535  1.00  0.00    -0.000 C 
BRANCH  27  28
ATOM     28  C   UNL     1      61.873 145.339 -33.855  1.00  0.00    -0.000 C 
BRANCH  28  29
ATOM     29  C   UNL     1      61.604 146.838 -34.091  1.00  0.00    -0.000 C 
BRANCH  29  30
ATOM     30  C   UNL     1      60.431 147.401 -33.264  1.00  0.00    -0.000 C 
BRANCH  30  31
ATOM     31  C   UNL     1      59.441 148.200 -34.127  1.00  0.00    -0.003 C 
ATOM     32  C   UNL     1      58.543 147.270 -34.936  1.00  0.00     0.004 C 
ENDBRANCH  30  31
ENDBRANCH  29  30
ENDBRANCH  28  29
ENDBRANCH  27  28
ENDBRANCH  26  27
ENDBRANCH  25  26
ENDBRANCH  24  25
ENDBRANCH  23  24
ENDBRANCH  22  23
ENDBRANCH  21  22
ENDBRANCH  20  21
ENDBRANCH  19  20
ENDBRANCH  18  19
ENDBRANCH   1  18
TORSDOF 28
ENDMDL
MODEL 2
REMARK VINA RESULT:    -4.969      1.391      2.741
REMARK INTER + INTRA:         -15.629
REMARK INTER:                 -13.259
REMARK INTRA:                  -2.370
REMARK UNBOUND:                -2.526
REMARK SMILES CCCCCCCCCCCCCCCCCCCCCCCCCCCCCC(=O)[O-]
REMARK SMILES IDX 16 1 17 2 18 3 19 4 20 5 21 6 22 7 23 8 24 9 25 10 26 11
REMARK SMILES IDX 27 12 28 13 29 14 30 15 31 16 32 17 15 18 14 19 13 20 12 21
REMARK SMILES IDX 11 22 10 23 9 24 8 25 7 26 6 27 5 28 4 29 3 30 2 31 1 32
REMARK H PARENT
REMARK Flexibility Score: inf
ROOT
ATOM      1  C   UNL     1      54.282 140.686 -24.132  1.00  0.00     0.000 C 
ENDROOT
BRANCH   1   2
ATOM      2  C   UNL     1      55.143 139.533 -23.588  1.00  0.00     0.000 C 
BRANCH   2   3
ATOM      3  C   UNL     1      56.550 139.493 -24.207  1.00  0.00     0.000 C 
BRANCH   3   4
ATOM      4  C   UNL     1      57.664 139.563 -23.148  1.00  0.00     0.000 C 
BRANCH   4   5
ATOM      5  C   UNL     1      58.326 140.950 -23.062  1.00  0.00     0.000 C 
BRANCH   5   6
ATOM      6  C   UNL     1      57.642 141.955 -22.111  1.00  0.00     0.000 C 
BRANCH   6   7
ATOM      7  C   UNL     1      58.169 143.399 -22.189  1.00  0.00     0.000 C 
BRANCH   7   8
ATOM      8  C   UNL     1      58.868 143.854 -20.900  1.00  0.00     0.000 C 
BRANCH   8   9
ATOM      9  C   UNL     1      60.395 143.749 -21.043  1.00  0.00     0.000 C 
BRANCH   9  10
ATOM     10  C   UNL     1      61.132 144.019 -19.720  1.00  0.00     0.000 C 
BRANCH  10  11
ATOM     11  C   UNL     1      60.309 143.576 -18.496  1.00  0.00     0.000 C 
BRANCH  11  12
ATOM     12  C   UNL     1      59.965 144.737 -17.547  1.00  0.00     0.000 C 
BRANCH  12  13
ATOM     13  C   UNL     1      60.315 146.140 -18.077  1.00  0.00     0.006 C 
BRANCH  13  14
ATOM     14  C   UNL     1      59.917 147.264 -17.111  1.00  0.00     0.053 C 
BRANCH  14  15
ATOM     15  C   UNL     1      59.901 148.584 -17.817  1.00  0.00     0.041 C 
ATOM     16  O   UNL     1      59.446 149.606 -17.239  1.00  0.00    -0.550 OA
ATOM     17  O   UNL     1      60.428 148.694 -19.099  1.00  0.00    -0.550 OA
ENDBRANCH  14  15
ENDBRANCH  13  14
ENDBRANCH  12  13
ENDBRANCH  11  12
ENDBRANCH  10  11
ENDBRANCH   9  10
ENDBRANCH   8   9
ENDBRANCH   7   8
ENDBRANCH   6   7
ENDBRANCH   5   6
ENDBRANCH   4   5
ENDBRANCH   3   4
ENDBRANCH   2   3
ENDBRANCH   1   2
BRANCH   1  18
ATOM     18  C   UNL     1      55.109 141.705 -24.931  1.00  0.00     0.000 C 
BRANCH  18  19
ATOM     19  C   UNL     1      55.001 143.129 -24.367  1.00  0.00     0.000 C 
BRANCH  19  20
ATOM     20  C   UNL     1      55.383 144.164 -25.433  1.00  0.00     0.000 C 
BRANCH  20  21
ATOM     21  C   UNL     1      56.679 143.766 -26.156  1.00  0.00     0.000 C 
BRANCH  21  22
ATOM     22  C   UNL     1      56.847 144.504 -27.497  1.00  0.00     0.000 C 
BRANCH  22  23
ATOM     23  C   UNL     1      55.880 143.980 -28.576  1.00  0.00     0.000 C 
BRANCH  23  24
ATOM     24  C   UNL     1      56.578 143.699 -29.924  1.00  0.00    -0.000 C 
BRANCH  24  25
ATOM     25  C   UNL     1      58.049 144.154 -29.980  1.00  0.00    -0.000 C 
BRANCH  25  26
ATOM     26  C   UNL     1      58.887 143.580 -31.140  1.00  0.00    -0.000 C 
BRANCH  26  27
ATOM     27  C   UNL     1      59.232 144.573 -32.271  1.00  0.00    -0.000 C 
BRANCH  27  28
ATOM     28  C   UNL     1      60.012 143.958 -33.455  1.00  0.00    -0.000 C 
BRANCH  28  29
ATOM     29  C   UNL     1      60.395 144.966 -34.554  1.00  0.00    -0.000 C 
BRANCH  29  30
ATOM     30  C   UNL     1      61.224 146.163 -34.044  1.00  0.00    -0.000 C 
BRANCH  30  31
ATOM     31  C   UNL     1      61.216 147.339 -35.033  1.00  0.00    -0.003 C 
ATOM     32  C   UNL     1      60.410 148.513 -34.485  1.00  0.00     0.004 C 
ENDBRANCH  30  31
ENDBRANCH  29  30
ENDBRANCH  28  29
ENDBRANCH  27  28
ENDBRANCH  26  27
ENDBRANCH  25  26
ENDBRANCH  24  25
ENDBRANCH  23  24
ENDBRANCH  22  23
ENDBRANCH  21  22
ENDBRANCH  20  21
ENDBRANCH  19  20
ENDBRANCH  18  19
ENDBRANCH   1  18
TORSDOF 28
ENDMDL
MODEL 3
REMARK VINA RESULT:    -4.901      1.165      2.521
REMARK INTER + INTRA:         -15.450
REMARK INTER:                 -13.212
REMARK INTRA:                  -2.238
REMARK UNBOUND:                -2.526
REMARK SMILES CCCCCCCCCCCCCCCCCCCCCCCCCCCCCC(=O)[O-]
REMARK SMILES IDX 16 1 17 2 18 3 19 4 20 5 21 6 22 7 23 8 24 9 25 10 26 11
REMARK SMILES IDX 27 12 28 13 29 14 30 15 31 16 32 17 15 18 14 19 13 20 12 21
REMARK SMILES IDX 11 22 10 23 9 24 8 25 7 26 6 27 5 28 4 29 3 30 2 31 1 32
REMARK H PARENT
REMARK Flexibility Score: inf
ROOT
ATOM      1  C   UNL     1      55.602 140.937 -25.038  1.00  0.00     0.000 C 
ENDROOT
BRANCH   1   2
ATOM      2  C   UNL     1      56.194 140.240 -23.801  1.00  0.00     0.000 C 
BRANCH   2   3
ATOM      3  C   UNL     1      56.317 141.177 -22.588  1.00  0.00     0.000 C 
BRANCH   3   4
ATOM      4  C   UNL     1      57.776 141.558 -22.283  1.00  0.00     0.000 C 
BRANCH   4   5
ATOM      5  C   UNL     1      57.983 143.077 -22.142  1.00  0.00     0.000 C 
BRANCH   5   6
ATOM      6  C   UNL     1      59.091 143.509 -21.156  1.00  0.00     0.000 C 
BRANCH   6   7
ATOM      7  C   UNL     1      59.381 142.517 -20.016  1.00  0.00     0.000 C 
BRANCH   7   8
ATOM      8  C   UNL     1      58.707 142.907 -18.693  1.00  0.00     0.000 C 
BRANCH   8   9
ATOM      9  C   UNL     1      58.824 144.419 -18.448  1.00  0.00     0.000 C 
BRANCH   9  10
ATOM     10  C   UNL     1      60.243 144.842 -18.031  1.00  0.00     0.000 C 
BRANCH  10  11
ATOM     11  C   UNL     1      60.781 145.998 -18.895  1.00  0.00     0.000 C 
BRANCH  11  12
ATOM     12  C   UNL     1      62.009 145.603 -19.735  1.00  0.00     0.000 C 
BRANCH  12  13
ATOM     13  C   UNL     1      62.449 146.645 -20.780  1.00  0.00     0.006 C 
BRANCH  13  14
ATOM     14  C   UNL     1      62.058 148.079 -20.399  1.00  0.00     0.053 C 
BRANCH  14  15
ATOM     15  C   UNL     1      62.163 148.986 -21.586  1.00  0.00     0.041 C 
ATOM     16  O   UNL     1      61.296 148.938 -22.498  1.00  0.00    -0.550 OA
ATOM     17  O   UNL     1      63.195 149.915 -21.664  1.00  0.00    -0.550 OA
ENDBRANCH  14  15
ENDBRANCH  13  14
ENDBRANCH  12  13
ENDBRANCH  11  12
ENDBRANCH  10  11
ENDBRANCH   9  10
ENDBRANCH   8   9
ENDBRANCH   7   8
ENDBRANCH   6   7
ENDBRANCH   5   6
ENDBRANCH   4   5
ENDBRANCH   3   4
ENDBRANCH   2   3
ENDBRANCH   1   2
BRANCH   1  18
ATOM     18  C   UNL     1      56.267 142.294 -25.318  1.00  0.00     0.000 C 
BRANCH  18  19
ATOM     19  C   UNL     1      55.295 143.472 -25.174  1.00  0.00     0.000 C 
BRANCH  19  20
ATOM     20  C   UNL     1      55.291 144.330 -26.447  1.00  0.00     0.000 C 
BRANCH  20  21
ATOM     21  C   UNL     1      56.352 143.847 -27.446  1.00  0.00     0.000 C 
BRANCH  21  22
ATOM     22  C   UNL     1      56.039 144.290 -28.887  1.00  0.00     0.000 C 
BRANCH  22  23
ATOM     23  C   UNL     1      56.828 143.479 -29.932  1.00  0.00     0.000 C 
BRANCH  23  24
ATOM     24  C   UNL     1      58.246 144.036 -30.181  1.00  0.00    -0.000 C 
BRANCH  24  25
ATOM     25  C   UNL     1      58.572 144.292 -31.664  1.00  0.00    -0.000 C 
BRANCH  25  26
ATOM     26  C   UNL     1      59.758 143.492 -32.240  1.00  0.00    -0.000 C 
BRANCH  26  27
ATOM     27  C   UNL     1      60.059 143.727 -33.736  1.00  0.00    -0.000 C 
BRANCH  27  28
ATOM     28  C   UNL     1      61.347 144.534 -34.016  1.00  0.00    -0.000 C 
BRANCH  28  29
ATOM     29  C   UNL     1      61.102 145.934 -34.611  1.00  0.00    -0.000 C 
BRANCH  29  30
ATOM     30  C   UNL     1      59.616 146.348 -34.646  1.00  0.00    -0.000 C 
BRANCH  30  31
ATOM     31  C   UNL     1      59.327 147.557 -33.743  1.00  0.00    -0.003 C 
ATOM     32  C   UNL     1      60.223 147.548 -32.508  1.00  0.00     0.004 C 
ENDBRANCH  30  31
ENDBRANCH  29  30
ENDBRANCH  28  29
ENDBRANCH  27  28
ENDBRANCH  26  27
ENDBRANCH  25  26
ENDBRANCH  24  25
ENDBRANCH  23  24
ENDBRANCH  22  23
ENDBRANCH  21  22
ENDBRANCH  20  21
ENDBRANCH  19  20
ENDBRANCH  18  19
ENDBRANCH   1  18
TORSDOF 28
ENDMDL
MODEL 4
REMARK VINA RESULT:    -4.898      3.316     11.313
REMARK INTER + INTRA:         -15.442
REMARK INTER:                 -12.541
REMARK INTRA:                  -2.901
REMARK UNBOUND:                -2.526
REMARK SMILES CCCCCCCCCCCCCCCCCCCCCCCCCCCCCC(=O)[O-]
REMARK SMILES IDX 16 1 17 2 18 3 19 4 20 5 21 6 22 7 23 8 24 9 25 10 26 11
REMARK SMILES IDX 27 12 28 13 29 14 30 15 31 16 32 17 15 18 14 19 13 20 12 21
REMARK SMILES IDX 11 22 10 23 9 24 8 25 7 26 6 27 5 28 4 29 3 30 2 31 1 32
REMARK H PARENT
REMARK Flexibility Score: inf
ROOT
ATOM      1  C   UNL     1      54.372 142.702 -23.655  1.00  0.00     0.000 C 
ENDROOT
BRANCH   1   2
ATOM      2  C   UNL     1      54.971 144.031 -24.147  1.00  0.00     0.000 C 
BRANCH   2   3
ATOM      3  C   UNL     1      56.016 143.840 -25.260  1.00  0.00     0.000 C 
BRANCH   3   4
ATOM      4  C   UNL     1      55.557 144.425 -26.607  1.00  0.00     0.000 C 
BRANCH   4   5
ATOM      5  C   UNL     1      56.535 144.124 -27.757  1.00  0.00     0.000 C 
BRANCH   5   6
ATOM      6  C   UNL     1      55.913 143.450 -28.999  1.00  0.00     0.000 C 
BRANCH   6   7
ATOM      7  C   UNL     1      56.546 143.840 -30.347  1.00  0.00     0.000 C 
BRANCH   7   8
ATOM      8  C   UNL     1      58.076 143.948 -30.283  1.00  0.00     0.000 C 
BRANCH   8   9
ATOM      9  C   UNL     1      58.660 144.228 -31.677  1.00  0.00     0.000 C 
BRANCH   9  10
ATOM     10  C   UNL     1      59.715 143.191 -32.095  1.00  0.00     0.000 C 
BRANCH  10  11
ATOM     11  C   UNL     1      60.230 143.430 -33.527  1.00  0.00     0.000 C 
BRANCH  11  12
ATOM     12  C   UNL     1      60.933 144.788 -33.696  1.00  0.00     0.000 C 
BRANCH  12  13
ATOM     13  C   UNL     1      60.439 145.638 -34.882  1.00  0.00     0.006 C 
BRANCH  13  14
ATOM     14  C   UNL     1      59.304 146.598 -34.501  1.00  0.00     0.053 C 
BRANCH  14  15
ATOM     15  C   UNL     1      59.852 147.819 -33.828  1.00  0.00     0.041 C 
ATOM     16  O   UNL     1      59.869 147.894 -32.571  1.00  0.00    -0.550 OA
ATOM     17  O   UNL     1      60.384 148.854 -34.589  1.00  0.00    -0.550 OA
ENDBRANCH  14  15
ENDBRANCH  13  14
ENDBRANCH  12  13
ENDBRANCH  11  12
ENDBRANCH  10  11
ENDBRANCH   9  10
ENDBRANCH   8   9
ENDBRANCH   7   8
ENDBRANCH   6   7
ENDBRANCH   5   6
ENDBRANCH   4   5
ENDBRANCH   3   4
ENDBRANCH   2   3
ENDBRANCH   1   2
BRANCH   1  18
ATOM     18  C   UNL     1      54.965 141.488 -24.385  1.00  0.00     0.000 C 
BRANCH  18  19
ATOM     19  C   UNL     1      55.549 140.444 -23.424  1.00  0.00     0.000 C 
BRANCH  19  20
ATOM     20  C   UNL     1      57.072 140.602 -23.312  1.00  0.00     0.000 C 
BRANCH  20  21
ATOM     21  C   UNL     1      57.539 140.467 -21.855  1.00  0.00     0.000 C 
BRANCH  21  22
ATOM     22  C   UNL     1      58.234 141.744 -21.347  1.00  0.00     0.000 C 
BRANCH  22  23
ATOM     23  C   UNL     1      58.354 142.819 -22.443  1.00  0.00     0.000 C 
BRANCH  23  24
ATOM     24  C   UNL     1      59.168 144.050 -21.991  1.00  0.00    -0.000 C 
BRANCH  24  25
ATOM     25  C   UNL     1      60.586 144.123 -22.588  1.00  0.00    -0.000 C 
BRANCH  25  26
ATOM     26  C   UNL     1      61.736 144.285 -21.573  1.00  0.00    -0.000 C 
BRANCH  26  27
ATOM     27  C   UNL     1      61.328 144.219 -20.086  1.00  0.00    -0.000 C 
BRANCH  27  28
ATOM     28  C   UNL     1      61.582 142.855 -19.406  1.00  0.00    -0.000 C 
BRANCH  28  29
ATOM     29  C   UNL     1      60.405 142.340 -18.555  1.00  0.00    -0.000 C 
BRANCH  29  30
ATOM     30  C   UNL     1      59.356 143.420 -18.221  1.00  0.00    -0.000 C 
BRANCH  30  31
ATOM     31  C   UNL     1      58.132 142.838 -17.497  1.00  0.00    -0.003 C 
ATOM     32  C   UNL     1      58.534 142.184 -16.178  1.00  0.00     0.004 C 
ENDBRANCH  30  31
ENDBRANCH  29  30
ENDBRANCH  28  29
ENDBRANCH  27  28
ENDBRANCH  26  27
ENDBRANCH  25  26
ENDBRANCH  24  25
ENDBRANCH  23  24
ENDBRANCH  22  23
ENDBRANCH  21  22
ENDBRANCH  20  21
ENDBRANCH  19  20
ENDBRANCH  18  19
ENDBRANCH   1  18
TORSDOF 28
ENDMDL
MODEL 5
REMARK VINA RESULT:    -4.837      2.043      3.871
REMARK INTER + INTRA:         -15.280
REMARK INTER:                 -13.374
REMARK INTRA:                  -1.906
REMARK UNBOUND:                -2.526
REMARK SMILES CCCCCCCCCCCCCCCCCCCCCCCCCCCCCC(=O)[O-]
REMARK SMILES IDX 16 1 17 2 18 3 19 4 20 5 21 6 22 7 23 8 24 9 25 10 26 11
REMARK SMILES IDX 27 12 28 13 29 14 30 15 31 16 32 17 15 18 14 19 13 20 12 21
REMARK SMILES IDX 11 22 10 23 9 24 8 25 7 26 6 27 5 28 4 29 3 30 2 31 1 32
REMARK H PARENT
REMARK Flexibility Score: inf
ROOT
ATOM      1  C   UNL     1      57.100 143.059 -22.967  1.00  0.00     0.000 C 
ENDROOT
BRANCH   1   2
ATOM      2  C   UNL     1      58.611 142.915 -22.717  1.00  0.00     0.000 C 
BRANCH   2   3
ATOM      3  C   UNL     1      58.958 141.707 -21.831  1.00  0.00     0.000 C 
BRANCH   3   4
ATOM      4  C   UNL     1      58.534 141.907 -20.365  1.00  0.00     0.000 C 
BRANCH   4   5
ATOM      5  C   UNL     1      58.858 143.315 -19.833  1.00  0.00     0.000 C 
BRANCH   5   6
ATOM      6  C   UNL     1      58.623 143.525 -18.322  1.00  0.00     0.000 C 
BRANCH   6   7
ATOM      7  C   UNL     1      58.506 142.236 -17.489  1.00  0.00     0.000 C 
BRANCH   7   8
ATOM      8  C   UNL     1      59.223 142.329 -16.134  1.00  0.00     0.000 C 
BRANCH   8   9
ATOM      9  C   UNL     1      59.983 143.659 -16.010  1.00  0.00     0.000 C 
BRANCH   9  10
ATOM     10  C   UNL     1      61.419 143.570 -16.553  1.00  0.00     0.000 C 
BRANCH  10  11
ATOM     11  C   UNL     1      62.094 144.953 -16.635  1.00  0.00     0.000 C 
BRANCH  11  12
ATOM     12  C   UNL     1      61.457 145.992 -15.696  1.00  0.00     0.000 C 
BRANCH  12  13
ATOM     13  C   UNL     1      61.451 147.437 -16.229  1.00  0.00     0.006 C 
BRANCH  13  14
ATOM     14  C   UNL     1      60.069 147.890 -16.720  1.00  0.00     0.053 C 
BRANCH  14  15
ATOM     15  C   UNL     1      59.990 147.811 -18.213  1.00  0.00     0.041 C 
ATOM     16  O   UNL     1      59.615 146.746 -18.771  1.00  0.00    -0.550 OA
ATOM     17  O   UNL     1      60.288 148.928 -18.986  1.00  0.00    -0.550 OA
ENDBRANCH  14  15
ENDBRANCH  13  14
ENDBRANCH  12  13
ENDBRANCH  11  12
ENDBRANCH  10  11
ENDBRANCH   9  10
ENDBRANCH   8   9
ENDBRANCH   7   8
ENDBRANCH   6   7
ENDBRANCH   5   6
ENDBRANCH   4   5
ENDBRANCH   3   4
ENDBRANCH   2   3
ENDBRANCH   1   2
BRANCH   1  18
ATOM     18  C   UNL     1      56.490 141.799 -23.601  1.00  0.00     0.000 C 
BRANCH  18  19
ATOM     19  C   UNL     1      55.266 142.106 -24.473  1.00  0.00     0.000 C 
BRANCH  19  20
ATOM     20  C   UNL     1      55.548 141.768 -25.943  1.00  0.00     0.000 C 
BRANCH  20  21
ATOM     21  C   UNL     1      55.225 142.957 -26.859  1.00  0.00     0.000 C 
BRANCH  21  22
ATOM     22  C   UNL     1      56.259 144.090 -26.729  1.00  0.00     0.000 C 
BRANCH  22  23
ATOM     23  C   UNL     1      57.039 144.322 -28.036  1.00  0.00     0.000 C 
BRANCH  23  24
ATOM     24  C   UNL     1      56.401 143.615 -29.251  1.00  0.00    -0.000 C 
BRANCH  24  25
ATOM     25  C   UNL     1      57.101 143.909 -30.591  1.00  0.00    -0.000 C 
BRANCH  25  26
ATOM     26  C   UNL     1      58.642 143.966 -30.547  1.00  0.00    -0.000 C 
BRANCH  26  27
ATOM     27  C   UNL     1      59.361 143.607 -31.865  1.00  0.00    -0.000 C 
BRANCH  27  28
ATOM     28  C   UNL     1      59.369 144.733 -32.924  1.00  0.00    -0.000 C 
BRANCH  28  29
ATOM     29  C   UNL     1      60.735 144.959 -33.599  1.00  0.00    -0.000 C 
BRANCH  29  30
ATOM     30  C   UNL     1      60.650 145.701 -34.949  1.00  0.00    -0.000 C 
BRANCH  30  31
ATOM     31  C   UNL     1      59.676 146.888 -34.900  1.00  0.00    -0.003 C 
ATOM     32  C   UNL     1      60.303 148.084 -34.190  1.00  0.00     0.004 C 
ENDBRANCH  30  31
ENDBRANCH  29  30
ENDBRANCH  28  29
ENDBRANCH  27  28
ENDBRANCH  26  27
ENDBRANCH  25  26
ENDBRANCH  24  25
ENDBRANCH  23  24
ENDBRANCH  22  23
ENDBRANCH  21  22
ENDBRANCH  20  21
ENDBRANCH  19  20
ENDBRANCH  18  19
ENDBRANCH   1  18
TORSDOF 28
ENDMDL
MODEL 6
REMARK VINA RESULT:    -4.836     13.056     15.632
REMARK INTER + INTRA:         -15.278
REMARK INTER:                  -9.290
REMARK INTRA:                  -5.988
REMARK UNBOUND:                -2.526
REMARK SMILES CCCCCCCCCCCCCCCCCCCCCCCCCCCCCC(=O)[O-]
REMARK SMILES IDX 16 1 17 2 18 3 19 4 20 5 21 6 22 7 23 8 24 9 25 10 26 11
REMARK SMILES IDX 27 12 28 13 29 14 30 15 31 16 32 17 15 18 14 19 13 20 12 21
REMARK SMILES IDX 11 22 10 23 9 24 8 25 7 26 6 27 5 28 4 29 3 30 2 31 1 32
REMARK H PARENT
REMARK Flexibility Score: inf
ROOT
ATOM      1  C   UNL     1      49.598 153.808 -29.574  1.00  0.00     0.000 C 
ENDROOT
BRANCH   1   2
ATOM      2  C   UNL     1      49.118 155.253 -29.789  1.00  0.00     0.000 C 
BRANCH   2   3
ATOM      3  C   UNL     1      48.835 155.992 -28.470  1.00  0.00     0.000 C 
BRANCH   3   4
ATOM      4  C   UNL     1      48.503 155.032 -27.314  1.00  0.00     0.000 C 
BRANCH   4   5
ATOM      5  C   UNL     1      47.889 155.747 -26.097  1.00  0.00     0.000 C 
BRANCH   5   6
ATOM      6  C   UNL     1      48.332 157.211 -25.892  1.00  0.00     0.000 C 
BRANCH   6   7
ATOM      7  C   UNL     1      49.695 157.397 -25.203  1.00  0.00     0.000 C 
BRANCH   7   8
ATOM      8  C   UNL     1      50.491 158.589 -25.754  1.00  0.00     0.000 C 
BRANCH   8   9
ATOM      9  C   UNL     1      51.764 158.108 -26.469  1.00  0.00     0.000 C 
BRANCH   9  10
ATOM     10  C   UNL     1      51.865 156.575 -26.528  1.00  0.00     0.000 C 
BRANCH  10  11
ATOM     11  C   UNL     1      52.969 156.031 -25.602  1.00  0.00     0.000 C 
BRANCH  11  12
ATOM     12  C   UNL     1      52.779 154.546 -25.244  1.00  0.00     0.000 C 
BRANCH  12  13
ATOM     13  C   UNL     1      51.332 154.029 -25.347  1.00  0.00     0.006 C 
BRANCH  13  14
ATOM     14  C   UNL     1      50.616 153.973 -23.991  1.00  0.00     0.053 C 
BRANCH  14  15
ATOM     15  C   UNL     1      50.666 152.587 -23.426  1.00  0.00     0.041 C 
ATOM     16  O   UNL     1      50.702 151.591 -24.197  1.00  0.00    -0.550 OA
ATOM     17  O   UNL     1      50.719 152.397 -22.050  1.00  0.00    -0.550 OA
ENDBRANCH  14  15
ENDBRANCH  13  14
ENDBRANCH  12  13
ENDBRANCH  11  12
ENDBRANCH  10  11
ENDBRANCH   9  10
ENDBRANCH   8   9
ENDBRANCH   7   8
ENDBRANCH   6   7
ENDBRANCH   5   6
ENDBRANCH   4   5
ENDBRANCH   3   4
ENDBRANCH   2   3
ENDBRANCH   1   2
BRANCH   1  18
ATOM     18  C   UNL     1      48.746 152.788 -30.344  1.00  0.00     0.000 C 
BRANCH  18  19
ATOM     19  C   UNL     1      47.296 153.251 -30.536  1.00  0.00     0.000 C 
BRANCH  19  20
ATOM     20  C   UNL     1      46.331 152.350 -29.753  1.00  0.00     0.000 C 
BRANCH  20  21
ATOM     21  C   UNL     1      45.539 153.157 -28.713  1.00  0.00     0.000 C 
BRANCH  21  22
ATOM     22  C   UNL     1      44.976 154.465 -29.298  1.00  0.00     0.000 C 
BRANCH  22  23
ATOM     23  C   UNL     1      44.979 155.613 -28.271  1.00  0.00     0.000 C 
BRANCH  23  24
ATOM     24  C   UNL     1      45.497 156.943 -28.857  1.00  0.00    -0.000 C 
BRANCH  24  25
ATOM     25  C   UNL     1      45.751 156.907 -30.376  1.00  0.00    -0.000 C 
BRANCH  25  26
ATOM     26  C   UNL     1      46.745 157.954 -30.917  1.00  0.00    -0.000 C 
BRANCH  26  27
ATOM     27  C   UNL     1      47.316 157.670 -32.323  1.00  0.00    -0.000 C 
BRANCH  27  28
ATOM     28  C   UNL     1      47.121 156.219 -32.818  1.00  0.00    -0.000 C 
BRANCH  28  29
ATOM     29  C   UNL     1      48.347 155.624 -33.537  1.00  0.00    -0.000 C 
BRANCH  29  30
ATOM     30  C   UNL     1      48.102 154.223 -34.135  1.00  0.00    -0.000 C 
BRANCH  30  31
ATOM     31  C   UNL     1      49.318 153.299 -33.969  1.00  0.00    -0.003 C 
ATOM     32  C   UNL     1      50.521 154.065 -33.428  1.00  0.00     0.004 C 
ENDBRANCH  30  31
ENDBRANCH  29  30
ENDBRANCH  28  29
ENDBRANCH  27  28
ENDBRANCH  26  27
ENDBRANCH  25  26
ENDBRANCH  24  25
ENDBRANCH  23  24
ENDBRANCH  22  23
ENDBRANCH  21  22
ENDBRANCH  20  21
ENDBRANCH  19  20
ENDBRANCH  18  19
ENDBRANCH   1  18
TORSDOF 28
ENDMDL
MODEL 7
REMARK VINA RESULT:    -4.819     12.474     14.973
REMARK INTER + INTRA:         -15.232
REMARK INTER:                 -10.286
REMARK INTRA:                  -4.945
REMARK UNBOUND:                -2.526
REMARK SMILES CCCCCCCCCCCCCCCCCCCCCCCCCCCCCC(=O)[O-]
REMARK SMILES IDX 16 1 17 2 18 3 19 4 20 5 21 6 22 7 23 8 24 9 25 10 26 11
REMARK SMILES IDX 27 12 28 13 29 14 30 15 31 16 32 17 15 18 14 19 13 20 12 21
REMARK SMILES IDX 11 22 10 23 9 24 8 25 7 26 6 27 5 28 4 29 3 30 2 31 1 32
REMARK H PARENT
REMARK Flexibility Score: inf
ROOT
ATOM      1  C   UNL     1      48.577 152.557 -30.253  1.00  0.00     0.000 C 
ENDROOT
BRANCH   1   2
ATOM      2  C   UNL     1      49.538 153.754 -30.161  1.00  0.00     0.000 C 
BRANCH   2   3
ATOM      3  C   UNL     1      49.877 154.139 -28.711  1.00  0.00     0.000 C 
BRANCH   3   4
ATOM      4  C   UNL     1      49.110 155.386 -28.236  1.00  0.00     0.000 C 
BRANCH   4   5
ATOM      5  C   UNL     1      48.308 155.142 -26.945  1.00  0.00     0.000 C 
BRANCH   5   6
ATOM      6  C   UNL     1      47.971 156.406 -26.124  1.00  0.00     0.000 C 
BRANCH   6   7
ATOM      7  C   UNL     1      48.262 157.744 -26.825  1.00  0.00     0.000 C 
BRANCH   7   8
ATOM      8  C   UNL     1      49.441 158.506 -26.202  1.00  0.00     0.000 C 
BRANCH   8   9
ATOM      9  C   UNL     1      50.267 157.581 -25.294  1.00  0.00     0.000 C 
BRANCH   9  10
ATOM     10  C   UNL     1      51.718 157.422 -25.778  1.00  0.00     0.000 C 
BRANCH  10  11
ATOM     11  C   UNL     1      51.995 156.009 -26.326  1.00  0.00     0.000 C 
BRANCH  11  12
ATOM     12  C   UNL     1      52.804 155.133 -25.354  1.00  0.00     0.000 C 
BRANCH  12  13
ATOM     13  C   UNL     1      52.152 153.786 -24.990  1.00  0.00     0.006 C 
BRANCH  13  14
ATOM     14  C   UNL     1      51.280 153.861 -23.730  1.00  0.00     0.053 C 
BRANCH  14  15
ATOM     15  C   UNL     1      50.727 152.512 -23.391  1.00  0.00     0.041 C 
ATOM     16  O   UNL     1      50.206 152.306 -22.263  1.00  0.00    -0.550 OA
ATOM     17  O   UNL     1      50.747 151.493 -24.338  1.00  0.00    -0.550 OA
ENDBRANCH  14  15
ENDBRANCH  13  14
ENDBRANCH  12  13
ENDBRANCH  11  12
ENDBRANCH  10  11
ENDBRANCH   9  10
ENDBRANCH   8   9
ENDBRANCH   7   8
ENDBRANCH   6   7
ENDBRANCH   5   6
ENDBRANCH   4   5
ENDBRANCH   3   4
ENDBRANCH   2   3
ENDBRANCH   1   2
BRANCH   1  18
ATOM     18  C   UNL     1      47.123 152.992 -30.492  1.00  0.00     0.000 C 
BRANCH  18  19
ATOM     19  C   UNL     1      46.269 152.935 -29.219  1.00  0.00     0.000 C 
BRANCH  19  20
ATOM     20  C   UNL     1      45.584 154.285 -28.964  1.00  0.00     0.000 C 
BRANCH  20  21
ATOM     21  C   UNL     1      45.615 155.169 -30.220  1.00  0.00     0.000 C 
BRANCH  21  22
ATOM     22  C   UNL     1      45.897 156.645 -29.885  1.00  0.00     0.000 C 
BRANCH  22  23
ATOM     23  C   UNL     1      46.995 157.247 -30.780  1.00  0.00     0.000 C 
BRANCH  23  24
ATOM     24  C   UNL     1      47.652 156.205 -31.710  1.00  0.00    -0.000 C 
BRANCH  24  25
ATOM     25  C   UNL     1      47.975 156.733 -33.121  1.00  0.00    -0.000 C 
BRANCH  25  26
ATOM     26  C   UNL     1      48.103 155.665 -34.226  1.00  0.00    -0.000 C 
BRANCH  26  27
ATOM     27  C   UNL     1      48.311 154.217 -33.733  1.00  0.00    -0.000 C 
BRANCH  27  28
ATOM     28  C   UNL     1      49.735 153.657 -33.953  1.00  0.00    -0.000 C 
BRANCH  28  29
ATOM     29  C   UNL     1      50.855 154.709 -33.833  1.00  0.00    -0.000 C 
BRANCH  29  30
ATOM     30  C   UNL     1      52.027 154.274 -32.929  1.00  0.00    -0.000 C 
BRANCH  30  31
ATOM     31  C   UNL     1      53.371 154.285 -33.674  1.00  0.00    -0.003 C 
ATOM     32  C   UNL     1      54.484 153.704 -32.808  1.00  0.00     0.004 C 
ENDBRANCH  30  31
ENDBRANCH  29  30
ENDBRANCH  28  29
ENDBRANCH  27  28
ENDBRANCH  26  27
ENDBRANCH  25  26
ENDBRANCH  24  25
ENDBRANCH  23  24
ENDBRANCH  22  23
ENDBRANCH  21  22
ENDBRANCH  20  21
ENDBRANCH  19  20
ENDBRANCH  18  19
ENDBRANCH   1  18
TORSDOF 28
ENDMDL
MODEL 8
REMARK VINA RESULT:    -4.681      2.072      3.441
REMARK INTER + INTRA:         -14.870
REMARK INTER:                 -11.922
REMARK INTRA:                  -2.947
REMARK UNBOUND:                -2.526
REMARK SMILES CCCCCCCCCCCCCCCCCCCCCCCCCCCCCC(=O)[O-]
REMARK SMILES IDX 16 1 17 2 18 3 19 4 20 5 21 6 22 7 23 8 24 9 25 10 26 11
REMARK SMILES IDX 27 12 28 13 29 14 30 15 31 16 32 17 15 18 14 19 13 20 12 21
REMARK SMILES IDX 11 22 10 23 9 24 8 25 7 26 6 27 5 28 4 29 3 30 2 31 1 32
REMARK H PARENT
REMARK Flexibility Score: inf
ROOT
ATOM      1  C   UNL     1      54.299 140.574 -24.452  1.00  0.00     0.000 C 
ENDROOT
BRANCH   1   2
ATOM      2  C   UNL     1      54.981 139.509 -23.577  1.00  0.00     0.000 C 
BRANCH   2   3
ATOM      3  C   UNL     1      56.515 139.533 -23.690  1.00  0.00     0.000 C 
BRANCH   3   4
ATOM      4  C   UNL     1      57.206 139.628 -22.319  1.00  0.00     0.000 C 
BRANCH   4   5
ATOM      5  C   UNL     1      58.236 140.770 -22.244  1.00  0.00     0.000 C 
BRANCH   5   6
ATOM      6  C   UNL     1      57.651 142.179 -22.006  1.00  0.00     0.000 C 
BRANCH   6   7
ATOM      7  C   UNL     1      58.624 143.346 -22.250  1.00  0.00     0.000 C 
BRANCH   7   8
ATOM      8  C   UNL     1      60.017 142.883 -22.703  1.00  0.00     0.000 C 
BRANCH   8   9
ATOM      9  C   UNL     1      61.081 143.932 -22.343  1.00  0.00     0.000 C 
BRANCH   9  10
ATOM     10  C   UNL     1      61.310 144.044 -20.826  1.00  0.00     0.000 C 
BRANCH  10  11
ATOM     11  C   UNL     1      60.860 145.409 -20.271  1.00  0.00     0.000 C 
BRANCH  11  12
ATOM     12  C   UNL     1      59.805 145.289 -19.157  1.00  0.00     0.000 C 
BRANCH  12  13
ATOM     13  C   UNL     1      59.876 143.996 -18.324  1.00  0.00     0.006 C 
BRANCH  13  14
ATOM     14  C   UNL     1      58.598 143.151 -18.416  1.00  0.00     0.053 C 
BRANCH  14  15
ATOM     15  C   UNL     1      58.935 141.714 -18.668  1.00  0.00     0.041 C 
ATOM     16  O   UNL     1      58.023 140.846 -18.698  1.00  0.00    -0.550 OA
ATOM     17  O   UNL     1      60.251 141.340 -18.915  1.00  0.00    -0.550 OA
ENDBRANCH  14  15
ENDBRANCH  13  14
ENDBRANCH  12  13
ENDBRANCH  11  12
ENDBRANCH  10  11
ENDBRANCH   9  10
ENDBRANCH   8   9
ENDBRANCH   7   8
ENDBRANCH   6   7
ENDBRANCH   5   6
ENDBRANCH   4   5
ENDBRANCH   3   4
ENDBRANCH   2   3
ENDBRANCH   1   2
BRANCH   1  18
ATOM     18  C   UNL     1      55.290 141.632 -24.962  1.00  0.00     0.000 C 
BRANCH  18  19
ATOM     19  C   UNL     1      55.024 143.025 -24.375  1.00  0.00     0.000 C 
BRANCH  19  20
ATOM     20  C   UNL     1      55.366 144.118 -25.397  1.00  0.00     0.000 C 
BRANCH  20  21
ATOM     21  C   UNL     1      56.670 143.795 -26.141  1.00  0.00     0.000 C 
BRANCH  21  22
ATOM     22  C   UNL     1      56.752 144.505 -27.505  1.00  0.00     0.000 C 
BRANCH  22  23
ATOM     23  C   UNL     1      55.891 143.812 -28.578  1.00  0.00     0.000 C 
BRANCH  23  24
ATOM     24  C   UNL     1      56.597 143.716 -29.947  1.00  0.00    -0.000 C 
BRANCH  24  25
ATOM     25  C   UNL     1      58.079 144.137 -29.924  1.00  0.00    -0.000 C 
BRANCH  25  26
ATOM     26  C   UNL     1      58.950 143.595 -31.075  1.00  0.00    -0.000 C 
BRANCH  26  27
ATOM     27  C   UNL     1      58.891 144.399 -32.392  1.00  0.00    -0.000 C 
BRANCH  27  28
ATOM     28  C   UNL     1      60.236 144.499 -33.148  1.00  0.00    -0.000 C 
BRANCH  28  29
ATOM     29  C   UNL     1      60.107 144.944 -34.617  1.00  0.00    -0.000 C 
BRANCH  29  30
ATOM     30  C   UNL     1      60.280 146.462 -34.829  1.00  0.00    -0.000 C 
BRANCH  30  31
ATOM     31  C   UNL     1      59.313 147.284 -33.964  1.00  0.00    -0.003 C 
ATOM     32  C   UNL     1      60.068 148.092 -32.913  1.00  0.00     0.004 C 
ENDBRANCH  30  31
ENDBRANCH  29  30
ENDBRANCH  28  29
ENDBRANCH  27  28
ENDBRANCH  26  27
ENDBRANCH  25  26
ENDBRANCH  24  25
ENDBRANCH  23  24
ENDBRANCH  22  23
ENDBRANCH  21  22
ENDBRANCH  20  21
ENDBRANCH  19  20
ENDBRANCH  18  19
ENDBRANCH   1  18
TORSDOF 28
ENDMDL
MODEL 9
REMARK VINA RESULT:    -4.531      6.411      9.755
REMARK INTER + INTRA:         -14.472
REMARK INTER:                  -8.222
REMARK INTRA:                  -6.250
REMARK UNBOUND:                -2.526
REMARK SMILES CCCCCCCCCCCCCCCCCCCCCCCCCCCCCC(=O)[O-]
REMARK SMILES IDX 16 1 17 2 18 3 19 4 20 5 21 6 22 7 23 8 24 9 25 10 26 11
REMARK SMILES IDX 27 12 28 13 29 14 30 15 31 16 32 17 15 18 14 19 13 20 12 21
REMARK SMILES IDX 11 22 10 23 9 24 8 25 7 26 6 27 5 28 4 29 3 30 2 31 1 32
REMARK H PARENT
REMARK Flexibility Score: inf
ROOT
ATOM      1  C   UNL     1      58.819 143.851 -19.195  1.00  0.00     0.000 C 
ENDROOT
BRANCH   1   2
ATOM      2  C   UNL     1      60.211 143.807 -19.848  1.00  0.00     0.000 C 
BRANCH   2   3
ATOM      3  C   UNL     1      60.218 144.369 -21.280  1.00  0.00     0.000 C 
BRANCH   3   4
ATOM      4  C   UNL     1      61.634 144.445 -21.878  1.00  0.00     0.000 C 
BRANCH   4   5
ATOM      5  C   UNL     1      62.690 143.732 -21.013  1.00  0.00     0.000 C 
BRANCH   5   6
ATOM      6  C   UNL     1      63.892 144.600 -20.582  1.00  0.00     0.000 C 
BRANCH   6   7
ATOM      7  C   UNL     1      64.125 144.695 -19.064  1.00  0.00     0.000 C 
BRANCH   7   8
ATOM      8  C   UNL     1      63.435 143.570 -18.278  1.00  0.00     0.000 C 
BRANCH   8   9
ATOM      9  C   UNL     1      62.598 144.147 -17.126  1.00  0.00     0.000 C 
BRANCH   9  10
ATOM     10  C   UNL     1      62.584 145.685 -17.118  1.00  0.00     0.000 C 
BRANCH  10  11
ATOM     11  C   UNL     1      61.157 146.252 -16.986  1.00  0.00     0.000 C 
BRANCH  11  12
ATOM     12  C   UNL     1      60.867 147.392 -17.977  1.00  0.00     0.000 C 
BRANCH  12  13
ATOM     13  C   UNL     1      61.389 147.164 -19.408  1.00  0.00     0.006 C 
BRANCH  13  14
ATOM     14  C   UNL     1      62.478 148.165 -19.817  1.00  0.00     0.053 C 
BRANCH  14  15
ATOM     15  C   UNL     1      62.292 148.592 -21.240  1.00  0.00     0.041 C 
ATOM     16  O   UNL     1      61.480 147.981 -21.983  1.00  0.00    -0.550 OA
ATOM     17  O   UNL     1      62.983 149.694 -21.732  1.00  0.00    -0.550 OA
ENDBRANCH  14  15
ENDBRANCH  13  14
ENDBRANCH  12  13
ENDBRANCH  11  12
ENDBRANCH  10  11
ENDBRANCH   9  10
ENDBRANCH   8   9
ENDBRANCH   7   8
ENDBRANCH   6   7
ENDBRANCH   5   6
ENDBRANCH   4   5
ENDBRANCH   3   4
ENDBRANCH   2   3
ENDBRANCH   1   2
BRANCH   1  18
ATOM     18  C   UNL     1      58.882 143.662 -17.672  1.00  0.00     0.000 C 
BRANCH  18  19
ATOM     19  C   UNL     1      57.761 142.761 -17.138  1.00  0.00     0.000 C 
BRANCH  19  20
ATOM     20  C   UNL     1      58.343 141.564 -16.374  1.00  0.00     0.000 C 
BRANCH  20  21
ATOM     21  C   UNL     1      59.761 141.867 -15.865  1.00  0.00     0.000 C 
BRANCH  21  22
ATOM     22  C   UNL     1      60.743 140.720 -16.166  1.00  0.00     0.000 C 
BRANCH  22  23
ATOM     23  C   UNL     1      60.879 140.447 -17.675  1.00  0.00     0.000 C 
BRANCH  23  24
ATOM     24  C   UNL     1      60.381 139.043 -18.080  1.00  0.00    -0.000 C 
BRANCH  24  25
ATOM     25  C   UNL     1      59.193 139.054 -19.061  1.00  0.00    -0.000 C 
BRANCH  25  26
ATOM     26  C   UNL     1      59.047 140.321 -19.927  1.00  0.00    -0.000 C 
BRANCH  26  27
ATOM     27  C   UNL     1      59.796 140.296 -21.277  1.00  0.00    -0.000 C 
BRANCH  27  28
ATOM     28  C   UNL     1      59.096 141.070 -22.418  1.00  0.00    -0.000 C 
BRANCH  28  29
ATOM     29  C   UNL     1      57.737 141.682 -22.029  1.00  0.00    -0.000 C 
BRANCH  29  30
ATOM     30  C   UNL     1      57.293 142.847 -22.937  1.00  0.00    -0.000 C 
BRANCH  30  31
ATOM     31  C   UNL     1      56.133 142.452 -23.864  1.00  0.00    -0.003 C 
ATOM     32  C   UNL     1      55.601 141.064 -23.518  1.00  0.00     0.004 C 
ENDBRANCH  30  31
ENDBRANCH  29  30
ENDBRANCH  28  29
ENDBRANCH  27  28
ENDBRANCH  26  27
ENDBRANCH  25  26
ENDBRANCH  24  25
ENDBRANCH  23  24
ENDBRANCH  22  23
ENDBRANCH  21  22
ENDBRANCH  20  21
ENDBRANCH  19  20
ENDBRANCH  18  19
ENDBRANCH   1  18
TORSDOF 28
ENDMDL
