MODEL 1
REMARK VINA RESULT:    -4.073      0.000      0.000
REMARK INTER + INTRA:          -7.347
REMARK INTER:                  -6.217
REMARK INTRA:                  -1.131
REMARK UNBOUND:                -1.131
REMARK SMILES CCCCCCCCCCC(=O)[O-]
REMARK SMILES IDX 7 1 8 2 9 3 10 4 11 5 12 6 13 7 6 8 5 9 4 10 3 11 2 12 1 13
REMARK H PARENT
REMARK Flexibility Score: inf
ROOT
ATOM      1  C   UNL     1      17.806 -35.074   0.465  1.00  0.00     0.000 C 
ENDROOT
BRANCH   1   2
ATOM      2  C   UNL     1      16.562 -35.645   1.163  1.00  0.00     0.000 C 
BRANCH   2   3
ATOM      3  C   UNL     1      16.891 -36.825   2.097  1.00  0.00     0.006 C 
BRANCH   3   4
ATOM      4  C   UNL     1      17.167 -38.150   1.368  1.00  0.00     0.053 C 
BRANCH   4   5
ATOM      5  C   UNL     1      18.597 -38.576   1.501  1.00  0.00     0.041 C 
ATOM      6  O   UNL     1      18.947 -39.337   2.442  1.00  0.00    -0.550 OA
ATOM      7  O   UNL     1      19.548 -38.105   0.606  1.00  0.00    -0.550 OA
ENDBRANCH   4   5
ENDBRANCH   3   4
ENDBRANCH   2   3
ENDBRANCH   1   2
BRANCH   1   8
ATOM      8  C   UNL     1      17.410 -34.246  -0.766  1.00  0.00     0.000 C 
BRANCH   8   9
ATOM      9  C   UNL     1      16.945 -35.118  -1.945  1.00  0.00    -0.000 C 
BRANCH   9  10
ATOM     10  C   UNL     1      17.916 -36.247  -2.339  1.00  0.00    -0.000 C 
BRANCH  10  11
ATOM     11  C   UNL     1      17.295 -37.658  -2.259  1.00  0.00    -0.000 C 
BRANCH  11  12
ATOM     12  C   UNL     1      15.772 -37.615  -2.066  1.00  0.00    -0.003 C 
ATOM     13  C   UNL     1      15.090 -38.760  -2.810  1.00  0.00     0.004 C 
ENDBRANCH  11  12
ENDBRANCH  10  11
ENDBRANCH   9  10
ENDBRANCH   8   9
ENDBRANCH   1   8
TORSDOF 9
ENDMDL
MODEL 2
REMARK VINA RESULT:    -3.978      1.208      3.010
REMARK INTER + INTRA:          -7.202
REMARK INTER:                  -6.337
REMARK INTRA:                  -0.865
REMARK UNBOUND:                -1.131
REMARK SMILES CCCCCCCCCCC(=O)[O-]
REMARK SMILES IDX 7 1 8 2 9 3 10 4 11 5 12 6 13 7 6 8 5 9 4 10 3 11 2 12 1 13
REMARK H PARENT
REMARK Flexibility Score: inf
ROOT
ATOM      1  C   UNL     1      15.646 -37.547  -2.070  1.00  0.00     0.000 C 
ENDROOT
BRANCH   1   2
ATOM      2  C   UNL     1      15.280 -38.250  -0.753  1.00  0.00     0.000 C 
BRANCH   2   3
ATOM      3  C   UNL     1      16.470 -38.997  -0.124  1.00  0.00     0.006 C 
BRANCH   3   4
ATOM      4  C   UNL     1      17.032 -38.336   1.144  1.00  0.00     0.053 C 
BRANCH   4   5
ATOM      5  C   UNL     1      18.481 -38.657   1.350  1.00  0.00     0.041 C 
ATOM      6  O   UNL     1      18.827 -39.495   2.225  1.00  0.00    -0.550 OA
ATOM      7  O   UNL     1      19.450 -38.007   0.598  1.00  0.00    -0.550 OA
ENDBRANCH   4   5
ENDBRANCH   3   4
ENDBRANCH   2   3
ENDBRANCH   1   2
BRANCH   1   8
ATOM      8  C   UNL     1      17.151 -37.667  -2.353  1.00  0.00     0.000 C 
BRANCH   8   9
ATOM      9  C   UNL     1      17.867 -36.306  -2.351  1.00  0.00    -0.000 C 
BRANCH   9  10
ATOM     10  C   UNL     1      17.235 -35.243  -1.432  1.00  0.00    -0.000 C 
BRANCH  10  11
ATOM     11  C   UNL     1      17.332 -33.805  -1.987  1.00  0.00    -0.000 C 
BRANCH  11  12
ATOM     12  C   UNL     1      16.001 -33.046  -1.876  1.00  0.00    -0.003 C 
ATOM     13  C   UNL     1      14.817 -33.964  -2.165  1.00  0.00     0.004 C 
ENDBRANCH  11  12
ENDBRANCH  10  11
ENDBRANCH   9  10
ENDBRANCH   8   9
ENDBRANCH   1   8
TORSDOF 9
ENDMDL
MODEL 3
REMARK VINA RESULT:    -3.962      1.955      2.841
REMARK INTER + INTRA:          -7.178
REMARK INTER:                  -6.330
REMARK INTRA:                  -0.848
REMARK UNBOUND:                -1.131
REMARK SMILES CCCCCCCCCCC(=O)[O-]
REMARK SMILES IDX 7 1 8 2 9 3 10 4 11 5 12 6 13 7 6 8 5 9 4 10 3 11 2 12 1 13
REMARK H PARENT
REMARK Flexibility Score: inf
ROOT
ATOM      1  C   UNL     1      17.351 -34.777  -1.352  1.00  0.00     0.000 C 
ENDROOT
BRANCH   1   2
ATOM      2  C   UNL     1      17.651 -35.948  -2.301  1.00  0.00     0.000 C 
BRANCH   2   3
ATOM      3  C   UNL     1      17.621 -37.315  -1.591  1.00  0.00     0.006 C 
BRANCH   3   4
ATOM      4  C   UNL     1      17.773 -37.237  -0.064  1.00  0.00     0.053 C 
BRANCH   4   5
ATOM      5  C   UNL     1      18.776 -38.222   0.451  1.00  0.00     0.041 C 
ATOM      6  O   UNL     1      19.863 -37.821   0.946  1.00  0.00    -0.550 OA
ATOM      7  O   UNL     1      18.526 -39.585   0.354  1.00  0.00    -0.550 OA
ENDBRANCH   4   5
ENDBRANCH   3   4
ENDBRANCH   2   3
ENDBRANCH   1   2
BRANCH   1   8
ATOM      8  C   UNL     1      16.817 -33.566  -2.131  1.00  0.00     0.000 C 
BRANCH   8   9
ATOM      9  C   UNL     1      15.418 -33.129  -1.666  1.00  0.00    -0.000 C 
BRANCH   9  10
ATOM     10  C   UNL     1      14.248 -33.817  -2.395  1.00  0.00    -0.000 C 
BRANCH  10  11
ATOM     11  C   UNL     1      13.673 -35.034  -1.639  1.00  0.00    -0.000 C 
BRANCH  11  12
ATOM     12  C   UNL     1      13.244 -36.162  -2.589  1.00  0.00    -0.003 C 
ATOM     13  C   UNL     1      14.126 -37.395  -2.413  1.00  0.00     0.004 C 
ENDBRANCH  11  12
ENDBRANCH  10  11
ENDBRANCH   9  10
ENDBRANCH   8   9
ENDBRANCH   1   8
TORSDOF 9
ENDMDL
MODEL 4
REMARK VINA RESULT:    -3.949      1.844      2.859
REMARK INTER + INTRA:          -7.158
REMARK INTER:                  -6.121
REMARK INTRA:                  -1.037
REMARK UNBOUND:                -1.131
REMARK SMILES CCCCCCCCCCC(=O)[O-]
REMARK SMILES IDX 7 1 8 2 9 3 10 4 11 5 12 6 13 7 6 8 5 9 4 10 3 11 2 12 1 13
REMARK H PARENT
REMARK Flexibility Score: inf
ROOT
ATOM      1  C   UNL     1      17.686 -36.276  -2.265  1.00  0.00     0.000 C 
ENDROOT
BRANCH   1   2
ATOM      2  C   UNL     1      16.601 -37.361  -2.198  1.00  0.00     0.000 C 
BRANCH   2   3
ATOM      3  C   UNL     1      16.270 -37.786  -0.755  1.00  0.00     0.006 C 
BRANCH   3   4
ATOM      4  C   UNL     1      17.222 -38.842  -0.173  1.00  0.00     0.053 C 
BRANCH   4   5
ATOM      5  C   UNL     1      18.118 -38.269   0.882  1.00  0.00     0.041 C 
ATOM      6  O   UNL     1      17.645 -37.931   2.000  1.00  0.00    -0.550 OA
ATOM      7  O   UNL     1      19.468 -38.077   0.620  1.00  0.00    -0.550 OA
ENDBRANCH   4   5
ENDBRANCH   3   4
ENDBRANCH   2   3
ENDBRANCH   1   2
BRANCH   1   8
ATOM      8  C   UNL     1      17.393 -35.146  -1.268  1.00  0.00     0.000 C 
BRANCH   8   9
ATOM      9  C   UNL     1      17.440 -33.752  -1.916  1.00  0.00    -0.000 C 
BRANCH   9  10
ATOM     10  C   UNL     1      16.063 -33.115  -2.185  1.00  0.00    -0.000 C 
BRANCH  10  11
ATOM     11  C   UNL     1      14.895 -33.837  -1.480  1.00  0.00    -0.000 C 
BRANCH  11  12
ATOM     12  C   UNL     1      13.752 -34.180  -2.446  1.00  0.00    -0.003 C 
ATOM     13  C   UNL     1      13.371 -35.655  -2.346  1.00  0.00     0.004 C 
ENDBRANCH  11  12
ENDBRANCH  10  11
ENDBRANCH   9  10
ENDBRANCH   8   9
ENDBRANCH   1   8
TORSDOF 9
ENDMDL
MODEL 5
REMARK VINA RESULT:    -3.884      3.508      5.447
REMARK INTER + INTRA:          -7.059
REMARK INTER:                  -6.046
REMARK INTRA:                  -1.013
REMARK UNBOUND:                -1.131
REMARK SMILES CCCCCCCCCCC(=O)[O-]
REMARK SMILES IDX 7 1 8 2 9 3 10 4 11 5 12 6 13 7 6 8 5 9 4 10 3 11 2 12 1 13
REMARK H PARENT
REMARK Flexibility Score: inf
ROOT
ATOM      1  C   UNL     1      16.210 -36.349  -2.133  1.00  0.00     0.000 C 
ENDROOT
BRANCH   1   2
ATOM      2  C   UNL     1      17.325 -35.295  -2.065  1.00  0.00     0.000 C 
BRANCH   2   3
ATOM      3  C   UNL     1      16.894 -34.016  -1.323  1.00  0.00     0.006 C 
BRANCH   3   4
ATOM      4  C   UNL     1      16.147 -32.999  -2.200  1.00  0.00     0.053 C 
BRANCH   4   5
ATOM      5  C   UNL     1      14.680 -32.970  -1.898  1.00  0.00     0.041 C 
ATOM      6  O   UNL     1      13.887 -33.716  -2.532  1.00  0.00    -0.550 OA
ATOM      7  O   UNL     1      14.184 -32.095  -0.941  1.00  0.00    -0.550 OA
ENDBRANCH   4   5
ENDBRANCH   3   4
ENDBRANCH   2   3
ENDBRANCH   1   2
BRANCH   1   8
ATOM      8  C   UNL     1      16.793 -37.768  -2.053  1.00  0.00     0.000 C 
BRANCH   8   9
ATOM      9  C   UNL     1      18.282 -37.779  -1.669  1.00  0.00    -0.000 C 
BRANCH   9  10
ATOM     10  C   UNL     1      18.577 -38.252  -0.232  1.00  0.00    -0.000 C 
BRANCH  10  11
ATOM     11  C   UNL     1      18.563 -37.115   0.812  1.00  0.00    -0.000 C 
BRANCH  11  12
ATOM     12  C   UNL     1      17.179 -36.928   1.452  1.00  0.00    -0.003 C 
ATOM     13  C   UNL     1      17.030 -35.528   2.041  1.00  0.00     0.004 C 
ENDBRANCH  11  12
ENDBRANCH  10  11
ENDBRANCH   9  10
ENDBRANCH   8   9
ENDBRANCH   1   8
TORSDOF 9
ENDMDL
MODEL 6
REMARK VINA RESULT:    -3.866      0.729      1.537
REMARK INTER + INTRA:          -7.031
REMARK INTER:                  -5.821
REMARK INTRA:                  -1.210
REMARK UNBOUND:                -1.131
REMARK SMILES CCCCCCCCCCC(=O)[O-]
REMARK SMILES IDX 7 1 8 2 9 3 10 4 11 5 12 6 13 7 6 8 5 9 4 10 3 11 2 12 1 13
REMARK H PARENT
REMARK Flexibility Score: inf
ROOT
ATOM      1  C   UNL     1      17.091 -35.258   1.781  1.00  0.00     0.000 C 
ENDROOT
BRANCH   1   2
ATOM      2  C   UNL     1      16.719 -36.622   2.380  1.00  0.00     0.000 C 
BRANCH   2   3
ATOM      3  C   UNL     1      16.316 -37.655   1.310  1.00  0.00     0.006 C 
BRANCH   3   4
ATOM      4  C   UNL     1      16.915 -39.053   1.524  1.00  0.00     0.053 C 
BRANCH   4   5
ATOM      5  C   UNL     1      18.413 -39.029   1.518  1.00  0.00     0.041 C 
ATOM      6  O   UNL     1      19.038 -38.723   0.468  1.00  0.00    -0.550 OA
ATOM      7  O   UNL     1      19.118 -39.375   2.663  1.00  0.00    -0.550 OA
ENDBRANCH   4   5
ENDBRANCH   3   4
ENDBRANCH   2   3
ENDBRANCH   1   2
BRANCH   1   8
ATOM      8  C   UNL     1      17.900 -35.431   0.487  1.00  0.00     0.000 C 
BRANCH   8   9
ATOM      9  C   UNL     1      17.428 -34.497  -0.641  1.00  0.00    -0.000 C 
BRANCH   9  10
ATOM     10  C   UNL     1      17.162 -35.193  -1.989  1.00  0.00    -0.000 C 
BRANCH  10  11
ATOM     11  C   UNL     1      17.819 -36.585  -2.112  1.00  0.00    -0.000 C 
BRANCH  11  12
ATOM     12  C   UNL     1      16.789 -37.697  -2.360  1.00  0.00    -0.003 C 
ATOM     13  C   UNL     1      15.366 -37.188  -2.147  1.00  0.00     0.004 C 
ENDBRANCH  11  12
ENDBRANCH  10  11
ENDBRANCH   9  10
ENDBRANCH   8   9
ENDBRANCH   1   8
TORSDOF 9
ENDMDL
MODEL 7
REMARK VINA RESULT:    -3.765      1.687      3.695
REMARK INTER + INTRA:          -6.876
REMARK INTER:                  -5.591
REMARK INTRA:                  -1.285
REMARK UNBOUND:                -1.131
REMARK SMILES CCCCCCCCCCC(=O)[O-]
REMARK SMILES IDX 7 1 8 2 9 3 10 4 11 5 12 6 13 7 6 8 5 9 4 10 3 11 2 12 1 13
REMARK H PARENT
REMARK Flexibility Score: inf
ROOT
ATOM      1  C   UNL     1      15.636 -38.246  -1.753  1.00  0.00     0.000 C 
ENDROOT
BRANCH   1   2
ATOM      2  C   UNL     1      16.722 -37.525  -2.566  1.00  0.00     0.000 C 
BRANCH   2   3
ATOM      3  C   UNL     1      18.083 -37.490  -1.846  1.00  0.00     0.006 C 
BRANCH   3   4
ATOM      4  C   UNL     1      17.989 -37.264  -0.329  1.00  0.00     0.053 C 
BRANCH   4   5
ATOM      5  C   UNL     1      18.864 -38.211   0.434  1.00  0.00     0.041 C 
ATOM      6  O   UNL     1      19.847 -37.776   1.091  1.00  0.00    -0.550 OA
ATOM      7  O   UNL     1      18.614 -39.576   0.394  1.00  0.00    -0.550 OA
ENDBRANCH   4   5
ENDBRANCH   3   4
ENDBRANCH   2   3
ENDBRANCH   1   2
BRANCH   1   8
ATOM      8  C   UNL     1      14.274 -37.556  -1.929  1.00  0.00     0.000 C 
BRANCH   8   9
ATOM      9  C   UNL     1      14.389 -36.025  -2.017  1.00  0.00    -0.000 C 
BRANCH   9  10
ATOM     10  C   UNL     1      14.412 -35.298  -0.659  1.00  0.00    -0.000 C 
BRANCH  10  11
ATOM     11  C   UNL     1      15.443 -34.151  -0.584  1.00  0.00    -0.000 C 
BRANCH  11  12
ATOM     12  C   UNL     1      16.032 -33.805  -1.960  1.00  0.00    -0.003 C 
ATOM     13  C   UNL     1      17.554 -33.902  -1.948  1.00  0.00     0.004 C 
ENDBRANCH  11  12
ENDBRANCH  10  11
ENDBRANCH   9  10
ENDBRANCH   8   9
ENDBRANCH   1   8
TORSDOF 9
ENDMDL
MODEL 8
REMARK VINA RESULT:    -3.706      3.632      4.939
REMARK INTER + INTRA:          -6.787
REMARK INTER:                  -5.922
REMARK INTRA:                  -0.865
REMARK UNBOUND:                -1.131
REMARK SMILES CCCCCCCCCCC(=O)[O-]
REMARK SMILES IDX 7 1 8 2 9 3 10 4 11 5 12 6 13 7 6 8 5 9 4 10 3 11 2 12 1 13
REMARK H PARENT
REMARK Flexibility Score: inf
ROOT
ATOM      1  C   UNL     1      17.768 -34.466   0.097  1.00  0.00     0.000 C 
ENDROOT
BRANCH   1   2
ATOM      2  C   UNL     1      17.673 -34.075  -1.386  1.00  0.00     0.000 C 
BRANCH   2   3
ATOM      3  C   UNL     1      16.228 -34.100  -1.919  1.00  0.00     0.006 C 
BRANCH   3   4
ATOM      4  C   UNL     1      15.591 -32.712  -2.085  1.00  0.00     0.053 C 
BRANCH   4   5
ATOM      5  C   UNL     1      14.365 -32.551  -1.239  1.00  0.00     0.041 C 
ATOM      6  O   UNL     1      14.189 -33.288  -0.233  1.00  0.00    -0.550 OA
ATOM      7  O   UNL     1      13.402 -31.612  -1.581  1.00  0.00    -0.550 OA
ENDBRANCH   4   5
ENDBRANCH   3   4
ENDBRANCH   2   3
ENDBRANCH   1   2
BRANCH   1   8
ATOM      8  C   UNL     1      17.194 -35.872   0.329  1.00  0.00     0.000 C 
BRANCH   8   9
ATOM      9  C   UNL     1      18.287 -36.940   0.503  1.00  0.00    -0.000 C 
BRANCH   9  10
ATOM     10  C   UNL     1      18.287 -38.046  -0.570  1.00  0.00    -0.000 C 
BRANCH  10  11
ATOM     11  C   UNL     1      17.968 -37.536  -1.991  1.00  0.00    -0.000 C 
BRANCH  11  12
ATOM     12  C   UNL     1      16.591 -38.004  -2.483  1.00  0.00    -0.003 C 
ATOM     13  C   UNL     1      15.928 -38.931  -1.468  1.00  0.00     0.004 C 
ENDBRANCH  11  12
ENDBRANCH  10  11
ENDBRANCH   9  10
ENDBRANCH   8   9
ENDBRANCH   1   8
TORSDOF 9
ENDMDL
MODEL 9
REMARK VINA RESULT:    -3.612      2.606      4.503
REMARK INTER + INTRA:          -6.644
REMARK INTER:                  -5.444
REMARK INTRA:                  -1.199
REMARK UNBOUND:                -1.131
REMARK SMILES CCCCCCCCCCC(=O)[O-]
REMARK SMILES IDX 7 1 8 2 9 3 10 4 11 5 12 6 13 7 6 8 5 9 4 10 3 11 2 12 1 13
REMARK H PARENT
REMARK Flexibility Score: inf
ROOT
ATOM      1  C   UNL     1      16.773 -35.366  -2.061  1.00  0.00     0.000 C 
ENDROOT
BRANCH   1   2
ATOM      2  C   UNL     1      17.794 -36.448  -2.443  1.00  0.00     0.000 C 
BRANCH   2   3
ATOM      3  C   UNL     1      17.209 -37.872  -2.373  1.00  0.00     0.006 C 
BRANCH   3   4
ATOM      4  C   UNL     1      15.699 -37.921  -2.091  1.00  0.00     0.053 C 
BRANCH   4   5
ATOM      5  C   UNL     1      15.007 -38.957  -2.922  1.00  0.00     0.041 C 
ATOM      6  O   UNL     1      15.679 -39.770  -3.612  1.00  0.00    -0.550 OA
ATOM      7  O   UNL     1      13.620 -39.004  -2.963  1.00  0.00    -0.550 OA
ENDBRANCH   4   5
ENDBRANCH   3   4
ENDBRANCH   2   3
ENDBRANCH   1   2
BRANCH   1   8
ATOM      8  C   UNL     1      17.454 -34.214  -1.305  1.00  0.00     0.000 C 
BRANCH   8   9
ATOM      9  C   UNL     1      17.735 -34.553   0.168  1.00  0.00    -0.000 C 
BRANCH   9  10
ATOM     10  C   UNL     1      16.627 -35.361   0.870  1.00  0.00    -0.000 C 
BRANCH  10  11
ATOM     11  C   UNL     1      17.150 -36.583   1.656  1.00  0.00    -0.000 C 
BRANCH  11  12
ATOM     12  C   UNL     1      18.399 -37.200   1.011  1.00  0.00    -0.003 C 
ATOM     13  C   UNL     1      18.334 -38.724   1.030  1.00  0.00     0.004 C 
ENDBRANCH  11  12
ENDBRANCH  10  11
ENDBRANCH   9  10
ENDBRANCH   8   9
ENDBRANCH   1   8
TORSDOF 9
ENDMDL
