MODEL 1
REMARK VINA RESULT:    -3.522      0.000      0.000
REMARK INTER + INTRA:         -15.582
REMARK INTER:                  -9.288
REMARK INTRA:                  -6.295
REMARK UNBOUND:                -6.295
REMARK SMILES CCCCCCCCCCCCCCCCCCCCCCCCCCCCCC(=O)[O-]
REMARK SMILES IDX 16 1 17 2 18 3 19 4 20 5 21 6 22 7 23 8 24 9 25 10 26 11
REMARK SMILES IDX 27 12 28 13 29 14 30 15 31 16 32 17 15 18 14 19 13 20 12 21
REMARK SMILES IDX 11 22 10 23 9 24 8 25 7 26 6 27 5 28 4 29 3 30 2 31 1 32
REMARK H PARENT
REMARK Flexibility Score: inf
ROOT
ATOM      1  C   UNL     1       3.250   4.118   3.383  1.00  0.00     0.000 C 
ENDROOT
BRANCH   1   2
ATOM      2  C   UNL     1       2.065   4.661   4.197  1.00  0.00     0.000 C 
BRANCH   2   3
ATOM      3  C   UNL     1       0.745   3.947   3.850  1.00  0.00     0.000 C 
BRANCH   3   4
ATOM      4  C   UNL     1      -0.217   4.840   3.053  1.00  0.00     0.000 C 
BRANCH   4   5
ATOM      5  C   UNL     1       0.258   6.300   2.963  1.00  0.00     0.000 C 
BRANCH   5   6
ATOM      6  C   UNL     1      -0.898   7.309   3.092  1.00  0.00     0.000 C 
BRANCH   6   7
ATOM      7  C   UNL     1      -0.466   8.782   3.263  1.00  0.00     0.000 C 
BRANCH   7   8
ATOM      8  C   UNL     1       0.888   9.004   3.969  1.00  0.00     0.000 C 
BRANCH   8   9
ATOM      9  C   UNL     1       0.804   9.714   5.338  1.00  0.00     0.000 C 
BRANCH   9  10
ATOM     10  C   UNL     1      -0.632   9.877   5.873  1.00  0.00     0.000 C 
BRANCH  10  11
ATOM     11  C   UNL     1      -1.024   8.920   7.015  1.00  0.00     0.000 C 
BRANCH  11  12
ATOM     12  C   UNL     1      -2.036   7.824   6.635  1.00  0.00     0.000 C 
BRANCH  12  13
ATOM     13  C   UNL     1      -1.477   6.400   6.799  1.00  0.00     0.006 C 
BRANCH  13  14
ATOM     14  C   UNL     1       0.054   6.367   6.699  1.00  0.00     0.053 C 
BRANCH  14  15
ATOM     15  C   UNL     1       0.647   5.291   7.561  1.00  0.00     0.041 C 
ATOM     16  O   UNL     1       0.233   4.106   7.476  1.00  0.00    -0.550 OA
ATOM     17  O   UNL     1       1.667   5.602   8.453  1.00  0.00    -0.550 OA
ENDBRANCH  14  15
ENDBRANCH  13  14
ENDBRANCH  12  13
ENDBRANCH  11  12
ENDBRANCH  10  11
ENDBRANCH   9  10
ENDBRANCH   8   9
ENDBRANCH   7   8
ENDBRANCH   6   7
ENDBRANCH   5   6
ENDBRANCH   4   5
ENDBRANCH   3   4
ENDBRANCH   2   3
ENDBRANCH   1   2
BRANCH   1  18
ATOM     18  C   UNL     1       3.919   5.208   2.526  1.00  0.00     0.000 C 
BRANCH  18  19
ATOM     19  C   UNL     1       4.005   6.558   3.254  1.00  0.00     0.000 C 
BRANCH  19  20
ATOM     20  C   UNL     1       4.018   7.749   2.282  1.00  0.00     0.000 C 
BRANCH  20  21
ATOM     21  C   UNL     1       2.961   7.629   1.171  1.00  0.00     0.000 C 
BRANCH  21  22
ATOM     22  C   UNL     1       2.564   8.983   0.546  1.00  0.00     0.000 C 
BRANCH  22  23
ATOM     23  C   UNL     1       1.166   8.938  -0.094  1.00  0.00     0.000 C 
BRANCH  23  24
ATOM     24  C   UNL     1       0.735   7.513  -0.476  1.00  0.00    -0.000 C 
BRANCH  24  25
ATOM     25  C   UNL     1       0.332   7.395  -1.957  1.00  0.00    -0.000 C 
BRANCH  25  26
ATOM     26  C   UNL     1       1.383   6.640  -2.789  1.00  0.00    -0.000 C 
BRANCH  26  27
ATOM     27  C   UNL     1       2.468   7.574  -3.354  1.00  0.00    -0.000 C 
BRANCH  27  28
ATOM     28  C   UNL     1       3.815   7.425  -2.627  1.00  0.00    -0.000 C 
BRANCH  28  29
ATOM     29  C   UNL     1       4.124   5.969  -2.239  1.00  0.00    -0.000 C 
BRANCH  29  30
ATOM     30  C   UNL     1       5.216   5.867  -1.162  1.00  0.00    -0.000 C 
BRANCH  30  31
ATOM     31  C   UNL     1       5.923   7.207  -0.910  1.00  0.00    -0.003 C 
ATOM     32  C   UNL     1       7.157   7.018  -0.031  1.00  0.00     0.004 C 
ENDBRANCH  30  31
ENDBRANCH  29  30
ENDBRANCH  28  29
ENDBRANCH  27  28
ENDBRANCH  26  27
ENDBRANCH  25  26
ENDBRANCH  24  25
ENDBRANCH  23  24
ENDBRANCH  22  23
ENDBRANCH  21  22
ENDBRANCH  20  21
ENDBRANCH  19  20
ENDBRANCH  18  19
ENDBRANCH   1  18
TORSDOF 28
ENDMDL
MODEL 2
REMARK VINA RESULT:    -3.502      2.211      4.537
REMARK INTER + INTRA:         -15.530
REMARK INTER:                  -9.978
REMARK INTRA:                  -5.552
REMARK UNBOUND:                -6.295
REMARK SMILES CCCCCCCCCCCCCCCCCCCCCCCCCCCCCC(=O)[O-]
REMARK SMILES IDX 16 1 17 2 18 3 19 4 20 5 21 6 22 7 23 8 24 9 25 10 26 11
REMARK SMILES IDX 27 12 28 13 29 14 30 15 31 16 32 17 15 18 14 19 13 20 12 21
REMARK SMILES IDX 11 22 10 23 9 24 8 25 7 26 6 27 5 28 4 29 3 30 2 31 1 32
REMARK H PARENT
REMARK Flexibility Score: inf
ROOT
ATOM      1  C   UNL     1       0.676   5.481   2.408  1.00  0.00     0.000 C 
ENDROOT
BRANCH   1   2
ATOM      2  C   UNL     1       1.807   4.633   3.009  1.00  0.00     0.000 C 
BRANCH   2   3
ATOM      3  C   UNL     1       1.471   4.131   4.425  1.00  0.00     0.000 C 
BRANCH   3   4
ATOM      4  C   UNL     1       0.034   3.601   4.539  1.00  0.00     0.000 C 
BRANCH   4   5
ATOM      5  C   UNL     1      -0.250   2.931   5.894  1.00  0.00     0.000 C 
BRANCH   5   6
ATOM      6  C   UNL     1      -0.162   3.917   7.073  1.00  0.00     0.000 C 
BRANCH   6   7
ATOM      7  C   UNL     1      -1.189   5.070   7.040  1.00  0.00     0.000 C 
BRANCH   7   8
ATOM      8  C   UNL     1      -0.598   6.489   6.906  1.00  0.00     0.000 C 
BRANCH   8   9
ATOM      9  C   UNL     1      -0.907   7.203   5.572  1.00  0.00     0.000 C 
BRANCH   9  10
ATOM     10  C   UNL     1       0.256   8.060   5.035  1.00  0.00     0.000 C 
BRANCH  10  11
ATOM     11  C   UNL     1       1.667   7.562   5.400  1.00  0.00     0.000 C 
BRANCH  11  12
ATOM     12  C   UNL     1       2.800   8.069   4.488  1.00  0.00     0.000 C 
BRANCH  12  13
ATOM     13  C   UNL     1       4.110   7.281   4.653  1.00  0.00     0.006 C 
BRANCH  13  14
ATOM     14  C   UNL     1       4.710   6.871   3.301  1.00  0.00     0.053 C 
BRANCH  14  15
ATOM     15  C   UNL     1       5.188   5.449   3.310  1.00  0.00     0.041 C 
ATOM     16  O   UNL     1       5.437   4.866   4.398  1.00  0.00    -0.550 OA
ATOM     17  O   UNL     1       5.348   4.764   2.111  1.00  0.00    -0.550 OA
ENDBRANCH  14  15
ENDBRANCH  13  14
ENDBRANCH  12  13
ENDBRANCH  11  12
ENDBRANCH  10  11
ENDBRANCH   9  10
ENDBRANCH   8   9
ENDBRANCH   7   8
ENDBRANCH   6   7
ENDBRANCH   5   6
ENDBRANCH   4   5
ENDBRANCH   3   4
ENDBRANCH   2   3
ENDBRANCH   1   2
BRANCH   1  18
ATOM     18  C   UNL     1       1.160   6.364   1.244  1.00  0.00     0.000 C 
BRANCH  18  19
ATOM     19  C   UNL     1       0.746   7.834   1.409  1.00  0.00     0.000 C 
BRANCH  19  20
ATOM     20  C   UNL     1       1.841   8.808   0.945  1.00  0.00     0.000 C 
BRANCH  20  21
ATOM     21  C   UNL     1       3.034   8.098   0.283  1.00  0.00     0.000 C 
BRANCH  21  22
ATOM     22  C   UNL     1       4.081   9.067  -0.306  1.00  0.00     0.000 C 
BRANCH  22  23
ATOM     23  C   UNL     1       4.855   8.441  -1.479  1.00  0.00     0.000 C 
BRANCH  23  24
ATOM     24  C   UNL     1       5.490   7.089  -1.115  1.00  0.00    -0.000 C 
BRANCH  24  25
ATOM     25  C   UNL     1       4.769   5.901  -1.777  1.00  0.00    -0.000 C 
BRANCH  25  26
ATOM     26  C   UNL     1       4.161   6.273  -3.140  1.00  0.00    -0.000 C 
BRANCH  26  27
ATOM     27  C   UNL     1       2.622   6.270  -3.119  1.00  0.00    -0.000 C 
BRANCH  27  28
ATOM     28  C   UNL     1       2.016   7.420  -3.942  1.00  0.00    -0.000 C 
BRANCH  28  29
ATOM     29  C   UNL     1       1.506   8.576  -3.064  1.00  0.00    -0.000 C 
BRANCH  29  30
ATOM     30  C   UNL     1       0.242   8.199  -2.274  1.00  0.00    -0.000 C 
BRANCH  30  31
ATOM     31  C   UNL     1      -0.646   9.413  -1.967  1.00  0.00    -0.003 C 
ATOM     32  C   UNL     1      -1.868   9.005  -1.148  1.00  0.00     0.004 C 
ENDBRANCH  30  31
ENDBRANCH  29  30
ENDBRANCH  28  29
ENDBRANCH  27  28
ENDBRANCH  26  27
ENDBRANCH  25  26
ENDBRANCH  24  25
ENDBRANCH  23  24
ENDBRANCH  22  23
ENDBRANCH  21  22
ENDBRANCH  20  21
ENDBRANCH  19  20
ENDBRANCH  18  19
ENDBRANCH   1  18
TORSDOF 28
ENDMDL
MODEL 3
REMARK VINA RESULT:    -3.482      2.212      7.581
REMARK INTER + INTRA:         -15.477
REMARK INTER:                 -10.556
REMARK INTRA:                  -4.921
REMARK UNBOUND:                -6.295
REMARK SMILES CCCCCCCCCCCCCCCCCCCCCCCCCCCCCC(=O)[O-]
REMARK SMILES IDX 16 1 17 2 18 3 19 4 20 5 21 6 22 7 23 8 24 9 25 10 26 11
REMARK SMILES IDX 27 12 28 13 29 14 30 15 31 16 32 17 15 18 14 19 13 20 12 21
REMARK SMILES IDX 11 22 10 23 9 24 8 25 7 26 6 27 5 28 4 29 3 30 2 31 1 32
REMARK H PARENT
REMARK Flexibility Score: inf
ROOT
ATOM      1  C   UNL     1       0.125   9.450  -2.232  1.00  0.00     0.000 C 
ENDROOT
BRANCH   1   2
ATOM      2  C   UNL     1       1.068   8.411  -2.859  1.00  0.00     0.000 C 
BRANCH   2   3
ATOM      3  C   UNL     1       1.029   7.064  -2.115  1.00  0.00     0.000 C 
BRANCH   3   4
ATOM      4  C   UNL     1       2.069   6.066  -2.643  1.00  0.00     0.000 C 
BRANCH   4   5
ATOM      5  C   UNL     1       3.022   6.688  -3.678  1.00  0.00     0.000 C 
BRANCH   5   6
ATOM      6  C   UNL     1       4.496   6.328  -3.418  1.00  0.00     0.000 C 
BRANCH   6   7
ATOM      7  C   UNL     1       5.309   7.400  -2.661  1.00  0.00     0.000 C 
BRANCH   7   8
ATOM      8  C   UNL     1       4.765   8.841  -2.754  1.00  0.00     0.000 C 
BRANCH   8   9
ATOM      9  C   UNL     1       4.231   9.426  -1.429  1.00  0.00     0.000 C 
BRANCH   9  10
ATOM     10  C   UNL     1       4.673   8.648  -0.175  1.00  0.00     0.000 C 
BRANCH  10  11
ATOM     11  C   UNL     1       3.539   8.243   0.786  1.00  0.00     0.000 C 
BRANCH  11  12
ATOM     12  C   UNL     1       3.310   6.728   0.932  1.00  0.00     0.000 C 
BRANCH  12  13
ATOM     13  C   UNL     1       3.354   6.246   2.392  1.00  0.00     0.006 C 
BRANCH  13  14
ATOM     14  C   UNL     1       4.120   4.924   2.540  1.00  0.00     0.053 C 
BRANCH  14  15
ATOM     15  C   UNL     1       5.383   5.096   3.331  1.00  0.00     0.041 C 
ATOM     16  O   UNL     1       5.346   5.564   4.499  1.00  0.00    -0.550 OA
ATOM     17  O   UNL     1       6.603   4.728   2.776  1.00  0.00    -0.550 OA
ENDBRANCH  14  15
ENDBRANCH  13  14
ENDBRANCH  12  13
ENDBRANCH  11  12
ENDBRANCH  10  11
ENDBRANCH   9  10
ENDBRANCH   8   9
ENDBRANCH   7   8
ENDBRANCH   6   7
ENDBRANCH   5   6
ENDBRANCH   4   5
ENDBRANCH   3   4
ENDBRANCH   2   3
ENDBRANCH   1   2
BRANCH   1  18
ATOM     18  C   UNL     1      -1.145   8.809  -1.645  1.00  0.00     0.000 C 
BRANCH  18  19
ATOM     19  C   UNL     1      -1.411   9.250  -0.198  1.00  0.00     0.000 C 
BRANCH  19  20
ATOM     20  C   UNL     1      -0.140   9.223   0.667  1.00  0.00     0.000 C 
BRANCH  20  21
ATOM     21  C   UNL     1      -0.026   7.953   1.526  1.00  0.00     0.000 C 
BRANCH  21  22
ATOM     22  C   UNL     1      -0.795   8.037   2.861  1.00  0.00     0.000 C 
BRANCH  22  23
ATOM     23  C   UNL     1      -0.009   7.409   4.024  1.00  0.00     0.000 C 
BRANCH  23  24
ATOM     24  C   UNL     1      -0.834   7.324   5.319  1.00  0.00    -0.000 C 
BRANCH  24  25
ATOM     25  C   UNL     1       0.050   7.260   6.578  1.00  0.00    -0.000 C 
BRANCH  25  26
ATOM     26  C   UNL     1      -0.340   6.096   7.506  1.00  0.00    -0.000 C 
BRANCH  26  27
ATOM     27  C   UNL     1      -1.034   4.949   6.751  1.00  0.00    -0.000 C 
BRANCH  27  28
ATOM     28  C   UNL     1      -0.170   3.679   6.678  1.00  0.00    -0.000 C 
BRANCH  28  29
ATOM     29  C   UNL     1      -0.081   3.100   5.256  1.00  0.00    -0.000 C 
BRANCH  29  30
ATOM     30  C   UNL     1       0.951   3.835   4.386  1.00  0.00    -0.000 C 
BRANCH  30  31
ATOM     31  C   UNL     1       0.435   4.116   2.968  1.00  0.00    -0.003 C 
ATOM     32  C   UNL     1      -0.874   3.375   2.705  1.00  0.00     0.004 C 
ENDBRANCH  30  31
ENDBRANCH  29  30
ENDBRANCH  28  29
ENDBRANCH  27  28
ENDBRANCH  26  27
ENDBRANCH  25  26
ENDBRANCH  24  25
ENDBRANCH  23  24
ENDBRANCH  22  23
ENDBRANCH  21  22
ENDBRANCH  20  21
ENDBRANCH  19  20
ENDBRANCH  18  19
ENDBRANCH   1  18
TORSDOF 28
ENDMDL
MODEL 4
REMARK VINA RESULT:    -3.482      2.430      7.823
REMARK INTER + INTRA:         -15.477
REMARK INTER:                  -9.816
REMARK INTRA:                  -5.661
REMARK UNBOUND:                -6.295
REMARK SMILES CCCCCCCCCCCCCCCCCCCCCCCCCCCCCC(=O)[O-]
REMARK SMILES IDX 16 1 17 2 18 3 19 4 20 5 21 6 22 7 23 8 24 9 25 10 26 11
REMARK SMILES IDX 27 12 28 13 29 14 30 15 31 16 32 17 15 18 14 19 13 20 12 21
REMARK SMILES IDX 11 22 10 23 9 24 8 25 7 26 6 27 5 28 4 29 3 30 2 31 1 32
REMARK H PARENT
REMARK Flexibility Score: inf
ROOT
ATOM      1  C   UNL     1       0.973   7.016   0.349  1.00  0.00     0.000 C 
ENDROOT
BRANCH   1   2
ATOM      2  C   UNL     1       0.250   8.213  -0.288  1.00  0.00     0.000 C 
BRANCH   2   3
ATOM      3  C   UNL     1       0.013   8.015  -1.797  1.00  0.00     0.000 C 
BRANCH   3   4
ATOM      4  C   UNL     1       1.163   8.567  -2.653  1.00  0.00     0.000 C 
BRANCH   4   5
ATOM      5  C   UNL     1       1.582   7.607  -3.780  1.00  0.00     0.000 C 
BRANCH   5   6
ATOM      6  C   UNL     1       2.080   6.251  -3.248  1.00  0.00     0.000 C 
BRANCH   6   7
ATOM      7  C   UNL     1       3.443   6.292  -2.524  1.00  0.00     0.000 C 
BRANCH   7   8
ATOM      8  C   UNL     1       4.685   6.331  -3.438  1.00  0.00     0.000 C 
BRANCH   8   9
ATOM      9  C   UNL     1       5.595   7.565  -3.252  1.00  0.00     0.000 C 
BRANCH   9  10
ATOM     10  C   UNL     1       4.978   8.675  -2.380  1.00  0.00     0.000 C 
BRANCH  10  11
ATOM     11  C   UNL     1       5.434   8.691  -0.909  1.00  0.00     0.000 C 
BRANCH  11  12
ATOM     12  C   UNL     1       6.668   7.825  -0.594  1.00  0.00     0.000 C 
BRANCH  12  13
ATOM     13  C   UNL     1       6.452   6.871   0.592  1.00  0.00     0.006 C 
BRANCH  13  14
ATOM     14  C   UNL     1       6.135   5.441   0.133  1.00  0.00     0.053 C 
BRANCH  14  15
ATOM     15  C   UNL     1       6.297   4.447   1.245  1.00  0.00     0.041 C 
ATOM     16  O   UNL     1       6.311   3.212   1.001  1.00  0.00    -0.550 OA
ATOM     17  O   UNL     1       6.443   4.891   2.554  1.00  0.00    -0.550 OA
ENDBRANCH  14  15
ENDBRANCH  13  14
ENDBRANCH  12  13
ENDBRANCH  11  12
ENDBRANCH  10  11
ENDBRANCH   9  10
ENDBRANCH   8   9
ENDBRANCH   7   8
ENDBRANCH   6   7
ENDBRANCH   5   6
ENDBRANCH   4   5
ENDBRANCH   3   4
ENDBRANCH   2   3
ENDBRANCH   1   2
BRANCH   1  18
ATOM     18  C   UNL     1       2.403   7.367   0.799  1.00  0.00     0.000 C 
BRANCH  18  19
ATOM     19  C   UNL     1       2.972   6.346   1.796  1.00  0.00     0.000 C 
BRANCH  19  20
ATOM     20  C   UNL     1       3.572   7.015   3.043  1.00  0.00     0.000 C 
BRANCH  20  21
ATOM     21  C   UNL     1       2.575   7.115   4.209  1.00  0.00     0.000 C 
BRANCH  21  22
ATOM     22  C   UNL     1       1.988   8.529   4.401  1.00  0.00     0.000 C 
BRANCH  22  23
ATOM     23  C   UNL     1       0.606   8.677   3.740  1.00  0.00     0.000 C 
BRANCH  23  24
ATOM     24  C   UNL     1      -0.349   7.528   4.099  1.00  0.00    -0.000 C 
BRANCH  24  25
ATOM     25  C   UNL     1      -1.182   7.826   5.360  1.00  0.00    -0.000 C 
BRANCH  25  26
ATOM     26  C   UNL     1      -1.198   6.642   6.342  1.00  0.00    -0.000 C 
BRANCH  26  27
ATOM     27  C   UNL     1       0.163   6.428   7.028  1.00  0.00    -0.000 C 
BRANCH  27  28
ATOM     28  C   UNL     1       0.871   5.148   6.553  1.00  0.00    -0.000 C 
BRANCH  28  29
ATOM     29  C   UNL     1      -0.048   3.915   6.577  1.00  0.00    -0.000 C 
BRANCH  29  30
ATOM     30  C   UNL     1      -0.165   3.243   5.200  1.00  0.00    -0.000 C 
BRANCH  30  31
ATOM     31  C   UNL     1       0.681   3.945   4.127  1.00  0.00    -0.003 C 
ATOM     32  C   UNL     1      -0.115   4.130   2.837  1.00  0.00     0.004 C 
ENDBRANCH  30  31
ENDBRANCH  29  30
ENDBRANCH  28  29
ENDBRANCH  27  28
ENDBRANCH  26  27
ENDBRANCH  25  26
ENDBRANCH  24  25
ENDBRANCH  23  24
ENDBRANCH  22  23
ENDBRANCH  21  22
ENDBRANCH  20  21
ENDBRANCH  19  20
ENDBRANCH  18  19
ENDBRANCH   1  18
TORSDOF 28
ENDMDL
MODEL 5
REMARK VINA RESULT:    -3.477      1.938      4.791
REMARK INTER + INTRA:         -15.462
REMARK INTER:                  -9.761
REMARK INTRA:                  -5.701
REMARK UNBOUND:                -6.295
REMARK SMILES CCCCCCCCCCCCCCCCCCCCCCCCCCCCCC(=O)[O-]
REMARK SMILES IDX 16 1 17 2 18 3 19 4 20 5 21 6 22 7 23 8 24 9 25 10 26 11
REMARK SMILES IDX 27 12 28 13 29 14 30 15 31 16 32 17 15 18 14 19 13 20 12 21
REMARK SMILES IDX 11 22 10 23 9 24 8 25 7 26 6 27 5 28 4 29 3 30 2 31 1 32
REMARK H PARENT
REMARK Flexibility Score: inf
ROOT
ATOM      1  C   UNL     1       0.255   7.989  -0.335  1.00  0.00     0.000 C 
ENDROOT
BRANCH   1   2
ATOM      2  C   UNL     1       1.074   6.804   0.201  1.00  0.00     0.000 C 
BRANCH   2   3
ATOM      3  C   UNL     1       2.539   7.187   0.480  1.00  0.00     0.000 C 
BRANCH   3   4
ATOM      4  C   UNL     1       2.776   8.703   0.415  1.00  0.00     0.000 C 
BRANCH   4   5
ATOM      5  C   UNL     1       3.542   9.241   1.637  1.00  0.00     0.000 C 
BRANCH   5   6
ATOM      6  C   UNL     1       3.790   8.159   2.703  1.00  0.00     0.000 C 
BRANCH   6   7
ATOM      7  C   UNL     1       2.772   8.138   3.864  1.00  0.00     0.000 C 
BRANCH   7   8
ATOM      8  C   UNL     1       2.088   6.781   4.129  1.00  0.00     0.000 C 
BRANCH   8   9
ATOM      9  C   UNL     1       2.970   5.541   3.868  1.00  0.00     0.000 C 
BRANCH   9  10
ATOM     10  C   UNL     1       2.176   4.260   3.546  1.00  0.00     0.000 C 
BRANCH  10  11
ATOM     11  C   UNL     1       0.752   4.485   3.002  1.00  0.00     0.000 C 
BRANCH  11  12
ATOM     12  C   UNL     1      -0.386   4.010   3.923  1.00  0.00     0.000 C 
BRANCH  12  13
ATOM     13  C   UNL     1       0.099   3.103   5.067  1.00  0.00     0.006 C 
BRANCH  13  14
ATOM     14  C   UNL     1      -0.383   3.597   6.438  1.00  0.00     0.053 C 
BRANCH  14  15
ATOM     15  C   UNL     1       0.147   4.963   6.758  1.00  0.00     0.041 C 
ATOM     16  O   UNL     1       1.371   5.133   6.997  1.00  0.00    -0.550 OA
ATOM     17  O   UNL     1      -0.716   6.053   6.782  1.00  0.00    -0.550 OA
ENDBRANCH  14  15
ENDBRANCH  13  14
ENDBRANCH  12  13
ENDBRANCH  11  12
ENDBRANCH  10  11
ENDBRANCH   9  10
ENDBRANCH   8   9
ENDBRANCH   7   8
ENDBRANCH   6   7
ENDBRANCH   5   6
ENDBRANCH   4   5
ENDBRANCH   3   4
ENDBRANCH   2   3
ENDBRANCH   1   2
BRANCH   1  18
ATOM     18  C   UNL     1      -0.060   7.851  -1.835  1.00  0.00     0.000 C 
BRANCH  18  19
ATOM     19  C   UNL     1       0.629   8.932  -2.682  1.00  0.00     0.000 C 
BRANCH  19  20
ATOM     20  C   UNL     1       1.579   8.337  -3.734  1.00  0.00     0.000 C 
BRANCH  20  21
ATOM     21  C   UNL     1       1.755   6.816  -3.590  1.00  0.00     0.000 C 
BRANCH  21  22
ATOM     22  C   UNL     1       3.130   6.403  -3.023  1.00  0.00     0.000 C 
BRANCH  22  23
ATOM     23  C   UNL     1       4.079   7.605  -2.872  1.00  0.00     0.000 C 
BRANCH  23  24
ATOM     24  C   UNL     1       5.484   7.323  -3.428  1.00  0.00    -0.000 C 
BRANCH  24  25
ATOM     25  C   UNL     1       6.596   7.954  -2.570  1.00  0.00    -0.000 C 
BRANCH  25  26
ATOM     26  C   UNL     1       6.048   8.589  -1.280  1.00  0.00    -0.000 C 
BRANCH  26  27
ATOM     27  C   UNL     1       6.628   7.938  -0.011  1.00  0.00    -0.000 C 
BRANCH  27  28
ATOM     28  C   UNL     1       7.018   6.467  -0.226  1.00  0.00    -0.000 C 
BRANCH  28  29
ATOM     29  C   UNL     1       5.819   5.509  -0.113  1.00  0.00    -0.000 C 
BRANCH  29  30
ATOM     30  C   UNL     1       5.496   5.145   1.345  1.00  0.00    -0.000 C 
BRANCH  30  31
ATOM     31  C   UNL     1       6.717   5.262   2.268  1.00  0.00    -0.003 C 
ATOM     32  C   UNL     1       7.437   3.921   2.397  1.00  0.00     0.004 C 
ENDBRANCH  30  31
ENDBRANCH  29  30
ENDBRANCH  28  29
ENDBRANCH  27  28
ENDBRANCH  26  27
ENDBRANCH  25  26
ENDBRANCH  24  25
ENDBRANCH  23  24
ENDBRANCH  22  23
ENDBRANCH  21  22
ENDBRANCH  20  21
ENDBRANCH  19  20
ENDBRANCH  18  19
ENDBRANCH   1  18
TORSDOF 28
ENDMDL
MODEL 6
REMARK VINA RESULT:    -3.476      1.682      3.562
REMARK INTER + INTRA:         -15.460
REMARK INTER:                  -9.338
REMARK INTRA:                  -6.122
REMARK UNBOUND:                -6.295
REMARK SMILES CCCCCCCCCCCCCCCCCCCCCCCCCCCCCC(=O)[O-]
REMARK SMILES IDX 16 1 17 2 18 3 19 4 20 5 21 6 22 7 23 8 24 9 25 10 26 11
REMARK SMILES IDX 27 12 28 13 29 14 30 15 31 16 32 17 15 18 14 19 13 20 12 21
REMARK SMILES IDX 11 22 10 23 9 24 8 25 7 26 6 27 5 28 4 29 3 30 2 31 1 32
REMARK H PARENT
REMARK Flexibility Score: inf
ROOT
ATOM      1  C   UNL     1       4.723   4.748   2.244  1.00  0.00     0.000 C 
ENDROOT
BRANCH   1   2
ATOM      2  C   UNL     1       3.987   5.426   3.411  1.00  0.00     0.000 C 
BRANCH   2   3
ATOM      3  C   UNL     1       4.844   6.512   4.087  1.00  0.00     0.000 C 
BRANCH   3   4
ATOM      4  C   UNL     1       4.002   7.511   4.894  1.00  0.00     0.000 C 
BRANCH   4   5
ATOM      5  C   UNL     1       3.580   8.739   4.070  1.00  0.00     0.000 C 
BRANCH   5   6
ATOM      6  C   UNL     1       2.245   9.342   4.546  1.00  0.00     0.000 C 
BRANCH   6   7
ATOM      7  C   UNL     1       1.214   9.614   3.430  1.00  0.00     0.000 C 
BRANCH   7   8
ATOM      8  C   UNL     1      -0.006   8.671   3.402  1.00  0.00     0.000 C 
BRANCH   8   9
ATOM      9  C   UNL     1       0.289   7.209   3.803  1.00  0.00     0.000 C 
BRANCH   9  10
ATOM     10  C   UNL     1      -0.527   6.164   3.016  1.00  0.00     0.000 C 
BRANCH  10  11
ATOM     11  C   UNL     1       0.235   4.882   2.634  1.00  0.00     0.000 C 
BRANCH  11  12
ATOM     12  C   UNL     1      -0.455   3.564   3.030  1.00  0.00     0.000 C 
BRANCH  12  13
ATOM     13  C   UNL     1      -0.408   3.286   4.542  1.00  0.00     0.006 C 
BRANCH  13  14
ATOM     14  C   UNL     1       0.926   3.718   5.167  1.00  0.00     0.053 C 
BRANCH  14  15
ATOM     15  C   UNL     1       0.724   4.497   6.433  1.00  0.00     0.041 C 
ATOM     16  O   UNL     1       1.503   5.439   6.733  1.00  0.00    -0.550 OA
ATOM     17  O   UNL     1      -0.335   4.184   7.277  1.00  0.00    -0.550 OA
ENDBRANCH  14  15
ENDBRANCH  13  14
ENDBRANCH  12  13
ENDBRANCH  11  12
ENDBRANCH  10  11
ENDBRANCH   9  10
ENDBRANCH   8   9
ENDBRANCH   7   8
ENDBRANCH   6   7
ENDBRANCH   5   6
ENDBRANCH   4   5
ENDBRANCH   3   4
ENDBRANCH   2   3
ENDBRANCH   1   2
BRANCH   1  18
ATOM     18  C   UNL     1       5.765   5.674   1.591  1.00  0.00     0.000 C 
BRANCH  18  19
ATOM     19  C   UNL     1       5.621   5.735   0.063  1.00  0.00     0.000 C 
BRANCH  19  20
ATOM     20  C   UNL     1       5.305   7.152  -0.441  1.00  0.00     0.000 C 
BRANCH  20  21
ATOM     21  C   UNL     1       4.643   8.036   0.631  1.00  0.00     0.000 C 
BRANCH  21  22
ATOM     22  C   UNL     1       3.151   8.320   0.363  1.00  0.00     0.000 C 
BRANCH  22  23
ATOM     23  C   UNL     1       2.262   7.108   0.691  1.00  0.00     0.000 C 
BRANCH  23  24
ATOM     24  C   UNL     1       1.034   7.007  -0.228  1.00  0.00    -0.000 C 
BRANCH  24  25
ATOM     25  C   UNL     1       0.218   8.313  -0.267  1.00  0.00    -0.000 C 
BRANCH  25  26
ATOM     26  C   UNL     1      -0.620   8.439  -1.550  1.00  0.00    -0.000 C 
BRANCH  26  27
ATOM     27  C   UNL     1      -0.374   9.768  -2.287  1.00  0.00    -0.000 C 
BRANCH  27  28
ATOM     28  C   UNL     1       1.093   9.945  -2.711  1.00  0.00    -0.000 C 
BRANCH  28  29
ATOM     29  C   UNL     1       1.600   8.796  -3.598  1.00  0.00    -0.000 C 
BRANCH  29  30
ATOM     30  C   UNL     1       2.979   8.278  -3.157  1.00  0.00    -0.000 C 
BRANCH  30  31
ATOM     31  C   UNL     1       3.117   6.757  -3.317  1.00  0.00    -0.003 C 
ATOM     32  C   UNL     1       1.784   6.124  -3.710  1.00  0.00     0.004 C 
ENDBRANCH  30  31
ENDBRANCH  29  30
ENDBRANCH  28  29
ENDBRANCH  27  28
ENDBRANCH  26  27
ENDBRANCH  25  26
ENDBRANCH  24  25
ENDBRANCH  23  24
ENDBRANCH  22  23
ENDBRANCH  21  22
ENDBRANCH  20  21
ENDBRANCH  19  20
ENDBRANCH  18  19
ENDBRANCH   1  18
TORSDOF 28
ENDMDL
MODEL 7
REMARK VINA RESULT:    -3.463      2.840      8.133
REMARK INTER + INTRA:         -15.426
REMARK INTER:                 -10.317
REMARK INTRA:                  -5.109
REMARK UNBOUND:                -6.295
REMARK SMILES CCCCCCCCCCCCCCCCCCCCCCCCCCCCCC(=O)[O-]
REMARK SMILES IDX 16 1 17 2 18 3 19 4 20 5 21 6 22 7 23 8 24 9 25 10 26 11
REMARK SMILES IDX 27 12 28 13 29 14 30 15 31 16 32 17 15 18 14 19 13 20 12 21
REMARK SMILES IDX 11 22 10 23 9 24 8 25 7 26 6 27 5 28 4 29 3 30 2 31 1 32
REMARK H PARENT
REMARK Flexibility Score: inf
ROOT
ATOM      1  C   UNL     1      -0.375   5.278   3.277  1.00  0.00     0.000 C 
ENDROOT
BRANCH   1   2
ATOM      2  C   UNL     1      -0.400   6.802   3.085  1.00  0.00     0.000 C 
BRANCH   2   3
ATOM      3  C   UNL     1       0.345   7.242   1.811  1.00  0.00     0.000 C 
BRANCH   3   4
ATOM      4  C   UNL     1       0.790   8.711   1.864  1.00  0.00     0.000 C 
BRANCH   4   5
ATOM      5  C   UNL     1       0.243   9.543   0.692  1.00  0.00     0.000 C 
BRANCH   5   6
ATOM      6  C   UNL     1      -0.853   8.805  -0.098  1.00  0.00     0.000 C 
BRANCH   6   7
ATOM      7  C   UNL     1      -0.665   8.801  -1.631  1.00  0.00     0.000 C 
BRANCH   7   8
ATOM      8  C   UNL     1       0.692   8.269  -2.137  1.00  0.00     0.000 C 
BRANCH   8   9
ATOM      9  C   UNL     1       0.952   6.772  -1.861  1.00  0.00     0.000 C 
BRANCH   9  10
ATOM     10  C   UNL     1       1.557   6.009  -3.056  1.00  0.00     0.000 C 
BRANCH  10  11
ATOM     11  C   UNL     1       2.684   6.744  -3.806  1.00  0.00     0.000 C 
BRANCH  11  12
ATOM     12  C   UNL     1       4.114   6.308  -3.435  1.00  0.00     0.000 C 
BRANCH  12  13
ATOM     13  C   UNL     1       4.914   7.406  -2.714  1.00  0.00     0.006 C 
BRANCH  13  14
ATOM     14  C   UNL     1       5.227   7.030  -1.259  1.00  0.00     0.053 C 
BRANCH  14  15
ATOM     15  C   UNL     1       4.138   7.465  -0.322  1.00  0.00     0.041 C 
ATOM     16  O   UNL     1       3.624   6.645   0.483  1.00  0.00    -0.550 OA
ATOM     17  O   UNL     1       3.699   8.783  -0.335  1.00  0.00    -0.550 OA
ENDBRANCH  14  15
ENDBRANCH  13  14
ENDBRANCH  12  13
ENDBRANCH  11  12
ENDBRANCH  10  11
ENDBRANCH   9  10
ENDBRANCH   8   9
ENDBRANCH   7   8
ENDBRANCH   6   7
ENDBRANCH   5   6
ENDBRANCH   4   5
ENDBRANCH   3   4
ENDBRANCH   2   3
ENDBRANCH   1   2
BRANCH   1  18
ATOM     18  C   UNL     1       0.999   4.668   2.942  1.00  0.00     0.000 C 
BRANCH  18  19
ATOM     19  C   UNL     1       1.908   4.557   4.175  1.00  0.00     0.000 C 
BRANCH  19  20
ATOM     20  C   UNL     1       3.294   5.178   3.940  1.00  0.00     0.000 C 
BRANCH  20  21
ATOM     21  C   UNL     1       3.285   6.714   4.023  1.00  0.00     0.000 C 
BRANCH  21  22
ATOM     22  C   UNL     1       2.813   7.257   5.388  1.00  0.00     0.000 C 
BRANCH  22  23
ATOM     23  C   UNL     1       2.049   8.585   5.251  1.00  0.00     0.000 C 
BRANCH  23  24
ATOM     24  C   UNL     1       0.752   8.611   6.075  1.00  0.00    -0.000 C 
BRANCH  24  25
ATOM     25  C   UNL     1       0.449   7.255   6.740  1.00  0.00    -0.000 C 
BRANCH  25  26
ATOM     26  C   UNL     1      -1.056   6.940   6.763  1.00  0.00    -0.000 C 
BRANCH  26  27
ATOM     27  C   UNL     1      -1.341   5.445   6.997  1.00  0.00    -0.000 C 
BRANCH  27  28
ATOM     28  C   UNL     1      -0.065   4.637   7.282  1.00  0.00    -0.000 C 
BRANCH  28  29
ATOM     29  C   UNL     1      -0.333   3.128   7.417  1.00  0.00    -0.000 C 
BRANCH  29  30
ATOM     30  C   UNL     1      -0.267   2.398   6.066  1.00  0.00    -0.000 C 
BRANCH  30  31
ATOM     31  C   UNL     1      -0.481   0.883   6.204  1.00  0.00    -0.003 C 
ATOM     32  C   UNL     1      -0.876   0.513   7.632  1.00  0.00     0.004 C 
ENDBRANCH  30  31
ENDBRANCH  29  30
ENDBRANCH  28  29
ENDBRANCH  27  28
ENDBRANCH  26  27
ENDBRANCH  25  26
ENDBRANCH  24  25
ENDBRANCH  23  24
ENDBRANCH  22  23
ENDBRANCH  21  22
ENDBRANCH  20  21
ENDBRANCH  19  20
ENDBRANCH  18  19
ENDBRANCH   1  18
TORSDOF 28
ENDMDL
MODEL 8
REMARK VINA RESULT:    -3.453      1.953      4.797
REMARK INTER + INTRA:         -15.400
REMARK INTER:                  -9.760
REMARK INTRA:                  -5.640
REMARK UNBOUND:                -6.295
REMARK SMILES CCCCCCCCCCCCCCCCCCCCCCCCCCCCCC(=O)[O-]
REMARK SMILES IDX 16 1 17 2 18 3 19 4 20 5 21 6 22 7 23 8 24 9 25 10 26 11
REMARK SMILES IDX 27 12 28 13 29 14 30 15 31 16 32 17 15 18 14 19 13 20 12 21
REMARK SMILES IDX 11 22 10 23 9 24 8 25 7 26 6 27 5 28 4 29 3 30 2 31 1 32
REMARK H PARENT
REMARK Flexibility Score: inf
ROOT
ATOM      1  C   UNL     1       0.043   7.493  -1.871  1.00  0.00     0.000 C 
ENDROOT
BRANCH   1   2
ATOM      2  C   UNL     1       0.332   8.968  -2.191  1.00  0.00     0.000 C 
BRANCH   2   3
ATOM      3  C   UNL     1       0.105   9.883  -0.974  1.00  0.00     0.000 C 
BRANCH   3   4
ATOM      4  C   UNL     1      -0.511   9.138   0.220  1.00  0.00     0.000 C 
BRANCH   4   5
ATOM      5  C   UNL     1      -0.096   9.735   1.575  1.00  0.00     0.000 C 
BRANCH   5   6
ATOM      6  C   UNL     1       0.544   8.692   2.510  1.00  0.00     0.000 C 
BRANCH   6   7
ATOM      7  C   UNL     1       0.624   7.261   1.938  1.00  0.00     0.000 C 
BRANCH   7   8
ATOM      8  C   UNL     1       1.842   6.428   2.388  1.00  0.00     0.000 C 
BRANCH   8   9
ATOM      9  C   UNL     1       1.524   4.973   2.798  1.00  0.00     0.000 C 
BRANCH   9  10
ATOM     10  C   UNL     1       0.054   4.565   2.578  1.00  0.00     0.000 C 
BRANCH  10  11
ATOM     11  C   UNL     1      -0.567   3.704   3.695  1.00  0.00     0.000 C 
BRANCH  11  12
ATOM     12  C   UNL     1       0.307   3.526   4.950  1.00  0.00     0.000 C 
BRANCH  12  13
ATOM     13  C   UNL     1      -0.282   4.204   6.199  1.00  0.00     0.006 C 
BRANCH  13  14
ATOM     14  C   UNL     1       0.615   5.338   6.716  1.00  0.00     0.053 C 
BRANCH  14  15
ATOM     15  C   UNL     1       0.450   6.592   5.909  1.00  0.00     0.041 C 
ATOM     16  O   UNL     1       1.417   7.383   5.754  1.00  0.00    -0.550 OA
ATOM     17  O   UNL     1      -0.775   6.881   5.319  1.00  0.00    -0.550 OA
ENDBRANCH  14  15
ENDBRANCH  13  14
ENDBRANCH  12  13
ENDBRANCH  11  12
ENDBRANCH  10  11
ENDBRANCH   9  10
ENDBRANCH   8   9
ENDBRANCH   7   8
ENDBRANCH   6   7
ENDBRANCH   5   6
ENDBRANCH   4   5
ENDBRANCH   3   4
ENDBRANCH   2   3
ENDBRANCH   1   2
BRANCH   1  18
ATOM     18  C   UNL     1       1.330   6.658  -1.746  1.00  0.00     0.000 C 
BRANCH  18  19
ATOM     19  C   UNL     1       1.728   5.989  -3.071  1.00  0.00     0.000 C 
BRANCH  19  20
ATOM     20  C   UNL     1       2.876   6.726  -3.779  1.00  0.00     0.000 C 
BRANCH  20  21
ATOM     21  C   UNL     1       4.240   6.498  -3.107  1.00  0.00     0.000 C 
BRANCH  21  22
ATOM     22  C   UNL     1       4.964   7.803  -2.716  1.00  0.00     0.000 C 
BRANCH  22  23
ATOM     23  C   UNL     1       4.010   9.010  -2.694  1.00  0.00     0.000 C 
BRANCH  23  24
ATOM     24  C   UNL     1       3.993   9.726  -1.334  1.00  0.00    -0.000 C 
BRANCH  24  25
ATOM     25  C   UNL     1       3.499   8.816  -0.194  1.00  0.00    -0.000 C 
BRANCH  25  26
ATOM     26  C   UNL     1       4.408   8.887   1.045  1.00  0.00    -0.000 C 
BRANCH  26  27
ATOM     27  C   UNL     1       5.432   7.739   1.092  1.00  0.00    -0.000 C 
BRANCH  27  28
ATOM     28  C   UNL     1       4.853   6.410   0.579  1.00  0.00    -0.000 C 
BRANCH  28  29
ATOM     29  C   UNL     1       5.939   5.356   0.301  1.00  0.00    -0.000 C 
BRANCH  29  30
ATOM     30  C   UNL     1       6.048   4.314   1.426  1.00  0.00    -0.000 C 
BRANCH  30  31
ATOM     31  C   UNL     1       5.264   4.718   2.683  1.00  0.00    -0.003 C 
ATOM     32  C   UNL     1       6.206   4.984   3.855  1.00  0.00     0.004 C 
ENDBRANCH  30  31
ENDBRANCH  29  30
ENDBRANCH  28  29
ENDBRANCH  27  28
ENDBRANCH  26  27
ENDBRANCH  25  26
ENDBRANCH  24  25
ENDBRANCH  23  24
ENDBRANCH  22  23
ENDBRANCH  21  22
ENDBRANCH  20  21
ENDBRANCH  19  20
ENDBRANCH  18  19
ENDBRANCH   1  18
TORSDOF 28
ENDMDL
MODEL 9
REMARK VINA RESULT:    -3.443      2.640      4.911
REMARK INTER + INTRA:         -15.373
REMARK INTER:                  -9.330
REMARK INTRA:                  -6.043
REMARK UNBOUND:                -6.295
REMARK SMILES CCCCCCCCCCCCCCCCCCCCCCCCCCCCCC(=O)[O-]
REMARK SMILES IDX 16 1 17 2 18 3 19 4 20 5 21 6 22 7 23 8 24 9 25 10 26 11
REMARK SMILES IDX 27 12 28 13 29 14 30 15 31 16 32 17 15 18 14 19 13 20 12 21
REMARK SMILES IDX 11 22 10 23 9 24 8 25 7 26 6 27 5 28 4 29 3 30 2 31 1 32
REMARK H PARENT
REMARK Flexibility Score: inf
ROOT
ATOM      1  C   UNL     1       0.373   3.372   5.272  1.00  0.00     0.000 C 
ENDROOT
BRANCH   1   2
ATOM      2  C   UNL     1      -0.159   3.694   6.677  1.00  0.00     0.000 C 
BRANCH   2   3
ATOM      3  C   UNL     1      -1.200   4.827   6.660  1.00  0.00     0.000 C 
BRANCH   3   4
ATOM      4  C   UNL     1      -0.860   5.958   7.642  1.00  0.00     0.000 C 
BRANCH   4   5
ATOM      5  C   UNL     1      -1.061   7.357   7.035  1.00  0.00     0.000 C 
BRANCH   5   6
ATOM      6  C   UNL     1       0.261   8.127   6.868  1.00  0.00     0.000 C 
BRANCH   6   7
ATOM      7  C   UNL     1       1.538   7.266   6.977  1.00  0.00     0.000 C 
BRANCH   7   8
ATOM      8  C   UNL     1       2.683   7.643   6.015  1.00  0.00     0.000 C 
BRANCH   8   9
ATOM      9  C   UNL     1       2.496   8.982   5.268  1.00  0.00     0.000 C 
BRANCH   9  10
ATOM     10  C   UNL     1       2.904   8.936   3.783  1.00  0.00     0.000 C 
BRANCH  10  11
ATOM     11  C   UNL     1       3.558   7.621   3.318  1.00  0.00     0.000 C 
BRANCH  11  12
ATOM     12  C   UNL     1       4.040   7.608   1.856  1.00  0.00     0.000 C 
BRANCH  12  13
ATOM     13  C   UNL     1       3.997   6.210   1.215  1.00  0.00     0.006 C 
BRANCH  13  14
ATOM     14  C   UNL     1       4.841   5.192   1.995  1.00  0.00     0.053 C 
BRANCH  14  15
ATOM     15  C   UNL     1       6.080   4.802   1.245  1.00  0.00     0.041 C 
ATOM     16  O   UNL     1       6.349   3.589   1.044  1.00  0.00    -0.550 OA
ATOM     17  O   UNL     1       6.934   5.786   0.760  1.00  0.00    -0.550 OA
ENDBRANCH  14  15
ENDBRANCH  13  14
ENDBRANCH  12  13
ENDBRANCH  11  12
ENDBRANCH  10  11
ENDBRANCH   9  10
ENDBRANCH   8   9
ENDBRANCH   7   8
ENDBRANCH   6   7
ENDBRANCH   5   6
ENDBRANCH   4   5
ENDBRANCH   3   4
ENDBRANCH   2   3
ENDBRANCH   1   2
BRANCH   1  18
ATOM     18  C   UNL     1       1.281   4.485   4.720  1.00  0.00     0.000 C 
BRANCH  18  19
ATOM     19  C   UNL     1       1.331   4.496   3.184  1.00  0.00     0.000 C 
BRANCH  19  20
ATOM     20  C   UNL     1       0.464   5.611   2.577  1.00  0.00     0.000 C 
BRANCH  20  21
ATOM     21  C   UNL     1      -0.068   6.597   3.630  1.00  0.00     0.000 C 
BRANCH  21  22
ATOM     22  C   UNL     1      -1.123   7.580   3.080  1.00  0.00     0.000 C 
BRANCH  22  23
ATOM     23  C   UNL     1      -0.707   9.048   3.276  1.00  0.00     0.000 C 
BRANCH  23  24
ATOM     24  C   UNL     1      -0.099   9.666   2.007  1.00  0.00    -0.000 C 
BRANCH  24  25
ATOM     25  C   UNL     1      -0.370   8.819   0.750  1.00  0.00    -0.000 C 
BRANCH  25  26
ATOM     26  C   UNL     1       0.912   8.540  -0.054  1.00  0.00    -0.000 C 
BRANCH  26  27
ATOM     27  C   UNL     1       0.914   7.140  -0.692  1.00  0.00    -0.000 C 
BRANCH  27  28
ATOM     28  C   UNL     1       0.491   7.162  -2.170  1.00  0.00    -0.000 C 
BRANCH  28  29
ATOM     29  C   UNL     1       1.624   7.616  -3.107  1.00  0.00    -0.000 C 
BRANCH  29  30
ATOM     30  C   UNL     1       2.729   6.556  -3.247  1.00  0.00    -0.000 C 
BRANCH  30  31
ATOM     31  C   UNL     1       4.078   7.033  -2.690  1.00  0.00    -0.003 C 
ATOM     32  C   UNL     1       4.941   5.849  -2.257  1.00  0.00     0.004 C 
ENDBRANCH  30  31
ENDBRANCH  29  30
ENDBRANCH  28  29
ENDBRANCH  27  28
ENDBRANCH  26  27
ENDBRANCH  25  26
ENDBRANCH  24  25
ENDBRANCH  23  24
ENDBRANCH  22  23
ENDBRANCH  21  22
ENDBRANCH  20  21
ENDBRANCH  19  20
ENDBRANCH  18  19
ENDBRANCH   1  18
TORSDOF 28
ENDMDL
