MODEL 1
REMARK VINA RESULT:    -6.342      0.000      0.000
REMARK INTER + INTRA:         -10.927
REMARK INTER:                  -9.307
REMARK INTRA:                  -1.620
REMARK UNBOUND:                -1.620
REMARK SMILES Cc1cc2c(C(C)C)c(O)c(O)c(C=O)c2c(O)c1-c1c(C)cc2c(C(C)C)c(O)c(O)c(C=O)c2c1O
REMARK SMILES IDX 1 1 2 2 3 3 4 4 16 5 13 6 11 7 9 8 5 9 17 10 19 11 20 12
REMARK SMILES IDX 37 13 21 14 36 15 23 16 22 17 24 18 33 19 25 20 31 21 29 22
REMARK SMILES IDX 38 23 34 25 35 26 26 27 27 28 28 29 32 30 30 32 18 34 6 36
REMARK SMILES IDX 7 37 8 38 14 39 15 40 10 41 12 43
REMARK H PARENT 38 24 32 31 30 33 18 35 10 42 12 44
REMARK Flexibility Score: inf
ROOT
ATOM      1  C   UNL     1      -0.916   5.181 -34.440  1.00  0.00     0.045 C 
ATOM      2  C   UNL     1      -2.312   5.669 -34.138  1.00  0.00    -0.039 A 
ATOM      3  C   UNL     1      -3.407   4.937 -34.601  1.00  0.00     0.013 A 
ATOM      4  C   UNL     1      -4.737   5.348 -34.372  1.00  0.00    -0.006 A 
ATOM      5  C   UNL     1      -4.958   6.552 -33.634  1.00  0.00     0.039 A 
ATOM      6  C   UNL     1      -6.290   7.028 -33.468  1.00  0.00     0.072 A 
ATOM      7  C   UNL     1      -7.375   6.239 -33.883  1.00  0.00     0.169 A 
ATOM      8  C   UNL     1      -7.158   4.991 -34.492  1.00  0.00     0.162 A 
ATOM      9  C   UNL     1      -5.851   4.576 -34.839  1.00  0.00     0.008 A 
ATOM     10  C   UNL     1      -3.840   7.227 -33.058  1.00  0.00     0.132 A 
ATOM     11  C   UNL     1      -2.525   6.806 -33.346  1.00  0.00     0.031 A 
ENDROOT
BRANCH  11  12
ATOM     12  C   UNL     1      -1.363   7.554 -32.801  1.00  0.00     0.031 A 
ATOM     13  C   UNL     1      -0.738   8.555 -33.576  1.00  0.00     0.132 A 
ATOM     14  C   UNL     1      -0.865   7.240 -31.526  1.00  0.00    -0.039 A 
ATOM     15  C   UNL     1       0.332   9.323 -33.032  1.00  0.00     0.039 A 
ATOM     16  C   UNL     1       0.262   7.907 -31.042  1.00  0.00     0.013 A 
ATOM     17  C   UNL     1      -1.477   6.133 -30.703  1.00  0.00     0.045 C 
ATOM     18  C   UNL     1       0.860   8.971 -31.754  1.00  0.00    -0.006 A 
ATOM     19  C   UNL     1       0.930  10.396 -33.750  1.00  0.00     0.072 A 
ATOM     20  C   UNL     1       2.006   9.657 -31.241  1.00  0.00     0.008 A 
ATOM     21  C   UNL     1       2.154  10.932 -33.321  1.00  0.00     0.169 A 
ATOM     22  C   UNL     1       2.728  10.506 -32.110  1.00  0.00     0.162 A 
BRANCH  13  23
ATOM     23  O   UNL     1      -1.137   8.746 -34.903  1.00  0.00    -0.507 OA
ATOM     24  H   UNL     1      -1.613   9.576 -35.234  1.00  0.00     0.293 HD
ENDBRANCH  13  23
BRANCH  19  25
ATOM     25  C   UNL     1       0.281  11.052 -34.909  1.00  0.00     0.264 C 
ATOM     26  O   UNL     1       0.723  10.881 -36.075  1.00  0.00    -0.298 OA
ENDBRANCH  19  25
BRANCH  20  27
ATOM     27  C   UNL     1       2.495   9.449 -29.798  1.00  0.00     0.017 C 
ATOM     28  C   UNL     1       3.777   8.608 -29.770  1.00  0.00     0.012 C 
ATOM     29  C   UNL     1       2.667  10.757 -29.003  1.00  0.00     0.012 C 
ENDBRANCH  20  27
BRANCH  21  30
ATOM     30  O   UNL     1       2.756  11.929 -34.099  1.00  0.00    -0.504 OA
ATOM     31  H   UNL     1       2.246  12.572 -34.689  1.00  0.00     0.293 HD
ENDBRANCH  21  30
BRANCH  22  32
ATOM     32  O   UNL     1       4.018  10.907 -31.754  1.00  0.00    -0.504 OA
ATOM     33  H   UNL     1       4.302  11.133 -30.812  1.00  0.00     0.293 HD
ENDBRANCH  22  32
ENDBRANCH  11  12
BRANCH  10  34
ATOM     34  O   UNL     1      -4.040   8.282 -32.159  1.00  0.00    -0.507 OA
ATOM     35  H   UNL     1      -4.082   9.255 -32.432  1.00  0.00     0.293 HD
ENDBRANCH  10  34
BRANCH   9  36
ATOM     36  C   UNL     1      -5.710   3.283 -35.668  1.00  0.00     0.017 C 
ATOM     37  C   UNL     1      -5.170   3.506 -37.099  1.00  0.00     0.012 C 
ATOM     38  C   UNL     1      -4.961   2.183 -34.903  1.00  0.00     0.012 C 
ENDBRANCH   9  36
BRANCH   6  39
ATOM     39  C   UNL     1      -6.578   8.396 -32.972  1.00  0.00     0.264 C 
ATOM     40  O   UNL     1      -7.030   8.586 -31.812  1.00  0.00    -0.298 OA
ENDBRANCH   6  39
BRANCH   8  41
ATOM     41  O   UNL     1      -8.236   4.138 -34.759  1.00  0.00    -0.504 OA
ATOM     42  H   UNL     1      -8.164   3.279 -35.288  1.00  0.00     0.293 HD
ENDBRANCH   8  41
BRANCH   7  43
ATOM     43  O   UNL     1      -8.672   6.744 -33.720  1.00  0.00    -0.504 OA
ATOM     44  H   UNL     1      -8.951   7.682 -33.969  1.00  0.00     0.293 HD
ENDBRANCH   7  43
TORSDOF 11
ENDMDL
MODEL 2
REMARK VINA RESULT:    -6.329      5.313      9.273
REMARK INTER + INTRA:         -10.909
REMARK INTER:                  -9.471
REMARK INTRA:                  -1.438
REMARK UNBOUND:                -1.620
REMARK SMILES Cc1cc2c(C(C)C)c(O)c(O)c(C=O)c2c(O)c1-c1c(C)cc2c(C(C)C)c(O)c(O)c(C=O)c2c1O
REMARK SMILES IDX 1 1 2 2 3 3 4 4 16 5 13 6 11 7 9 8 5 9 17 10 19 11 20 12
REMARK SMILES IDX 37 13 21 14 36 15 23 16 22 17 24 18 33 19 25 20 31 21 29 22
REMARK SMILES IDX 38 23 34 25 35 26 26 27 27 28 28 29 32 30 30 32 18 34 6 36
REMARK SMILES IDX 7 37 8 38 14 39 15 40 10 41 12 43
REMARK H PARENT 38 24 32 31 30 33 18 35 10 42 12 44
REMARK Flexibility Score: inf
ROOT
ATOM      1  C   UNL     1      -3.247   0.296 -31.031  1.00  0.00     0.045 C 
ATOM      2  C   UNL     1      -2.084   0.256 -31.992  1.00  0.00    -0.039 A 
ATOM      3  C   UNL     1      -1.142  -0.769 -31.883  1.00  0.00     0.013 A 
ATOM      4  C   UNL     1      -0.021  -0.853 -32.735  1.00  0.00    -0.006 A 
ATOM      5  C   UNL     1       0.141   0.146 -33.745  1.00  0.00     0.039 A 
ATOM      6  C   UNL     1       1.311   0.126 -34.557  1.00  0.00     0.072 A 
ATOM      7  C   UNL     1       2.206  -0.952 -34.473  1.00  0.00     0.169 A 
ATOM      8  C   UNL     1       1.976  -2.003 -33.569  1.00  0.00     0.162 A 
ATOM      9  C   UNL     1       0.929  -1.921 -32.621  1.00  0.00     0.008 A 
ATOM     10  C   UNL     1      -0.889   1.116 -33.932  1.00  0.00     0.132 A 
ATOM     11  C   UNL     1      -1.972   1.190 -33.031  1.00  0.00     0.031 A 
ENDROOT
BRANCH  11  12
ATOM     12  C   UNL     1      -3.005   2.247 -33.188  1.00  0.00     0.031 A 
ATOM     13  C   UNL     1      -2.856   3.488 -32.532  1.00  0.00     0.132 A 
ATOM     14  C   UNL     1      -4.149   1.996 -33.963  1.00  0.00    -0.039 A 
ATOM     15  C   UNL     1      -3.807   4.528 -32.734  1.00  0.00     0.039 A 
ATOM     16  C   UNL     1      -5.144   2.972 -34.060  1.00  0.00     0.013 A 
ATOM     17  C   UNL     1      -4.363   0.656 -34.624  1.00  0.00     0.045 C 
ATOM     18  C   UNL     1      -4.987   4.254 -33.488  1.00  0.00    -0.006 A 
ATOM     19  C   UNL     1      -3.645   5.820 -32.160  1.00  0.00     0.072 A 
ATOM     20  C   UNL     1      -6.006   5.250 -33.608  1.00  0.00     0.008 A 
ATOM     21  C   UNL     1      -4.724   6.716 -32.131  1.00  0.00     0.169 A 
ATOM     22  C   UNL     1      -5.927   6.397 -32.786  1.00  0.00     0.162 A 
BRANCH  13  23
ATOM     23  O   UNL     1      -1.798   3.667 -31.635  1.00  0.00    -0.507 OA
ATOM     24  H   UNL     1      -1.885   4.152 -30.750  1.00  0.00     0.293 HD
ENDBRANCH  13  23
BRANCH  19  25
ATOM     25  C   UNL     1      -2.347   6.317 -31.647  1.00  0.00     0.264 C 
ATOM     26  O   UNL     1      -2.143   6.424 -30.408  1.00  0.00    -0.298 OA
ENDBRANCH  19  25
BRANCH  20  27
ATOM     27  C   UNL     1      -7.202   5.075 -34.559  1.00  0.00     0.017 C 
ATOM     28  C   UNL     1      -6.752   4.503 -35.907  1.00  0.00     0.012 C 
ATOM     29  C   UNL     1      -8.359   4.252 -33.960  1.00  0.00     0.012 C 
ENDBRANCH  20  27
BRANCH  21  30
ATOM     30  O   UNL     1      -4.555   7.946 -31.482  1.00  0.00    -0.504 OA
ATOM     31  H   UNL     1      -4.118   8.753 -31.904  1.00  0.00     0.293 HD
ENDBRANCH  21  30
BRANCH  22  32
ATOM     32  O   UNL     1      -7.059   7.202 -32.628  1.00  0.00    -0.504 OA
ATOM     33  H   UNL     1      -8.005   6.852 -32.611  1.00  0.00     0.293 HD
ENDBRANCH  22  32
ENDBRANCH  11  12
BRANCH  10  34
ATOM     34  O   UNL     1      -0.861   1.970 -35.041  1.00  0.00    -0.507 OA
ATOM     35  H   UNL     1      -0.500   2.915 -35.016  1.00  0.00     0.293 HD
ENDBRANCH  10  34
BRANCH   9  36
ATOM     36  C   UNL     1       0.853  -3.024 -31.545  1.00  0.00     0.017 C 
ATOM     37  C   UNL     1       0.740  -2.489 -30.100  1.00  0.00     0.012 C 
ATOM     38  C   UNL     1      -0.200  -4.089 -31.881  1.00  0.00     0.012 C 
ENDBRANCH   9  36
BRANCH   6  39
ATOM     39  C   UNL     1       1.686   1.274 -35.419  1.00  0.00     0.264 C 
ATOM     40  O   UNL     1       1.512   1.235 -36.666  1.00  0.00    -0.298 OA
ENDBRANCH   6  39
BRANCH   8  41
ATOM     41  O   UNL     1       2.779  -3.150 -33.597  1.00  0.00    -0.504 OA
ATOM     42  H   UNL     1       3.113  -3.630 -32.773  1.00  0.00     0.293 HD
ENDBRANCH   8  41
BRANCH   7  43
ATOM     43  O   UNL     1       3.355  -0.933 -35.275  1.00  0.00    -0.504 OA
ATOM     44  H   UNL     1       4.248  -0.563 -34.979  1.00  0.00     0.293 HD
ENDBRANCH   7  43
TORSDOF 11
ENDMDL
MODEL 3
REMARK VINA RESULT:    -6.297      3.215      4.925
REMARK INTER + INTRA:         -10.862
REMARK INTER:                  -9.333
REMARK INTRA:                  -1.529
REMARK UNBOUND:                -1.620
REMARK SMILES Cc1cc2c(C(C)C)c(O)c(O)c(C=O)c2c(O)c1-c1c(C)cc2c(C(C)C)c(O)c(O)c(C=O)c2c1O
REMARK SMILES IDX 1 1 2 2 3 3 4 4 16 5 13 6 11 7 9 8 5 9 17 10 19 11 20 12
REMARK SMILES IDX 37 13 21 14 36 15 23 16 22 17 24 18 33 19 25 20 31 21 29 22
REMARK SMILES IDX 38 23 34 25 35 26 26 27 27 28 28 29 32 30 30 32 18 34 6 36
REMARK SMILES IDX 7 37 8 38 14 39 15 40 10 41 12 43
REMARK H PARENT 38 24 32 31 30 33 18 35 10 42 12 44
REMARK Flexibility Score: inf
ROOT
ATOM      1  C   UNL     1      -2.571   8.845 -31.164  1.00  0.00     0.045 C 
ATOM      2  C   UNL     1      -2.689   7.662 -32.095  1.00  0.00    -0.039 A 
ATOM      3  C   UNL     1      -3.332   6.505 -31.652  1.00  0.00     0.013 A 
ATOM      4  C   UNL     1      -3.458   5.357 -32.463  1.00  0.00    -0.006 A 
ATOM      5  C   UNL     1      -2.911   5.396 -33.783  1.00  0.00     0.039 A 
ATOM      6  C   UNL     1      -2.952   4.219 -34.584  1.00  0.00     0.072 A 
ATOM      7  C   UNL     1      -3.664   3.093 -34.142  1.00  0.00     0.169 A 
ATOM      8  C   UNL     1      -4.314   3.103 -32.896  1.00  0.00     0.162 A 
ATOM      9  C   UNL     1      -4.137   4.183 -32.000  1.00  0.00     0.008 A 
ATOM     10  C   UNL     1      -2.367   6.621 -34.272  1.00  0.00     0.132 A 
ATOM     11  C   UNL     1      -2.222   7.732 -33.415  1.00  0.00     0.031 A 
ENDROOT
BRANCH  11  12
ATOM     12  C   UNL     1      -1.590   8.983 -33.910  1.00  0.00     0.031 A 
ATOM     13  C   UNL     1      -2.382   9.993 -34.496  1.00  0.00     0.132 A 
ATOM     14  C   UNL     1      -0.198   9.143 -33.823  1.00  0.00    -0.039 A 
ATOM     15  C   UNL     1      -1.791  11.222 -34.908  1.00  0.00     0.039 A 
ATOM     16  C   UNL     1       0.397  10.296 -34.341  1.00  0.00     0.013 A 
ATOM     17  C   UNL     1       0.679   8.053 -33.257  1.00  0.00     0.045 C 
ATOM     18  C   UNL     1      -0.373  11.363 -34.857  1.00  0.00    -0.006 A 
ATOM     19  C   UNL     1      -2.570  12.296 -35.424  1.00  0.00     0.072 A 
ATOM     20  C   UNL     1       0.247  12.545 -35.371  1.00  0.00     0.008 A 
ATOM     21  C   UNL     1      -1.942  13.362 -36.087  1.00  0.00     0.169 A 
ATOM     22  C   UNL     1      -0.539  13.444 -36.127  1.00  0.00     0.162 A 
BRANCH  13  23
ATOM     23  O   UNL     1      -3.741   9.754 -34.725  1.00  0.00    -0.507 OA
ATOM     24  H   UNL     1      -4.412   9.568 -33.991  1.00  0.00     0.293 HD
ENDBRANCH  13  23
BRANCH  19  25
ATOM     25  C   UNL     1      -4.034  12.397 -35.229  1.00  0.00     0.264 C 
ATOM     26  O   UNL     1      -4.831  12.008 -36.124  1.00  0.00    -0.298 OA
ENDBRANCH  19  25
BRANCH  20  27
ATOM     27  C   UNL     1       1.746  12.828 -35.169  1.00  0.00     0.017 C 
ATOM     28  C   UNL     1       2.034  13.249 -33.724  1.00  0.00     0.012 C 
ATOM     29  C   UNL     1       2.662  11.670 -35.607  1.00  0.00     0.012 C 
ENDBRANCH  20  27
BRANCH  21  30
ATOM     30  O   UNL     1      -2.744  14.359 -36.657  1.00  0.00    -0.504 OA
ATOM     31  H   UNL     1      -2.864  15.283 -36.264  1.00  0.00     0.293 HD
ENDBRANCH  21  30
BRANCH  22  32
ATOM     32  O   UNL     1       0.096  14.404 -36.919  1.00  0.00    -0.504 OA
ATOM     33  H   UNL     1      -0.186  15.373 -36.971  1.00  0.00     0.293 HD
ENDBRANCH  22  32
ENDBRANCH  11  12
BRANCH  10  34
ATOM     34  O   UNL     1      -2.019   6.749 -35.623  1.00  0.00    -0.507 OA
ATOM     35  H   UNL     1      -1.739   7.621 -36.053  1.00  0.00     0.293 HD
ENDBRANCH  10  34
BRANCH   9  36
ATOM     36  C   UNL     1      -4.730   4.039 -30.583  1.00  0.00     0.017 C 
ATOM     37  C   UNL     1      -3.684   4.113 -29.449  1.00  0.00     0.012 C 
ATOM     38  C   UNL     1      -5.930   4.971 -30.362  1.00  0.00     0.012 C 
ENDBRANCH   9  36
BRANCH   6  39
ATOM     39  C   UNL     1      -2.163   4.094 -35.834  1.00  0.00     0.264 C 
ATOM     40  O   UNL     1      -2.724   4.105 -36.962  1.00  0.00    -0.298 OA
ENDBRANCH   6  39
BRANCH   8  41
ATOM     41  O   UNL     1      -5.153   2.044 -32.527  1.00  0.00    -0.504 OA
ATOM     42  H   UNL     1      -6.096   2.160 -32.182  1.00  0.00     0.293 HD
ENDBRANCH   8  41
BRANCH   7  43
ATOM     43  O   UNL     1      -3.671   1.946 -34.947  1.00  0.00    -0.504 OA
ATOM     44  H   UNL     1      -4.505   1.438 -35.204  1.00  0.00     0.293 HD
ENDBRANCH   7  43
TORSDOF 11
ENDMDL
MODEL 4
REMARK VINA RESULT:    -6.222      0.337      8.984
REMARK INTER + INTRA:         -10.752
REMARK INTER:                  -9.153
REMARK INTRA:                  -1.599
REMARK UNBOUND:                -1.620
REMARK SMILES Cc1cc2c(C(C)C)c(O)c(O)c(C=O)c2c(O)c1-c1c(C)cc2c(C(C)C)c(O)c(O)c(C=O)c2c1O
REMARK SMILES IDX 1 1 2 2 3 3 4 4 16 5 13 6 11 7 9 8 5 9 17 10 19 11 20 12
REMARK SMILES IDX 37 13 21 14 36 15 23 16 22 17 24 18 33 19 25 20 31 21 29 22
REMARK SMILES IDX 38 23 34 25 35 26 26 27 27 28 28 29 32 30 30 32 18 34 6 36
REMARK SMILES IDX 7 37 8 38 14 39 15 40 10 41 12 43
REMARK H PARENT 38 24 32 31 30 33 18 35 10 42 12 44
REMARK Flexibility Score: inf
ROOT
ATOM      1  C   UNL     1      -1.556   6.089 -30.704  1.00  0.00     0.045 C 
ATOM      2  C   UNL     1      -0.897   7.157 -31.542  1.00  0.00    -0.039 A 
ATOM      3  C   UNL     1       0.239   7.805 -31.054  1.00  0.00     0.013 A 
ATOM      4  C   UNL     1       0.891   8.827 -31.776  1.00  0.00    -0.006 A 
ATOM      5  C   UNL     1       0.364   9.197 -33.052  1.00  0.00     0.039 A 
ATOM      6  C   UNL     1       0.956  10.285 -33.756  1.00  0.00     0.072 A 
ATOM      7  C   UNL     1       2.138  10.873 -33.277  1.00  0.00     0.169 A 
ATOM      8  C   UNL     1       2.729  10.418 -32.086  1.00  0.00     0.162 A 
ATOM      9  C   UNL     1       2.067   9.470 -31.269  1.00  0.00     0.008 A 
ATOM     10  C   UNL     1      -0.720   8.448 -33.599  1.00  0.00     0.132 A 
ATOM     11  C   UNL     1      -1.369   7.462 -32.826  1.00  0.00     0.031 A 
ENDROOT
BRANCH  11  12
ATOM     12  C   UNL     1      -2.542   6.733 -33.374  1.00  0.00     0.031 A 
ATOM     13  C   UNL     1      -3.848   7.210 -33.134  1.00  0.00     0.132 A 
ATOM     14  C   UNL     1      -2.350   5.548 -34.103  1.00  0.00    -0.039 A 
ATOM     15  C   UNL     1      -4.972   6.555 -33.714  1.00  0.00     0.039 A 
ATOM     16  C   UNL     1      -3.459   4.836 -34.566  1.00  0.00     0.013 A 
ATOM     17  C   UNL     1      -0.968   4.983 -34.321  1.00  0.00     0.045 C 
ATOM     18  C   UNL     1      -4.775   5.329 -34.418  1.00  0.00    -0.006 A 
ATOM     19  C   UNL     1      -6.296   7.055 -33.566  1.00  0.00     0.072 A 
ATOM     20  C   UNL     1      -5.902   4.598 -34.910  1.00  0.00     0.008 A 
ATOM     21  C   UNL     1      -7.394   6.243 -33.890  1.00  0.00     0.169 A 
ATOM     22  C   UNL     1      -7.193   4.986 -34.488  1.00  0.00     0.162 A 
BRANCH  13  23
ATOM     23  O   UNL     1      -4.036   8.296 -32.272  1.00  0.00    -0.507 OA
ATOM     24  H   UNL     1      -4.940   8.590 -31.924  1.00  0.00     0.293 HD
ENDBRANCH  13  23
BRANCH  19  25
ATOM     25  C   UNL     1      -6.590   8.447 -33.153  1.00  0.00     0.264 C 
ATOM     26  O   UNL     1      -7.046   8.694 -32.005  1.00  0.00    -0.298 OA
ENDBRANCH  19  25
BRANCH  20  27
ATOM     27  C   UNL     1      -5.736   3.379 -35.833  1.00  0.00     0.017 C 
ATOM     28  C   UNL     1      -5.007   3.764 -37.125  1.00  0.00     0.012 C 
ATOM     29  C   UNL     1      -5.067   2.170 -35.153  1.00  0.00     0.012 C 
ENDBRANCH  20  27
BRANCH  21  30
ATOM     30  O   UNL     1      -8.683   6.737 -33.652  1.00  0.00    -0.504 OA
ATOM     31  H   UNL     1      -8.881   7.683 -33.358  1.00  0.00     0.293 HD
ENDBRANCH  21  30
BRANCH  22  32
ATOM     32  O   UNL     1      -8.262   4.104 -34.664  1.00  0.00    -0.504 OA
ATOM     33  H   UNL     1      -9.081   4.081 -34.075  1.00  0.00     0.293 HD
ENDBRANCH  22  32
ENDBRANCH  11  12
BRANCH  10  34
ATOM     34  O   UNL     1      -1.117   8.647 -34.927  1.00  0.00    -0.507 OA
ATOM     35  H   UNL     1      -0.905   9.481 -35.460  1.00  0.00     0.293 HD
ENDBRANCH  10  34
BRANCH   9  36
ATOM     36  C   UNL     1       2.688   9.159 -29.892  1.00  0.00     0.017 C 
ATOM     37  C   UNL     1       1.766   9.485 -28.695  1.00  0.00     0.012 C 
ATOM     38  C   UNL     1       3.282   7.745 -29.831  1.00  0.00     0.012 C 
ENDBRANCH   9  36
BRANCH   6  39
ATOM     39  C   UNL     1       0.301  10.907 -34.933  1.00  0.00     0.264 C 
ATOM     40  O   UNL     1       0.817  10.836 -36.079  1.00  0.00    -0.298 OA
ENDBRANCH   6  39
BRANCH   8  41
ATOM     41  O   UNL     1       3.986  10.893 -31.693  1.00  0.00    -0.504 OA
ATOM     42  H   UNL     1       4.783  10.302 -31.504  1.00  0.00     0.293 HD
ENDBRANCH   8  41
BRANCH   7  43
ATOM     43  O   UNL     1       2.685  11.951 -33.985  1.00  0.00    -0.504 OA
ATOM     44  H   UNL     1       3.294  11.854 -34.785  1.00  0.00     0.293 HD
ENDBRANCH   7  43
TORSDOF 11
ENDMDL
MODEL 5
REMARK VINA RESULT:    -6.203      5.330      7.953
REMARK INTER + INTRA:         -10.723
REMARK INTER:                  -9.222
REMARK INTRA:                  -1.501
REMARK UNBOUND:                -1.620
REMARK SMILES Cc1cc2c(C(C)C)c(O)c(O)c(C=O)c2c(O)c1-c1c(C)cc2c(C(C)C)c(O)c(O)c(C=O)c2c1O
REMARK SMILES IDX 1 1 2 2 3 3 4 4 16 5 13 6 11 7 9 8 5 9 17 10 19 11 20 12
REMARK SMILES IDX 37 13 21 14 36 15 23 16 22 17 24 18 33 19 25 20 31 21 29 22
REMARK SMILES IDX 38 23 34 25 35 26 26 27 27 28 28 29 32 30 30 32 18 34 6 36
REMARK SMILES IDX 7 37 8 38 14 39 15 40 10 41 12 43
REMARK H PARENT 38 24 32 31 30 33 18 35 10 42 12 44
REMARK Flexibility Score: inf
ROOT
ATOM      1  C   UNL     1      -4.309   0.694 -34.624  1.00  0.00     0.045 C 
ATOM      2  C   UNL     1      -4.151   1.985 -33.858  1.00  0.00    -0.039 A 
ATOM      3  C   UNL     1      -5.154   2.953 -33.937  1.00  0.00     0.013 A 
ATOM      4  C   UNL     1      -5.059   4.190 -33.264  1.00  0.00    -0.006 A 
ATOM      5  C   UNL     1      -3.897   4.444 -32.472  1.00  0.00     0.039 A 
ATOM      6  C   UNL     1      -3.744   5.719 -31.856  1.00  0.00     0.072 A 
ATOM      7  C   UNL     1      -4.796   6.648 -31.894  1.00  0.00     0.169 A 
ATOM      8  C   UNL     1      -5.993   6.344 -32.565  1.00  0.00     0.162 A 
ATOM      9  C   UNL     1      -6.105   5.167 -33.341  1.00  0.00     0.008 A 
ATOM     10  C   UNL     1      -2.937   3.403 -32.295  1.00  0.00     0.132 A 
ATOM     11  C   UNL     1      -3.048   2.198 -33.020  1.00  0.00     0.031 A 
ENDROOT
BRANCH  11  12
ATOM     12  C   UNL     1      -2.008   1.144 -32.886  1.00  0.00     0.031 A 
ATOM     13  C   UNL     1      -0.894   1.134 -33.751  1.00  0.00     0.132 A 
ATOM     14  C   UNL     1      -2.154   0.138 -31.917  1.00  0.00    -0.039 A 
ATOM     15  C   UNL     1       0.140   0.169 -33.583  1.00  0.00     0.039 A 
ATOM     16  C   UNL     1      -1.204  -0.882 -31.834  1.00  0.00     0.013 A 
ATOM     17  C   UNL     1      -3.367   0.091 -31.020  1.00  0.00     0.045 C 
ATOM     18  C   UNL     1      -0.034  -0.875 -32.626  1.00  0.00    -0.006 A 
ATOM     19  C   UNL     1       1.318   0.180 -34.380  1.00  0.00     0.072 A 
ATOM     20  C   UNL     1       0.940  -1.917 -32.521  1.00  0.00     0.008 A 
ATOM     21  C   UNL     1       2.167  -0.938 -34.394  1.00  0.00     0.169 A 
ATOM     22  C   UNL     1       1.932  -2.016 -33.522  1.00  0.00     0.162 A 
BRANCH  13  23
ATOM     23  O   UNL     1      -0.842   2.042 -34.815  1.00  0.00    -0.507 OA
ATOM     24  H   UNL     1      -0.894   3.046 -34.701  1.00  0.00     0.293 HD
ENDBRANCH  13  23
BRANCH  19  25
ATOM     25  C   UNL     1       1.756   1.363 -35.157  1.00  0.00     0.264 C 
ATOM     26  O   UNL     1       1.620   1.397 -36.409  1.00  0.00    -0.298 OA
ENDBRANCH  19  25
BRANCH  20  27
ATOM     27  C   UNL     1       0.898  -2.954 -31.385  1.00  0.00     0.017 C 
ATOM     28  C   UNL     1       0.991  -2.272 -30.016  1.00  0.00     0.012 C 
ATOM     29  C   UNL     1      -0.311  -3.905 -31.455  1.00  0.00     0.012 C 
ENDBRANCH  20  27
BRANCH  21  30
ATOM     30  O   UNL     1       3.272  -0.927 -35.255  1.00  0.00    -0.504 OA
ATOM     31  H   UNL     1       3.435  -1.617 -35.975  1.00  0.00     0.293 HD
ENDBRANCH  21  30
BRANCH  22  32
ATOM     32  O   UNL     1       2.667  -3.199 -33.640  1.00  0.00    -0.504 OA
ATOM     33  H   UNL     1       2.334  -4.030 -34.105  1.00  0.00     0.293 HD
ENDBRANCH  22  32
ENDBRANCH  11  12
BRANCH  10  34
ATOM     34  O   UNL     1      -1.903   3.547 -31.362  1.00  0.00    -0.507 OA
ATOM     35  H   UNL     1      -0.921   3.566 -31.606  1.00  0.00     0.293 HD
ENDBRANCH  10  34
BRANCH   9  36
ATOM     36  C   UNL     1      -7.379   4.994 -34.194  1.00  0.00     0.017 C 
ATOM     37  C   UNL     1      -7.113   4.496 -35.633  1.00  0.00     0.012 C 
ATOM     38  C   UNL     1      -8.458   4.183 -33.463  1.00  0.00     0.012 C 
ENDBRANCH   9  36
BRANCH   6  39
ATOM     39  C   UNL     1      -2.455   6.155 -31.266  1.00  0.00     0.264 C 
ATOM     40  O   UNL     1      -2.316   6.271 -30.019  1.00  0.00    -0.298 OA
ENDBRANCH   6  39
BRANCH   8  41
ATOM     41  O   UNL     1      -7.096   7.202 -32.468  1.00  0.00    -0.504 OA
ATOM     42  H   UNL     1      -8.052   6.918 -32.629  1.00  0.00     0.293 HD
ENDBRANCH   8  41
BRANCH   7  43
ATOM     43  O   UNL     1      -4.607   7.899 -31.293  1.00  0.00    -0.504 OA
ATOM     44  H   UNL     1      -4.232   8.708 -31.769  1.00  0.00     0.293 HD
ENDBRANCH   7  43
TORSDOF 11
ENDMDL
MODEL 6
REMARK VINA RESULT:    -6.196      3.125      8.130
REMARK INTER + INTRA:         -10.714
REMARK INTER:                  -9.065
REMARK INTRA:                  -1.648
REMARK UNBOUND:                -1.620
REMARK SMILES Cc1cc2c(C(C)C)c(O)c(O)c(C=O)c2c(O)c1-c1c(C)cc2c(C(C)C)c(O)c(O)c(C=O)c2c1O
REMARK SMILES IDX 1 1 2 2 3 3 4 4 16 5 13 6 11 7 9 8 5 9 17 10 19 11 20 12
REMARK SMILES IDX 37 13 21 14 36 15 23 16 22 17 24 18 33 19 25 20 31 21 29 22
REMARK SMILES IDX 38 23 34 25 35 26 26 27 27 28 28 29 32 30 30 32 18 34 6 36
REMARK SMILES IDX 7 37 8 38 14 39 15 40 10 41 12 43
REMARK H PARENT 38 24 32 31 30 33 18 35 10 42 12 44
REMARK Flexibility Score: inf
ROOT
ATOM      1  C   UNL     1       0.479   8.474 -32.614  1.00  0.00     0.045 C 
ATOM      2  C   UNL     1      -0.333   9.459 -33.418  1.00  0.00    -0.039 A 
ATOM      3  C   UNL     1       0.295  10.584 -33.958  1.00  0.00     0.013 A 
ATOM      4  C   UNL     1      -0.410  11.554 -34.701  1.00  0.00    -0.006 A 
ATOM      5  C   UNL     1      -1.811  11.364 -34.909  1.00  0.00     0.039 A 
ATOM      6  C   UNL     1      -2.555  12.376 -35.582  1.00  0.00     0.072 A 
ATOM      7  C   UNL     1      -1.889  13.461 -36.173  1.00  0.00     0.169 A 
ATOM      8  C   UNL     1      -0.492  13.578 -36.080  1.00  0.00     0.162 A 
ATOM      9  C   UNL     1       0.252  12.695 -35.263  1.00  0.00     0.008 A 
ATOM     10  C   UNL     1      -2.420  10.153 -34.464  1.00  0.00     0.132 A 
ATOM     11  C   UNL     1      -1.689   9.229 -33.688  1.00  0.00     0.031 A 
ENDROOT
BRANCH  11  12
ATOM     12  C   UNL     1      -2.347   8.002 -33.166  1.00  0.00     0.031 A 
ATOM     13  C   UNL     1      -2.335   6.814 -33.927  1.00  0.00     0.132 A 
ATOM     14  C   UNL     1      -3.011   8.038 -31.929  1.00  0.00    -0.039 A 
ATOM     15  C   UNL     1      -2.903   5.617 -33.402  1.00  0.00     0.039 A 
ATOM     16  C   UNL     1      -3.676   6.899 -31.471  1.00  0.00     0.013 A 
ATOM     17  C   UNL     1      -3.092   9.313 -31.125  1.00  0.00     0.045 C 
ATOM     18  C   UNL     1      -3.612   5.669 -32.165  1.00  0.00    -0.006 A 
ATOM     19  C   UNL     1      -2.833   4.380 -34.102  1.00  0.00     0.072 A 
ATOM     20  C   UNL     1      -4.285   4.505 -31.678  1.00  0.00     0.008 A 
ATOM     21  C   UNL     1      -3.644   3.305 -33.708  1.00  0.00     0.169 A 
ATOM     22  C   UNL     1      -4.427   3.397 -32.543  1.00  0.00     0.162 A 
BRANCH  13  23
ATOM     23  O   UNL     1      -1.814   6.834 -35.225  1.00  0.00    -0.507 OA
ATOM     24  H   UNL     1      -2.232   6.346 -36.008  1.00  0.00     0.293 HD
ENDBRANCH  13  23
BRANCH  19  25
ATOM     25  C   UNL     1      -1.874   4.128 -35.201  1.00  0.00     0.264 C 
ATOM     26  O   UNL     1      -2.268   4.056 -36.395  1.00  0.00    -0.298 OA
ENDBRANCH  19  25
BRANCH  20  27
ATOM     27  C   UNL     1      -4.899   4.455 -30.268  1.00  0.00     0.017 C 
ATOM     28  C   UNL     1      -6.423   4.612 -30.329  1.00  0.00     0.012 C 
ATOM     29  C   UNL     1      -4.497   3.209 -29.457  1.00  0.00     0.012 C 
ENDBRANCH  20  27
BRANCH  21  30
ATOM     30  O   UNL     1      -3.614   2.130 -34.471  1.00  0.00    -0.504 OA
ATOM     31  H   UNL     1      -2.783   1.573 -34.619  1.00  0.00     0.293 HD
ENDBRANCH  21  30
BRANCH  22  32
ATOM     32  O   UNL     1      -5.358   2.403 -32.231  1.00  0.00    -0.504 OA
ATOM     33  H   UNL     1      -5.455   1.537 -32.740  1.00  0.00     0.293 HD
ENDBRANCH  22  32
ENDBRANCH  11  12
BRANCH  10  34
ATOM     34  O   UNL     1      -3.734   9.845 -34.836  1.00  0.00    -0.507 OA
ATOM     35  H   UNL     1      -3.976   9.149 -35.530  1.00  0.00     0.293 HD
ENDBRANCH  10  34
BRANCH   9  36
ATOM     36  C   UNL     1       1.752  12.999 -35.065  1.00  0.00     0.017 C 
ATOM     37  C   UNL     1       2.126  13.421 -33.627  1.00  0.00     0.012 C 
ATOM     38  C   UNL     1       2.646  11.882 -35.620  1.00  0.00     0.012 C 
ENDBRANCH   9  36
BRANCH   6  39
ATOM     39  C   UNL     1      -4.038  12.387 -35.584  1.00  0.00     0.264 C 
ATOM     40  O   UNL     1      -4.691  11.990 -36.586  1.00  0.00    -0.298 OA
ENDBRANCH   6  39
BRANCH   8  41
ATOM     41  O   UNL     1       0.185  14.570 -36.801  1.00  0.00    -0.504 OA
ATOM     42  H   UNL     1       0.434  14.492 -37.777  1.00  0.00     0.293 HD
ENDBRANCH   8  41
BRANCH   7  43
ATOM     43  O   UNL     1      -2.652  14.446 -36.814  1.00  0.00    -0.504 OA
ATOM     44  H   UNL     1      -2.967  15.298 -36.370  1.00  0.00     0.293 HD
ENDBRANCH   7  43
TORSDOF 11
ENDMDL
MODEL 7
REMARK VINA RESULT:    -6.174      2.971      9.080
REMARK INTER + INTRA:         -10.682
REMARK INTER:                  -9.075
REMARK INTRA:                  -1.606
REMARK UNBOUND:                -1.620
REMARK SMILES Cc1cc2c(C(C)C)c(O)c(O)c(C=O)c2c(O)c1-c1c(C)cc2c(C(C)C)c(O)c(O)c(C=O)c2c1O
REMARK SMILES IDX 1 1 2 2 3 3 4 4 16 5 13 6 11 7 9 8 5 9 17 10 19 11 20 12
REMARK SMILES IDX 37 13 21 14 36 15 23 16 22 17 24 18 33 19 25 20 31 21 29 22
REMARK SMILES IDX 38 23 34 25 35 26 26 27 27 28 28 29 32 30 30 32 18 34 6 36
REMARK SMILES IDX 7 37 8 38 14 39 15 40 10 41 12 43
REMARK H PARENT 38 24 32 31 30 33 18 35 10 42 12 44
REMARK Flexibility Score: inf
ROOT
ATOM      1  C   UNL     1       0.727   5.315 -30.770  1.00  0.00     0.045 C 
ATOM      2  C   UNL     1       0.859   6.594 -31.559  1.00  0.00    -0.039 A 
ATOM      3  C   UNL     1       1.606   7.649 -31.032  1.00  0.00     0.013 A 
ATOM      4  C   UNL     1       1.752   8.879 -31.707  1.00  0.00    -0.006 A 
ATOM      5  C   UNL     1       1.114   9.036 -32.977  1.00  0.00     0.039 A 
ATOM      6  C   UNL     1       1.179  10.299 -33.633  1.00  0.00     0.072 A 
ATOM      7  C   UNL     1       1.992  11.319 -33.115  1.00  0.00     0.169 A 
ATOM      8  C   UNL     1       2.724  11.117 -31.932  1.00  0.00     0.162 A 
ATOM      9  C   UNL     1       2.537   9.946 -31.160  1.00  0.00     0.008 A 
ATOM     10  C   UNL     1       0.459   7.914 -33.566  1.00  0.00     0.132 A 
ATOM     11  C   UNL     1       0.299   6.716 -32.839  1.00  0.00     0.031 A 
ENDROOT
BRANCH  11  12
ATOM     12  C   UNL     1      -0.447   5.574 -33.430  1.00  0.00     0.031 A 
ATOM     13  C   UNL     1       0.228   4.619 -34.220  1.00  0.00     0.132 A 
ATOM     14  C   UNL     1      -1.832   5.466 -33.228  1.00  0.00    -0.039 A 
ATOM     15  C   UNL     1      -0.467   3.486 -34.730  1.00  0.00     0.039 A 
ATOM     16  C   UNL     1      -2.537   4.423 -33.833  1.00  0.00     0.013 A 
ATOM     17  C   UNL     1      -2.588   6.507 -32.439  1.00  0.00     0.045 C 
ATOM     18  C   UNL     1      -1.881   3.403 -34.559  1.00  0.00    -0.006 A 
ATOM     19  C   UNL     1       0.197   2.459 -35.457  1.00  0.00     0.072 A 
ATOM     20  C   UNL     1      -2.612   2.332 -35.160  1.00  0.00     0.008 A 
ATOM     21  C   UNL     1      -0.549   1.523 -36.190  1.00  0.00     0.169 A 
ATOM     22  C   UNL     1      -1.952   1.511 -36.103  1.00  0.00     0.162 A 
BRANCH  13  23
ATOM     23  O   UNL     1       1.573   4.826 -34.548  1.00  0.00    -0.507 OA
ATOM     24  H   UNL     1       2.264   4.087 -34.584  1.00  0.00     0.293 HD
ENDBRANCH  13  23
BRANCH  19  25
ATOM     25  C   UNL     1       1.665   2.266 -35.423  1.00  0.00     0.264 C 
ATOM     26  O   UNL     1       2.363   2.452 -36.455  1.00  0.00    -0.298 OA
ENDBRANCH  19  25
BRANCH  20  27
ATOM     27  C   UNL     1      -4.100   2.092 -34.851  1.00  0.00     0.017 C 
ATOM     28  C   UNL     1      -4.981   2.521 -36.029  1.00  0.00     0.012 C 
ATOM     29  C   UNL     1      -4.419   0.651 -34.408  1.00  0.00     0.012 C 
ENDBRANCH  20  27
BRANCH  21  30
ATOM     30  O   UNL     1       0.139   0.578 -36.963  1.00  0.00    -0.504 OA
ATOM     31  H   UNL     1      -0.239  -0.322 -37.226  1.00  0.00     0.293 HD
ENDBRANCH  21  30
BRANCH  22  32
ATOM     32  O   UNL     1      -2.711   0.697 -36.948  1.00  0.00    -0.504 OA
ATOM     33  H   UNL     1      -3.236   1.036 -37.740  1.00  0.00     0.293 HD
ENDBRANCH  22  32
ENDBRANCH  11  12
BRANCH  10  34
ATOM     34  O   UNL     1       0.011   7.974 -34.892  1.00  0.00    -0.507 OA
ATOM     35  H   UNL     1       0.273   7.307 -35.607  1.00  0.00     0.293 HD
ENDBRANCH  10  34
BRANCH   9  36
ATOM     36  C   UNL     1       3.235   9.880 -29.786  1.00  0.00     0.017 C 
ATOM     37  C   UNL     1       2.275  10.021 -28.583  1.00  0.00     0.012 C 
ATOM     38  C   UNL     1       4.174   8.671 -29.671  1.00  0.00     0.012 C 
ENDBRANCH   9  36
BRANCH   6  39
ATOM     39  C   UNL     1       0.317  10.622 -34.796  1.00  0.00     0.264 C 
ATOM     40  O   UNL     1       0.806  10.777 -35.946  1.00  0.00    -0.298 OA
ENDBRANCH   6  39
BRANCH   8  41
ATOM     41  O   UNL     1       3.655  12.072 -31.504  1.00  0.00    -0.504 OA
ATOM     42  H   UNL     1       3.938  12.874 -32.050  1.00  0.00     0.293 HD
ENDBRANCH   8  41
BRANCH   7  43
ATOM     43  O   UNL     1       2.020  12.554 -33.775  1.00  0.00    -0.504 OA
ATOM     44  H   UNL     1       2.068  12.660 -34.779  1.00  0.00     0.293 HD
ENDBRANCH   7  43
TORSDOF 11
ENDMDL
MODEL 8
REMARK VINA RESULT:    -6.113      2.381      8.787
REMARK INTER + INTRA:         -10.591
REMARK INTER:                  -9.161
REMARK INTRA:                  -1.431
REMARK UNBOUND:                -1.620
REMARK SMILES Cc1cc2c(C(C)C)c(O)c(O)c(C=O)c2c(O)c1-c1c(C)cc2c(C(C)C)c(O)c(O)c(C=O)c2c1O
REMARK SMILES IDX 1 1 2 2 3 3 4 4 16 5 13 6 11 7 9 8 5 9 17 10 19 11 20 12
REMARK SMILES IDX 37 13 21 14 36 15 23 16 22 17 24 18 33 19 25 20 31 21 29 22
REMARK SMILES IDX 38 23 34 25 35 26 26 27 27 28 28 29 32 30 30 32 18 34 6 36
REMARK SMILES IDX 7 37 8 38 14 39 15 40 10 41 12 43
REMARK H PARENT 38 24 32 31 30 33 18 35 10 42 12 44
REMARK Flexibility Score: inf
ROOT
ATOM      1  C   UNL     1      -0.876   7.980 -31.679  1.00  0.00     0.045 C 
ATOM      2  C   UNL     1      -1.089   9.217 -32.517  1.00  0.00    -0.039 A 
ATOM      3  C   UNL     1      -0.148  10.248 -32.466  1.00  0.00     0.013 A 
ATOM      4  C   UNL     1      -0.297  11.439 -33.207  1.00  0.00    -0.006 A 
ATOM      5  C   UNL     1      -1.451  11.580 -34.039  1.00  0.00     0.039 A 
ATOM      6  C   UNL     1      -1.662  12.810 -34.727  1.00  0.00     0.072 A 
ATOM      7  C   UNL     1      -0.669  13.802 -34.713  1.00  0.00     0.169 A 
ATOM      8  C   UNL     1       0.526  13.607 -33.999  1.00  0.00     0.162 A 
ATOM      9  C   UNL     1       0.686  12.481 -33.157  1.00  0.00     0.008 A 
ATOM     10  C   UNL     1      -2.342  10.475 -34.183  1.00  0.00     0.132 A 
ATOM     11  C   UNL     1      -2.179   9.318 -33.392  1.00  0.00     0.031 A 
ENDROOT
BRANCH  11  12
ATOM     12  C   UNL     1      -3.150   8.198 -33.494  1.00  0.00     0.031 A 
ATOM     13  C   UNL     1      -2.918   7.138 -34.396  1.00  0.00     0.132 A 
ATOM     14  C   UNL     1      -4.318   8.213 -32.715  1.00  0.00    -0.039 A 
ATOM     15  C   UNL     1      -3.809   6.028 -34.448  1.00  0.00     0.039 A 
ATOM     16  C   UNL     1      -5.255   7.187 -32.857  1.00  0.00     0.013 A 
ATOM     17  C   UNL     1      -4.621   9.365 -31.788  1.00  0.00     0.045 C 
ATOM     18  C   UNL     1      -5.015   6.069 -33.687  1.00  0.00    -0.006 A 
ATOM     19  C   UNL     1      -3.562   4.902 -35.282  1.00  0.00     0.072 A 
ATOM     20  C   UNL     1      -5.975   5.016 -33.811  1.00  0.00     0.008 A 
ATOM     21  C   UNL     1      -4.587   3.976 -35.532  1.00  0.00     0.169 A 
ATOM     22  C   UNL     1      -5.816   4.080 -34.857  1.00  0.00     0.162 A 
BRANCH  13  23
ATOM     23  O   UNL     1      -1.838   7.214 -35.282  1.00  0.00    -0.507 OA
ATOM     24  H   UNL     1      -1.335   6.407 -35.629  1.00  0.00     0.293 HD
ENDBRANCH  13  23
BRANCH  19  25
ATOM     25  C   UNL     1      -2.230   4.598 -35.854  1.00  0.00     0.264 C 
ATOM     26  O   UNL     1      -1.612   3.551 -35.525  1.00  0.00    -0.298 OA
ENDBRANCH  19  25
BRANCH  20  27
ATOM     27  C   UNL     1      -7.194   4.917 -32.878  1.00  0.00     0.017 C 
ATOM     28  C   UNL     1      -8.500   5.080 -33.663  1.00  0.00     0.012 C 
ATOM     29  C   UNL     1      -7.215   3.641 -32.015  1.00  0.00     0.012 C 
ENDBRANCH  20  27
BRANCH  21  30
ATOM     30  O   UNL     1      -4.335   2.926 -36.425  1.00  0.00    -0.504 OA
ATOM     31  H   UNL     1      -3.952   3.051 -37.353  1.00  0.00     0.293 HD
ENDBRANCH  21  30
BRANCH  22  32
ATOM     32  O   UNL     1      -6.895   3.268 -35.216  1.00  0.00    -0.504 OA
ATOM     33  H   UNL     1      -7.350   3.295 -36.117  1.00  0.00     0.293 HD
ENDBRANCH  22  32
ENDBRANCH  11  12
BRANCH  10  34
ATOM     34  O   UNL     1      -3.356  10.507 -35.148  1.00  0.00    -0.507 OA
ATOM     35  H   UNL     1      -3.793   9.680 -35.535  1.00  0.00     0.293 HD
ENDBRANCH  10  34
BRANCH   9  36
ATOM     36  C   UNL     1       1.944  12.430 -32.266  1.00  0.00     0.017 C 
ATOM     37  C   UNL     1       1.644  12.419 -30.750  1.00  0.00     0.012 C 
ATOM     38  C   UNL     1       2.915  11.323 -32.699  1.00  0.00     0.012 C 
ENDBRANCH   9  36
BRANCH   6  39
ATOM     39  C   UNL     1      -2.958  13.135 -35.371  1.00  0.00     0.264 C 
ATOM     40  O   UNL     1      -3.088  13.106 -36.624  1.00  0.00    -0.298 OA
ENDBRANCH   6  39
BRANCH   8  41
ATOM     41  O   UNL     1       1.578  14.524 -34.115  1.00  0.00    -0.504 OA
ATOM     42  H   UNL     1       1.491  15.437 -34.539  1.00  0.00     0.293 HD
ENDBRANCH   8  41
BRANCH   7  43
ATOM     43  O   UNL     1      -0.915  15.006 -35.386  1.00  0.00    -0.504 OA
ATOM     44  H   UNL     1      -1.300  15.832 -34.950  1.00  0.00     0.293 HD
ENDBRANCH   7  43
TORSDOF 11
ENDMDL
MODEL 9
REMARK VINA RESULT:    -5.959      2.823      4.186
REMARK INTER + INTRA:         -10.366
REMARK INTER:                  -8.814
REMARK INTRA:                  -1.552
REMARK UNBOUND:                -1.620
REMARK SMILES Cc1cc2c(C(C)C)c(O)c(O)c(C=O)c2c(O)c1-c1c(C)cc2c(C(C)C)c(O)c(O)c(C=O)c2c1O
REMARK SMILES IDX 1 1 2 2 3 3 4 4 16 5 13 6 11 7 9 8 5 9 17 10 19 11 20 12
REMARK SMILES IDX 37 13 21 14 36 15 23 16 22 17 24 18 33 19 25 20 31 21 29 22
REMARK SMILES IDX 38 23 34 25 35 26 26 27 27 28 28 29 32 30 30 32 18 34 6 36
REMARK SMILES IDX 7 37 8 38 14 39 15 40 10 41 12 43
REMARK H PARENT 38 24 32 31 30 33 18 35 10 42 12 44
REMARK Flexibility Score: inf
ROOT
ATOM      1  C   UNL     1       2.986   5.290 -33.296  1.00  0.00     0.045 C 
ATOM      2  C   UNL     1       1.598   5.009 -33.818  1.00  0.00    -0.039 A 
ATOM      3  C   UNL     1       1.328   3.776 -34.414  1.00  0.00     0.013 A 
ATOM      4  C   UNL     1       0.059   3.456 -34.941  1.00  0.00    -0.006 A 
ATOM      5  C   UNL     1      -0.979   4.435 -34.850  1.00  0.00     0.039 A 
ATOM      6  C   UNL     1      -2.241   4.164 -35.454  1.00  0.00     0.072 A 
ATOM      7  C   UNL     1      -2.507   2.892 -35.984  1.00  0.00     0.169 A 
ATOM      8  C   UNL     1      -1.525   1.886 -35.955  1.00  0.00     0.162 A 
ATOM      9  C   UNL     1      -0.207   2.179 -35.534  1.00  0.00     0.008 A 
ATOM     10  C   UNL     1      -0.733   5.642 -34.130  1.00  0.00     0.132 A 
ATOM     11  C   UNL     1       0.562   5.940 -33.656  1.00  0.00     0.031 A 
ENDROOT
BRANCH  11  12
ATOM     12  C   UNL     1       0.830   7.230 -32.969  1.00  0.00     0.031 A 
ATOM     13  C   UNL     1       1.211   8.365 -33.716  1.00  0.00     0.132 A 
ATOM     14  C   UNL     1       0.736   7.309 -31.570  1.00  0.00    -0.039 A 
ATOM     15  C   UNL     1       1.401   9.621 -33.071  1.00  0.00     0.039 A 
ATOM     16  C   UNL     1       1.044   8.509 -30.925  1.00  0.00     0.013 A 
ATOM     17  C   UNL     1       0.390   6.095 -30.742  1.00  0.00     0.045 C 
ATOM     18  C   UNL     1       1.346   9.686 -31.647  1.00  0.00    -0.006 A 
ATOM     19  C   UNL     1       1.701  10.805 -33.801  1.00  0.00     0.072 A 
ATOM     20  C   UNL     1       1.645  10.913 -30.975  1.00  0.00     0.008 A 
ATOM     21  C   UNL     1       2.168  11.944 -33.128  1.00  0.00     0.169 A 
ATOM     22  C   UNL     1       2.213  11.969 -31.722  1.00  0.00     0.162 A 
BRANCH  13  23
ATOM     23  O   UNL     1       1.459   8.234 -35.086  1.00  0.00    -0.507 OA
ATOM     24  H   UNL     1       2.016   7.491 -35.489  1.00  0.00     0.293 HD
ENDBRANCH  13  23
BRANCH  19  25
ATOM     25  C   UNL     1       1.469  10.935 -35.258  1.00  0.00     0.264 C 
ATOM     26  O   UNL     1       2.437  11.072 -36.053  1.00  0.00    -0.298 OA
ENDBRANCH  19  25
BRANCH  20  27
ATOM     27  C   UNL     1       1.416  11.086 -29.464  1.00  0.00     0.017 C 
ATOM     28  C   UNL     1      -0.057  10.866 -29.103  1.00  0.00     0.012 C 
ATOM     29  C   UNL     1       2.341  10.217 -28.591  1.00  0.00     0.012 C 
ENDBRANCH  20  27
BRANCH  21  30
ATOM     30  O   UNL     1       2.535  13.064 -33.886  1.00  0.00    -0.504 OA
ATOM     31  H   UNL     1       3.485  13.395 -33.982  1.00  0.00     0.293 HD
ENDBRANCH  21  30
BRANCH  22  32
ATOM     32  O   UNL     1       2.826  13.028 -31.048  1.00  0.00    -0.504 OA
ATOM     33  H   UNL     1       3.806  13.056 -30.808  1.00  0.00     0.293 HD
ENDBRANCH  22  32
ENDBRANCH  11  12
BRANCH  10  34
ATOM     34  O   UNL     1      -1.785   6.520 -33.844  1.00  0.00    -0.507 OA
ATOM     35  H   UNL     1      -2.418   6.889 -34.542  1.00  0.00     0.293 HD
ENDBRANCH  10  34
BRANCH   9  36
ATOM     36  C   UNL     1       0.857   1.075 -35.704  1.00  0.00     0.017 C 
ATOM     37  C   UNL     1       2.143   1.541 -36.423  1.00  0.00     0.012 C 
ATOM     38  C   UNL     1       1.135   0.332 -34.389  1.00  0.00     0.012 C 
ENDBRANCH   9  36
BRANCH   6  39
ATOM     39  C   UNL     1      -3.259   5.224 -35.650  1.00  0.00     0.264 C 
ATOM     40  O   UNL     1      -4.324   5.237 -34.977  1.00  0.00    -0.298 OA
ENDBRANCH   6  39
BRANCH   8  41
ATOM     41  O   UNL     1      -1.842   0.576 -36.337  1.00  0.00    -0.504 OA
ATOM     42  H   UNL     1      -1.169  -0.174 -36.404  1.00  0.00     0.293 HD
ENDBRANCH   8  41
BRANCH   7  43
ATOM     43  O   UNL     1      -3.752   2.663 -36.585  1.00  0.00    -0.504 OA
ATOM     44  H   UNL     1      -4.314   1.839 -36.430  1.00  0.00     0.293 HD
ENDBRANCH   7  43
TORSDOF 11
ENDMDL
