MODEL 1
REMARK VINA RESULT:    -7.577      0.000      0.000
REMARK INTER + INTRA:          -9.506
REMARK INTER:                  -8.906
REMARK INTRA:                  -0.599
REMARK UNBOUND:                -0.599
REMARK SMILES C=C(C)[C@H]1CC[C@@]2(C(=O)[O-])CC[C@@]3(C)[C@@H](CC[C@H]4[C@@]5(C)C[C@H](O)[C@H](O)C(C)(C)[C@H]5CC[C@]43C)[C@@H]12
REMARK SMILES IDX 7 1 6 2 34 3 11 4 5 5 15 6 4 7 12 8 16 9 13 10 17 11 32 12
REMARK SMILES IDX 14 13 18 14 31 15 33 16 19 17 30 18 29 19 21 20 20 21 26 22
REMARK SMILES IDX 22 23 24 24 27 25 28 26 8 27 9 28 10 29 2 30 3 31 1 32 23 33
REMARK SMILES IDX 25 35
REMARK H PARENT 23 34 25 36
REMARK Flexibility Score: inf
ROOT
ATOM      1  C   UNL     1     -21.649  31.563  -2.458  1.00  0.00     0.014 C 
ATOM      2  C   UNL     1     -22.081  30.721  -1.223  1.00  0.00     0.014 C 
ATOM      3  C   UNL     1     -22.636  31.170  -3.621  1.00  0.00     0.012 C 
ATOM      4  C   UNL     1     -20.162  31.267  -2.820  1.00  0.00     0.014 C 
ATOM      5  C   UNL     1     -23.078  29.681  -1.712  1.00  0.00     0.009 C 
ATOM      6  C   UNL     1     -21.872  30.665  -4.906  1.00  0.00     0.000 C 
ATOM      7  C   UNL     1     -23.741  30.332  -2.921  1.00  0.00     0.018 C 
ATOM      8  C   UNL     1     -19.963  29.859  -3.397  1.00  0.00     0.008 C 
ATOM      9  C   UNL     1     -22.732  30.364  -6.132  1.00  0.00     0.005 C 
ATOM     10  C   UNL     1     -20.739  29.592  -4.741  1.00  0.00    -0.024 C 
ATOM     11  C   UNL     1     -21.871  30.479  -7.387  1.00  0.00     0.005 C 
ATOM     12  C   UNL     1     -19.754  29.619  -6.033  1.00  0.00    -0.024 C 
ATOM     13  C   UNL     1     -21.390  28.170  -4.619  1.00  0.00     0.012 C 
ATOM     14  C   UNL     1     -20.570  29.601  -7.405  1.00  0.00     0.002 C 
ATOM     15  C   UNL     1     -18.878  30.899  -6.105  1.00  0.00     0.008 C 
ATOM     16  C   UNL     1     -18.800  28.364  -5.922  1.00  0.00     0.012 C 
ATOM     17  C   UNL     1     -19.701  29.842  -8.764  1.00  0.00    -0.023 C 
ATOM     18  C   UNL     1     -17.870  30.913  -7.275  1.00  0.00     0.005 C 
ATOM     19  C   UNL     1     -18.150  29.944  -8.478  1.00  0.00     0.004 C 
ATOM     20  C   UNL     1     -20.108  31.155  -9.527  1.00  0.00     0.042 C 
ATOM     21  C   UNL     1     -20.032  28.611  -9.659  1.00  0.00     0.012 C 
ATOM     22  C   UNL     1     -17.224  30.297  -9.732  1.00  0.00    -0.003 C 
ATOM     23  C   UNL     1     -19.274  31.536 -10.766  1.00  0.00     0.144 C 
ATOM     24  C   UNL     1     -17.756  31.562 -10.476  1.00  0.00     0.149 C 
ATOM     25  C   UNL     1     -17.083  29.087 -10.712  1.00  0.00     0.014 C 
ATOM     26  C   UNL     1     -15.771  30.604  -9.256  1.00  0.00     0.014 C 
ENDROOT
BRANCH   1  27
ATOM     27  C   UNL     1     -21.789  33.042  -2.110  1.00  0.00     0.048 C 
ATOM     28  O   UNL     1     -20.820  33.830  -2.286  1.00  0.00    -0.550 OA
ATOM     29  O   UNL     1     -23.003  33.562  -1.671  1.00  0.00    -0.550 OA
ENDBRANCH   1  27
BRANCH   7  30
ATOM     30  C   UNL     1     -24.693  29.489  -3.768  1.00  0.00    -0.077 C 
ATOM     31  C   UNL     1     -25.790  30.185  -4.536  1.00  0.00     0.039 C 
ATOM     32  C   UNL     1     -24.734  28.145  -3.704  1.00  0.00     0.008 C 
ENDBRANCH   7  30
BRANCH  23  33
ATOM     33  O   UNL     1     -19.595  30.714 -11.857  1.00  0.00    -0.390 OA
ATOM     34  H   UNL     1     -20.400  30.189 -11.605  1.00  0.00     0.211 HD
ENDBRANCH  23  33
BRANCH  24  35
ATOM     35  O   UNL     1     -17.037  31.758 -11.671  1.00  0.00    -0.390 OA
ATOM     36  H   UNL     1     -17.685  32.080 -12.350  1.00  0.00     0.211 HD
ENDBRANCH  24  35
TORSDOF 4
ENDMDL
MODEL 2
REMARK VINA RESULT:    -7.412      2.288      3.572
REMARK INTER + INTRA:          -9.312
REMARK INTER:                  -8.705
REMARK INTRA:                  -0.607
REMARK UNBOUND:                -0.599
REMARK SMILES C=C(C)[C@H]1CC[C@@]2(C(=O)[O-])CC[C@@]3(C)[C@@H](CC[C@H]4[C@@]5(C)C[C@H](O)[C@H](O)C(C)(C)[C@H]5CC[C@]43C)[C@@H]12
REMARK SMILES IDX 7 1 6 2 34 3 11 4 5 5 15 6 4 7 12 8 16 9 13 10 17 11 32 12
REMARK SMILES IDX 14 13 18 14 31 15 33 16 19 17 30 18 29 19 21 20 20 21 26 22
REMARK SMILES IDX 22 23 24 24 27 25 28 26 8 27 9 28 10 29 2 30 3 31 1 32 23 33
REMARK SMILES IDX 25 35
REMARK H PARENT 23 34 25 36
REMARK Flexibility Score: inf
ROOT
ATOM      1  C   UNL     1     -20.301  31.745  -2.942  1.00  0.00     0.014 C 
ATOM      2  C   UNL     1     -20.819  30.813  -1.808  1.00  0.00     0.014 C 
ATOM      3  C   UNL     1     -20.557  30.974  -4.291  1.00  0.00     0.012 C 
ATOM      4  C   UNL     1     -18.792  32.071  -2.725  1.00  0.00     0.014 C 
ATOM      5  C   UNL     1     -21.096  29.454  -2.433  1.00  0.00     0.009 C 
ATOM      6  C   UNL     1     -19.238  30.808  -5.142  1.00  0.00     0.000 C 
ATOM      7  C   UNL     1     -21.447  29.768  -3.884  1.00  0.00     0.018 C 
ATOM      8  C   UNL     1     -17.884  30.858  -2.966  1.00  0.00     0.008 C 
ATOM      9  C   UNL     1     -19.397  30.172  -6.522  1.00  0.00     0.005 C 
ATOM     10  C   UNL     1     -17.940  30.286  -4.432  1.00  0.00    -0.024 C 
ATOM     11  C   UNL     1     -18.237  30.613  -7.412  1.00  0.00     0.005 C 
ATOM     12  C   UNL     1     -16.628  30.696  -5.300  1.00  0.00    -0.024 C 
ATOM     13  C   UNL     1     -18.011  28.724  -4.312  1.00  0.00     0.012 C 
ATOM     14  C   UNL     1     -16.800  30.336  -6.846  1.00  0.00     0.002 C 
ATOM     15  C   UNL     1     -16.333  32.220  -5.275  1.00  0.00     0.008 C 
ATOM     16  C   UNL     1     -15.393  29.936  -4.672  1.00  0.00     0.012 C 
ATOM     17  C   UNL     1     -15.641  30.893  -7.849  1.00  0.00    -0.023 C 
ATOM     18  C   UNL     1     -15.043  32.628  -6.020  1.00  0.00     0.005 C 
ATOM     19  C   UNL     1     -14.469  31.617  -7.074  1.00  0.00     0.004 C 
ATOM     20  C   UNL     1     -16.188  31.922  -8.905  1.00  0.00     0.042 C 
ATOM     21  C   UNL     1     -15.129  29.625  -8.593  1.00  0.00     0.012 C 
ATOM     22  C   UNL     1     -13.343  32.301  -7.979  1.00  0.00    -0.003 C 
ATOM     23  C   UNL     1     -15.156  32.594  -9.831  1.00  0.00     0.144 C 
ATOM     24  C   UNL     1     -13.985  33.235  -9.053  1.00  0.00     0.149 C 
ATOM     25  C   UNL     1     -12.406  31.241  -8.645  1.00  0.00     0.014 C 
ATOM     26  C   UNL     1     -12.402  33.174  -7.094  1.00  0.00     0.014 C 
ENDROOT
BRANCH   1  27
ATOM     27  C   UNL     1     -21.100  33.044  -2.904  1.00  0.00     0.048 C 
ATOM     28  O   UNL     1     -21.818  33.377  -3.885  1.00  0.00    -0.550 OA
ATOM     29  O   UNL     1     -21.116  33.841  -1.763  1.00  0.00    -0.550 OA
ENDBRANCH   1  27
BRANCH   7  30
ATOM     30  C   UNL     1     -21.624  28.604  -4.856  1.00  0.00    -0.077 C 
ATOM     31  C   UNL     1     -22.589  28.760  -6.006  1.00  0.00     0.039 C 
ATOM     32  C   UNL     1     -21.124  27.375  -4.626  1.00  0.00     0.008 C 
ENDBRANCH   7  30
BRANCH  23  33
ATOM     33  O   UNL     1     -14.714  31.702 -10.820  1.00  0.00    -0.390 OA
ATOM     34  H   UNL     1     -15.343  31.773 -11.586  1.00  0.00     0.211 HD
ENDBRANCH  23  33
BRANCH  24  35
ATOM     35  O   UNL     1     -12.999  33.692  -9.947  1.00  0.00    -0.390 OA
ATOM     36  H   UNL     1     -13.344  33.535 -10.865  1.00  0.00     0.211 HD
ENDBRANCH  24  35
TORSDOF 4
ENDMDL
MODEL 3
REMARK VINA RESULT:    -7.351      1.954      8.491
REMARK INTER + INTRA:          -9.240
REMARK INTER:                  -8.632
REMARK INTRA:                  -0.607
REMARK UNBOUND:                -0.599
REMARK SMILES C=C(C)[C@H]1CC[C@@]2(C(=O)[O-])CC[C@@]3(C)[C@@H](CC[C@H]4[C@@]5(C)C[C@H](O)[C@H](O)C(C)(C)[C@H]5CC[C@]43C)[C@@H]12
REMARK SMILES IDX 7 1 6 2 34 3 11 4 5 5 15 6 4 7 12 8 16 9 13 10 17 11 32 12
REMARK SMILES IDX 14 13 18 14 31 15 33 16 19 17 30 18 29 19 21 20 20 21 26 22
REMARK SMILES IDX 22 23 24 24 27 25 28 26 8 27 9 28 10 29 2 30 3 31 1 32 23 33
REMARK SMILES IDX 25 35
REMARK H PARENT 23 34 25 36
REMARK Flexibility Score: inf
ROOT
ATOM      1  C   UNL     1     -16.063  30.497  -9.421  1.00  0.00     0.014 C 
ATOM      2  C   UNL     1     -14.869  29.591  -9.843  1.00  0.00     0.014 C 
ATOM      3  C   UNL     1     -15.526  31.413  -8.259  1.00  0.00     0.012 C 
ATOM      4  C   UNL     1     -17.273  29.622  -8.974  1.00  0.00     0.014 C 
ATOM      5  C   UNL     1     -13.781  29.763  -8.794  1.00  0.00     0.009 C 
ATOM      6  C   UNL     1     -16.405  31.296  -6.954  1.00  0.00     0.000 C 
ATOM      7  C   UNL     1     -13.991  31.176  -8.258  1.00  0.00     0.018 C 
ATOM      8  C   UNL     1     -17.022  28.905  -7.640  1.00  0.00     0.008 C 
ATOM      9  C   UNL     1     -16.036  32.230  -5.802  1.00  0.00     0.005 C 
ATOM     10  C   UNL     1     -16.781  29.870  -6.419  1.00  0.00    -0.024 C 
ATOM     11  C   UNL     1     -17.261  32.433  -4.912  1.00  0.00     0.005 C 
ATOM     12  C   UNL     1     -18.080  29.964  -5.447  1.00  0.00    -0.024 C 
ATOM     13  C   UNL     1     -15.571  29.288  -5.608  1.00  0.00     0.012 C 
ATOM     14  C   UNL     1     -17.929  31.125  -4.362  1.00  0.00     0.002 C 
ATOM     15  C   UNL     1     -19.390  30.299  -6.211  1.00  0.00     0.008 C 
ATOM     16  C   UNL     1     -18.251  28.555  -4.754  1.00  0.00     0.012 C 
ATOM     17  C   UNL     1     -19.254  31.456  -3.471  1.00  0.00    -0.023 C 
ATOM     18  C   UNL     1     -20.656  30.310  -5.325  1.00  0.00     0.005 C 
ATOM     19  C   UNL     1     -20.450  30.468  -3.778  1.00  0.00     0.004 C 
ATOM     20  C   UNL     1     -19.801  32.913  -3.703  1.00  0.00     0.042 C 
ATOM     21  C   UNL     1     -18.774  31.323  -1.996  1.00  0.00     0.012 C 
ATOM     22  C   UNL     1     -21.832  30.785  -3.040  1.00  0.00    -0.003 C 
ATOM     23  C   UNL     1     -21.115  33.292  -2.994  1.00  0.00     0.144 C 
ATOM     24  C   UNL     1     -22.248  32.274  -3.254  1.00  0.00     0.149 C 
ATOM     25  C   UNL     1     -21.775  30.431  -1.518  1.00  0.00     0.014 C 
ATOM     26  C   UNL     1     -22.968  29.888  -3.622  1.00  0.00     0.014 C 
ENDROOT
BRANCH   1  27
ATOM     27  C   UNL     1     -16.479  31.339 -10.624  1.00  0.00     0.048 C 
ATOM     28  O   UNL     1     -15.604  31.852 -11.374  1.00  0.00    -0.550 OA
ATOM     29  O   UNL     1     -17.821  31.490 -10.962  1.00  0.00    -0.550 OA
ENDBRANCH   1  27
BRANCH   7  30
ATOM     30  C   UNL     1     -13.163  31.627  -7.057  1.00  0.00    -0.077 C 
ATOM     31  C   UNL     1     -12.877  33.099  -6.885  1.00  0.00     0.039 C 
ATOM     32  C   UNL     1     -12.501  30.767  -6.259  1.00  0.00     0.008 C 
ENDBRANCH   7  30
BRANCH  23  33
ATOM     33  O   UNL     1     -20.899  33.512  -1.625  1.00  0.00    -0.390 OA
ATOM     34  H   UNL     1     -21.458  32.857  -1.128  1.00  0.00     0.211 HD
ENDBRANCH  23  33
BRANCH  24  35
ATOM     35  O   UNL     1     -23.370  32.582  -2.461  1.00  0.00    -0.390 OA
ATOM     36  H   UNL     1     -23.882  33.282  -2.943  1.00  0.00     0.211 HD
ENDBRANCH  24  35
TORSDOF 4
ENDMDL
MODEL 4
REMARK VINA RESULT:    -7.041      1.733      8.121
REMARK INTER + INTRA:          -8.875
REMARK INTER:                  -8.261
REMARK INTRA:                  -0.614
REMARK UNBOUND:                -0.599
REMARK SMILES C=C(C)[C@H]1CC[C@@]2(C(=O)[O-])CC[C@@]3(C)[C@@H](CC[C@H]4[C@@]5(C)C[C@H](O)[C@H](O)C(C)(C)[C@H]5CC[C@]43C)[C@@H]12
REMARK SMILES IDX 7 1 6 2 34 3 11 4 5 5 15 6 4 7 12 8 16 9 13 10 17 11 32 12
REMARK SMILES IDX 14 13 18 14 31 15 33 16 19 17 30 18 29 19 21 20 20 21 26 22
REMARK SMILES IDX 22 23 24 24 27 25 28 26 8 27 9 28 10 29 2 30 3 31 1 32 23 33
REMARK SMILES IDX 25 35
REMARK H PARENT 23 34 25 36
REMARK Flexibility Score: inf
ROOT
ATOM      1  C   UNL     1     -17.099  30.518  -9.038  1.00  0.00     0.014 C 
ATOM      2  C   UNL     1     -15.844  29.702  -9.465  1.00  0.00     0.014 C 
ATOM      3  C   UNL     1     -16.672  31.342  -7.766  1.00  0.00     0.012 C 
ATOM      4  C   UNL     1     -18.294  29.560  -8.748  1.00  0.00     0.014 C 
ATOM      5  C   UNL     1     -14.828  29.817  -8.340  1.00  0.00     0.009 C 
ATOM      6  C   UNL     1     -17.619  31.070  -6.534  1.00  0.00     0.000 C 
ATOM      7  C   UNL     1     -15.131  31.164  -7.691  1.00  0.00     0.018 C 
ATOM      8  C   UNL     1     -18.090  28.731  -7.472  1.00  0.00     0.008 C 
ATOM      9  C   UNL     1     -17.360  31.905  -5.281  1.00  0.00     0.005 C 
ATOM     10  C   UNL     1     -17.963  29.586  -6.156  1.00  0.00    -0.024 C 
ATOM     11  C   UNL     1     -18.641  31.977  -4.454  1.00  0.00     0.005 C 
ATOM     12  C   UNL     1     -19.319  29.539  -5.262  1.00  0.00    -0.024 C 
ATOM     13  C   UNL     1     -16.778  28.978  -5.327  1.00  0.00     0.012 C 
ATOM     14  C   UNL     1     -19.283  30.599  -4.068  1.00  0.00     0.002 C 
ATOM     15  C   UNL     1     -20.596  29.894  -6.072  1.00  0.00     0.008 C 
ATOM     16  C   UNL     1     -19.469  28.066  -4.712  1.00  0.00     0.012 C 
ATOM     17  C   UNL     1     -20.671  30.794  -3.235  1.00  0.00    -0.023 C 
ATOM     18  C   UNL     1     -21.910  29.774  -5.269  1.00  0.00     0.005 C 
ATOM     19  C   UNL     1     -21.802  29.794  -3.704  1.00  0.00     0.004 C 
ATOM     20  C   UNL     1     -21.266  32.244  -3.367  1.00  0.00     0.042 C 
ATOM     21  C   UNL     1     -20.272  30.541  -1.751  1.00  0.00     0.012 C 
ATOM     22  C   UNL     1     -23.237  29.987  -3.028  1.00  0.00    -0.003 C 
ATOM     23  C   UNL     1     -22.635  32.505  -2.709  1.00  0.00     0.144 C 
ATOM     24  C   UNL     1     -23.705  31.473  -3.131  1.00  0.00     0.149 C 
ATOM     25  C   UNL     1     -23.254  29.495  -1.544  1.00  0.00     0.014 C 
ATOM     26  C   UNL     1     -24.297  29.106  -3.759  1.00  0.00     0.014 C 
ENDROOT
BRANCH   1  27
ATOM     27  C   UNL     1     -17.481  31.453 -10.182  1.00  0.00     0.048 C 
ATOM     28  O   UNL     1     -16.586  31.989 -10.890  1.00  0.00    -0.550 OA
ATOM     29  O   UNL     1     -18.815  31.667 -10.517  1.00  0.00    -0.550 OA
ENDBRANCH   1  27
BRANCH   7  30
ATOM     30  C   UNL     1     -14.394  31.532  -6.405  1.00  0.00    -0.077 C 
ATOM     31  C   UNL     1     -14.111  32.987  -6.122  1.00  0.00     0.039 C 
ATOM     32  C   UNL     1     -13.803  30.618  -5.612  1.00  0.00     0.008 C 
ENDBRANCH   7  30
BRANCH  23  33
ATOM     33  O   UNL     1     -22.509  32.603  -1.315  1.00  0.00    -0.390 OA
ATOM     34  H   UNL     1     -22.311  33.553  -1.102  1.00  0.00     0.211 HD
ENDBRANCH  23  33
BRANCH  24  35
ATOM     35  O   UNL     1     -24.883  31.662  -2.384  1.00  0.00    -0.390 OA
ATOM     36  H   UNL     1     -25.068  30.809  -1.911  1.00  0.00     0.211 HD
ENDBRANCH  24  35
TORSDOF 4
ENDMDL
MODEL 5
REMARK VINA RESULT:    -7.017      3.993      7.252
REMARK INTER + INTRA:          -8.847
REMARK INTER:                  -8.224
REMARK INTRA:                  -0.623
REMARK UNBOUND:                -0.599
REMARK SMILES C=C(C)[C@H]1CC[C@@]2(C(=O)[O-])CC[C@@]3(C)[C@@H](CC[C@H]4[C@@]5(C)C[C@H](O)[C@H](O)C(C)(C)[C@H]5CC[C@]43C)[C@@H]12
REMARK SMILES IDX 7 1 6 2 34 3 11 4 5 5 15 6 4 7 12 8 16 9 13 10 17 11 32 12
REMARK SMILES IDX 14 13 18 14 31 15 33 16 19 17 30 18 29 19 21 20 20 21 26 22
REMARK SMILES IDX 22 23 24 24 27 25 28 26 8 27 9 28 10 29 2 30 3 31 1 32 23 33
REMARK SMILES IDX 25 35
REMARK H PARENT 23 34 25 36
REMARK Flexibility Score: inf
ROOT
ATOM      1  C   UNL     1     -19.476  31.218  -2.747  1.00  0.00     0.014 C 
ATOM      2  C   UNL     1     -19.728  32.685  -3.200  1.00  0.00     0.014 C 
ATOM      3  C   UNL     1     -18.911  30.462  -4.008  1.00  0.00     0.012 C 
ATOM      4  C   UNL     1     -20.797  30.581  -2.219  1.00  0.00     0.014 C 
ATOM      5  C   UNL     1     -19.594  32.718  -4.714  1.00  0.00     0.009 C 
ATOM      6  C   UNL     1     -19.765  29.186  -4.370  1.00  0.00     0.000 C 
ATOM      7  C   UNL     1     -18.617  31.591  -5.033  1.00  0.00     0.018 C 
ATOM      8  C   UNL     1     -21.817  30.324  -3.336  1.00  0.00     0.008 C 
ATOM      9  C   UNL     1     -19.237  28.318  -5.510  1.00  0.00     0.005 C 
ATOM     10  C   UNL     1     -21.327  29.316  -4.442  1.00  0.00    -0.024 C 
ATOM     11  C   UNL     1     -19.776  26.898  -5.348  1.00  0.00     0.005 C 
ATOM     12  C   UNL     1     -22.016  27.853  -4.286  1.00  0.00    -0.024 C 
ATOM     13  C   UNL     1     -21.729  29.929  -5.830  1.00  0.00     0.012 C 
ATOM     14  C   UNL     1     -21.336  26.769  -5.241  1.00  0.00     0.002 C 
ATOM     15  C   UNL     1     -21.879  27.265  -2.854  1.00  0.00     0.008 C 
ATOM     16  C   UNL     1     -23.552  28.018  -4.615  1.00  0.00     0.012 C 
ATOM     17  C   UNL     1     -21.797  25.220  -5.018  1.00  0.00    -0.023 C 
ATOM     18  C   UNL     1     -22.599  25.913  -2.653  1.00  0.00     0.005 C 
ATOM     19  C   UNL     1     -22.944  25.082  -3.939  1.00  0.00     0.004 C 
ATOM     20  C   UNL     1     -20.618  24.292  -4.546  1.00  0.00     0.042 C 
ATOM     21  C   UNL     1     -22.281  24.753  -6.422  1.00  0.00     0.012 C 
ATOM     22  C   UNL     1     -23.382  23.591  -3.564  1.00  0.00    -0.003 C 
ATOM     23  C   UNL     1     -20.968  22.832  -4.199  1.00  0.00     0.144 C 
ATOM     24  C   UNL     1     -22.138  22.723  -3.195  1.00  0.00     0.149 C 
ATOM     25  C   UNL     1     -24.214  22.923  -4.706  1.00  0.00     0.014 C 
ATOM     26  C   UNL     1     -24.332  23.607  -2.326  1.00  0.00     0.014 C 
ENDROOT
BRANCH   1  27
ATOM     27  C   UNL     1     -18.447  31.229  -1.620  1.00  0.00     0.048 C 
ATOM     28  O   UNL     1     -18.509  30.374  -0.695  1.00  0.00    -0.550 OA
ATOM     29  O   UNL     1     -17.381  32.123  -1.633  1.00  0.00    -0.550 OA
ENDBRANCH   1  27
BRANCH   7  30
ATOM     30  C   UNL     1     -18.378  31.230  -6.498  1.00  0.00    -0.077 C 
ATOM     31  C   UNL     1     -17.038  30.661  -6.896  1.00  0.00     0.039 C 
ATOM     32  C   UNL     1     -19.222  31.583  -7.486  1.00  0.00     0.008 C 
ENDBRANCH   7  30
BRANCH  23  33
ATOM     33  O   UNL     1     -21.193  22.081  -5.363  1.00  0.00    -0.390 OA
ATOM     34  H   UNL     1     -21.505  21.181  -5.079  1.00  0.00     0.211 HD
ENDBRANCH  23  33
BRANCH  24  35
ATOM     35  O   UNL     1     -22.518  21.377  -3.036  1.00  0.00    -0.390 OA
ATOM     36  H   UNL     1     -23.381  21.374  -2.546  1.00  0.00     0.211 HD
ENDBRANCH  24  35
TORSDOF 4
ENDMDL
MODEL 6
REMARK VINA RESULT:    -6.867      3.052      5.300
REMARK INTER + INTRA:          -8.671
REMARK INTER:                  -8.072
REMARK INTRA:                  -0.599
REMARK UNBOUND:                -0.599
REMARK SMILES C=C(C)[C@H]1CC[C@@]2(C(=O)[O-])CC[C@@]3(C)[C@@H](CC[C@H]4[C@@]5(C)C[C@H](O)[C@H](O)C(C)(C)[C@H]5CC[C@]43C)[C@@H]12
REMARK SMILES IDX 7 1 6 2 34 3 11 4 5 5 15 6 4 7 12 8 16 9 13 10 17 11 32 12
REMARK SMILES IDX 14 13 18 14 31 15 33 16 19 17 30 18 29 19 21 20 20 21 26 22
REMARK SMILES IDX 22 23 24 24 27 25 28 26 8 27 9 28 10 29 2 30 3 31 1 32 23 33
REMARK SMILES IDX 25 35
REMARK H PARENT 23 34 25 36
REMARK Flexibility Score: inf
ROOT
ATOM      1  C   UNL     1     -26.988  30.363  -4.546  1.00  0.00     0.014 C 
ATOM      2  C   UNL     1     -28.103  29.378  -4.088  1.00  0.00     0.014 C 
ATOM      3  C   UNL     1     -26.188  29.620  -5.681  1.00  0.00     0.012 C 
ATOM      4  C   UNL     1     -26.080  30.749  -3.339  1.00  0.00     0.014 C 
ATOM      5  C   UNL     1     -27.795  28.027  -4.714  1.00  0.00     0.009 C 
ATOM      6  C   UNL     1     -24.644  29.535  -5.364  1.00  0.00     0.000 C 
ATOM      7  C   UNL     1     -27.047  28.366  -5.999  1.00  0.00     0.018 C 
ATOM      8  C   UNL     1     -25.202  29.584  -2.862  1.00  0.00     0.008 C 
ATOM      9  C   UNL     1     -23.760  28.932  -6.454  1.00  0.00     0.005 C 
ATOM     10  C   UNL     1     -24.188  29.051  -3.943  1.00  0.00    -0.024 C 
ATOM     11  C   UNL     1     -22.333  29.447  -6.283  1.00  0.00     0.005 C 
ATOM     12  C   UNL     1     -22.667  29.541  -3.650  1.00  0.00    -0.024 C 
ATOM     13  C   UNL     1     -24.244  27.484  -3.890  1.00  0.00     0.012 C 
ATOM     14  C   UNL     1     -21.690  29.217  -4.871  1.00  0.00     0.002 C 
ATOM     15  C   UNL     1     -22.551  31.076  -3.441  1.00  0.00     0.008 C 
ATOM     16  C   UNL     1     -22.187  28.819  -2.329  1.00  0.00     0.012 C 
ATOM     17  C   UNL     1     -20.191  29.852  -4.782  1.00  0.00    -0.023 C 
ATOM     18  C   UNL     1     -21.130  31.560  -3.075  1.00  0.00     0.005 C 
ATOM     19  C   UNL     1     -19.933  30.604  -3.416  1.00  0.00     0.004 C 
ATOM     20  C   UNL     1     -19.894  30.885  -5.930  1.00  0.00     0.042 C 
ATOM     21  C   UNL     1     -19.241  28.629  -4.942  1.00  0.00     0.012 C 
ATOM     22  C   UNL     1     -18.532  31.362  -3.282  1.00  0.00    -0.003 C 
ATOM     23  C   UNL     1     -18.545  31.627  -5.877  1.00  0.00     0.144 C 
ATOM     24  C   UNL     1     -18.286  32.296  -4.508  1.00  0.00     0.149 C 
ATOM     25  C   UNL     1     -17.345  30.363  -3.091  1.00  0.00     0.014 C 
ATOM     26  C   UNL     1     -18.524  32.250  -2.000  1.00  0.00     0.014 C 
ENDROOT
BRANCH   1  27
ATOM     27  C   UNL     1     -27.650  31.625  -5.091  1.00  0.00     0.048 C 
ATOM     28  O   UNL     1     -27.500  32.728  -4.497  1.00  0.00    -0.550 OA
ATOM     29  O   UNL     1     -28.358  31.602  -6.288  1.00  0.00    -0.550 OA
ENDBRANCH   1  27
BRANCH   7  30
ATOM     30  C   UNL     1     -26.434  27.222  -6.806  1.00  0.00    -0.077 C 
ATOM     31  C   UNL     1     -26.311  27.375  -8.302  1.00  0.00     0.039 C 
ATOM     32  C   UNL     1     -26.190  26.006  -6.282  1.00  0.00     0.008 C 
ENDBRANCH   7  30
BRANCH  23  33
ATOM     33  O   UNL     1     -17.493  30.783  -6.265  1.00  0.00    -0.390 OA
ATOM     34  H   UNL     1     -16.649  31.297  -6.166  1.00  0.00     0.211 HD
ENDBRANCH  23  33
BRANCH  24  35
ATOM     35  O   UNL     1     -16.981  32.821  -4.462  1.00  0.00    -0.390 OA
ATOM     36  H   UNL     1     -16.885  33.285  -3.590  1.00  0.00     0.211 HD
ENDBRANCH  24  35
TORSDOF 4
ENDMDL
MODEL 7
REMARK VINA RESULT:    -6.816      3.287      7.947
REMARK INTER + INTRA:          -8.611
REMARK INTER:                  -8.006
REMARK INTRA:                  -0.605
REMARK UNBOUND:                -0.599
REMARK SMILES C=C(C)[C@H]1CC[C@@]2(C(=O)[O-])CC[C@@]3(C)[C@@H](CC[C@H]4[C@@]5(C)C[C@H](O)[C@H](O)C(C)(C)[C@H]5CC[C@]43C)[C@@H]12
REMARK SMILES IDX 7 1 6 2 34 3 11 4 5 5 15 6 4 7 12 8 16 9 13 10 17 11 32 12
REMARK SMILES IDX 14 13 18 14 31 15 33 16 19 17 30 18 29 19 21 20 20 21 26 22
REMARK SMILES IDX 22 23 24 24 27 25 28 26 8 27 9 28 10 29 2 30 3 31 1 32 23 33
REMARK SMILES IDX 25 35
REMARK H PARENT 23 34 25 36
REMARK Flexibility Score: inf
ROOT
ATOM      1  C   UNL     1     -18.327  31.457  -3.178  1.00  0.00     0.014 C 
ATOM      2  C   UNL     1     -17.842  32.621  -4.090  1.00  0.00     0.014 C 
ATOM      3  C   UNL     1     -18.435  30.191  -4.107  1.00  0.00     0.012 C 
ATOM      4  C   UNL     1     -19.690  31.822  -2.515  1.00  0.00     0.014 C 
ATOM      5  C   UNL     1     -17.939  32.137  -5.528  1.00  0.00     0.009 C 
ATOM      6  C   UNL     1     -19.872  29.541  -4.064  1.00  0.00     0.000 C 
ATOM      7  C   UNL     1     -17.753  30.626  -5.433  1.00  0.00     0.018 C 
ATOM      8  C   UNL     1     -20.848  31.849  -3.522  1.00  0.00     0.008 C 
ATOM      9  C   UNL     1     -20.052  28.240  -4.844  1.00  0.00     0.005 C 
ATOM     10  C   UNL     1     -21.128  30.468  -4.226  1.00  0.00    -0.024 C 
ATOM     11  C   UNL     1     -21.221  27.458  -4.249  1.00  0.00     0.005 C 
ATOM     12  C   UNL     1     -22.445  29.731  -3.626  1.00  0.00    -0.024 C 
ATOM     13  C   UNL     1     -21.354  30.769  -5.749  1.00  0.00     0.012 C 
ATOM     14  C   UNL     1     -22.582  28.231  -4.156  1.00  0.00     0.002 C 
ATOM     15  C   UNL     1     -22.423  29.607  -2.078  1.00  0.00     0.008 C 
ATOM     16  C   UNL     1     -23.699  30.598  -4.041  1.00  0.00     0.012 C 
ATOM     17  C   UNL     1     -23.743  27.323  -3.458  1.00  0.00    -0.023 C 
ATOM     18  C   UNL     1     -23.702  28.988  -1.473  1.00  0.00     0.005 C 
ATOM     19  C   UNL     1     -24.618  28.146  -2.431  1.00  0.00     0.004 C 
ATOM     20  C   UNL     1     -23.166  26.088  -2.673  1.00  0.00     0.042 C 
ATOM     21  C   UNL     1     -24.604  26.810  -4.650  1.00  0.00     0.012 C 
ATOM     22  C   UNL     1     -25.707  27.315  -1.607  1.00  0.00    -0.003 C 
ATOM     23  C   UNL     1     -24.170  25.226  -1.884  1.00  0.00     0.144 C 
ATOM     24  C   UNL     1     -25.059  26.063  -0.937  1.00  0.00     0.149 C 
ATOM     25  C   UNL     1     -26.925  26.908  -2.498  1.00  0.00     0.014 C 
ATOM     26  C   UNL     1     -26.311  28.200  -0.473  1.00  0.00     0.014 C 
ENDROOT
BRANCH   1  27
ATOM     27  C   UNL     1     -17.288  31.235  -2.083  1.00  0.00     0.048 C 
ATOM     28  O   UNL     1     -16.614  30.169  -2.053  1.00  0.00    -0.550 OA
ATOM     29  O   UNL     1     -17.006  32.229  -1.151  1.00  0.00    -0.550 OA
ENDBRANCH   1  27
BRANCH   7  30
ATOM     30  C   UNL     1     -17.960  29.788  -6.694  1.00  0.00    -0.077 C 
ATOM     31  C   UNL     1     -17.187  28.501  -6.844  1.00  0.00     0.039 C 
ATOM     32  C   UNL     1     -18.636  30.237  -7.768  1.00  0.00     0.008 C 
ENDBRANCH   7  30
BRANCH  23  33
ATOM     33  O   UNL     1     -24.924  24.418  -2.748  1.00  0.00    -0.390 OA
ATOM     34  H   UNL     1     -24.778  23.474  -2.474  1.00  0.00     0.211 HD
ENDBRANCH  23  33
BRANCH  24  35
ATOM     35  O   UNL     1     -26.056  25.251  -0.363  1.00  0.00    -0.390 OA
ATOM     36  H   UNL     1     -25.819  24.310  -0.569  1.00  0.00     0.211 HD
ENDBRANCH  24  35
TORSDOF 4
ENDMDL
MODEL 8
REMARK VINA RESULT:    -6.746      4.451      8.862
REMARK INTER + INTRA:          -8.528
REMARK INTER:                  -7.918
REMARK INTRA:                  -0.610
REMARK UNBOUND:                -0.599
REMARK SMILES C=C(C)[C@H]1CC[C@@]2(C(=O)[O-])CC[C@@]3(C)[C@@H](CC[C@H]4[C@@]5(C)C[C@H](O)[C@H](O)C(C)(C)[C@H]5CC[C@]43C)[C@@H]12
REMARK SMILES IDX 7 1 6 2 34 3 11 4 5 5 15 6 4 7 12 8 16 9 13 10 17 11 32 12
REMARK SMILES IDX 14 13 18 14 31 15 33 16 19 17 30 18 29 19 21 20 20 21 26 22
REMARK SMILES IDX 22 23 24 24 27 25 28 26 8 27 9 28 10 29 2 30 3 31 1 32 23 33
REMARK SMILES IDX 25 35
REMARK H PARENT 23 34 25 36
REMARK Flexibility Score: inf
ROOT
ATOM      1  C   UNL     1     -13.343  25.610  -6.564  1.00  0.00     0.014 C 
ATOM      2  C   UNL     1     -12.177  25.592  -7.594  1.00  0.00     0.014 C 
ATOM      3  C   UNL     1     -14.671  25.677  -7.408  1.00  0.00     0.012 C 
ATOM      4  C   UNL     1     -13.194  26.826  -5.600  1.00  0.00     0.014 C 
ATOM      5  C   UNL     1     -12.772  25.923  -8.954  1.00  0.00     0.009 C 
ATOM      6  C   UNL     1     -15.574  26.906  -7.002  1.00  0.00     0.000 C 
ATOM      7  C   UNL     1     -14.211  25.423  -8.870  1.00  0.00     0.018 C 
ATOM      8  C   UNL     1     -13.457  28.168  -6.296  1.00  0.00     0.008 C 
ATOM      9  C   UNL     1     -16.938  26.999  -7.683  1.00  0.00     0.005 C 
ATOM     10  C   UNL     1     -14.912  28.323  -6.877  1.00  0.00    -0.024 C 
ATOM     11  C   UNL     1     -17.881  27.817  -6.804  1.00  0.00     0.005 C 
ATOM     12  C   UNL     1     -15.839  29.291  -5.959  1.00  0.00    -0.024 C 
ATOM     13  C   UNL     1     -14.770  28.952  -8.307  1.00  0.00     0.012 C 
ATOM     14  C   UNL     1     -17.372  29.246  -6.403  1.00  0.00     0.002 C 
ATOM     15  C   UNL     1     -15.846  28.884  -4.459  1.00  0.00     0.008 C 
ATOM     16  C   UNL     1     -15.255  30.754  -6.078  1.00  0.00     0.012 C 
ATOM     17  C   UNL     1     -18.430  30.007  -5.423  1.00  0.00    -0.023 C 
ATOM     18  C   UNL     1     -16.649  29.838  -3.547  1.00  0.00     0.005 C 
ATOM     19  C   UNL     1     -17.714  30.765  -4.234  1.00  0.00     0.004 C 
ATOM     20  C   UNL     1     -19.475  29.029  -4.771  1.00  0.00     0.042 C 
ATOM     21  C   UNL     1     -19.179  31.002  -6.358  1.00  0.00     0.012 C 
ATOM     22  C   UNL     1     -18.674  31.444  -3.152  1.00  0.00    -0.003 C 
ATOM     23  C   UNL     1     -20.452  29.629  -3.741  1.00  0.00     0.144 C 
ATOM     24  C   UNL     1     -19.731  30.422  -2.628  1.00  0.00     0.149 C 
ATOM     25  C   UNL     1     -19.365  32.730  -3.710  1.00  0.00     0.014 C 
ATOM     26  C   UNL     1     -17.839  31.931  -1.927  1.00  0.00     0.014 C 
ENDROOT
BRANCH   1  27
ATOM     27  C   UNL     1     -13.288  24.322  -5.748  1.00  0.00     0.048 C 
ATOM     28  O   UNL     1     -12.224  23.646  -5.700  1.00  0.00    -0.550 OA
ATOM     29  O   UNL     1     -14.374  23.913  -4.981  1.00  0.00    -0.550 OA
ENDBRANCH   1  27
BRANCH   7  30
ATOM     30  C   UNL     1     -15.161  25.746 -10.022  1.00  0.00    -0.077 C 
ATOM     31  C   UNL     1     -16.293  24.793 -10.318  1.00  0.00     0.039 C 
ATOM     32  C   UNL     1     -14.921  26.725 -10.915  1.00  0.00     0.008 C 
ENDBRANCH   7  30
BRANCH  23  33
ATOM     33  O   UNL     1     -21.447  30.387  -4.377  1.00  0.00    -0.390 OA
ATOM     34  H   UNL     1     -21.502  31.259  -3.904  1.00  0.00     0.211 HD
ENDBRANCH  23  33
BRANCH  24  35
ATOM     35  O   UNL     1     -20.672  31.075  -1.810  1.00  0.00    -0.390 OA
ATOM     36  H   UNL     1     -21.407  31.384  -2.402  1.00  0.00     0.211 HD
ENDBRANCH  24  35
TORSDOF 4
ENDMDL
MODEL 9
REMARK VINA RESULT:    -6.631      3.004      7.959
REMARK INTER + INTRA:          -8.393
REMARK INTER:                  -7.780
REMARK INTRA:                  -0.613
REMARK UNBOUND:                -0.599
REMARK SMILES C=C(C)[C@H]1CC[C@@]2(C(=O)[O-])CC[C@@]3(C)[C@@H](CC[C@H]4[C@@]5(C)C[C@H](O)[C@H](O)C(C)(C)[C@H]5CC[C@]43C)[C@@H]12
REMARK SMILES IDX 7 1 6 2 34 3 11 4 5 5 15 6 4 7 12 8 16 9 13 10 17 11 32 12
REMARK SMILES IDX 14 13 18 14 31 15 33 16 19 17 30 18 29 19 21 20 20 21 26 22
REMARK SMILES IDX 22 23 24 24 27 25 28 26 8 27 9 28 10 29 2 30 3 31 1 32 23 33
REMARK SMILES IDX 25 35
REMARK H PARENT 23 34 25 36
REMARK Flexibility Score: inf
ROOT
ATOM      1  C   UNL     1     -14.687  30.385  -5.840  1.00  0.00     0.014 C 
ATOM      2  C   UNL     1     -13.806  31.378  -6.653  1.00  0.00     0.014 C 
ATOM      3  C   UNL     1     -15.718  29.777  -6.864  1.00  0.00     0.012 C 
ATOM      4  C   UNL     1     -15.390  31.126  -4.663  1.00  0.00     0.014 C 
ATOM      5  C   UNL     1     -14.468  31.560  -8.010  1.00  0.00     0.009 C 
ATOM      6  C   UNL     1     -17.212  29.980  -6.397  1.00  0.00     0.000 C 
ATOM      7  C   UNL     1     -15.204  30.246  -8.252  1.00  0.00     0.018 C 
ATOM      8  C   UNL     1     -16.482  32.092  -5.141  1.00  0.00     0.008 C 
ATOM      9  C   UNL     1     -18.287  29.329  -7.264  1.00  0.00     0.005 C 
ATOM     10  C   UNL     1     -17.667  31.402  -5.914  1.00  0.00    -0.024 C 
ATOM     11  C   UNL     1     -19.537  29.095  -6.418  1.00  0.00     0.005 C 
ATOM     12  C   UNL     1     -19.005  31.277  -5.001  1.00  0.00    -0.024 C 
ATOM     13  C   UNL     1     -17.979  32.295  -7.166  1.00  0.00     0.012 C 
ATOM     14  C   UNL     1     -20.114  30.359  -5.691  1.00  0.00     0.002 C 
ATOM     15  C   UNL     1     -18.741  30.616  -3.620  1.00  0.00     0.008 C 
ATOM     16  C   UNL     1     -19.548  32.742  -4.760  1.00  0.00     0.012 C 
ATOM     17  C   UNL     1     -21.412  29.985  -4.776  1.00  0.00    -0.023 C 
ATOM     18  C   UNL     1     -19.978  30.563  -2.696  1.00  0.00     0.005 C 
ATOM     19  C   UNL     1     -21.387  30.709  -3.370  1.00  0.00     0.004 C 
ATOM     20  C   UNL     1     -21.537  28.444  -4.489  1.00  0.00     0.042 C 
ATOM     21  C   UNL     1     -22.632  30.445  -5.627  1.00  0.00     0.012 C 
ATOM     22  C   UNL     1     -22.557  30.314  -2.355  1.00  0.00    -0.003 C 
ATOM     23  C   UNL     1     -22.666  27.994  -3.542  1.00  0.00     0.144 C 
ATOM     24  C   UNL     1     -22.661  28.764  -2.202  1.00  0.00     0.149 C 
ATOM     25  C   UNL     1     -23.930  30.930  -2.779  1.00  0.00     0.014 C 
ATOM     26  C   UNL     1     -22.265  30.910  -0.943  1.00  0.00     0.014 C 
ENDROOT
BRANCH   1  27
ATOM     27  C   UNL     1     -13.786  29.293  -5.270  1.00  0.00     0.048 C 
ATOM     28  O   UNL     1     -14.249  28.142  -5.043  1.00  0.00    -0.550 OA
ATOM     29  O   UNL     1     -12.428  29.520  -5.067  1.00  0.00    -0.550 OA
ENDBRANCH   1  27
BRANCH   7  30
ATOM     30  C   UNL     1     -16.124  30.143  -9.467  1.00  0.00    -0.077 C 
ATOM     31  C   UNL     1     -16.309  28.798 -10.125  1.00  0.00     0.039 C 
ATOM     32  C   UNL     1     -16.616  31.221 -10.107  1.00  0.00     0.008 C 
ENDBRANCH   7  30
BRANCH  23  33
ATOM     33  O   UNL     1     -23.911  28.050  -4.185  1.00  0.00    -0.390 OA
ATOM     34  H   UNL     1     -24.377  27.191  -4.006  1.00  0.00     0.211 HD
ENDBRANCH  23  33
BRANCH  24  35
ATOM     35  O   UNL     1     -23.800  28.428  -1.445  1.00  0.00    -0.390 OA
ATOM     36  H   UNL     1     -24.234  27.659  -1.899  1.00  0.00     0.211 HD
ENDBRANCH  24  35
TORSDOF 4
ENDMDL
