MODEL 1
REMARK VINA RESULT:    -3.650      0.000      0.000
REMARK INTER + INTRA:          -3.744
REMARK INTER:                  -4.503
REMARK INTRA:                   0.759
REMARK UNBOUND:                 0.759
REMARK SMILES CC1=CC=CC(C)(C)CC1=O
REMARK SMILES IDX 1 1 2 2 3 3 10 4 11 5 9 6 4 8 5 9 6 10 7 11 8 12
REMARK H PARENT
REMARK Flexibility Score: 80.00
ROOT
ATOM      1  C   UNL     1      19.751  -2.010  20.642  1.00  0.00     0.048 C 
ATOM      2  C   UNL     1      19.690  -0.707  21.404  1.00  0.00    -0.008 C 
ATOM      3  C   UNL     1      19.496   0.425  20.692  1.00  0.00     0.007 C 
ENDROOT
BRANCH   2   4
ATOM      4  C   UNL     1      19.770  -0.784  22.883  1.00  0.00     0.159 C 
ATOM      5  O   UNL     1      19.682  -1.914  23.440  1.00  0.00    -0.295 OA
BRANCH   4   6
ATOM      6  C   UNL     1      19.967   0.411  23.764  1.00  0.00     0.091 CG0
ATOM      7  G   UNL     1      18.851   1.469  23.614  1.00  0.00     0.000 G0
ENDBRANCH   4   6
ENDBRANCH   2   4
BRANCH   3   8
ATOM      8  C   UNL     1      19.368   1.827  21.152  1.00  0.00    -0.003 C 
ATOM      9  C   UNL     1      19.085   2.292  22.376  1.00  0.00    -0.020 C 
BRANCH   9  10
ATOM     10  C   UNL     1      18.851   1.465  23.618  1.00  0.00    -0.010 CG0
ATOM     11  C   UNL     1      18.920   2.402  24.845  1.00  0.00     0.016 C 
ATOM     12  C   UNL     1      17.439   0.836  23.576  1.00  0.00     0.016 C 
ATOM     13  G   UNL     1      19.969   0.407  23.757  1.00  0.00     0.000 G0
ENDBRANCH   9  10
ENDBRANCH   3   8
TORSDOF 0
ENDMDL
MODEL 2
REMARK VINA RESULT:    -3.568      1.296      1.916
REMARK INTER + INTRA:          -3.643
REMARK INTER:                  -4.406
REMARK INTRA:                   0.763
REMARK UNBOUND:                 0.759
REMARK SMILES CC1=CC=CC(C)(C)CC1=O
REMARK SMILES IDX 1 1 2 2 3 3 10 4 11 5 9 6 4 8 5 9 6 10 7 11 8 12
REMARK H PARENT
REMARK Flexibility Score: 80.00
ROOT
ATOM      1  C   UNL     1      19.309   1.140  18.957  1.00  0.00     0.048 C 
ATOM      2  C   UNL     1      19.464   1.227  20.457  1.00  0.00    -0.008 C 
ATOM      3  C   UNL     1      19.579   2.457  21.004  1.00  0.00     0.007 C 
ENDROOT
BRANCH   2   4
ATOM      4  C   UNL     1      19.401  -0.045  21.218  1.00  0.00     0.159 C 
ATOM      5  O   UNL     1      19.038  -1.096  20.619  1.00  0.00    -0.295 OA
BRANCH   4   6
ATOM      6  C   UNL     1      19.762  -0.160  22.667  1.00  0.00     0.091 CG0
ATOM      7  G   UNL     1      18.903   0.741  23.582  1.00  0.00     0.000 G0
ENDBRANCH   4   6
ENDBRANCH   2   4
BRANCH   3   8
ATOM      8  C   UNL     1      19.716   2.857  22.423  1.00  0.00    -0.003 C 
ATOM      9  C   UNL     1      19.430   2.159  23.529  1.00  0.00    -0.020 C 
BRANCH   9  10
ATOM     10  C   UNL     1      18.909   0.742  23.586  1.00  0.00    -0.010 CG0
ATOM     11  C   UNL     1      19.059   0.228  25.036  1.00  0.00     0.016 C 
ATOM     12  C   UNL     1      17.406   0.716  23.223  1.00  0.00     0.016 C 
ATOM     13  G   UNL     1      19.759  -0.162  22.665  1.00  0.00     0.000 G0
ENDBRANCH   9  10
ENDBRANCH   3   8
TORSDOF 0
ENDMDL
MODEL 3
REMARK VINA RESULT:    -3.362      1.792      2.700
REMARK INTER + INTRA:          -3.389
REMARK INTER:                  -4.423
REMARK INTRA:                   1.034
REMARK UNBOUND:                 0.759
REMARK SMILES CC1=CC=CC(C)(C)CC1=O
REMARK SMILES IDX 1 1 2 2 3 3 10 4 11 5 9 6 4 8 5 9 6 10 7 11 8 12
REMARK H PARENT
REMARK Flexibility Score: 80.00
ROOT
ATOM      1  C   UNL     1      19.323   0.966  18.953  1.00  0.00     0.048 C 
ATOM      2  C   UNL     1      19.420   0.603  20.416  1.00  0.00    -0.008 C 
ATOM      3  C   UNL     1      19.586  -0.702  20.727  1.00  0.00     0.007 C 
ENDROOT
BRANCH   2   4
ATOM      4  C   UNL     1      19.401   1.719  21.393  1.00  0.00     0.159 C 
ATOM      5  O   UNL     1      18.990   2.852  21.015  1.00  0.00    -0.295 OA
BRANCH   4   6
ATOM      6  C   UNL     1      19.831   1.577  22.821  1.00  0.00     0.091 CG0
ATOM      7  G   UNL     1      18.999   0.538  23.607  1.00  0.00     0.000 G0
ENDBRANCH   4   6
ENDBRANCH   2   4
BRANCH   3   8
ATOM      8  C   UNL     1      19.737  -1.352  22.050  1.00  0.00    -0.003 C 
ATOM      9  C   UNL     1      19.510  -0.848  23.269  1.00  0.00    -0.020 C 
BRANCH   9  10
ATOM     10  C   UNL     1      19.004   0.539  23.587  1.00  0.00    -0.010 CG0
ATOM     11  C   UNL     1      17.532   0.636  23.127  1.00  0.00     0.016 C 
ATOM     12  C   UNL     1      19.043   0.778  25.115  1.00  0.00     0.016 C 
ATOM     13  G   UNL     1      19.824   1.586  22.801  1.00  0.00     0.000 G0
ENDBRANCH   9  10
ENDBRANCH   3   8
TORSDOF 0
ENDMDL
MODEL 4
REMARK VINA RESULT:    -2.904      3.848      5.218
REMARK INTER + INTRA:          -2.824
REMARK INTER:                  -3.873
REMARK INTRA:                   1.049
REMARK UNBOUND:                 0.759
REMARK SMILES CC1=CC=CC(C)(C)CC1=O
REMARK SMILES IDX 1 1 2 2 3 3 10 4 11 5 9 6 4 8 5 9 6 10 7 11 8 12
REMARK H PARENT
REMARK Flexibility Score: 80.00
ROOT
ATOM      1  C   UNL     1      19.750   0.532  20.832  1.00  0.00     0.048 C 
ATOM      2  C   UNL     1      19.352   1.694  19.951  1.00  0.00    -0.008 C 
ATOM      3  C   UNL     1      18.787   1.409  18.758  1.00  0.00     0.007 C 
ENDROOT
BRANCH   2   4
ATOM      4  C   UNL     1      19.544   3.057  20.504  1.00  0.00     0.159 C 
ATOM      5  O   UNL     1      20.273   3.204  21.524  1.00  0.00    -0.295 OA
BRANCH   4   6
ATOM      6  C   UNL     1      18.929   4.285  19.906  1.00  0.00     0.091 CG0
ATOM      7  G   UNL     1      19.337   4.516  18.433  1.00  0.00     0.000 G0
ENDBRANCH   4   6
ENDBRANCH   2   4
BRANCH   3   8
ATOM      8  C   UNL     1      18.278   2.319  17.706  1.00  0.00    -0.003 C 
ATOM      9  C   UNL     1      18.479   3.634  17.558  1.00  0.00    -0.020 C 
BRANCH   9  10
ATOM     10  C   UNL     1      19.323   4.519  18.444  1.00  0.00    -0.010 CG0
ATOM     11  C   UNL     1      20.803   4.114  18.265  1.00  0.00     0.016 C 
ATOM     12  C   UNL     1      19.176   5.996  18.010  1.00  0.00     0.016 C 
ATOM     13  G   UNL     1      18.938   4.293  19.923  1.00  0.00     0.000 G0
ENDBRANCH   9  10
ENDBRANCH   3   8
TORSDOF 0
ENDMDL
MODEL 5
REMARK VINA RESULT:    -2.784      1.732      2.772
REMARK INTER + INTRA:          -2.676
REMARK INTER:                  -3.427
REMARK INTRA:                   0.751
REMARK UNBOUND:                 0.759
REMARK SMILES CC1=CC=CC(C)(C)CC1=O
REMARK SMILES IDX 1 1 2 2 3 3 10 4 11 5 9 6 4 8 5 9 6 10 7 11 8 12
REMARK H PARENT
REMARK Flexibility Score: 80.00
ROOT
ATOM      1  C   UNL     1      19.615  -0.817  21.140  1.00  0.00     0.048 C 
ATOM      2  C   UNL     1      19.564   0.062  22.367  1.00  0.00    -0.008 C 
ATOM      3  C   UNL     1      20.244  -0.349  23.460  1.00  0.00     0.007 C 
ENDROOT
BRANCH   2   4
ATOM      4  C   UNL     1      18.833   1.347  22.249  1.00  0.00     0.159 C 
ATOM      5  O   UNL     1      18.467   1.737  21.105  1.00  0.00    -0.295 OA
BRANCH   4   6
ATOM      6  C   UNL     1      18.485   2.212  23.421  1.00  0.00     0.091 CG0
ATOM      7  G   UNL     1      19.720   2.669  24.229  1.00  0.00     0.000 G0
ENDBRANCH   4   6
ENDBRANCH   2   4
BRANCH   3   8
ATOM      8  C   UNL     1      20.401   0.300  24.782  1.00  0.00    -0.003 C 
ATOM      9  C   UNL     1      20.197   1.578  25.125  1.00  0.00    -0.020 C 
BRANCH   9  10
ATOM     10  C   UNL     1      19.715   2.684  24.217  1.00  0.00    -0.010 CG0
ATOM     11  C   UNL     1      19.271   3.875  25.096  1.00  0.00     0.016 C 
ATOM     12  C   UNL     1      20.873   3.166  23.311  1.00  0.00     0.016 C 
ATOM     13  G   UNL     1      18.490   2.200  23.409  1.00  0.00     0.000 G0
ENDBRANCH   9  10
ENDBRANCH   3   8
TORSDOF 0
ENDMDL
MODEL 6
REMARK VINA RESULT:    -2.651      2.834      4.252
REMARK INTER + INTRA:          -2.512
REMARK INTER:                  -3.259
REMARK INTRA:                   0.747
REMARK UNBOUND:                 0.759
REMARK SMILES CC1=CC=CC(C)(C)CC1=O
REMARK SMILES IDX 1 1 2 2 3 3 10 4 11 5 9 6 4 8 5 9 6 10 7 11 8 12
REMARK H PARENT
REMARK Flexibility Score: 80.00
ROOT
ATOM      1  C   UNL     1      19.114   0.816  23.363  1.00  0.00     0.048 C 
ATOM      2  C   UNL     1      19.389   1.209  21.931  1.00  0.00    -0.008 C 
ATOM      3  C   UNL     1      19.260   0.254  20.984  1.00  0.00     0.007 C 
ENDROOT
BRANCH   2   4
ATOM      4  C   UNL     1      19.705   2.635  21.670  1.00  0.00     0.159 C 
ATOM      5  O   UNL     1      19.570   3.470  22.607  1.00  0.00    -0.295 OA
BRANCH   4   6
ATOM      6  C   UNL     1      20.196   3.145  20.350  1.00  0.00     0.091 CG0
ATOM      7  G   UNL     1      19.228   2.846  19.184  1.00  0.00     0.000 G0
ENDBRANCH   4   6
ENDBRANCH   2   4
BRANCH   3   8
ATOM      8  C   UNL     1      19.435   0.341  19.516  1.00  0.00    -0.003 C 
ATOM      9  C   UNL     1      19.419   1.423  18.726  1.00  0.00    -0.020 C 
BRANCH   9  10
ATOM     10  C   UNL     1      19.239   2.855  19.169  1.00  0.00    -0.010 CG0
ATOM     11  C   UNL     1      19.645   3.780  18.000  1.00  0.00     0.016 C 
ATOM     12  C   UNL     1      17.751   3.125  19.496  1.00  0.00     0.016 C 
ATOM     13  G   UNL     1      20.173   3.152  20.364  1.00  0.00     0.000 G0
ENDBRANCH   9  10
ENDBRANCH   3   8
TORSDOF 0
ENDMDL
MODEL 7
REMARK VINA RESULT:    -2.230      1.888      3.917
REMARK INTER + INTRA:          -1.992
REMARK INTER:                  -3.010
REMARK INTRA:                   1.018
REMARK UNBOUND:                 0.759
REMARK SMILES CC1=CC=CC(C)(C)CC1=O
REMARK SMILES IDX 1 1 2 2 3 3 10 4 11 5 9 6 4 8 5 9 6 10 7 11 8 12
REMARK H PARENT
REMARK Flexibility Score: 80.00
ROOT
ATOM      1  C   UNL     1      18.857   4.375  24.863  1.00  0.00     0.048 C 
ATOM      2  C   UNL     1      18.732   2.955  24.361  1.00  0.00    -0.008 C 
ATOM      3  C   UNL     1      17.721   2.205  24.850  1.00  0.00     0.007 C 
ENDROOT
BRANCH   2   4
ATOM      4  C   UNL     1      19.687   2.523  23.311  1.00  0.00     0.159 C 
ATOM      5  O   UNL     1      20.738   3.200  23.127  1.00  0.00    -0.295 OA
BRANCH   4   6
ATOM      6  C   UNL     1      19.484   1.310  22.456  1.00  0.00     0.091 CG0
ATOM      7  G   UNL     1      19.401  -0.001  23.270  1.00  0.00     0.000 G0
ENDBRANCH   4   6
ENDBRANCH   2   4
BRANCH   3   8
ATOM      8  C   UNL     1      17.332   0.811  24.535  1.00  0.00    -0.003 C 
ATOM      9  C   UNL     1      18.017  -0.125  23.865  1.00  0.00    -0.020 C 
BRANCH   9  10
ATOM     10  C   UNL     1      19.401   0.021  23.281  1.00  0.00    -0.010 CG0
ATOM     11  C   UNL     1      20.414   0.103  24.446  1.00  0.00     0.016 C 
ATOM     12  C   UNL     1      19.751  -1.223  22.431  1.00  0.00     0.016 C 
ATOM     13  G   UNL     1      19.490   1.336  22.474  1.00  0.00     0.000 G0
ENDBRANCH   9  10
ENDBRANCH   3   8
TORSDOF 0
ENDMDL
MODEL 8
REMARK VINA RESULT:    -2.076      1.503      3.537
REMARK INTER + INTRA:          -1.803
REMARK INTER:                  -2.557
REMARK INTRA:                   0.754
REMARK UNBOUND:                 0.759
REMARK SMILES CC1=CC=CC(C)(C)CC1=O
REMARK SMILES IDX 1 1 2 2 3 3 10 4 11 5 9 6 4 8 5 9 6 10 7 11 8 12
REMARK H PARENT
REMARK Flexibility Score: 80.00
ROOT
ATOM      1  C   UNL     1      17.920   2.970  25.125  1.00  0.00     0.048 C 
ATOM      2  C   UNL     1      18.283   2.123  23.928  1.00  0.00    -0.008 C 
ATOM      3  C   UNL     1      19.113   2.663  23.008  1.00  0.00     0.007 C 
ENDROOT
BRANCH   2   4
ATOM      4  C   UNL     1      17.758   0.736  23.896  1.00  0.00     0.159 C 
ATOM      5  O   UNL     1      17.186   0.278  24.924  1.00  0.00    -0.295 OA
BRANCH   4   6
ATOM      6  C   UNL     1      17.855  -0.158  22.699  1.00  0.00     0.091 CG0
ATOM      7  G   UNL     1      19.308  -0.394  22.230  1.00  0.00     0.000 G0
ENDBRANCH   4   6
ENDBRANCH   2   4
BRANCH   3   8
ATOM      8  C   UNL     1      19.660   2.078  21.762  1.00  0.00    -0.003 C 
ATOM      9  C   UNL     1      19.761   0.791  21.406  1.00  0.00    -0.020 C 
BRANCH   9  10
ATOM     10  C   UNL     1      19.299  -0.401  22.210  1.00  0.00    -0.010 CG0
ATOM     11  C   UNL     1      19.286  -1.636  21.282  1.00  0.00     0.016 C 
ATOM     12  C   UNL     1      20.293  -0.680  23.361  1.00  0.00     0.016 C 
ATOM     13  G   UNL     1      17.858  -0.162  22.714  1.00  0.00     0.000 G0
ENDBRANCH   9  10
ENDBRANCH   3   8
TORSDOF 0
ENDMDL
MODEL 9
REMARK VINA RESULT:    -1.928      1.873      3.344
REMARK INTER + INTRA:          -1.620
REMARK INTER:                  -2.643
REMARK INTRA:                   1.022
REMARK UNBOUND:                 0.759
REMARK SMILES CC1=CC=CC(C)(C)CC1=O
REMARK SMILES IDX 1 1 2 2 3 3 10 4 11 5 9 6 4 8 5 9 6 10 7 11 8 12
REMARK H PARENT
REMARK Flexibility Score: 80.00
ROOT
ATOM      1  C   UNL     1      20.399   0.234  24.802  1.00  0.00     0.048 C 
ATOM      2  C   UNL     1      19.878   0.543  23.418  1.00  0.00    -0.008 C 
ATOM      3  C   UNL     1      20.132  -0.353  22.440  1.00  0.00     0.007 C 
ENDROOT
BRANCH   2   4
ATOM      4  C   UNL     1      19.063   1.773  23.262  1.00  0.00     0.159 C 
ATOM      5  O   UNL     1      19.079   2.635  24.184  1.00  0.00    -0.295 OA
BRANCH   4   6
ATOM      6  C   UNL     1      18.224   2.061  22.055  1.00  0.00     0.091 CG0
ATOM      7  G   UNL     1      19.039   2.100  20.743  1.00  0.00     0.000 G0
ENDBRANCH   4   6
ENDBRANCH   2   4
BRANCH   3   8
ATOM      8  C   UNL     1      19.736  -0.339  21.012  1.00  0.00    -0.003 C 
ATOM      9  C   UNL     1      19.256   0.673  20.279  1.00  0.00    -0.020 C 
BRANCH   9  10
ATOM     10  C   UNL     1      19.026   2.090  20.747  1.00  0.00    -0.010 CG0
ATOM     11  C   UNL     1      20.401   2.743  21.013  1.00  0.00     0.016 C 
ATOM     12  C   UNL     1      18.318   2.905  19.639  1.00  0.00     0.016 C 
ATOM     13  G   UNL     1      18.234   2.079  22.074  1.00  0.00     0.000 G0
ENDBRANCH   9  10
ENDBRANCH   3   8
TORSDOF 0
ENDMDL
