MODEL 1
REMARK VINA RESULT:    -3.597      0.000      0.000
REMARK INTER + INTRA:          -7.292
REMARK INTER:                  -5.700
REMARK INTRA:                  -1.592
REMARK UNBOUND:                -1.592
REMARK SMILES CCCCCCCCCCCC(=O)[O-]
REMARK SMILES IDX 7 1 8 2 9 3 10 4 11 5 12 6 13 7 14 8 6 9 5 10 4 11 3 12 2 13
REMARK SMILES IDX 1 14
REMARK H PARENT
REMARK Flexibility Score: inf
ROOT
ATOM      1  C   UNL     1      25.071  -3.981  54.510  1.00  0.00     0.000 C 
ENDROOT
BRANCH   1   2
ATOM      2  C   UNL     1      26.113  -5.110  54.477  1.00  0.00     0.000 C 
BRANCH   2   3
ATOM      3  C   UNL     1      27.340  -4.808  55.351  1.00  0.00     0.000 C 
BRANCH   3   4
ATOM      4  C   UNL     1      28.647  -4.761  54.544  1.00  0.00     0.006 C 
BRANCH   4   5
ATOM      5  C   UNL     1      28.698  -5.898  53.519  1.00  0.00     0.053 C 
BRANCH   5   6
ATOM      6  C   UNL     1      29.590  -5.532  52.375  1.00  0.00     0.041 C 
ATOM      7  O   UNL     1      30.720  -5.020  52.591  1.00  0.00    -0.550 OA
ATOM      8  O   UNL     1      29.154  -5.712  51.068  1.00  0.00    -0.550 OA
ENDBRANCH   5   6
ENDBRANCH   4   5
ENDBRANCH   3   4
ENDBRANCH   2   3
ENDBRANCH   1   2
BRANCH   1   9
ATOM      9  C   UNL     1      24.868  -3.382  53.112  1.00  0.00     0.000 C 
BRANCH   9  10
ATOM     10  C   UNL     1      25.761  -4.080  52.080  1.00  0.00    -0.000 C 
BRANCH  10  11
ATOM     11  C   UNL     1      26.644  -3.066  51.338  1.00  0.00    -0.000 C 
BRANCH  11  12
ATOM     12  C   UNL     1      26.733  -1.715  52.079  1.00  0.00    -0.000 C 
BRANCH  12  13
ATOM     13  C   UNL     1      28.015  -1.553  52.911  1.00  0.00    -0.003 C 
ATOM     14  C   UNL     1      29.288  -1.796  52.103  1.00  0.00     0.004 C 
ENDBRANCH  12  13
ENDBRANCH  11  12
ENDBRANCH  10  11
ENDBRANCH   9  10
ENDBRANCH   1   9
TORSDOF 10
ENDMDL
MODEL 2
REMARK VINA RESULT:    -3.585      1.026      3.253
REMARK INTER + INTRA:          -7.273
REMARK INTER:                  -5.793
REMARK INTRA:                  -1.480
REMARK UNBOUND:                -1.592
REMARK SMILES CCCCCCCCCCCC(=O)[O-]
REMARK SMILES IDX 7 1 8 2 9 3 10 4 11 5 12 6 13 7 14 8 6 9 5 10 4 11 3 12 2 13
REMARK SMILES IDX 1 14
REMARK H PARENT
REMARK Flexibility Score: inf
ROOT
ATOM      1  C   UNL     1      26.956  -1.752  52.241  1.00  0.00     0.000 C 
ENDROOT
BRANCH   1   2
ATOM      2  C   UNL     1      28.459  -1.836  52.548  1.00  0.00     0.000 C 
BRANCH   2   3
ATOM      3  C   UNL     1      28.747  -2.432  53.935  1.00  0.00     0.000 C 
BRANCH   3   4
ATOM      4  C   UNL     1      29.263  -3.877  53.864  1.00  0.00     0.006 C 
BRANCH   4   5
ATOM      5  C   UNL     1      29.810  -4.196  52.470  1.00  0.00     0.053 C 
BRANCH   5   6
ATOM      6  C   UNL     1      29.243  -5.486  51.967  1.00  0.00     0.041 C 
ATOM      7  O   UNL     1      29.484  -5.869  50.792  1.00  0.00    -0.550 OA
ATOM      8  O   UNL     1      28.407  -6.242  52.780  1.00  0.00    -0.550 OA
ENDBRANCH   5   6
ENDBRANCH   4   5
ENDBRANCH   3   4
ENDBRANCH   2   3
ENDBRANCH   1   2
BRANCH   1   9
ATOM      9  C   UNL     1      26.507  -2.933  51.371  1.00  0.00     0.000 C 
BRANCH   9  10
ATOM     10  C   UNL     1      25.784  -3.992  52.212  1.00  0.00    -0.000 C 
BRANCH  10  11
ATOM     11  C   UNL     1      24.849  -3.337  53.239  1.00  0.00    -0.000 C 
BRANCH  11  12
ATOM     12  C   UNL     1      25.195  -3.742  54.687  1.00  0.00    -0.000 C 
BRANCH  12  13
ATOM     13  C   UNL     1      25.882  -5.113  54.796  1.00  0.00    -0.003 C 
ATOM     14  C   UNL     1      26.081  -5.571  56.239  1.00  0.00     0.004 C 
ENDBRANCH  12  13
ENDBRANCH  11  12
ENDBRANCH  10  11
ENDBRANCH   9  10
ENDBRANCH   1   9
TORSDOF 10
ENDMDL
MODEL 3
REMARK VINA RESULT:    -3.502      1.733      3.489
REMARK INTER + INTRA:          -7.142
REMARK INTER:                  -5.753
REMARK INTRA:                  -1.389
REMARK UNBOUND:                -1.592
REMARK SMILES CCCCCCCCCCCC(=O)[O-]
REMARK SMILES IDX 7 1 8 2 9 3 10 4 11 5 12 6 13 7 14 8 6 9 5 10 4 11 3 12 2 13
REMARK SMILES IDX 1 14
REMARK H PARENT
REMARK Flexibility Score: inf
ROOT
ATOM      1  C   UNL     1      26.332  -3.458  51.445  1.00  0.00     0.000 C 
ENDROOT
BRANCH   1   2
ATOM      2  C   UNL     1      26.345  -4.995  51.425  1.00  0.00     0.000 C 
BRANCH   2   3
ATOM      3  C   UNL     1      27.524  -5.587  52.212  1.00  0.00     0.000 C 
BRANCH   3   4
ATOM      4  C   UNL     1      28.844  -5.541  51.428  1.00  0.00     0.006 C 
BRANCH   4   5
ATOM      5  C   UNL     1      29.989  -5.041  52.312  1.00  0.00     0.053 C 
BRANCH   5   6
ATOM      6  C   UNL     1      29.794  -3.600  52.660  1.00  0.00     0.041 C 
ATOM      7  O   UNL     1      29.909  -2.712  51.774  1.00  0.00    -0.550 OA
ATOM      8  O   UNL     1      29.532  -3.231  53.973  1.00  0.00    -0.550 OA
ENDBRANCH   5   6
ENDBRANCH   4   5
ENDBRANCH   3   4
ENDBRANCH   2   3
ENDBRANCH   1   2
BRANCH   1   9
ATOM      9  C   UNL     1      25.994  -2.931  52.846  1.00  0.00     0.000 C 
BRANCH   9  10
ATOM     10  C   UNL     1      24.622  -3.437  53.307  1.00  0.00    -0.000 C 
BRANCH  10  11
ATOM     11  C   UNL     1      24.632  -3.768  54.808  1.00  0.00    -0.000 C 
BRANCH  11  12
ATOM     12  C   UNL     1      26.042  -4.137  55.316  1.00  0.00    -0.000 C 
BRANCH  12  13
ATOM     13  C   UNL     1      26.213  -5.633  55.624  1.00  0.00    -0.003 C 
ATOM     14  C   UNL     1      27.672  -6.046  55.803  1.00  0.00     0.004 C 
ENDBRANCH  12  13
ENDBRANCH  11  12
ENDBRANCH  10  11
ENDBRANCH   9  10
ENDBRANCH   1   9
TORSDOF 10
ENDMDL
MODEL 4
REMARK VINA RESULT:    -3.470      2.047      3.309
REMARK INTER + INTRA:          -7.090
REMARK INTER:                  -5.707
REMARK INTRA:                  -1.383
REMARK UNBOUND:                -1.592
REMARK SMILES CCCCCCCCCCCC(=O)[O-]
REMARK SMILES IDX 7 1 8 2 9 3 10 4 11 5 12 6 13 7 14 8 6 9 5 10 4 11 3 12 2 13
REMARK SMILES IDX 1 14
REMARK H PARENT
REMARK Flexibility Score: inf
ROOT
ATOM      1  C   UNL     1      26.049  -2.773  52.910  1.00  0.00     0.000 C 
ENDROOT
BRANCH   1   2
ATOM      2  C   UNL     1      24.688  -3.320  53.368  1.00  0.00     0.000 C 
BRANCH   2   3
ATOM      3  C   UNL     1      24.751  -3.979  54.754  1.00  0.00     0.000 C 
BRANCH   3   4
ATOM      4  C   UNL     1      26.190  -4.251  55.218  1.00  0.00     0.006 C 
BRANCH   4   5
ATOM      5  C   UNL     1      26.325  -5.665  55.788  1.00  0.00     0.053 C 
BRANCH   5   6
ATOM      6  C   UNL     1      27.758  -5.979  56.079  1.00  0.00     0.041 C 
ATOM      7  O   UNL     1      28.318  -5.500  57.100  1.00  0.00    -0.550 OA
ATOM      8  O   UNL     1      28.491  -6.762  55.195  1.00  0.00    -0.550 OA
ENDBRANCH   5   6
ENDBRANCH   4   5
ENDBRANCH   3   4
ENDBRANCH   2   3
ENDBRANCH   1   2
BRANCH   1   9
ATOM      9  C   UNL     1      26.406  -3.292  51.512  1.00  0.00     0.000 C 
BRANCH   9  10
ATOM     10  C   UNL     1      26.206  -4.809  51.420  1.00  0.00    -0.000 C 
BRANCH  10  11
ATOM     11  C   UNL     1      27.347  -5.560  52.124  1.00  0.00    -0.000 C 
BRANCH  11  12
ATOM     12  C   UNL     1      28.695  -5.395  51.393  1.00  0.00    -0.000 C 
BRANCH  12  13
ATOM     13  C   UNL     1      29.878  -5.126  52.338  1.00  0.00    -0.003 C 
ATOM     14  C   UNL     1      29.602  -4.007  53.340  1.00  0.00     0.004 C 
ENDBRANCH  12  13
ENDBRANCH  11  12
ENDBRANCH  10  11
ENDBRANCH   9  10
ENDBRANCH   1   9
TORSDOF 10
ENDMDL
MODEL 5
REMARK VINA RESULT:    -3.440      1.714      3.393
REMARK INTER + INTRA:          -7.043
REMARK INTER:                  -5.404
REMARK INTRA:                  -1.638
REMARK UNBOUND:                -1.592
REMARK SMILES CCCCCCCCCCCC(=O)[O-]
REMARK SMILES IDX 7 1 8 2 9 3 10 4 11 5 12 6 13 7 14 8 6 9 5 10 4 11 3 12 2 13
REMARK SMILES IDX 1 14
REMARK H PARENT
REMARK Flexibility Score: inf
ROOT
ATOM      1  C   UNL     1      24.959  -2.578  54.932  1.00  0.00     0.000 C 
ENDROOT
BRANCH   1   2
ATOM      2  C   UNL     1      25.435  -2.482  53.474  1.00  0.00     0.000 C 
BRANCH   2   3
ATOM      3  C   UNL     1      25.206  -3.783  52.689  1.00  0.00     0.000 C 
BRANCH   3   4
ATOM      4  C   UNL     1      26.222  -3.978  51.554  1.00  0.00     0.006 C 
BRANCH   4   5
ATOM      5  C   UNL     1      27.066  -5.235  51.783  1.00  0.00     0.053 C 
BRANCH   5   6
ATOM      6  C   UNL     1      28.521  -4.927  51.618  1.00  0.00     0.041 C 
ATOM      7  O   UNL     1      29.384  -5.825  51.802  1.00  0.00    -0.550 OA
ATOM      8  O   UNL     1      28.927  -3.635  51.307  1.00  0.00    -0.550 OA
ENDBRANCH   5   6
ENDBRANCH   4   5
ENDBRANCH   3   4
ENDBRANCH   2   3
ENDBRANCH   1   2
BRANCH   1   9
ATOM      9  C   UNL     1      24.565  -4.018  55.286  1.00  0.00     0.000 C 
BRANCH   9  10
ATOM     10  C   UNL     1      25.466  -4.577  56.394  1.00  0.00    -0.000 C 
BRANCH  10  11
ATOM     11  C   UNL     1      26.181  -5.856  55.931  1.00  0.00    -0.000 C 
BRANCH  11  12
ATOM     12  C   UNL     1      27.562  -5.562  55.309  1.00  0.00    -0.000 C 
BRANCH  12  13
ATOM     13  C   UNL     1      28.278  -4.358  55.942  1.00  0.00    -0.003 C 
ATOM     14  C   UNL     1      28.722  -3.317  54.918  1.00  0.00     0.004 C 
ENDBRANCH  12  13
ENDBRANCH  11  12
ENDBRANCH  10  11
ENDBRANCH   9  10
ENDBRANCH   1   9
TORSDOF 10
ENDMDL
MODEL 6
REMARK VINA RESULT:    -3.426      1.657      3.394
REMARK INTER + INTRA:          -7.022
REMARK INTER:                  -5.419
REMARK INTRA:                  -1.603
REMARK UNBOUND:                -1.592
REMARK SMILES CCCCCCCCCCCC(=O)[O-]
REMARK SMILES IDX 7 1 8 2 9 3 10 4 11 5 12 6 13 7 14 8 6 9 5 10 4 11 3 12 2 13
REMARK SMILES IDX 1 14
REMARK H PARENT
REMARK Flexibility Score: inf
ROOT
ATOM      1  C   UNL     1      26.071  -4.646  51.346  1.00  0.00     0.000 C 
ENDROOT
BRANCH   1   2
ATOM      2  C   UNL     1      27.095  -5.557  52.043  1.00  0.00     0.000 C 
BRANCH   2   3
ATOM      3  C   UNL     1      28.546  -5.148  51.750  1.00  0.00     0.000 C 
BRANCH   3   4
ATOM      4  C   UNL     1      29.434  -5.171  53.004  1.00  0.00     0.006 C 
BRANCH   4   5
ATOM      5  C   UNL     1      29.433  -3.807  53.700  1.00  0.00     0.053 C 
BRANCH   5   6
ATOM      6  C   UNL     1      30.142  -2.791  52.862  1.00  0.00     0.041 C 
ATOM      7  O   UNL     1      29.533  -1.766  52.457  1.00  0.00    -0.550 OA
ATOM      8  O   UNL     1      31.465  -2.998  52.488  1.00  0.00    -0.550 OA
ENDBRANCH   5   6
ENDBRANCH   4   5
ENDBRANCH   3   4
ENDBRANCH   2   3
ENDBRANCH   1   2
BRANCH   1   9
ATOM      9  C   UNL     1      26.417  -3.167  51.562  1.00  0.00     0.000 C 
BRANCH   9  10
ATOM     10  C   UNL     1      26.008  -2.706  52.966  1.00  0.00    -0.000 C 
BRANCH  10  11
ATOM     11  C   UNL     1      24.615  -3.236  53.338  1.00  0.00    -0.000 C 
BRANCH  11  12
ATOM     12  C   UNL     1      24.600  -3.929  54.716  1.00  0.00    -0.000 C 
BRANCH  12  13
ATOM     13  C   UNL     1      26.003  -4.186  55.290  1.00  0.00    -0.003 C 
ATOM     14  C   UNL     1      26.253  -5.655  55.625  1.00  0.00     0.004 C 
ENDBRANCH  12  13
ENDBRANCH  11  12
ENDBRANCH  10  11
ENDBRANCH   9  10
ENDBRANCH   1   9
TORSDOF 10
ENDMDL
MODEL 7
REMARK VINA RESULT:    -3.404      1.427      3.456
REMARK INTER + INTRA:          -6.986
REMARK INTER:                  -5.447
REMARK INTRA:                  -1.538
REMARK UNBOUND:                -1.592
REMARK SMILES CCCCCCCCCCCC(=O)[O-]
REMARK SMILES IDX 7 1 8 2 9 3 10 4 11 5 12 6 13 7 14 8 6 9 5 10 4 11 3 12 2 13
REMARK SMILES IDX 1 14
REMARK H PARENT
REMARK Flexibility Score: inf
ROOT
ATOM      1  C   UNL     1      25.775  -1.811  52.587  1.00  0.00     0.000 C 
ENDROOT
BRANCH   1   2
ATOM      2  C   UNL     1      26.627  -2.642  51.616  1.00  0.00     0.000 C 
BRANCH   2   3
ATOM      3  C   UNL     1      26.081  -4.064  51.416  1.00  0.00     0.000 C 
BRANCH   3   4
ATOM      4  C   UNL     1      26.938  -5.132  52.114  1.00  0.00     0.006 C 
BRANCH   4   5
ATOM      5  C   UNL     1      28.294  -4.558  52.534  1.00  0.00     0.053 C 
BRANCH   5   6
ATOM      6  C   UNL     1      29.402  -5.470  52.113  1.00  0.00     0.041 C 
ATOM      7  O   UNL     1      30.282  -5.824  52.941  1.00  0.00    -0.550 OA
ATOM      8  O   UNL     1      29.492  -5.890  50.792  1.00  0.00    -0.550 OA
ENDBRANCH   5   6
ENDBRANCH   4   5
ENDBRANCH   3   4
ENDBRANCH   2   3
ENDBRANCH   1   2
BRANCH   1   9
ATOM      9  C   UNL     1      26.552  -1.505  53.874  1.00  0.00     0.000 C 
BRANCH   9  10
ATOM     10  C   UNL     1      25.787  -1.996  55.109  1.00  0.00    -0.000 C 
BRANCH  10  11
ATOM     11  C   UNL     1      24.668  -2.971  54.713  1.00  0.00    -0.000 C 
BRANCH  11  12
ATOM     12  C   UNL     1      24.934  -4.404  55.220  1.00  0.00    -0.000 C 
BRANCH  12  13
ATOM     13  C   UNL     1      26.291  -4.566  55.923  1.00  0.00    -0.003 C 
ATOM     14  C   UNL     1      26.918  -5.942  55.707  1.00  0.00     0.004 C 
ENDBRANCH  12  13
ENDBRANCH  11  12
ENDBRANCH  10  11
ENDBRANCH   9  10
ENDBRANCH   1   9
TORSDOF 10
ENDMDL
MODEL 8
REMARK VINA RESULT:    -3.400      1.930      4.201
REMARK INTER + INTRA:          -6.980
REMARK INTER:                  -5.961
REMARK INTRA:                  -1.019
REMARK UNBOUND:                -1.592
REMARK SMILES CCCCCCCCCCCC(=O)[O-]
REMARK SMILES IDX 7 1 8 2 9 3 10 4 11 5 12 6 13 7 14 8 6 9 5 10 4 11 3 12 2 13
REMARK SMILES IDX 1 14
REMARK H PARENT
REMARK Flexibility Score: inf
ROOT
ATOM      1  C   UNL     1      24.639  -3.256  53.257  1.00  0.00     0.000 C 
ENDROOT
BRANCH   1   2
ATOM      2  C   UNL     1      26.119  -2.997  52.934  1.00  0.00     0.000 C 
BRANCH   2   3
ATOM      3  C   UNL     1      26.568  -3.674  51.630  1.00  0.00     0.000 C 
BRANCH   3   4
ATOM      4  C   UNL     1      26.685  -5.200  51.764  1.00  0.00     0.006 C 
BRANCH   4   5
ATOM      5  C   UNL     1      27.894  -5.584  52.621  1.00  0.00     0.053 C 
BRANCH   5   6
ATOM      6  C   UNL     1      29.168  -5.287  51.893  1.00  0.00     0.041 C 
ATOM      7  O   UNL     1      29.952  -4.402  52.324  1.00  0.00    -0.550 OA
ATOM      8  O   UNL     1      29.465  -5.955  50.712  1.00  0.00    -0.550 OA
ENDBRANCH   5   6
ENDBRANCH   4   5
ENDBRANCH   3   4
ENDBRANCH   2   3
ENDBRANCH   1   2
BRANCH   1   9
ATOM      9  C   UNL     1      24.489  -3.975  54.604  1.00  0.00     0.000 C 
BRANCH   9  10
ATOM     10  C   UNL     1      25.841  -4.093  55.318  1.00  0.00    -0.000 C 
BRANCH  10  11
ATOM     11  C   UNL     1      26.004  -5.477  55.964  1.00  0.00    -0.000 C 
BRANCH  11  12
ATOM     12  C   UNL     1      25.935  -5.415  57.505  1.00  0.00    -0.000 C 
BRANCH  12  13
ATOM     13  C   UNL     1      24.550  -5.023  58.043  1.00  0.00    -0.003 C 
ATOM     14  C   UNL     1      24.573  -3.753  58.891  1.00  0.00     0.004 C 
ENDBRANCH  12  13
ENDBRANCH  11  12
ENDBRANCH  10  11
ENDBRANCH   9  10
ENDBRANCH   1   9
TORSDOF 10
ENDMDL
MODEL 9
REMARK VINA RESULT:    -3.388      3.178      4.237
REMARK INTER + INTRA:          -6.961
REMARK INTER:                  -5.187
REMARK INTRA:                  -1.774
REMARK UNBOUND:                -1.592
REMARK SMILES CCCCCCCCCCCC(=O)[O-]
REMARK SMILES IDX 7 1 8 2 9 3 10 4 11 5 12 6 13 7 14 8 6 9 5 10 4 11 3 12 2 13
REMARK SMILES IDX 1 14
REMARK H PARENT
REMARK Flexibility Score: inf
ROOT
ATOM      1  C   UNL     1      27.876  -5.484  53.844  1.00  0.00     0.000 C 
ENDROOT
BRANCH   1   2
ATOM      2  C   UNL     1      28.267  -4.240  54.657  1.00  0.00     0.000 C 
BRANCH   2   3
ATOM      3  C   UNL     1      27.104  -3.696  55.502  1.00  0.00     0.000 C 
BRANCH   3   4
ATOM      4  C   UNL     1      25.819  -4.522  55.345  1.00  0.00     0.006 C 
BRANCH   4   5
ATOM      5  C   UNL     1      24.663  -3.649  54.849  1.00  0.00     0.053 C 
BRANCH   5   6
ATOM      6  C   UNL     1      24.457  -2.484  55.764  1.00  0.00     0.041 C 
ATOM      7  O   UNL     1      24.560  -1.308  55.326  1.00  0.00    -0.550 OA
ATOM      8  O   UNL     1      24.199  -2.696  57.113  1.00  0.00    -0.550 OA
ENDBRANCH   5   6
ENDBRANCH   4   5
ENDBRANCH   3   4
ENDBRANCH   2   3
ENDBRANCH   1   2
BRANCH   1   9
ATOM      9  C   UNL     1      27.902  -5.185  52.339  1.00  0.00     0.000 C 
BRANCH   9  10
ATOM     10  C   UNL     1      26.514  -5.377  51.717  1.00  0.00    -0.000 C 
BRANCH  10  11
ATOM     11  C   UNL     1      25.839  -4.024  51.445  1.00  0.00    -0.000 C 
BRANCH  11  12
ATOM     12  C   UNL     1      26.856  -2.865  51.379  1.00  0.00    -0.000 C 
BRANCH  12  13
ATOM     13  C   UNL     1      26.467  -1.655  52.244  1.00  0.00    -0.003 C 
ATOM     14  C   UNL     1      27.665  -0.990  52.917  1.00  0.00     0.004 C 
ENDBRANCH  12  13
ENDBRANCH  11  12
ENDBRANCH  10  11
ENDBRANCH   9  10
ENDBRANCH   1   9
TORSDOF 10
ENDMDL
