MODEL 1
REMARK VINA RESULT:    -3.939      0.000      0.000
REMARK INTER + INTRA:          -9.406
REMARK INTER:                  -7.394
REMARK INTRA:                  -2.012
REMARK UNBOUND:                -2.012
REMARK SMILES O=C([O-])CCCCCCCCCCCCCCC(=O)[O-]
REMARK SMILES IDX 10 1 9 2 8 3 7 4 6 5 5 6 4 7 2 8 1 9 3 10 11 11 12 12 13 13
REMARK SMILES IDX 14 14 15 15 16 16 17 17 18 18 19 19 20 20
REMARK H PARENT
REMARK Flexibility Score: inf
ROOT
ATOM      1  C   UNL     1     -22.199   5.400  23.701  1.00  0.00     0.000 C 
ENDROOT
BRANCH   1   2
ATOM      2  C   UNL     1     -23.593   5.606  23.088  1.00  0.00     0.000 C 
BRANCH   2   3
ATOM      3  C   UNL     1     -23.649   6.906  22.276  1.00  0.00     0.000 C 
BRANCH   3   4
ATOM      4  C   UNL     1     -22.248   7.513  22.112  1.00  0.00     0.000 C 
BRANCH   4   5
ATOM      5  C   UNL     1     -21.988   8.024  20.686  1.00  0.00     0.000 C 
BRANCH   5   6
ATOM      6  C   UNL     1     -21.342   6.958  19.784  1.00  0.00     0.006 C 
BRANCH   6   7
ATOM      7  C   UNL     1     -20.150   6.270  20.463  1.00  0.00     0.053 C 
BRANCH   7   8
ATOM      8  C   UNL     1     -20.306   4.781  20.477  1.00  0.00     0.041 C 
ATOM      9  O   UNL     1     -19.291   4.036  20.445  1.00  0.00    -0.550 OA
ATOM     10  O   UNL     1     -21.571   4.214  20.560  1.00  0.00    -0.550 OA
ENDBRANCH   7   8
ENDBRANCH   6   7
ENDBRANCH   5   6
ENDBRANCH   4   5
ENDBRANCH   3   4
ENDBRANCH   2   3
ENDBRANCH   1   2
BRANCH   1  11
ATOM     11  C   UNL     1     -22.256   4.889  25.149  1.00  0.00     0.000 C 
BRANCH  11  12
ATOM     12  C   UNL     1     -23.697   4.658  25.636  1.00  0.00     0.000 C 
BRANCH  12  13
ATOM     13  C   UNL     1     -23.824   3.446  26.578  1.00  0.00     0.000 C 
BRANCH  13  14
ATOM     14  C   UNL     1     -24.343   2.157  25.914  1.00  0.00     0.000 C 
BRANCH  14  15
ATOM     15  C   UNL     1     -24.856   2.388  24.481  1.00  0.00     0.000 C 
BRANCH  15  16
ATOM     16  C   UNL     1     -24.305   1.357  23.479  1.00  0.00     0.006 C 
BRANCH  16  17
ATOM     17  C   UNL     1     -23.246   1.919  22.518  1.00  0.00     0.053 C 
BRANCH  17  18
ATOM     18  C   UNL     1     -22.353   0.845  21.976  1.00  0.00     0.041 C 
ATOM     19  O   UNL     1     -21.232   1.141  21.484  1.00  0.00    -0.550 OA
ATOM     20  O   UNL     1     -22.773  -0.479  21.982  1.00  0.00    -0.550 OA
ENDBRANCH  17  18
ENDBRANCH  16  17
ENDBRANCH  15  16
ENDBRANCH  14  15
ENDBRANCH  13  14
ENDBRANCH  12  13
ENDBRANCH  11  12
ENDBRANCH   1  11
TORSDOF 15
ENDMDL
MODEL 2
REMARK VINA RESULT:    -3.816      2.509      5.142
REMARK INTER + INTRA:          -9.174
REMARK INTER:                  -7.477
REMARK INTRA:                  -1.698
REMARK UNBOUND:                -2.012
REMARK SMILES O=C([O-])CCCCCCCCCCCCCCC(=O)[O-]
REMARK SMILES IDX 10 1 9 2 8 3 7 4 6 5 5 6 4 7 2 8 1 9 3 10 11 11 12 12 13 13
REMARK SMILES IDX 14 14 15 15 16 16 17 17 18 18 19 19 20 20
REMARK H PARENT
REMARK Flexibility Score: inf
ROOT
ATOM      1  C   UNL     1     -21.024   7.627  21.709  1.00  0.00     0.000 C 
ENDROOT
BRANCH   1   2
ATOM      2  C   UNL     1     -22.060   7.313  22.799  1.00  0.00     0.000 C 
BRANCH   2   3
ATOM      3  C   UNL     1     -23.479   7.290  22.217  1.00  0.00     0.000 C 
BRANCH   3   4
ATOM      4  C   UNL     1     -24.369   6.294  22.975  1.00  0.00     0.000 C 
BRANCH   4   5
ATOM      5  C   UNL     1     -23.592   5.063  23.468  1.00  0.00     0.000 C 
BRANCH   5   6
ATOM      6  C   UNL     1     -24.423   4.178  24.413  1.00  0.00     0.006 C 
BRANCH   6   7
ATOM      7  C   UNL     1     -24.899   4.945  25.654  1.00  0.00     0.053 C 
BRANCH   7   8
ATOM      8  C   UNL     1     -23.910   4.851  26.776  1.00  0.00     0.041 C 
ATOM      9  O   UNL     1     -23.043   3.937  26.783  1.00  0.00    -0.550 OA
ATOM     10  O   UNL     1     -23.925   5.792  27.796  1.00  0.00    -0.550 OA
ENDBRANCH   7   8
ENDBRANCH   6   7
ENDBRANCH   5   6
ENDBRANCH   4   5
ENDBRANCH   3   4
ENDBRANCH   2   3
ENDBRANCH   1   2
BRANCH   1  11
ATOM     11  C   UNL     1     -21.609   7.546  20.291  1.00  0.00     0.000 C 
BRANCH  11  12
ATOM     12  C   UNL     1     -21.071   6.342  19.499  1.00  0.00     0.000 C 
BRANCH  12  13
ATOM     13  C   UNL     1     -21.427   4.990  20.146  1.00  0.00     0.000 C 
BRANCH  13  14
ATOM     14  C   UNL     1     -20.229   4.203  20.709  1.00  0.00     0.000 C 
BRANCH  14  15
ATOM     15  C   UNL     1     -20.550   3.498  22.039  1.00  0.00     0.000 C 
BRANCH  15  16
ATOM     16  C   UNL     1     -21.552   2.341  21.873  1.00  0.00     0.006 C 
BRANCH  16  17
ATOM     17  C   UNL     1     -20.915   1.018  21.419  1.00  0.00     0.053 C 
BRANCH  17  18
ATOM     18  C   UNL     1     -21.864  -0.135  21.544  1.00  0.00     0.041 C 
ATOM     19  O   UNL     1     -22.948   0.002  22.169  1.00  0.00    -0.550 OA
ATOM     20  O   UNL     1     -21.535  -1.371  21.000  1.00  0.00    -0.550 OA
ENDBRANCH  17  18
ENDBRANCH  16  17
ENDBRANCH  15  16
ENDBRANCH  14  15
ENDBRANCH  13  14
ENDBRANCH  12  13
ENDBRANCH  11  12
ENDBRANCH   1  11
TORSDOF 15
ENDMDL
MODEL 3
REMARK VINA RESULT:    -3.809      1.409      5.569
REMARK INTER + INTRA:          -9.162
REMARK INTER:                  -7.258
REMARK INTRA:                  -1.904
REMARK UNBOUND:                -2.012
REMARK SMILES O=C([O-])CCCCCCCCCCCCCCC(=O)[O-]
REMARK SMILES IDX 10 1 9 2 8 3 7 4 6 5 5 6 4 7 2 8 1 9 3 10 11 11 12 12 13 13
REMARK SMILES IDX 14 14 15 15 16 16 17 17 18 18 19 19 20 20
REMARK H PARENT
REMARK Flexibility Score: inf
ROOT
ATOM      1  C   UNL     1     -23.581   2.574  25.516  1.00  0.00     0.000 C 
ENDROOT
BRANCH   1   2
ATOM      2  C   UNL     1     -24.470   2.086  24.361  1.00  0.00     0.000 C 
BRANCH   2   3
ATOM      3  C   UNL     1     -23.717   1.089  23.472  1.00  0.00     0.000 C 
BRANCH   3   4
ATOM      4  C   UNL     1     -23.313   1.735  22.139  1.00  0.00     0.000 C 
BRANCH   4   5
ATOM      5  C   UNL     1     -21.818   2.087  22.081  1.00  0.00     0.000 C 
BRANCH   5   6
ATOM      6  C   UNL     1     -20.916   0.908  22.483  1.00  0.00     0.006 C 
BRANCH   6   7
ATOM      7  C   UNL     1     -20.649  -0.043  21.309  1.00  0.00     0.053 C 
BRANCH   7   8
ATOM      8  C   UNL     1     -21.393  -1.334  21.463  1.00  0.00     0.041 C 
ATOM      9  O   UNL     1     -22.541  -1.469  20.961  1.00  0.00    -0.550 OA
ATOM     10  O   UNL     1     -20.805  -2.400  22.131  1.00  0.00    -0.550 OA
ENDBRANCH   7   8
ENDBRANCH   6   7
ENDBRANCH   5   6
ENDBRANCH   4   5
ENDBRANCH   3   4
ENDBRANCH   2   3
ENDBRANCH   1   2
BRANCH   1  11
ATOM     11  C   UNL     1     -23.444   4.103  25.554  1.00  0.00     0.000 C 
BRANCH  11  12
ATOM     12  C   UNL     1     -22.060   4.583  25.084  1.00  0.00     0.000 C 
BRANCH  12  13
ATOM     13  C   UNL     1     -22.118   5.383  23.768  1.00  0.00     0.000 C 
BRANCH  13  14
ATOM     14  C   UNL     1     -23.510   5.464  23.116  1.00  0.00     0.000 C 
BRANCH  14  15
ATOM     15  C   UNL     1     -23.722   6.762  22.317  1.00  0.00     0.000 C 
BRANCH  15  16
ATOM     16  C   UNL     1     -22.410   7.529  22.070  1.00  0.00     0.006 C 
BRANCH  16  17
ATOM     17  C   UNL     1     -22.084   7.755  20.585  1.00  0.00     0.053 C 
BRANCH  17  18
ATOM     18  C   UNL     1     -21.104   6.748  20.065  1.00  0.00     0.041 C 
ATOM     19  O   UNL     1     -20.032   6.527  20.688  1.00  0.00    -0.550 OA
ATOM     20  O   UNL     1     -21.358   6.079  18.874  1.00  0.00    -0.550 OA
ENDBRANCH  17  18
ENDBRANCH  16  17
ENDBRANCH  15  16
ENDBRANCH  14  15
ENDBRANCH  13  14
ENDBRANCH  12  13
ENDBRANCH  11  12
ENDBRANCH   1  11
TORSDOF 15
ENDMDL
MODEL 4
REMARK VINA RESULT:    -3.789      1.778      5.584
REMARK INTER + INTRA:          -9.124
REMARK INTER:                  -7.292
REMARK INTRA:                  -1.831
REMARK UNBOUND:                -2.012
REMARK SMILES O=C([O-])CCCCCCCCCCCCCCC(=O)[O-]
REMARK SMILES IDX 10 1 9 2 8 3 7 4 6 5 5 6 4 7 2 8 1 9 3 10 11 11 12 12 13 13
REMARK SMILES IDX 14 14 15 15 16 16 17 17 18 18 19 19 20 20
REMARK H PARENT
REMARK Flexibility Score: inf
ROOT
ATOM      1  C   UNL     1     -23.771   5.496  22.958  1.00  0.00     0.000 C 
ENDROOT
BRANCH   1   2
ATOM      2  C   UNL     1     -22.695   5.130  23.993  1.00  0.00     0.000 C 
BRANCH   2   3
ATOM      3  C   UNL     1     -22.216   3.686  23.799  1.00  0.00     0.000 C 
BRANCH   3   4
ATOM      4  C   UNL     1     -23.068   2.959  22.748  1.00  0.00     0.000 C 
BRANCH   4   5
ATOM      5  C   UNL     1     -23.891   1.808  23.347  1.00  0.00     0.000 C 
BRANCH   5   6
ATOM      6  C   UNL     1     -23.229   0.436  23.137  1.00  0.00     0.006 C 
BRANCH   6   7
ATOM      7  C   UNL     1     -22.518   0.337  21.780  1.00  0.00     0.053 C 
BRANCH   7   8
ATOM      8  C   UNL     1     -22.263  -1.086  21.391  1.00  0.00     0.041 C 
ATOM      9  O   UNL     1     -22.151  -1.976  22.276  1.00  0.00    -0.550 OA
ATOM     10  O   UNL     1     -22.182  -1.437  20.050  1.00  0.00    -0.550 OA
ENDBRANCH   7   8
ENDBRANCH   6   7
ENDBRANCH   5   6
ENDBRANCH   4   5
ENDBRANCH   3   4
ENDBRANCH   2   3
ENDBRANCH   1   2
BRANCH   1  11
ATOM     11  C   UNL     1     -23.673   6.956  22.490  1.00  0.00     0.000 C 
BRANCH  11  12
ATOM     12  C   UNL     1     -22.242   7.349  22.082  1.00  0.00     0.000 C 
BRANCH  12  13
ATOM     13  C   UNL     1     -22.087   7.555  20.563  1.00  0.00     0.000 C 
BRANCH  13  14
ATOM     14  C   UNL     1     -21.081   6.613  19.877  1.00  0.00     0.000 C 
BRANCH  14  15
ATOM     15  C   UNL     1     -21.197   5.157  20.364  1.00  0.00     0.000 C 
BRANCH  15  16
ATOM     16  C   UNL     1     -19.862   4.595  20.884  1.00  0.00     0.006 C 
BRANCH  16  17
ATOM     17  C   UNL     1     -19.813   3.061  20.963  1.00  0.00     0.053 C 
BRANCH  17  18
ATOM     18  C   UNL     1     -18.421   2.533  20.793  1.00  0.00     0.041 C 
ATOM     19  O   UNL     1     -17.561   3.206  20.165  1.00  0.00    -0.550 OA
ATOM     20  O   UNL     1     -18.083   1.284  21.299  1.00  0.00    -0.550 OA
ENDBRANCH  17  18
ENDBRANCH  16  17
ENDBRANCH  15  16
ENDBRANCH  14  15
ENDBRANCH  13  14
ENDBRANCH  12  13
ENDBRANCH  11  12
ENDBRANCH   1  11
TORSDOF 15
ENDMDL
MODEL 5
REMARK VINA RESULT:    -3.777      1.493      5.214
REMARK INTER + INTRA:          -9.101
REMARK INTER:                  -7.002
REMARK INTRA:                  -2.099
REMARK UNBOUND:                -2.012
REMARK SMILES O=C([O-])CCCCCCCCCCCCCCC(=O)[O-]
REMARK SMILES IDX 10 1 9 2 8 3 7 4 6 5 5 6 4 7 2 8 1 9 3 10 11 11 12 12 13 13
REMARK SMILES IDX 14 14 15 15 16 16 17 17 18 18 19 19 20 20
REMARK H PARENT
REMARK Flexibility Score: inf
ROOT
ATOM      1  C   UNL     1     -23.013   4.170  26.240  1.00  0.00     0.000 C 
ENDROOT
BRANCH   1   2
ATOM      2  C   UNL     1     -21.892   5.145  25.846  1.00  0.00     0.000 C 
BRANCH   2   3
ATOM      3  C   UNL     1     -21.022   4.558  24.727  1.00  0.00     0.000 C 
BRANCH   3   4
ATOM      4  C   UNL     1     -21.565   3.198  24.264  1.00  0.00     0.000 C 
BRANCH   4   5
ATOM      5  C   UNL     1     -21.737   3.119  22.739  1.00  0.00     0.000 C 
BRANCH   5   6
ATOM      6  C   UNL     1     -22.835   2.127  22.318  1.00  0.00     0.006 C 
BRANCH   6   7
ATOM      7  C   UNL     1     -22.254   0.844  21.710  1.00  0.00     0.053 C 
BRANCH   7   8
ATOM      8  C   UNL     1     -22.500  -0.345  22.589  1.00  0.00     0.041 C 
ATOM      9  O   UNL     1     -22.461  -0.227  23.842  1.00  0.00    -0.550 OA
ATOM     10  O   UNL     1     -22.805  -1.576  22.023  1.00  0.00    -0.550 OA
ENDBRANCH   7   8
ENDBRANCH   6   7
ENDBRANCH   5   6
ENDBRANCH   4   5
ENDBRANCH   3   4
ENDBRANCH   2   3
ENDBRANCH   1   2
BRANCH   1  11
ATOM     11  C   UNL     1     -24.409   4.808  26.164  1.00  0.00     0.000 C 
BRANCH  11  12
ATOM     12  C   UNL     1     -25.107   4.541  24.820  1.00  0.00     0.000 C 
BRANCH  12  13
ATOM     13  C   UNL     1     -25.074   5.756  23.874  1.00  0.00     0.000 C 
BRANCH  13  14
ATOM     14  C   UNL     1     -23.990   5.702  22.781  1.00  0.00     0.000 C 
BRANCH  14  15
ATOM     15  C   UNL     1     -23.576   7.097  22.280  1.00  0.00     0.000 C 
BRANCH  15  16
ATOM     16  C   UNL     1     -22.067   7.361  22.435  1.00  0.00     0.006 C 
BRANCH  16  17
ATOM     17  C   UNL     1     -21.350   7.702  21.119  1.00  0.00     0.053 C 
BRANCH  17  18
ATOM     18  C   UNL     1     -20.730   6.493  20.487  1.00  0.00     0.041 C 
ATOM     19  O   UNL     1     -21.454   5.636  19.914  1.00  0.00    -0.550 OA
ATOM     20  O   UNL     1     -19.357   6.295  20.561  1.00  0.00    -0.550 OA
ENDBRANCH  17  18
ENDBRANCH  16  17
ENDBRANCH  15  16
ENDBRANCH  14  15
ENDBRANCH  13  14
ENDBRANCH  12  13
ENDBRANCH  11  12
ENDBRANCH   1  11
TORSDOF 15
ENDMDL
MODEL 6
REMARK VINA RESULT:    -3.745      2.392      4.665
REMARK INTER + INTRA:          -9.041
REMARK INTER:                  -7.196
REMARK INTRA:                  -1.845
REMARK UNBOUND:                -2.012
REMARK SMILES O=C([O-])CCCCCCCCCCCCCCC(=O)[O-]
REMARK SMILES IDX 10 1 9 2 8 3 7 4 6 5 5 6 4 7 2 8 1 9 3 10 11 11 12 12 13 13
REMARK SMILES IDX 14 14 15 15 16 16 17 17 18 18 19 19 20 20
REMARK H PARENT
REMARK Flexibility Score: inf
ROOT
ATOM      1  C   UNL     1     -20.379   6.962  21.967  1.00  0.00     0.000 C 
ENDROOT
BRANCH   1   2
ATOM      2  C   UNL     1     -21.574   7.366  22.844  1.00  0.00     0.000 C 
BRANCH   2   3
ATOM      3  C   UNL     1     -22.874   7.374  22.031  1.00  0.00     0.000 C 
BRANCH   3   4
ATOM      4  C   UNL     1     -23.895   6.386  22.613  1.00  0.00     0.000 C 
BRANCH   4   5
ATOM      5  C   UNL     1     -23.290   5.482  23.699  1.00  0.00     0.000 C 
BRANCH   5   6
ATOM      6  C   UNL     1     -23.988   4.114  23.787  1.00  0.00     0.006 C 
BRANCH   6   7
ATOM      7  C   UNL     1     -23.157   3.089  24.570  1.00  0.00     0.053 C 
BRANCH   7   8
ATOM      8  C   UNL     1     -23.792   1.733  24.553  1.00  0.00     0.041 C 
ATOM      9  O   UNL     1     -23.639   0.948  25.526  1.00  0.00    -0.550 OA
ATOM     10  O   UNL     1     -24.581   1.348  23.477  1.00  0.00    -0.550 OA
ENDBRANCH   7   8
ENDBRANCH   6   7
ENDBRANCH   5   6
ENDBRANCH   4   5
ENDBRANCH   3   4
ENDBRANCH   2   3
ENDBRANCH   1   2
BRANCH   1  11
ATOM     11  C   UNL     1     -20.794   6.575  20.539  1.00  0.00     0.000 C 
BRANCH  11  12
ATOM     12  C   UNL     1     -20.473   5.107  20.210  1.00  0.00     0.000 C 
BRANCH  12  13
ATOM     13  C   UNL     1     -21.392   4.112  20.945  1.00  0.00     0.000 C 
BRANCH  13  14
ATOM     14  C   UNL     1     -20.676   3.176  21.936  1.00  0.00     0.000 C 
BRANCH  14  15
ATOM     15  C   UNL     1     -20.179   1.876  21.279  1.00  0.00     0.000 C 
BRANCH  15  16
ATOM     16  C   UNL     1     -20.721   0.614  21.973  1.00  0.00     0.006 C 
BRANCH  16  17
ATOM     17  C   UNL     1     -22.046   0.095  21.391  1.00  0.00     0.053 C 
BRANCH  17  18
ATOM     18  C   UNL     1     -21.936  -1.324  20.921  1.00  0.00     0.041 C 
ATOM     19  O   UNL     1     -22.293  -1.633  19.753  1.00  0.00    -0.550 OA
ATOM     20  O   UNL     1     -21.473  -2.309  21.784  1.00  0.00    -0.550 OA
ENDBRANCH  17  18
ENDBRANCH  16  17
ENDBRANCH  15  16
ENDBRANCH  14  15
ENDBRANCH  13  14
ENDBRANCH  12  13
ENDBRANCH  11  12
ENDBRANCH   1  11
TORSDOF 15
ENDMDL
MODEL 7
REMARK VINA RESULT:    -3.729     20.926     22.735
REMARK INTER + INTRA:          -9.011
REMARK INTER:                  -6.830
REMARK INTRA:                  -2.181
REMARK UNBOUND:                -2.012
REMARK SMILES O=C([O-])CCCCCCCCCCCCCCC(=O)[O-]
REMARK SMILES IDX 10 1 9 2 8 3 7 4 6 5 5 6 4 7 2 8 1 9 3 10 11 11 12 12 13 13
REMARK SMILES IDX 14 14 15 15 16 16 17 17 18 18 19 19 20 20
REMARK H PARENT
REMARK Flexibility Score: inf
ROOT
ATOM      1  C   UNL     1      -6.740  -9.085  34.900  1.00  0.00     0.000 C 
ENDROOT
BRANCH   1   2
ATOM      2  C   UNL     1      -6.889  -9.475  33.421  1.00  0.00     0.000 C 
BRANCH   2   3
ATOM      3  C   UNL     1      -5.696  -8.973  32.598  1.00  0.00     0.000 C 
BRANCH   3   4
ATOM      4  C   UNL     1      -5.528  -9.797  31.313  1.00  0.00     0.000 C 
BRANCH   4   5
ATOM      5  C   UNL     1      -5.645 -11.309  31.560  1.00  0.00     0.000 C 
BRANCH   5   6
ATOM      6  C   UNL     1      -6.502 -12.018  30.497  1.00  0.00     0.006 C 
BRANCH   6   7
ATOM      7  C   UNL     1      -7.862 -11.337  30.302  1.00  0.00     0.053 C 
BRANCH   7   8
ATOM      8  C   UNL     1      -8.142 -11.064  28.856  1.00  0.00     0.041 C 
ATOM      9  O   UNL     1      -7.258 -10.545  28.125  1.00  0.00    -0.550 OA
ATOM     10  O   UNL     1      -9.369 -11.415  28.307  1.00  0.00    -0.550 OA
ENDBRANCH   7   8
ENDBRANCH   6   7
ENDBRANCH   5   6
ENDBRANCH   4   5
ENDBRANCH   3   4
ENDBRANCH   2   3
ENDBRANCH   1   2
BRANCH   1  11
ATOM     11  C   UNL     1      -5.313  -8.640  35.256  1.00  0.00     0.000 C 
BRANCH  11  12
ATOM     12  C   UNL     1      -5.292  -7.487  36.275  1.00  0.00     0.000 C 
BRANCH  12  13
ATOM     13  C   UNL     1      -5.812  -6.160  35.690  1.00  0.00     0.000 C 
BRANCH  13  14
ATOM     14  C   UNL     1      -5.127  -5.710  34.386  1.00  0.00     0.000 C 
BRANCH  14  15
ATOM     15  C   UNL     1      -6.131  -5.284  33.300  1.00  0.00     0.000 C 
BRANCH  15  16
ATOM     16  C   UNL     1      -7.581  -5.666  33.647  1.00  0.00     0.006 C 
BRANCH  16  17
ATOM     17  C   UNL     1      -8.377  -6.249  32.468  1.00  0.00     0.053 C 
BRANCH  17  18
ATOM     18  C   UNL     1      -9.744  -6.703  32.882  1.00  0.00     0.041 C 
ATOM     19  O   UNL     1     -10.583  -5.871  33.316  1.00  0.00    -0.550 OA
ATOM     20  O   UNL     1     -10.077  -8.051  32.823  1.00  0.00    -0.550 OA
ENDBRANCH  17  18
ENDBRANCH  16  17
ENDBRANCH  15  16
ENDBRANCH  14  15
ENDBRANCH  13  14
ENDBRANCH  12  13
ENDBRANCH  11  12
ENDBRANCH   1  11
TORSDOF 15
ENDMDL
MODEL 8
REMARK VINA RESULT:    -3.705      2.241      5.212
REMARK INTER + INTRA:          -8.966
REMARK INTER:                  -7.323
REMARK INTRA:                  -1.643
REMARK UNBOUND:                -2.012
REMARK SMILES O=C([O-])CCCCCCCCCCCCCCC(=O)[O-]
REMARK SMILES IDX 10 1 9 2 8 3 7 4 6 5 5 6 4 7 2 8 1 9 3 10 11 11 12 12 13 13
REMARK SMILES IDX 14 14 15 15 16 16 17 17 18 18 19 19 20 20
REMARK H PARENT
REMARK Flexibility Score: inf
ROOT
ATOM      1  C   UNL     1     -21.370   6.632  19.372  1.00  0.00     0.000 C 
ENDROOT
BRANCH   1   2
ATOM      2  C   UNL     1     -20.547   5.588  20.141  1.00  0.00     0.000 C 
BRANCH   2   3
ATOM      3  C   UNL     1     -21.428   4.414  20.587  1.00  0.00     0.000 C 
BRANCH   3   4
ATOM      4  C   UNL     1     -20.794   3.670  21.772  1.00  0.00     0.000 C 
BRANCH   4   5
ATOM      5  C   UNL     1     -20.321   2.257  21.398  1.00  0.00     0.000 C 
BRANCH   5   6
ATOM      6  C   UNL     1     -20.910   1.172  22.315  1.00  0.00     0.006 C 
BRANCH   6   7
ATOM      7  C   UNL     1     -22.062   0.411  21.646  1.00  0.00     0.053 C 
BRANCH   7   8
ATOM      8  C   UNL     1     -21.599  -0.884  21.053  1.00  0.00     0.041 C 
ATOM      9  O   UNL     1     -20.444  -1.320  21.303  1.00  0.00    -0.550 OA
ATOM     10  O   UNL     1     -22.455  -1.626  20.249  1.00  0.00    -0.550 OA
ENDBRANCH   7   8
ENDBRANCH   6   7
ENDBRANCH   5   6
ENDBRANCH   4   5
ENDBRANCH   3   4
ENDBRANCH   2   3
ENDBRANCH   1   2
BRANCH   1  11
ATOM     11  C   UNL     1     -21.799   7.816  20.252  1.00  0.00     0.000 C 
BRANCH  11  12
ATOM     12  C   UNL     1     -21.182   7.758  21.660  1.00  0.00     0.000 C 
BRANCH  12  13
ATOM     13  C   UNL     1     -22.178   7.276  22.732  1.00  0.00     0.000 C 
BRANCH  13  14
ATOM     14  C   UNL     1     -23.608   7.016  22.223  1.00  0.00     0.000 C 
BRANCH  14  15
ATOM     15  C   UNL     1     -24.364   5.974  23.066  1.00  0.00     0.000 C 
BRANCH  15  16
ATOM     16  C   UNL     1     -23.428   5.144  23.963  1.00  0.00     0.006 C 
BRANCH  16  17
ATOM     17  C   UNL     1     -23.773   3.647  24.016  1.00  0.00     0.053 C 
BRANCH  17  18
ATOM     18  C   UNL     1     -23.843   3.136  25.423  1.00  0.00     0.041 C 
ATOM     19  O   UNL     1     -24.795   2.393  25.781  1.00  0.00    -0.550 OA
ATOM     20  O   UNL     1     -22.875   3.509  26.348  1.00  0.00    -0.550 OA
ENDBRANCH  17  18
ENDBRANCH  16  17
ENDBRANCH  15  16
ENDBRANCH  14  15
ENDBRANCH  13  14
ENDBRANCH  12  13
ENDBRANCH  11  12
ENDBRANCH   1  11
TORSDOF 15
ENDMDL
MODEL 9
REMARK VINA RESULT:    -3.690      1.825      5.088
REMARK INTER + INTRA:          -8.937
REMARK INTER:                  -7.150
REMARK INTRA:                  -1.788
REMARK UNBOUND:                -2.012
REMARK SMILES O=C([O-])CCCCCCCCCCCCCCC(=O)[O-]
REMARK SMILES IDX 10 1 9 2 8 3 7 4 6 5 5 6 4 7 2 8 1 9 3 10 11 11 12 12 13 13
REMARK SMILES IDX 14 14 15 15 16 16 17 17 18 18 19 19 20 20
REMARK H PARENT
REMARK Flexibility Score: inf
ROOT
ATOM      1  C   UNL     1     -23.623   2.594  25.144  1.00  0.00     0.000 C 
ENDROOT
BRANCH   1   2
ATOM      2  C   UNL     1     -23.688   1.212  24.473  1.00  0.00     0.000 C 
BRANCH   2   3
ATOM      3  C   UNL     1     -24.098   1.336  23.000  1.00  0.00     0.000 C 
BRANCH   3   4
ATOM      4  C   UNL     1     -22.916   1.805  22.138  1.00  0.00     0.000 C 
BRANCH   4   5
ATOM      5  C   UNL     1     -21.938   0.668  21.804  1.00  0.00     0.000 C 
BRANCH   5   6
ATOM      6  C   UNL     1     -20.521   1.177  21.492  1.00  0.00     0.006 C 
BRANCH   6   7
ATOM      7  C   UNL     1     -20.460   2.709  21.420  1.00  0.00     0.053 C 
BRANCH   7   8
ATOM      8  C   UNL     1     -19.654   3.284  22.543  1.00  0.00     0.041 C 
ATOM      9  O   UNL     1     -18.547   3.838  22.312  1.00  0.00    -0.550 OA
ATOM     10  O   UNL     1     -20.143   3.240  23.843  1.00  0.00    -0.550 OA
ENDBRANCH   7   8
ENDBRANCH   6   7
ENDBRANCH   5   6
ENDBRANCH   4   5
ENDBRANCH   3   4
ENDBRANCH   2   3
ENDBRANCH   1   2
BRANCH   1  11
ATOM     11  C   UNL     1     -24.969   3.334  25.110  1.00  0.00     0.000 C 
BRANCH  11  12
ATOM     12  C   UNL     1     -24.861   4.723  24.455  1.00  0.00     0.000 C 
BRANCH  12  13
ATOM     13  C   UNL     1     -23.415   5.099  24.081  1.00  0.00     0.000 C 
BRANCH  13  14
ATOM     14  C   UNL     1     -23.194   5.439  22.595  1.00  0.00     0.000 C 
BRANCH  14  15
ATOM     15  C   UNL     1     -23.538   6.901  22.259  1.00  0.00     0.000 C 
BRANCH  15  16
ATOM     16  C   UNL     1     -22.305   7.718  21.829  1.00  0.00     0.006 C 
BRANCH  16  17
ATOM     17  C   UNL     1     -22.098   7.789  20.308  1.00  0.00     0.053 C 
BRANCH  17  18
ATOM     18  C   UNL     1     -21.154   6.732  19.819  1.00  0.00     0.041 C 
ATOM     19  O   UNL     1     -21.328   6.201  18.691  1.00  0.00    -0.550 OA
ATOM     20  O   UNL     1     -20.104   6.311  20.625  1.00  0.00    -0.550 OA
ENDBRANCH  17  18
ENDBRANCH  16  17
ENDBRANCH  15  16
ENDBRANCH  14  15
ENDBRANCH  13  14
ENDBRANCH  12  13
ENDBRANCH  11  12
ENDBRANCH   1  11
TORSDOF 15
ENDMDL
