MODEL 1
REMARK VINA RESULT:    -0.235      0.000      0.000
REMARK INTER + INTRA:          -0.235
REMARK INTER:                  -0.235
REMARK INTRA:                   0.000
REMARK UNBOUND:                 0.000
REMARK SMILES CC(C)=C1CC[C@@H](C)CC1=O
REMARK SMILES IDX 8 1 7 2 6 3 5 4 4 5 2 6 1 7 3 8 10 9 11 10 9 11
REMARK H PARENT
REMARK Flexibility Score: inf
ROOT
ATOM      1  C   UNL     1     139.281 137.428 136.319  1.00  0.00     0.008 C 
ATOM      2  C   UNL     1     138.081 137.225 137.257  1.00  0.00    -0.006 C 
ATOM      3  C   UNL     1     137.765 138.487 138.080  1.00  0.00     0.008 C 
ATOM      4  C   UNL     1     138.865 138.835 139.094  1.00  0.00     0.039 C 
ATOM      5  C   UNL     1     139.288 137.645 139.944  1.00  0.00    -0.006 C 
ATOM      6  C   UNL     1     139.747 137.814 141.220  1.00  0.00    -0.070 C 
ATOM      7  C   UNL     1     139.869 139.191 141.832  1.00  0.00     0.039 C 
ATOM      8  C   UNL     1     140.119 136.638 142.095  1.00  0.00     0.039 C 
ATOM      9  C   UNL     1     139.287 136.315 139.266  1.00  0.00     0.159 C 
ATOM     10  O   UNL     1     140.125 135.423 139.571  1.00  0.00    -0.295 OA
ATOM     11  C   UNL     1     138.284 136.021 138.188  1.00  0.00     0.084 C 
ENDROOT
TORSDOF 0
ENDMDL
MODEL 2
REMARK VINA RESULT:    -0.202      2.019      2.558
REMARK INTER + INTRA:          -0.202
REMARK INTER:                  -0.202
REMARK INTRA:                   0.000
REMARK UNBOUND:                 0.000
REMARK SMILES CC(C)=C1CC[C@@H](C)CC1=O
REMARK SMILES IDX 8 1 7 2 6 3 5 4 4 5 2 6 1 7 3 8 10 9 11 10 9 11
REMARK H PARENT
REMARK Flexibility Score: inf
ROOT
ATOM      1  C   UNL     1     138.589 136.666 137.165  1.00  0.00     0.008 C 
ATOM      2  C   UNL     1     138.701 138.199 137.145  1.00  0.00    -0.006 C 
ATOM      3  C   UNL     1     139.999 138.697 137.807  1.00  0.00     0.008 C 
ATOM      4  C   UNL     1     140.046 138.426 139.318  1.00  0.00     0.039 C 
ATOM      5  C   UNL     1     138.783 138.873 140.043  1.00  0.00    -0.006 C 
ATOM      6  C   UNL     1     138.823 139.286 141.344  1.00  0.00    -0.070 C 
ATOM      7  C   UNL     1     140.119 139.299 142.122  1.00  0.00     0.039 C 
ATOM      8  C   UNL     1     137.588 139.785 142.059  1.00  0.00     0.039 C 
ATOM      9  C   UNL     1     137.502 138.719 139.292  1.00  0.00     0.159 C 
ATOM     10  O   UNL     1     136.423 138.453 139.887  1.00  0.00    -0.295 OA
ATOM     11  C   UNL     1     137.482 138.866 137.798  1.00  0.00     0.084 C 
ENDROOT
TORSDOF 0
ENDMDL
MODEL 3
REMARK VINA RESULT:    -0.199      1.981      2.857
REMARK INTER + INTRA:          -0.199
REMARK INTER:                  -0.199
REMARK INTRA:                   0.000
REMARK UNBOUND:                 0.000
REMARK SMILES CC(C)=C1CC[C@@H](C)CC1=O
REMARK SMILES IDX 8 1 7 2 6 3 5 4 4 5 2 6 1 7 3 8 10 9 11 10 9 11
REMARK H PARENT
REMARK Flexibility Score: inf
ROOT
ATOM      1  C   UNL     1     136.040 137.129 137.887  1.00  0.00     0.008 C 
ATOM      2  C   UNL     1     137.391 137.750 137.499  1.00  0.00    -0.006 C 
ATOM      3  C   UNL     1     138.583 136.901 137.977  1.00  0.00     0.008 C 
ATOM      4  C   UNL     1     138.716 136.860 139.507  1.00  0.00     0.039 C 
ATOM      5  C   UNL     1     138.657 138.241 140.147  1.00  0.00    -0.006 C 
ATOM      6  C   UNL     1     139.320 138.510 141.310  1.00  0.00    -0.070 C 
ATOM      7  C   UNL     1     140.125 137.444 142.018  1.00  0.00     0.039 C 
ATOM      8  C   UNL     1     139.316 139.890 141.928  1.00  0.00     0.039 C 
ATOM      9  C   UNL     1     137.746 139.230 139.500  1.00  0.00     0.159 C 
ATOM     10  O   UNL     1     137.139 140.103 140.178  1.00  0.00    -0.295 OA
ATOM     11  C   UNL     1     137.524 139.191 138.015  1.00  0.00     0.084 C 
ENDROOT
TORSDOF 0
ENDMDL
MODEL 4
REMARK VINA RESULT:    -0.185      2.585      4.653
REMARK INTER + INTRA:          -0.185
REMARK INTER:                  -0.185
REMARK INTRA:                   0.000
REMARK UNBOUND:                 0.000
REMARK SMILES CC(C)=C1CC[C@@H](C)CC1=O
REMARK SMILES IDX 8 1 7 2 6 3 5 4 4 5 2 6 1 7 3 8 10 9 11 10 9 11
REMARK H PARENT
REMARK Flexibility Score: inf
ROOT
ATOM      1  C   UNL     1     140.124 138.186 141.164  1.00  0.00     0.008 C 
ATOM      2  C   UNL     1     139.773 139.678 141.049  1.00  0.00    -0.006 C 
ATOM      3  C   UNL     1     138.544 140.055 141.897  1.00  0.00     0.008 C 
ATOM      4  C   UNL     1     137.243 139.414 141.389  1.00  0.00     0.039 C 
ATOM      5  C   UNL     1     137.032 139.605 139.893  1.00  0.00    -0.006 C 
ATOM      6  C   UNL     1     135.776 139.678 139.360  1.00  0.00    -0.070 C 
ATOM      7  C   UNL     1     134.547 139.555 140.231  1.00  0.00     0.039 C 
ATOM      8  C   UNL     1     135.550 139.923 137.885  1.00  0.00     0.039 C 
ATOM      9  C   UNL     1     138.260 139.584 139.044  1.00  0.00     0.159 C 
ATOM     10  O   UNL     1     138.236 139.127 137.869  1.00  0.00    -0.295 OA
ATOM     11  C   UNL     1     139.560 140.102 139.589  1.00  0.00     0.084 C 
ENDROOT
TORSDOF 0
ENDMDL
MODEL 5
REMARK VINA RESULT:    -0.161      2.387      4.017
REMARK INTER + INTRA:          -0.161
REMARK INTER:                  -0.161
REMARK INTRA:                   0.000
REMARK UNBOUND:                 0.000
REMARK SMILES CC(C)=C1CC[C@@H](C)CC1=O
REMARK SMILES IDX 8 1 7 2 6 3 5 4 4 5 2 6 1 7 3 8 10 9 11 10 9 11
REMARK H PARENT
REMARK Flexibility Score: inf
ROOT
ATOM      1  C   UNL     1     137.959 140.001 140.939  1.00  0.00     0.008 C 
ATOM      2  C   UNL     1     138.354 138.921 141.960  1.00  0.00    -0.006 C 
ATOM      3  C   UNL     1     139.720 138.287 141.639  1.00  0.00     0.008 C 
ATOM      4  C   UNL     1     139.712 137.465 140.342  1.00  0.00     0.039 C 
ATOM      5  C   UNL     1     138.552 136.480 140.269  1.00  0.00    -0.006 C 
ATOM      6  C   UNL     1     138.663 135.305 139.582  1.00  0.00    -0.070 C 
ATOM      7  C   UNL     1     139.937 134.943 138.853  1.00  0.00     0.039 C 
ATOM      8  C   UNL     1     137.541 134.294 139.547  1.00  0.00     0.039 C 
ATOM      9  C   UNL     1     137.266 136.928 140.882  1.00  0.00     0.159 C 
ATOM     10  O   UNL     1     136.154 136.571 140.405  1.00  0.00    -0.295 OA
ATOM     11  C   UNL     1     137.278 137.832 142.080  1.00  0.00     0.084 C 
ENDROOT
TORSDOF 0
ENDMDL
MODEL 6
REMARK VINA RESULT:    -0.135      2.902      3.482
REMARK INTER + INTRA:          -0.135
REMARK INTER:                  -0.135
REMARK INTRA:                   0.000
REMARK UNBOUND:                 0.000
REMARK SMILES CC(C)=C1CC[C@@H](C)CC1=O
REMARK SMILES IDX 8 1 7 2 6 3 5 4 4 5 2 6 1 7 3 8 10 9 11 10 9 11
REMARK H PARENT
REMARK Flexibility Score: inf
ROOT
ATOM      1  C   UNL     1     134.408 135.874 139.833  1.00  0.00     0.008 C 
ATOM      2  C   UNL     1     135.275 135.200 140.908  1.00  0.00    -0.006 C 
ATOM      3  C   UNL     1     135.511 136.114 142.125  1.00  0.00     0.008 C 
ATOM      4  C   UNL     1     136.369 137.345 141.795  1.00  0.00     0.039 C 
ATOM      5  C   UNL     1     137.645 136.995 141.040  1.00  0.00    -0.006 C 
ATOM      6  C   UNL     1     138.775 137.751 141.171  1.00  0.00    -0.070 C 
ATOM      7  C   UNL     1     138.799 138.975 142.059  1.00  0.00     0.039 C 
ATOM      8  C   UNL     1     140.064 137.385 140.472  1.00  0.00     0.039 C 
ATOM      9  C   UNL     1     137.549 135.865 140.069  1.00  0.00     0.159 C 
ATOM     10  O   UNL     1     138.232 135.853 139.009  1.00  0.00    -0.295 OA
ATOM     11  C   UNL     1     136.617 134.719 140.337  1.00  0.00     0.084 C 
ENDROOT
TORSDOF 0
ENDMDL
MODEL 7
REMARK VINA RESULT:    -0.132     20.181     22.217
REMARK INTER + INTRA:          -0.132
REMARK INTER:                  -0.132
REMARK INTRA:                   0.000
REMARK UNBOUND:                 0.000
REMARK SMILES CC(C)=C1CC[C@@H](C)CC1=O
REMARK SMILES IDX 8 1 7 2 6 3 5 4 4 5 2 6 1 7 3 8 10 9 11 10 9 11
REMARK H PARENT
REMARK Flexibility Score: inf
ROOT
ATOM      1  C   UNL     1     138.454 122.156 127.928  1.00  0.00     0.008 C 
ATOM      2  C   UNL     1     138.767 120.680 127.632  1.00  0.00    -0.006 C 
ATOM      3  C   UNL     1     140.092 120.507 126.868  1.00  0.00     0.008 C 
ATOM      4  C   UNL     1     140.045 121.081 125.444  1.00  0.00     0.039 C 
ATOM      5  C   UNL     1     138.825 120.620 124.657  1.00  0.00    -0.006 C 
ATOM      6  C   UNL     1     138.868 120.488 123.298  1.00  0.00    -0.070 C 
ATOM      7  C   UNL     1     140.124 120.809 122.520  1.00  0.00     0.039 C 
ATOM      8  C   UNL     1     137.683 119.979 122.510  1.00  0.00     0.039 C 
ATOM      9  C   UNL     1     137.565 120.444 125.437  1.00  0.00     0.159 C 
ATOM     10  O   UNL     1     136.437 120.674 124.921  1.00  0.00    -0.295 OA
ATOM     11  C   UNL     1     137.622 119.998 126.870  1.00  0.00     0.084 C 
ENDROOT
TORSDOF 0
ENDMDL
MODEL 8
REMARK VINA RESULT:    -0.124     21.175     21.898
REMARK INTER + INTRA:          -0.124
REMARK INTER:                  -0.124
REMARK INTRA:                   0.000
REMARK UNBOUND:                 0.000
REMARK SMILES CC(C)=C1CC[C@@H](C)CC1=O
REMARK SMILES IDX 8 1 7 2 6 3 5 4 4 5 2 6 1 7 3 8 10 9 11 10 9 11
REMARK H PARENT
REMARK Flexibility Score: inf
ROOT
ATOM      1  C   UNL     1     140.101 122.639 123.296  1.00  0.00     0.008 C 
ATOM      2  C   UNL     1     139.615 121.191 123.123  1.00  0.00    -0.006 C 
ATOM      3  C   UNL     1     138.095 121.111 122.887  1.00  0.00     0.008 C 
ATOM      4  C   UNL     1     137.273 121.545 124.110  1.00  0.00     0.039 C 
ATOM      5  C   UNL     1     137.725 120.873 125.399  1.00  0.00    -0.006 C 
ATOM      6  C   UNL     1     136.845 120.625 126.414  1.00  0.00    -0.070 C 
ATOM      7  C   UNL     1     135.390 121.024 126.304  1.00  0.00     0.039 C 
ATOM      8  C   UNL     1     137.266 119.909 127.677  1.00  0.00     0.039 C 
ATOM      9  C   UNL     1     139.190 120.617 125.533  1.00  0.00     0.159 C 
ATOM     10  O   UNL     1     139.763 120.663 126.655  1.00  0.00    -0.295 OA
ATOM     11  C   UNL     1     140.014 120.311 124.316  1.00  0.00     0.084 C 
ENDROOT
TORSDOF 0
ENDMDL
MODEL 9
REMARK VINA RESULT:    -0.120     21.149     21.856
REMARK INTER + INTRA:          -0.120
REMARK INTER:                  -0.120
REMARK INTRA:                   0.000
REMARK UNBOUND:                 0.000
REMARK SMILES CC(C)=C1CC[C@@H](C)CC1=O
REMARK SMILES IDX 8 1 7 2 6 3 5 4 4 5 2 6 1 7 3 8 10 9 11 10 9 11
REMARK H PARENT
REMARK Flexibility Score: inf
ROOT
ATOM      1  C   UNL     1     138.597 120.785 122.104  1.00  0.00     0.008 C 
ATOM      2  C   UNL     1     138.466 121.996 123.041  1.00  0.00    -0.006 C 
ATOM      3  C   UNL     1     139.722 122.201 123.908  1.00  0.00     0.008 C 
ATOM      4  C   UNL     1     139.939 121.073 124.928  1.00  0.00     0.039 C 
ATOM      5  C   UNL     1     138.688 120.752 125.735  1.00  0.00    -0.006 C 
ATOM      6  C   UNL     1     138.772 120.277 127.013  1.00  0.00    -0.070 C 
ATOM      7  C   UNL     1     140.112 120.036 127.671  1.00  0.00     0.039 C 
ATOM      8  C   UNL     1     137.540 120.006 127.845  1.00  0.00     0.039 C 
ATOM      9  C   UNL     1     137.387 120.869 125.011  1.00  0.00     0.159 C 
ATOM     10  O   UNL     1     136.417 120.110 125.281  1.00  0.00    -0.295 OA
ATOM     11  C   UNL     1     137.218 121.896 123.929  1.00  0.00     0.084 C 
ENDROOT
TORSDOF 0
ENDMDL
