MODEL 1
REMARK VINA RESULT:    -3.953      0.000      0.000
REMARK INTER + INTRA:          -9.128
REMARK INTER:                  -7.419
REMARK INTRA:                  -1.709
REMARK UNBOUND:                -1.709
REMARK SMILES O=C([O-])CCCCCCCCCCCCCCC(=O)[O-]
REMARK SMILES IDX 10 1 9 2 8 3 7 4 6 5 5 6 4 7 2 8 1 9 3 10 11 11 12 12 13 13
REMARK SMILES IDX 14 14 15 15 16 16 17 17 18 18 19 19 20 20
REMARK H PARENT
REMARK Flexibility Score: inf
ROOT
ATOM      1  C   UNL     1      28.939  32.866  20.474  1.00  0.00     0.000 C 
ENDROOT
BRANCH   1   2
ATOM      2  C   UNL     1      30.015  33.870  20.012  1.00  0.00     0.000 C 
BRANCH   2   3
ATOM      3  C   UNL     1      30.868  33.317  18.856  1.00  0.00     0.000 C 
BRANCH   3   4
ATOM      4  C   UNL     1      32.370  33.588  19.040  1.00  0.00     0.000 C 
BRANCH   4   5
ATOM      5  C   UNL     1      33.220  32.311  18.935  1.00  0.00     0.000 C 
BRANCH   5   6
ATOM      6  C   UNL     1      34.439  32.488  18.016  1.00  0.00     0.006 C 
BRANCH   6   7
ATOM      7  C   UNL     1      34.075  33.125  16.668  1.00  0.00     0.053 C 
BRANCH   7   8
ATOM      8  C   UNL     1      33.948  32.073  15.612  1.00  0.00     0.041 C 
ATOM      9  O   UNL     1      33.527  32.375  14.463  1.00  0.00    -0.550 OA
ATOM     10  O   UNL     1      34.341  30.768  15.880  1.00  0.00    -0.550 OA
ENDBRANCH   7   8
ENDBRANCH   6   7
ENDBRANCH   5   6
ENDBRANCH   4   5
ENDBRANCH   3   4
ENDBRANCH   2   3
ENDBRANCH   1   2
BRANCH   1  11
ATOM     11  C   UNL     1      28.005  33.424  21.562  1.00  0.00     0.000 C 
BRANCH  11  12
ATOM     12  C   UNL     1      28.502  33.125  22.986  1.00  0.00     0.000 C 
BRANCH  12  13
ATOM     13  C   UNL     1      28.714  34.402  23.815  1.00  0.00     0.000 C 
BRANCH  13  14
ATOM     14  C   UNL     1      30.163  34.917  23.742  1.00  0.00     0.000 C 
BRANCH  14  15
ATOM     15  C   UNL     1      31.175  33.808  23.400  1.00  0.00     0.000 C 
BRANCH  15  16
ATOM     16  C   UNL     1      32.471  34.298  22.730  1.00  0.00     0.006 C 
BRANCH  16  17
ATOM     17  C   UNL     1      33.496  33.177  22.517  1.00  0.00     0.053 C 
BRANCH  17  18
ATOM     18  C   UNL     1      34.830  33.751  22.156  1.00  0.00     0.041 C 
ATOM     19  O   UNL     1      34.919  34.646  21.276  1.00  0.00    -0.550 OA
ATOM     20  O   UNL     1      35.981  33.263  22.761  1.00  0.00    -0.550 OA
ENDBRANCH  17  18
ENDBRANCH  16  17
ENDBRANCH  15  16
ENDBRANCH  14  15
ENDBRANCH  13  14
ENDBRANCH  12  13
ENDBRANCH  11  12
ENDBRANCH   1  11
TORSDOF 15
ENDMDL
MODEL 2
REMARK VINA RESULT:    -3.863      1.142      5.611
REMARK INTER + INTRA:          -8.959
REMARK INTER:                  -6.973
REMARK INTRA:                  -1.987
REMARK UNBOUND:                -1.709
REMARK SMILES O=C([O-])CCCCCCCCCCCCCCC(=O)[O-]
REMARK SMILES IDX 10 1 9 2 8 3 7 4 6 5 5 6 4 7 2 8 1 9 3 10 11 11 12 12 13 13
REMARK SMILES IDX 14 14 15 15 16 16 17 17 18 18 19 19 20 20
REMARK H PARENT
REMARK Flexibility Score: inf
ROOT
ATOM      1  C   UNL     1      28.523  33.056  20.599  1.00  0.00     0.000 C 
ENDROOT
BRANCH   1   2
ATOM      2  C   UNL     1      28.338  34.265  21.539  1.00  0.00     0.000 C 
BRANCH   2   3
ATOM      3  C   UNL     1      28.609  33.904  23.011  1.00  0.00     0.000 C 
BRANCH   3   4
ATOM      4  C   UNL     1      30.079  34.102  23.413  1.00  0.00     0.000 C 
BRANCH   4   5
ATOM      5  C   UNL     1      30.914  32.820  23.255  1.00  0.00     0.000 C 
BRANCH   5   6
ATOM      6  C   UNL     1      32.295  33.089  22.635  1.00  0.00     0.006 C 
BRANCH   6   7
ATOM      7  C   UNL     1      32.706  34.565  22.724  1.00  0.00     0.053 C 
BRANCH   7   8
ATOM      8  C   UNL     1      34.194  34.697  22.641  1.00  0.00     0.041 C 
ATOM      9  O   UNL     1      34.733  35.835  22.680  1.00  0.00    -0.550 OA
ATOM     10  O   UNL     1      34.990  33.559  22.571  1.00  0.00    -0.550 OA
ENDBRANCH   7   8
ENDBRANCH   6   7
ENDBRANCH   5   6
ENDBRANCH   4   5
ENDBRANCH   3   4
ENDBRANCH   2   3
ENDBRANCH   1   2
BRANCH   1  11
ATOM     11  C   UNL     1      29.785  33.144  19.724  1.00  0.00     0.000 C 
BRANCH  11  12
ATOM     12  C   UNL     1      30.420  34.544  19.733  1.00  0.00     0.000 C 
BRANCH  12  13
ATOM     13  C   UNL     1      31.786  34.575  19.029  1.00  0.00     0.000 C 
BRANCH  13  14
ATOM     14  C   UNL     1      32.302  33.168  18.683  1.00  0.00     0.000 C 
BRANCH  14  15
ATOM     15  C   UNL     1      33.568  32.785  19.473  1.00  0.00     0.000 C 
BRANCH  15  16
ATOM     16  C   UNL     1      34.496  31.783  18.763  1.00  0.00     0.006 C 
BRANCH  16  17
ATOM     17  C   UNL     1      33.918  31.267  17.439  1.00  0.00     0.053 C 
BRANCH  17  18
ATOM     18  C   UNL     1      34.738  31.756  16.287  1.00  0.00     0.041 C 
ATOM     19  O   UNL     1      34.864  31.051  15.252  1.00  0.00    -0.550 OA
ATOM     20  O   UNL     1      35.403  32.973  16.375  1.00  0.00    -0.550 OA
ENDBRANCH  17  18
ENDBRANCH  16  17
ENDBRANCH  15  16
ENDBRANCH  14  15
ENDBRANCH  13  14
ENDBRANCH  12  13
ENDBRANCH  11  12
ENDBRANCH   1  11
TORSDOF 15
ENDMDL
MODEL 3
REMARK VINA RESULT:    -3.845      3.429      5.130
REMARK INTER + INTRA:          -8.925
REMARK INTER:                  -7.041
REMARK INTRA:                  -1.884
REMARK UNBOUND:                -1.709
REMARK SMILES O=C([O-])CCCCCCCCCCCCCCC(=O)[O-]
REMARK SMILES IDX 10 1 9 2 8 3 7 4 6 5 5 6 4 7 2 8 1 9 3 10 11 11 12 12 13 13
REMARK SMILES IDX 14 14 15 15 16 16 17 17 18 18 19 19 20 20
REMARK H PARENT
REMARK Flexibility Score: inf
ROOT
ATOM      1  C   UNL     1      31.128  36.271  21.824  1.00  0.00     0.000 C 
ENDROOT
BRANCH   1   2
ATOM      2  C   UNL     1      32.038  36.169  20.582  1.00  0.00     0.000 C 
BRANCH   2   3
ATOM      3  C   UNL     1      31.313  35.535  19.380  1.00  0.00     0.000 C 
BRANCH   3   4
ATOM      4  C   UNL     1      30.968  34.054  19.605  1.00  0.00     0.000 C 
BRANCH   4   5
ATOM      5  C   UNL     1      31.461  33.152  18.461  1.00  0.00     0.000 C 
BRANCH   5   6
ATOM      6  C   UNL     1      32.991  33.170  18.313  1.00  0.00     0.006 C 
BRANCH   6   7
ATOM      7  C   UNL     1      33.637  31.829  18.683  1.00  0.00     0.053 C 
BRANCH   7   8
ATOM      8  C   UNL     1      34.444  31.968  19.936  1.00  0.00     0.041 C 
ATOM      9  O   UNL     1      35.682  31.735  19.922  1.00  0.00    -0.550 OA
ATOM     10  O   UNL     1      33.837  32.401  21.108  1.00  0.00    -0.550 OA
ENDBRANCH   7   8
ENDBRANCH   6   7
ENDBRANCH   5   6
ENDBRANCH   4   5
ENDBRANCH   3   4
ENDBRANCH   2   3
ENDBRANCH   1   2
BRANCH   1  11
ATOM     11  C   UNL     1      31.768  35.703  23.102  1.00  0.00     0.000 C 
BRANCH  11  12
ATOM     12  C   UNL     1      30.897  34.635  23.782  1.00  0.00     0.000 C 
BRANCH  12  13
ATOM     13  C   UNL     1      30.956  33.280  23.058  1.00  0.00     0.000 C 
BRANCH  13  14
ATOM     14  C   UNL     1      29.564  32.651  22.872  1.00  0.00     0.000 C 
BRANCH  14  15
ATOM     15  C   UNL     1      28.420  33.667  23.050  1.00  0.00     0.000 C 
BRANCH  15  16
ATOM     16  C   UNL     1      27.892  34.282  21.740  1.00  0.00     0.006 C 
BRANCH  16  17
ATOM     17  C   UNL     1      27.572  33.229  20.672  1.00  0.00     0.053 C 
BRANCH  17  18
ATOM     18  C   UNL     1      26.275  33.548  19.997  1.00  0.00     0.041 C 
ATOM     19  O   UNL     1      26.202  34.503  19.181  1.00  0.00    -0.550 OA
ATOM     20  O   UNL     1      25.134  32.818  20.306  1.00  0.00    -0.550 OA
ENDBRANCH  17  18
ENDBRANCH  16  17
ENDBRANCH  15  16
ENDBRANCH  14  15
ENDBRANCH  13  14
ENDBRANCH  12  13
ENDBRANCH  11  12
ENDBRANCH   1  11
TORSDOF 15
ENDMDL
MODEL 4
REMARK VINA RESULT:    -3.827      2.487      6.328
REMARK INTER + INTRA:          -8.892
REMARK INTER:                  -6.619
REMARK INTRA:                  -2.273
REMARK UNBOUND:                -1.709
REMARK SMILES O=C([O-])CCCCCCCCCCCCCCC(=O)[O-]
REMARK SMILES IDX 10 1 9 2 8 3 7 4 6 5 5 6 4 7 2 8 1 9 3 10 11 11 12 12 13 13
REMARK SMILES IDX 14 14 15 15 16 16 17 17 18 18 19 19 20 20
REMARK H PARENT
REMARK Flexibility Score: inf
ROOT
ATOM      1  C   UNL     1      32.895  35.504  20.303  1.00  0.00     0.000 C 
ENDROOT
BRANCH   1   2
ATOM      2  C   UNL     1      32.876  35.288  21.831  1.00  0.00     0.000 C 
BRANCH   2   3
ATOM      3  C   UNL     1      33.469  33.926  22.233  1.00  0.00     0.000 C 
BRANCH   3   4
ATOM      4  C   UNL     1      32.396  32.910  22.657  1.00  0.00     0.000 C 
BRANCH   4   5
ATOM      5  C   UNL     1      31.052  33.576  22.999  1.00  0.00     0.000 C 
BRANCH   5   6
ATOM      6  C   UNL     1      29.898  32.564  23.082  1.00  0.00     0.006 C 
BRANCH   6   7
ATOM      7  C   UNL     1      28.520  33.239  23.091  1.00  0.00     0.053 C 
BRANCH   7   8
ATOM      8  C   UNL     1      28.213  33.816  21.744  1.00  0.00     0.041 C 
ATOM      9  O   UNL     1      28.120  35.064  21.595  1.00  0.00    -0.550 OA
ATOM     10  O   UNL     1      28.079  32.979  20.643  1.00  0.00    -0.550 OA
ENDBRANCH   7   8
ENDBRANCH   6   7
ENDBRANCH   5   6
ENDBRANCH   4   5
ENDBRANCH   3   4
ENDBRANCH   2   3
ENDBRANCH   1   2
BRANCH   1  11
ATOM     11  C   UNL     1      31.520  35.318  19.639  1.00  0.00     0.000 C 
BRANCH  11  12
ATOM     12  C   UNL     1      31.245  33.862  19.232  1.00  0.00     0.000 C 
BRANCH  12  13
ATOM     13  C   UNL     1      32.353  33.282  18.338  1.00  0.00     0.000 C 
BRANCH  13  14
ATOM     14  C   UNL     1      33.049  32.066  18.975  1.00  0.00     0.000 C 
BRANCH  14  15
ATOM     15  C   UNL     1      34.584  32.191  18.979  1.00  0.00     0.000 C 
BRANCH  15  16
ATOM     16  C   UNL     1      35.140  33.362  18.148  1.00  0.00     0.006 C 
BRANCH  16  17
ATOM     17  C   UNL     1      35.944  32.900  16.927  1.00  0.00     0.053 C 
BRANCH  17  18
ATOM     18  C   UNL     1      35.025  32.415  15.851  1.00  0.00     0.041 C 
ATOM     19  O   UNL     1      34.303  33.228  15.217  1.00  0.00    -0.550 OA
ATOM     20  O   UNL     1      34.932  31.056  15.579  1.00  0.00    -0.550 OA
ENDBRANCH  17  18
ENDBRANCH  16  17
ENDBRANCH  15  16
ENDBRANCH  14  15
ENDBRANCH  13  14
ENDBRANCH  12  13
ENDBRANCH  11  12
ENDBRANCH   1  11
TORSDOF 15
ENDMDL
MODEL 5
REMARK VINA RESULT:    -3.791      2.361      6.544
REMARK INTER + INTRA:          -8.824
REMARK INTER:                  -6.926
REMARK INTRA:                  -1.898
REMARK UNBOUND:                -1.709
REMARK SMILES O=C([O-])CCCCCCCCCCCCCCC(=O)[O-]
REMARK SMILES IDX 10 1 9 2 8 3 7 4 6 5 5 6 4 7 2 8 1 9 3 10 11 11 12 12 13 13
REMARK SMILES IDX 14 14 15 15 16 16 17 17 18 18 19 19 20 20
REMARK H PARENT
REMARK Flexibility Score: inf
ROOT
ATOM      1  C   UNL     1      33.091  34.886  16.590  1.00  0.00     0.000 C 
ENDROOT
BRANCH   1   2
ATOM      2  C   UNL     1      32.270  34.987  17.893  1.00  0.00     0.000 C 
BRANCH   2   3
ATOM      3  C   UNL     1      31.557  33.666  18.234  1.00  0.00     0.000 C 
BRANCH   3   4
ATOM      4  C   UNL     1      31.157  33.569  19.715  1.00  0.00     0.000 C 
BRANCH   4   5
ATOM      5  C   UNL     1      29.801  34.234  20.007  1.00  0.00     0.000 C 
BRANCH   5   6
ATOM      6  C   UNL     1      28.721  33.217  20.408  1.00  0.00     0.006 C 
BRANCH   6   7
ATOM      7  C   UNL     1      28.119  33.507  21.789  1.00  0.00     0.053 C 
BRANCH   7   8
ATOM      8  C   UNL     1      29.075  33.106  22.868  1.00  0.00     0.041 C 
ATOM      9  O   UNL     1      29.334  31.890  23.067  1.00  0.00    -0.550 OA
ATOM     10  O   UNL     1      29.718  34.080  23.624  1.00  0.00    -0.550 OA
ENDBRANCH   7   8
ENDBRANCH   6   7
ENDBRANCH   5   6
ENDBRANCH   4   5
ENDBRANCH   3   4
ENDBRANCH   2   3
ENDBRANCH   1   2
BRANCH   1  11
ATOM     11  C   UNL     1      32.316  34.249  15.424  1.00  0.00     0.000 C 
BRANCH  11  12
ATOM     12  C   UNL     1      33.043  33.038  14.817  1.00  0.00     0.000 C 
BRANCH  12  13
ATOM     13  C   UNL     1      34.324  32.675  15.585  1.00  0.00     0.000 C 
BRANCH  13  14
ATOM     14  C   UNL     1      34.302  31.231  16.118  1.00  0.00     0.000 C 
BRANCH  14  15
ATOM     15  C   UNL     1      34.065  31.159  17.638  1.00  0.00     0.000 C 
BRANCH  15  16
ATOM     16  C   UNL     1      34.819  32.219  18.462  1.00  0.00     0.006 C 
BRANCH  16  17
ATOM     17  C   UNL     1      34.785  31.940  19.969  1.00  0.00     0.053 C 
BRANCH  17  18
ATOM     18  C   UNL     1      34.782  33.224  20.738  1.00  0.00     0.041 C 
ATOM     19  O   UNL     1      34.934  34.322  20.141  1.00  0.00    -0.550 OA
ATOM     20  O   UNL     1      34.656  33.205  22.121  1.00  0.00    -0.550 OA
ENDBRANCH  17  18
ENDBRANCH  16  17
ENDBRANCH  15  16
ENDBRANCH  14  15
ENDBRANCH  13  14
ENDBRANCH  12  13
ENDBRANCH  11  12
ENDBRANCH   1  11
TORSDOF 15
ENDMDL
MODEL 6
REMARK VINA RESULT:    -3.781      1.450      4.908
REMARK INTER + INTRA:          -8.806
REMARK INTER:                  -6.972
REMARK INTRA:                  -1.834
REMARK UNBOUND:                -1.709
REMARK SMILES O=C([O-])CCCCCCCCCCCCCCC(=O)[O-]
REMARK SMILES IDX 10 1 9 2 8 3 7 4 6 5 5 6 4 7 2 8 1 9 3 10 11 11 12 12 13 13
REMARK SMILES IDX 14 14 15 15 16 16 17 17 18 18 19 19 20 20
REMARK H PARENT
REMARK Flexibility Score: inf
ROOT
ATOM      1  C   UNL     1      29.269  32.538  23.031  1.00  0.00     0.000 C 
ENDROOT
BRANCH   1   2
ATOM      2  C   UNL     1      30.807  32.662  23.028  1.00  0.00     0.000 C 
BRANCH   2   3
ATOM      3  C   UNL     1      31.274  34.109  23.270  1.00  0.00     0.000 C 
BRANCH   3   4
ATOM      4  C   UNL     1      32.661  34.396  22.674  1.00  0.00     0.000 C 
BRANCH   4   5
ATOM      5  C   UNL     1      33.410  33.114  22.274  1.00  0.00     0.000 C 
BRANCH   5   6
ATOM      6  C   UNL     1      34.649  33.400  21.410  1.00  0.00     0.006 C 
BRANCH   6   7
ATOM      7  C   UNL     1      35.954  33.359  22.214  1.00  0.00     0.053 C 
BRANCH   7   8
ATOM      8  C   UNL     1      37.092  32.933  21.340  1.00  0.00     0.041 C 
ATOM      9  O   UNL     1      38.232  33.450  21.486  1.00  0.00    -0.550 OA
ATOM     10  O   UNL     1      36.906  31.931  20.397  1.00  0.00    -0.550 OA
ENDBRANCH   7   8
ENDBRANCH   6   7
ENDBRANCH   5   6
ENDBRANCH   4   5
ENDBRANCH   3   4
ENDBRANCH   2   3
ENDBRANCH   1   2
BRANCH   1  11
ATOM     11  C   UNL     1      28.580  33.407  21.965  1.00  0.00     0.000 C 
BRANCH  11  12
ATOM     12  C   UNL     1      28.969  33.013  20.531  1.00  0.00     0.000 C 
BRANCH  12  13
ATOM     13  C   UNL     1      29.804  34.097  19.830  1.00  0.00     0.000 C 
BRANCH  13  14
ATOM     14  C   UNL     1      31.149  33.559  19.310  1.00  0.00     0.000 C 
BRANCH  14  15
ATOM     15  C   UNL     1      32.073  34.672  18.780  1.00  0.00     0.000 C 
BRANCH  15  16
ATOM     16  C   UNL     1      33.369  34.175  18.113  1.00  0.00     0.006 C 
BRANCH  16  17
ATOM     17  C   UNL     1      33.111  33.196  16.961  1.00  0.00     0.053 C 
BRANCH  17  18
ATOM     18  C   UNL     1      34.233  32.213  16.851  1.00  0.00     0.041 C 
ATOM     19  O   UNL     1      35.283  32.369  17.527  1.00  0.00    -0.550 OA
ATOM     20  O   UNL     1      34.136  31.146  15.966  1.00  0.00    -0.550 OA
ENDBRANCH  17  18
ENDBRANCH  16  17
ENDBRANCH  15  16
ENDBRANCH  14  15
ENDBRANCH  13  14
ENDBRANCH  12  13
ENDBRANCH  11  12
ENDBRANCH   1  11
TORSDOF 15
ENDMDL
MODEL 7
REMARK VINA RESULT:    -3.749      2.868      6.702
REMARK INTER + INTRA:          -8.745
REMARK INTER:                  -6.341
REMARK INTRA:                  -2.404
REMARK UNBOUND:                -1.709
REMARK SMILES O=C([O-])CCCCCCCCCCCCCCC(=O)[O-]
REMARK SMILES IDX 10 1 9 2 8 3 7 4 6 5 5 6 4 7 2 8 1 9 3 10 11 11 12 12 13 13
REMARK SMILES IDX 14 14 15 15 16 16 17 17 18 18 19 19 20 20
REMARK H PARENT
REMARK Flexibility Score: inf
ROOT
ATOM      1  C   UNL     1      28.989  32.532  22.738  1.00  0.00     0.000 C 
ENDROOT
BRANCH   1   2
ATOM      2  C   UNL     1      28.630  32.745  21.253  1.00  0.00     0.000 C 
BRANCH   2   3
ATOM      3  C   UNL     1      27.445  33.711  21.074  1.00  0.00     0.000 C 
BRANCH   3   4
ATOM      4  C   UNL     1      27.888  35.140  20.722  1.00  0.00     0.000 C 
BRANCH   4   5
ATOM      5  C   UNL     1      27.494  36.164  21.800  1.00  0.00     0.000 C 
BRANCH   5   6
ATOM      6  C   UNL     1      28.495  36.207  22.966  1.00  0.00     0.006 C 
BRANCH   6   7
ATOM      7  C   UNL     1      27.891  35.704  24.283  1.00  0.00     0.053 C 
BRANCH   7   8
ATOM      8  C   UNL     1      28.818  35.987  25.423  1.00  0.00     0.041 C 
ATOM      9  O   UNL     1      28.409  35.896  26.611  1.00  0.00    -0.550 OA
ATOM     10  O   UNL     1      30.148  36.304  25.175  1.00  0.00    -0.550 OA
ENDBRANCH   7   8
ENDBRANCH   6   7
ENDBRANCH   5   6
ENDBRANCH   4   5
ENDBRANCH   3   4
ENDBRANCH   2   3
ENDBRANCH   1   2
BRANCH   1  11
ATOM     11  C   UNL     1      30.499  32.379  22.990  1.00  0.00     0.000 C 
BRANCH  11  12
ATOM     12  C   UNL     1      31.240  33.725  23.003  1.00  0.00     0.000 C 
BRANCH  12  13
ATOM     13  C   UNL     1      32.027  33.976  21.707  1.00  0.00     0.000 C 
BRANCH  13  14
ATOM     14  C   UNL     1      31.536  35.223  20.952  1.00  0.00     0.000 C 
BRANCH  14  15
ATOM     15  C   UNL     1      31.360  34.977  19.442  1.00  0.00     0.000 C 
BRANCH  15  16
ATOM     16  C   UNL     1      31.463  33.502  19.010  1.00  0.00     0.006 C 
BRANCH  16  17
ATOM     17  C   UNL     1      32.515  33.270  17.919  1.00  0.00     0.053 C 
BRANCH  17  18
ATOM     18  C   UNL     1      33.611  32.388  18.430  1.00  0.00     0.041 C 
ATOM     19  O   UNL     1      34.370  32.787  19.351  1.00  0.00    -0.550 OA
ATOM     20  O   UNL     1      33.822  31.141  17.856  1.00  0.00    -0.550 OA
ENDBRANCH  17  18
ENDBRANCH  16  17
ENDBRANCH  15  16
ENDBRANCH  14  15
ENDBRANCH  13  14
ENDBRANCH  12  13
ENDBRANCH  11  12
ENDBRANCH   1  11
TORSDOF 15
ENDMDL
MODEL 8
REMARK VINA RESULT:    -3.739      2.963      6.516
REMARK INTER + INTRA:          -8.727
REMARK INTER:                  -7.074
REMARK INTRA:                  -1.653
REMARK UNBOUND:                -1.709
REMARK SMILES O=C([O-])CCCCCCCCCCCCCCC(=O)[O-]
REMARK SMILES IDX 10 1 9 2 8 3 7 4 6 5 5 6 4 7 2 8 1 9 3 10 11 11 12 12 13 13
REMARK SMILES IDX 14 14 15 15 16 16 17 17 18 18 19 19 20 20
REMARK H PARENT
REMARK Flexibility Score: inf
ROOT
ATOM      1  C   UNL     1      32.136  35.032  23.401  1.00  0.00     0.000 C 
ENDROOT
BRANCH   1   2
ATOM      2  C   UNL     1      30.707  35.425  22.972  1.00  0.00     0.000 C 
BRANCH   2   3
ATOM      3  C   UNL     1      29.647  34.955  23.984  1.00  0.00     0.000 C 
BRANCH   3   4
ATOM      4  C   UNL     1      28.581  34.045  23.352  1.00  0.00     0.000 C 
BRANCH   4   5
ATOM      5  C   UNL     1      29.191  32.830  22.632  1.00  0.00     0.000 C 
BRANCH   5   6
ATOM      6  C   UNL     1      28.656  32.664  21.201  1.00  0.00     0.006 C 
BRANCH   6   7
ATOM      7  C   UNL     1      28.347  34.006  20.525  1.00  0.00     0.053 C 
BRANCH   7   8
ATOM      8  C   UNL     1      26.943  34.016  20.005  1.00  0.00     0.041 C 
ATOM      9  O   UNL     1      26.182  33.035  20.215  1.00  0.00    -0.550 OA
ATOM     10  O   UNL     1      26.460  35.131  19.331  1.00  0.00    -0.550 OA
ENDBRANCH   7   8
ENDBRANCH   6   7
ENDBRANCH   5   6
ENDBRANCH   4   5
ENDBRANCH   3   4
ENDBRANCH   2   3
ENDBRANCH   1   2
BRANCH   1  11
ATOM     11  C   UNL     1      32.694  33.817  22.640  1.00  0.00     0.000 C 
BRANCH  11  12
ATOM     12  C   UNL     1      33.081  34.148  21.190  1.00  0.00     0.000 C 
BRANCH  12  13
ATOM     13  C   UNL     1      32.108  33.539  20.168  1.00  0.00     0.000 C 
BRANCH  13  14
ATOM     14  C   UNL     1      31.785  34.504  19.014  1.00  0.00     0.000 C 
BRANCH  14  15
ATOM     15  C   UNL     1      31.936  33.849  17.628  1.00  0.00     0.000 C 
BRANCH  15  16
ATOM     16  C   UNL     1      33.274  33.123  17.398  1.00  0.00     0.006 C 
BRANCH  16  17
ATOM     17  C   UNL     1      33.922  33.476  16.053  1.00  0.00     0.053 C 
BRANCH  17  18
ATOM     18  C   UNL     1      33.979  32.270  15.169  1.00  0.00     0.041 C 
ATOM     19  O   UNL     1      33.764  32.377  13.934  1.00  0.00    -0.550 OA
ATOM     20  O   UNL     1      34.226  31.018  15.719  1.00  0.00    -0.550 OA
ENDBRANCH  17  18
ENDBRANCH  16  17
ENDBRANCH  15  16
ENDBRANCH  14  15
ENDBRANCH  13  14
ENDBRANCH  12  13
ENDBRANCH  11  12
ENDBRANCH   1  11
TORSDOF 15
ENDMDL
MODEL 9
REMARK VINA RESULT:    -3.706      2.659      5.147
REMARK INTER + INTRA:          -8.665
REMARK INTER:                  -6.397
REMARK INTRA:                  -2.269
REMARK UNBOUND:                -1.709
REMARK SMILES O=C([O-])CCCCCCCCCCCCCCC(=O)[O-]
REMARK SMILES IDX 10 1 9 2 8 3 7 4 6 5 5 6 4 7 2 8 1 9 3 10 11 11 12 12 13 13
REMARK SMILES IDX 14 14 15 15 16 16 17 17 18 18 19 19 20 20
REMARK H PARENT
REMARK Flexibility Score: inf
ROOT
ATOM      1  C   UNL     1      31.983  33.921  17.785  1.00  0.00     0.000 C 
ENDROOT
BRANCH   1   2
ATOM      2  C   UNL     1      32.879  33.506  16.600  1.00  0.00     0.000 C 
BRANCH   2   3
ATOM      3  C   UNL     1      34.076  32.648  17.049  1.00  0.00     0.000 C 
BRANCH   3   4
ATOM      4  C   UNL     1      33.732  31.709  18.216  1.00  0.00     0.000 C 
BRANCH   4   5
ATOM      5  C   UNL     1      34.607  31.962  19.456  1.00  0.00     0.000 C 
BRANCH   5   6
ATOM      6  C   UNL     1      35.578  33.138  19.262  1.00  0.00     0.006 C 
BRANCH   6   7
ATOM      7  C   UNL     1      35.591  34.098  20.459  1.00  0.00     0.053 C 
BRANCH   7   8
ATOM      8  C   UNL     1      36.213  33.438  21.649  1.00  0.00     0.041 C 
ATOM      9  O   UNL     1      35.624  33.455  22.763  1.00  0.00    -0.550 OA
ATOM     10  O   UNL     1      37.420  32.762  21.518  1.00  0.00    -0.550 OA
ENDBRANCH   7   8
ENDBRANCH   6   7
ENDBRANCH   5   6
ENDBRANCH   4   5
ENDBRANCH   3   4
ENDBRANCH   2   3
ENDBRANCH   1   2
BRANCH   1  11
ATOM     11  C   UNL     1      32.451  35.207  18.488  1.00  0.00     0.000 C 
BRANCH  11  12
ATOM     12  C   UNL     1      32.069  35.246  19.977  1.00  0.00     0.000 C 
BRANCH  12  13
ATOM     13  C   UNL     1      31.545  33.893  20.485  1.00  0.00     0.000 C 
BRANCH  13  14
ATOM     14  C   UNL     1      32.154  33.498  21.841  1.00  0.00     0.000 C 
BRANCH  14  15
ATOM     15  C   UNL     1      31.156  33.635  23.007  1.00  0.00     0.000 C 
BRANCH  15  16
ATOM     16  C   UNL     1      30.052  32.562  23.043  1.00  0.00     0.006 C 
BRANCH  16  17
ATOM     17  C   UNL     1      28.643  33.158  23.152  1.00  0.00     0.053 C 
BRANCH  17  18
ATOM     18  C   UNL     1      28.167  33.618  21.810  1.00  0.00     0.041 C 
ATOM     19  O   UNL     1      28.152  32.823  20.834  1.00  0.00    -0.550 OA
ATOM     20  O   UNL     1      27.781  34.940  21.626  1.00  0.00    -0.550 OA
ENDBRANCH  17  18
ENDBRANCH  16  17
ENDBRANCH  15  16
ENDBRANCH  14  15
ENDBRANCH  13  14
ENDBRANCH  12  13
ENDBRANCH  11  12
ENDBRANCH   1  11
TORSDOF 15
ENDMDL
