MODEL 1
REMARK VINA RESULT:    -4.547      0.000      0.000
REMARK INTER + INTRA:          -4.976
REMARK INTER:                  -4.945
REMARK INTRA:                  -0.030
REMARK UNBOUND:                -0.030
REMARK SMILES O=C([O-])c1ccc(O)cc1
REMARK SMILES IDX 4 1 5 2 10 3 6 4 9 5 7 6 2 7 1 8 3 9 8 10
REMARK H PARENT 8 11
REMARK Flexibility Score: inf
ROOT
ATOM      1  C   UNL     1      10.644 -27.266 -10.585  1.00  0.00    -0.003 A 
ATOM      2  C   UNL     1       9.731 -26.490  -9.848  1.00  0.00     0.014 A 
ATOM      3  C   UNL     1      11.510 -26.625 -11.489  1.00  0.00     0.014 A 
ATOM      4  C   UNL     1       9.688 -25.102 -10.012  1.00  0.00     0.047 A 
ATOM      5  C   UNL     1      11.464 -25.236 -11.650  1.00  0.00     0.047 A 
ATOM      6  C   UNL     1      10.555 -24.471 -10.914  1.00  0.00     0.115 A 
ENDROOT
BRANCH   1   7
ATOM      7  C   UNL     1      10.688 -28.734 -10.410  1.00  0.00     0.071 C 
ATOM      8  O   UNL     1      10.742 -29.242  -9.258  1.00  0.00    -0.545 OA
ATOM      9  O   UNL     1      10.670 -29.576 -11.516  1.00  0.00    -0.545 OA
ENDBRANCH   1   7
BRANCH   6  10
ATOM     10  O   UNL     1      10.521 -23.089 -11.085  1.00  0.00    -0.508 OA
ATOM     11  H   UNL     1      11.109 -22.473 -10.535  1.00  0.00     0.293 HD
ENDBRANCH   6  10
TORSDOF 2
ENDMDL
MODEL 2
REMARK VINA RESULT:    -4.414      2.739      4.014
REMARK INTER + INTRA:          -4.831
REMARK INTER:                  -4.795
REMARK INTRA:                  -0.036
REMARK UNBOUND:                -0.030
REMARK SMILES O=C([O-])c1ccc(O)cc1
REMARK SMILES IDX 4 1 5 2 10 3 6 4 9 5 7 6 2 7 1 8 3 9 8 10
REMARK H PARENT 8 11
REMARK Flexibility Score: inf
ROOT
ATOM      1  C   UNL     1       8.457 -24.778 -10.457  1.00  0.00    -0.003 A 
ATOM      2  C   UNL     1       9.390 -25.476  -9.670  1.00  0.00     0.014 A 
ATOM      3  C   UNL     1       8.879 -24.211 -11.674  1.00  0.00     0.014 A 
ATOM      4  C   UNL     1      10.717 -25.605 -10.093  1.00  0.00     0.047 A 
ATOM      5  C   UNL     1      10.207 -24.343 -12.094  1.00  0.00     0.047 A 
ATOM      6  C   UNL     1      11.129 -25.038 -11.307  1.00  0.00     0.115 A 
ENDROOT
BRANCH   1   7
ATOM      7  C   UNL     1       7.054 -24.643 -10.009  1.00  0.00     0.071 C 
ATOM      8  O   UNL     1       6.190 -24.112 -10.756  1.00  0.00    -0.545 OA
ATOM      9  O   UNL     1       6.669 -25.101  -8.754  1.00  0.00    -0.545 OA
ENDBRANCH   1   7
BRANCH   6  10
ATOM     10  O   UNL     1      12.448 -25.160 -11.737  1.00  0.00    -0.508 OA
ATOM     11  H   UNL     1      13.182 -24.565 -11.370  1.00  0.00     0.293 HD
ENDBRANCH   6  10
TORSDOF 2
ENDMDL
MODEL 3
REMARK VINA RESULT:    -4.387      2.539      3.019
REMARK INTER + INTRA:          -4.802
REMARK INTER:                  -4.771
REMARK INTRA:                  -0.031
REMARK UNBOUND:                -0.030
REMARK SMILES O=C([O-])c1ccc(O)cc1
REMARK SMILES IDX 4 1 5 2 10 3 6 4 9 5 7 6 2 7 1 8 3 9 8 10
REMARK H PARENT 8 11
REMARK Flexibility Score: inf
ROOT
ATOM      1  C   UNL     1       9.932 -25.579 -10.959  1.00  0.00    -0.003 A 
ATOM      2  C   UNL     1       9.173 -25.444  -9.783  1.00  0.00     0.014 A 
ATOM      3  C   UNL     1       9.348 -25.234 -12.191  1.00  0.00     0.014 A 
ATOM      4  C   UNL     1       7.858 -24.973  -9.839  1.00  0.00     0.047 A 
ATOM      5  C   UNL     1       8.032 -24.763 -12.244  1.00  0.00     0.047 A 
ATOM      6  C   UNL     1       7.284 -24.631 -11.071  1.00  0.00     0.115 A 
ENDROOT
BRANCH   1   7
ATOM      7  C   UNL     1      11.323 -26.078 -10.897  1.00  0.00     0.071 C 
ATOM      8  O   UNL     1      12.112 -25.670 -10.003  1.00  0.00    -0.545 OA
ATOM      9  O   UNL     1      11.781 -27.005 -11.826  1.00  0.00    -0.545 OA
ENDBRANCH   1   7
BRANCH   6  10
ATOM     10  O   UNL     1       5.974 -24.160 -11.139  1.00  0.00    -0.508 OA
ATOM     11  H   UNL     1       5.201 -24.689 -10.750  1.00  0.00     0.293 HD
ENDBRANCH   6  10
TORSDOF 2
ENDMDL
MODEL 4
REMARK VINA RESULT:    -4.339     11.044     11.247
REMARK INTER + INTRA:          -4.750
REMARK INTER:                  -4.715
REMARK INTRA:                  -0.036
REMARK UNBOUND:                -0.030
REMARK SMILES O=C([O-])c1ccc(O)cc1
REMARK SMILES IDX 4 1 5 2 10 3 6 4 9 5 7 6 2 7 1 8 3 9 8 10
REMARK H PARENT 8 11
REMARK Flexibility Score: inf
ROOT
ATOM      1  C   UNL     1       9.670 -33.125 -19.642  1.00  0.00    -0.003 A 
ATOM      2  C   UNL     1      10.219 -31.950 -20.187  1.00  0.00     0.014 A 
ATOM      3  C   UNL     1       8.273 -33.231 -19.517  1.00  0.00     0.014 A 
ATOM      4  C   UNL     1       9.387 -30.905 -20.600  1.00  0.00     0.047 A 
ATOM      5  C   UNL     1       7.444 -32.183 -19.932  1.00  0.00     0.047 A 
ATOM      6  C   UNL     1       7.996 -31.019 -20.473  1.00  0.00     0.115 A 
ENDROOT
BRANCH   1   7
ATOM      7  C   UNL     1      10.552 -34.229 -19.205  1.00  0.00     0.071 C 
ATOM      8  O   UNL     1      10.065 -35.325 -18.819  1.00  0.00    -0.545 OA
ATOM      9  O   UNL     1      11.934 -34.073 -19.216  1.00  0.00    -0.545 OA
ENDBRANCH   1   7
BRANCH   6  10
ATOM     10  O   UNL     1       7.158 -29.985 -20.881  1.00  0.00    -0.508 OA
ATOM     11  H   UNL     1       6.163 -30.131 -21.015  1.00  0.00     0.293 HD
ENDBRANCH   6  10
TORSDOF 2
ENDMDL
MODEL 5
REMARK VINA RESULT:    -4.325     12.198     13.564
REMARK INTER + INTRA:          -4.734
REMARK INTER:                  -4.707
REMARK INTRA:                  -0.027
REMARK UNBOUND:                -0.030
REMARK SMILES O=C([O-])c1ccc(O)cc1
REMARK SMILES IDX 4 1 5 2 10 3 6 4 9 5 7 6 2 7 1 8 3 9 8 10
REMARK H PARENT 8 11
REMARK Flexibility Score: inf
ROOT
ATOM      1  C   UNL     1      16.115 -32.698 -20.670  1.00  0.00    -0.003 A 
ATOM      2  C   UNL     1      17.088 -33.585 -21.164  1.00  0.00     0.014 A 
ATOM      3  C   UNL     1      16.411 -31.324 -20.612  1.00  0.00     0.014 A 
ATOM      4  C   UNL     1      18.331 -33.106 -21.592  1.00  0.00     0.047 A 
ATOM      5  C   UNL     1      17.655 -30.849 -21.040  1.00  0.00     0.047 A 
ATOM      6  C   UNL     1      18.617 -31.736 -21.530  1.00  0.00     0.115 A 
ENDROOT
BRANCH   1   7
ATOM      7  C   UNL     1      14.801 -33.206 -20.219  1.00  0.00     0.071 C 
ATOM      8  O   UNL     1      13.910 -33.513 -21.055  1.00  0.00    -0.545 OA
ATOM      9  O   UNL     1      14.531 -33.353 -18.863  1.00  0.00    -0.545 OA
ENDBRANCH   1   7
BRANCH   6  10
ATOM     10  O   UNL     1      19.852 -31.248 -21.953  1.00  0.00    -0.508 OA
ATOM     11  H   UNL     1      19.952 -30.307 -22.319  1.00  0.00     0.293 HD
ENDBRANCH   6  10
TORSDOF 2
ENDMDL
MODEL 6
REMARK VINA RESULT:    -4.323     12.892     14.483
REMARK INTER + INTRA:          -4.733
REMARK INTER:                  -4.704
REMARK INTRA:                  -0.029
REMARK UNBOUND:                -0.030
REMARK SMILES O=C([O-])c1ccc(O)cc1
REMARK SMILES IDX 4 1 5 2 10 3 6 4 9 5 7 6 2 7 1 8 3 9 8 10
REMARK H PARENT 8 11
REMARK Flexibility Score: inf
ROOT
ATOM      1  C   UNL     1      17.399 -31.173 -21.245  1.00  0.00    -0.003 A 
ATOM      2  C   UNL     1      18.713 -30.993 -21.713  1.00  0.00     0.014 A 
ATOM      3  C   UNL     1      16.917 -32.481 -21.052  1.00  0.00     0.014 A 
ATOM      4  C   UNL     1      19.528 -32.098 -21.980  1.00  0.00     0.047 A 
ATOM      5  C   UNL     1      17.735 -33.584 -21.321  1.00  0.00     0.047 A 
ATOM      6  C   UNL     1      19.040 -33.397 -21.785  1.00  0.00     0.115 A 
ENDROOT
BRANCH   1   7
ATOM      7  C   UNL     1      16.539 -30.004 -20.963  1.00  0.00     0.071 C 
ATOM      8  O   UNL     1      16.059 -29.823 -19.812  1.00  0.00    -0.545 OA
ATOM      9  O   UNL     1      16.248 -29.086 -21.965  1.00  0.00    -0.545 OA
ENDBRANCH   1   7
BRANCH   6  10
ATOM     10  O   UNL     1      19.843 -34.504 -22.048  1.00  0.00    -0.508 OA
ATOM     11  H   UNL     1      20.854 -34.445 -22.015  1.00  0.00     0.293 HD
ENDBRANCH   6  10
TORSDOF 2
ENDMDL
MODEL 7
REMARK VINA RESULT:    -4.315      2.672      3.490
REMARK INTER + INTRA:          -4.723
REMARK INTER:                  -4.688
REMARK INTRA:                  -0.035
REMARK UNBOUND:                -0.030
REMARK SMILES O=C([O-])c1ccc(O)cc1
REMARK SMILES IDX 4 1 5 2 10 3 6 4 9 5 7 6 2 7 1 8 3 9 8 10
REMARK H PARENT 8 11
REMARK Flexibility Score: inf
ROOT
ATOM      1  C   UNL     1       9.194 -25.561 -12.338  1.00  0.00    -0.003 A 
ATOM      2  C   UNL     1       9.406 -24.179 -12.184  1.00  0.00     0.014 A 
ATOM      3  C   UNL     1       9.875 -26.454 -11.490  1.00  0.00     0.014 A 
ATOM      4  C   UNL     1      10.279 -23.701 -11.202  1.00  0.00     0.047 A 
ATOM      5  C   UNL     1      10.747 -25.972 -10.508  1.00  0.00     0.047 A 
ATOM      6  C   UNL     1      10.952 -24.598 -10.361  1.00  0.00     0.115 A 
ENDROOT
BRANCH   1   7
ATOM      7  C   UNL     1       8.271 -26.064 -13.378  1.00  0.00     0.071 C 
ATOM      8  O   UNL     1       8.319 -27.266 -13.751  1.00  0.00    -0.545 OA
ATOM      9  O   UNL     1       7.335 -25.216 -13.959  1.00  0.00    -0.545 OA
ENDBRANCH   1   7
BRANCH   6  10
ATOM     10  O   UNL     1      11.824 -24.133  -9.378  1.00  0.00    -0.508 OA
ATOM     11  H   UNL     1      11.873 -24.570  -8.465  1.00  0.00     0.293 HD
ENDBRANCH   6  10
TORSDOF 2
ENDMDL
MODEL 8
REMARK VINA RESULT:    -4.301      9.070     10.441
REMARK INTER + INTRA:          -4.709
REMARK INTER:                  -4.682
REMARK INTRA:                  -0.027
REMARK UNBOUND:                -0.030
REMARK SMILES O=C([O-])c1ccc(O)cc1
REMARK SMILES IDX 4 1 5 2 10 3 6 4 9 5 7 6 2 7 1 8 3 9 8 10
REMARK H PARENT 8 11
REMARK Flexibility Score: inf
ROOT
ATOM      1  C   UNL     1       9.867 -33.450 -18.579  1.00  0.00    -0.003 A 
ATOM      2  C   UNL     1       8.772 -33.305 -19.451  1.00  0.00     0.014 A 
ATOM      3  C   UNL     1       9.853 -32.767 -17.349  1.00  0.00     0.014 A 
ATOM      4  C   UNL     1       7.687 -32.497 -19.097  1.00  0.00     0.047 A 
ATOM      5  C   UNL     1       8.767 -31.959 -16.999  1.00  0.00     0.047 A 
ATOM      6  C   UNL     1       7.682 -31.821 -17.870  1.00  0.00     0.115 A 
ENDROOT
BRANCH   1   7
ATOM      7  C   UNL     1      11.013 -34.305 -18.955  1.00  0.00     0.071 C 
ATOM      8  O   UNL     1      12.040 -33.805 -19.485  1.00  0.00    -0.545 OA
ATOM      9  O   UNL     1      10.972 -35.676 -18.729  1.00  0.00    -0.545 OA
ENDBRANCH   1   7
BRANCH   6  10
ATOM     10  O   UNL     1       6.607 -31.013 -17.507  1.00  0.00    -0.508 OA
ATOM     11  H   UNL     1       5.653 -31.264 -17.744  1.00  0.00     0.293 HD
ENDBRANCH   6  10
TORSDOF 2
ENDMDL
MODEL 9
REMARK VINA RESULT:    -4.300     10.075     11.420
REMARK INTER + INTRA:          -4.708
REMARK INTER:                  -4.675
REMARK INTRA:                  -0.032
REMARK UNBOUND:                -0.030
REMARK SMILES O=C([O-])c1ccc(O)cc1
REMARK SMILES IDX 4 1 5 2 10 3 6 4 9 5 7 6 2 7 1 8 3 9 8 10
REMARK H PARENT 8 11
REMARK Flexibility Score: inf
ROOT
ATOM      1  C   UNL     1       8.282 -30.195 -20.250  1.00  0.00    -0.003 A 
ATOM      2  C   UNL     1       7.752 -31.425 -20.677  1.00  0.00     0.014 A 
ATOM      3  C   UNL     1       9.642 -30.125 -19.896  1.00  0.00     0.014 A 
ATOM      4  C   UNL     1       8.566 -32.560 -20.749  1.00  0.00     0.047 A 
ATOM      5  C   UNL     1      10.453 -31.262 -19.970  1.00  0.00     0.047 A 
ATOM      6  C   UNL     1       9.919 -32.481 -20.395  1.00  0.00     0.115 A 
ENDROOT
BRANCH   1   7
ATOM      7  C   UNL     1       7.420 -28.996 -20.174  1.00  0.00     0.071 C 
ATOM      8  O   UNL     1       6.553 -28.772 -21.060  1.00  0.00    -0.545 OA
ATOM      9  O   UNL     1       7.555 -28.097 -19.122  1.00  0.00    -0.545 OA
ENDBRANCH   1   7
BRANCH   6  10
ATOM     10  O   UNL     1      10.739 -33.605 -20.464  1.00  0.00    -0.508 OA
ATOM     11  H   UNL     1      10.977 -34.138 -19.634  1.00  0.00     0.293 HD
ENDBRANCH   6  10
TORSDOF 2
ENDMDL
