MODEL 1
REMARK VINA RESULT:    -5.296      0.000      0.000
REMARK INTER + INTRA:          -6.184
REMARK INTER:                  -6.070
REMARK INTRA:                  -0.114
REMARK UNBOUND:                -0.114
REMARK SMILES COc1ccc(C(C)=O)cc1O
REMARK SMILES IDX 6 1 10 2 11 3 3 4 4 5 5 6 7 7 8 8 9 9 12 10 2 12 1 13
REMARK H PARENT 12 11
REMARK Flexibility Score: inf
ROOT
ATOM      1  C   UNL     1      17.638 -10.975  66.918  1.00  0.00     0.021 A 
ATOM      2  C   UNL     1      18.144  -9.983  67.778  1.00  0.00     0.062 A 
ATOM      3  C   UNL     1      19.084 -10.302  68.768  1.00  0.00     0.158 A 
ATOM      4  C   UNL     1      19.534 -11.620  68.915  1.00  0.00     0.160 A 
ATOM      5  C   UNL     1      19.033 -12.616  68.058  1.00  0.00     0.051 A 
ATOM      6  C   UNL     1      18.097 -12.297  67.072  1.00  0.00     0.016 A 
ENDROOT
BRANCH   1   7
ATOM      7  C   UNL     1      16.641 -10.619  65.872  1.00  0.00     0.159 C 
ATOM      8  C   UNL     1      15.453 -11.485  65.582  1.00  0.00     0.093 C 
ATOM      9  O   UNL     1      16.788  -9.560  65.203  1.00  0.00    -0.295 OA
ENDBRANCH   1   7
BRANCH   3  10
ATOM     10  O   UNL     1      19.577  -9.309  69.613  1.00  0.00    -0.504 OA
ATOM     11  H   UNL     1      20.358  -8.721  69.345  1.00  0.00     0.293 HD
ENDBRANCH   3  10
BRANCH   4  12
ATOM     12  O   UNL     1      20.476 -11.899  69.918  1.00  0.00    -0.493 OA
ATOM     13  C   UNL     1      21.414 -12.969  69.867  1.00  0.00     0.278 C 
ENDBRANCH   4  12
TORSDOF 3
ENDMDL
MODEL 2
REMARK VINA RESULT:    -5.107      1.727      1.806
REMARK INTER + INTRA:          -5.967
REMARK INTER:                  -5.862
REMARK INTRA:                  -0.105
REMARK UNBOUND:                -0.114
REMARK SMILES COc1ccc(C(C)=O)cc1O
REMARK SMILES IDX 6 1 10 2 11 3 3 4 4 5 5 6 7 7 8 8 9 9 12 10 2 12 1 13
REMARK H PARENT 12 11
REMARK Flexibility Score: inf
ROOT
ATOM      1  C   UNL     1      18.690 -10.337  66.458  1.00  0.00     0.021 A 
ATOM      2  C   UNL     1      19.051  -9.606  67.605  1.00  0.00     0.062 A 
ATOM      3  C   UNL     1      19.165 -10.239  68.852  1.00  0.00     0.158 A 
ATOM      4  C   UNL     1      18.919 -11.612  68.972  1.00  0.00     0.160 A 
ATOM      5  C   UNL     1      18.558 -12.348  67.829  1.00  0.00     0.051 A 
ATOM      6  C   UNL     1      18.446 -11.717  66.587  1.00  0.00     0.016 A 
ENDROOT
BRANCH   1   7
ATOM      7  C   UNL     1      18.574  -9.650  65.143  1.00  0.00     0.159 C 
ATOM      8  C   UNL     1      17.254  -9.472  64.456  1.00  0.00     0.093 C 
ATOM      9  O   UNL     1      19.609  -9.201  64.579  1.00  0.00    -0.295 OA
ENDBRANCH   1   7
BRANCH   3  10
ATOM     10  O   UNL     1      19.523  -9.503  69.981  1.00  0.00    -0.504 OA
ATOM     11  H   UNL     1      19.510  -9.911  70.908  1.00  0.00     0.293 HD
ENDBRANCH   3  10
BRANCH   4  12
ATOM     12  O   UNL     1      19.044 -12.208  70.238  1.00  0.00    -0.493 OA
ATOM     13  C   UNL     1      18.328 -13.364  70.657  1.00  0.00     0.278 C 
ENDBRANCH   4  12
TORSDOF 3
ENDMDL
MODEL 3
REMARK VINA RESULT:    -5.086      2.071      4.967
REMARK INTER + INTRA:          -5.943
REMARK INTER:                  -5.845
REMARK INTRA:                  -0.097
REMARK UNBOUND:                -0.114
REMARK SMILES COc1ccc(C(C)=O)cc1O
REMARK SMILES IDX 6 1 10 2 11 3 3 4 4 5 5 6 7 7 8 8 9 9 12 10 2 12 1 13
REMARK H PARENT 12 11
REMARK Flexibility Score: inf
ROOT
ATOM      1  C   UNL     1      19.068 -10.245  67.725  1.00  0.00     0.021 A 
ATOM      2  C   UNL     1      20.085  -9.915  66.810  1.00  0.00     0.062 A 
ATOM      3  C   UNL     1      19.780  -9.619  65.473  1.00  0.00     0.158 A 
ATOM      4  C   UNL     1      18.452  -9.649  65.030  1.00  0.00     0.160 A 
ATOM      5  C   UNL     1      17.431  -9.978  65.939  1.00  0.00     0.051 A 
ATOM      6  C   UNL     1      17.736 -10.273  67.271  1.00  0.00     0.016 A 
ENDROOT
BRANCH   1   7
ATOM      7  C   UNL     1      19.410 -10.556  69.139  1.00  0.00     0.159 C 
ATOM      8  C   UNL     1      19.758 -11.945  69.584  1.00  0.00     0.093 C 
ATOM      9  O   UNL     1      19.411  -9.634  70.000  1.00  0.00    -0.295 OA
ENDBRANCH   1   7
BRANCH   3  10
ATOM     10  O   UNL     1      20.797  -9.293  64.577  1.00  0.00    -0.504 OA
ATOM     11  H   UNL     1      20.788  -9.625  63.620  1.00  0.00     0.293 HD
ENDBRANCH   3  10
BRANCH   4  12
ATOM     12  O   UNL     1      18.187  -9.347  63.684  1.00  0.00    -0.493 OA
ATOM     13  C   UNL     1      16.992  -9.704  62.999  1.00  0.00     0.278 C 
ENDBRANCH   4  12
TORSDOF 3
ENDMDL
MODEL 4
REMARK VINA RESULT:    -5.068      1.623      4.364
REMARK INTER + INTRA:          -5.922
REMARK INTER:                  -5.810
REMARK INTRA:                  -0.112
REMARK UNBOUND:                -0.114
REMARK SMILES COc1ccc(C(C)=O)cc1O
REMARK SMILES IDX 6 1 10 2 11 3 3 4 4 5 5 6 7 7 8 8 9 9 12 10 2 12 1 13
REMARK H PARENT 12 11
REMARK Flexibility Score: inf
ROOT
ATOM      1  C   UNL     1      18.765 -11.886  68.626  1.00  0.00     0.021 A 
ATOM      2  C   UNL     1      19.267 -10.581  68.467  1.00  0.00     0.062 A 
ATOM      3  C   UNL     1      18.982  -9.839  67.312  1.00  0.00     0.158 A 
ATOM      4  C   UNL     1      18.190 -10.390  66.297  1.00  0.00     0.160 A 
ATOM      5  C   UNL     1      17.685 -11.693  66.450  1.00  0.00     0.051 A 
ATOM      6  C   UNL     1      17.969 -12.432  67.602  1.00  0.00     0.016 A 
ENDROOT
BRANCH   1   7
ATOM      7  C   UNL     1      19.077 -12.660  69.859  1.00  0.00     0.159 C 
ATOM      8  C   UNL     1      18.049 -13.510  70.543  1.00  0.00     0.093 C 
ATOM      9  O   UNL     1      20.236 -12.608  70.353  1.00  0.00    -0.295 OA
ENDBRANCH   1   7
BRANCH   3  10
ATOM     10  O   UNL     1      19.486  -8.547  67.166  1.00  0.00    -0.504 OA
ATOM     11  H   UNL     1      20.050  -8.284  66.366  1.00  0.00     0.293 HD
ENDBRANCH   3  10
BRANCH   4  12
ATOM     12  O   UNL     1      17.928  -9.615  65.155  1.00  0.00    -0.493 OA
ATOM     13  C   UNL     1      18.715  -9.635  63.970  1.00  0.00     0.278 C 
ENDBRANCH   4  12
TORSDOF 3
ENDMDL
MODEL 5
REMARK VINA RESULT:    -5.016      2.291      3.095
REMARK INTER + INTRA:          -5.862
REMARK INTER:                  -5.746
REMARK INTRA:                  -0.116
REMARK UNBOUND:                -0.114
REMARK SMILES COc1ccc(C(C)=O)cc1O
REMARK SMILES IDX 6 1 10 2 11 3 3 4 4 5 5 6 7 7 8 8 9 9 12 10 2 12 1 13
REMARK H PARENT 12 11
REMARK Flexibility Score: inf
ROOT
ATOM      1  C   UNL     1      17.521 -10.092  64.547  1.00  0.00     0.021 A 
ATOM      2  C   UNL     1      18.857  -9.701  64.753  1.00  0.00     0.062 A 
ATOM      3  C   UNL     1      19.369  -9.552  66.051  1.00  0.00     0.158 A 
ATOM      4  C   UNL     1      18.552  -9.790  67.163  1.00  0.00     0.160 A 
ATOM      5  C   UNL     1      17.216 -10.180  66.963  1.00  0.00     0.051 A 
ATOM      6  C   UNL     1      16.707 -10.330  65.670  1.00  0.00     0.016 A 
ENDROOT
BRANCH   1   7
ATOM      7  C   UNL     1      16.995 -10.246  63.163  1.00  0.00     0.159 C 
ATOM      8  C   UNL     1      16.357  -9.108  62.426  1.00  0.00     0.093 C 
ATOM      9  O   UNL     1      17.081 -11.362  62.582  1.00  0.00    -0.295 OA
ENDBRANCH   1   7
BRANCH   3  10
ATOM     10  O   UNL     1      20.694  -9.164  66.241  1.00  0.00    -0.504 OA
ATOM     11  H   UNL     1      21.163  -8.538  65.596  1.00  0.00     0.293 HD
ENDBRANCH   3  10
BRANCH   4  12
ATOM     12  O   UNL     1      19.101  -9.629  68.445  1.00  0.00    -0.493 OA
ATOM     13  C   UNL     1      19.525 -10.701  69.280  1.00  0.00     0.278 C 
ENDBRANCH   4  12
TORSDOF 3
ENDMDL
MODEL 6
REMARK VINA RESULT:    -4.954      1.544      5.097
REMARK INTER + INTRA:          -5.792
REMARK INTER:                  -5.681
REMARK INTRA:                  -0.111
REMARK UNBOUND:                -0.114
REMARK SMILES COc1ccc(C(C)=O)cc1O
REMARK SMILES IDX 6 1 10 2 11 3 3 4 4 5 5 6 7 7 8 8 9 9 12 10 2 12 1 13
REMARK H PARENT 12 11
REMARK Flexibility Score: inf
ROOT
ATOM      1  C   UNL     1      18.600 -11.190  68.012  1.00  0.00     0.021 A 
ATOM      2  C   UNL     1      18.363 -12.377  67.294  1.00  0.00     0.062 A 
ATOM      3  C   UNL     1      17.488 -12.388  66.197  1.00  0.00     0.158 A 
ATOM      4  C   UNL     1      16.837 -11.214  65.801  1.00  0.00     0.160 A 
ATOM      5  C   UNL     1      17.070 -10.025  66.515  1.00  0.00     0.051 A 
ATOM      6  C   UNL     1      17.942 -10.014  67.608  1.00  0.00     0.016 A 
ENDROOT
BRANCH   1   7
ATOM      7  C   UNL     1      19.531 -11.195  69.173  1.00  0.00     0.159 C 
ATOM      8  C   UNL     1      20.417 -12.366  69.474  1.00  0.00     0.093 C 
ATOM      9  O   UNL     1      19.586 -10.192  69.935  1.00  0.00    -0.295 OA
ENDBRANCH   1   7
BRANCH   3  10
ATOM     10  O   UNL     1      17.262 -13.571  65.494  1.00  0.00    -0.504 OA
ATOM     11  H   UNL     1      16.881 -13.567  64.555  1.00  0.00     0.293 HD
ENDBRANCH   3  10
BRANCH   4  12
ATOM     12  O   UNL     1      15.969 -11.267  64.698  1.00  0.00    -0.493 OA
ATOM     13  C   UNL     1      14.557 -11.423  64.791  1.00  0.00     0.278 C 
ENDBRANCH   4  12
TORSDOF 3
ENDMDL
MODEL 7
REMARK VINA RESULT:    -4.751      2.840      4.689
REMARK INTER + INTRA:          -5.559
REMARK INTER:                  -5.461
REMARK INTRA:                  -0.098
REMARK UNBOUND:                -0.114
REMARK SMILES COc1ccc(C(C)=O)cc1O
REMARK SMILES IDX 6 1 10 2 11 3 3 4 4 5 5 6 7 7 8 8 9 9 12 10 2 12 1 13
REMARK H PARENT 12 11
REMARK Flexibility Score: inf
ROOT
ATOM      1  C   UNL     1      19.714 -10.610  67.679  1.00  0.00     0.021 A 
ATOM      2  C   UNL     1      18.767  -9.966  66.863  1.00  0.00     0.062 A 
ATOM      3  C   UNL     1      19.097  -9.565  65.560  1.00  0.00     0.158 A 
ATOM      4  C   UNL     1      20.380  -9.803  65.052  1.00  0.00     0.160 A 
ATOM      5  C   UNL     1      21.331 -10.447  65.863  1.00  0.00     0.051 A 
ATOM      6  C   UNL     1      21.002 -10.846  67.161  1.00  0.00     0.016 A 
ENDROOT
BRANCH   1   7
ATOM      7  C   UNL     1      19.347 -11.029  69.060  1.00  0.00     0.159 C 
ATOM      8  C   UNL     1      18.814 -12.398  69.357  1.00  0.00     0.093 C 
ATOM      9  O   UNL     1      19.484 -10.218  70.016  1.00  0.00    -0.295 OA
ENDBRANCH   1   7
BRANCH   3  10
ATOM     10  O   UNL     1      18.148  -8.927  64.762  1.00  0.00    -0.504 OA
ATOM     11  H   UNL     1      17.373  -9.433  64.349  1.00  0.00     0.293 HD
ENDBRANCH   3  10
BRANCH   4  12
ATOM     12  O   UNL     1      20.671  -9.386  63.743  1.00  0.00    -0.493 OA
ATOM     13  C   UNL     1      21.757  -9.878  62.965  1.00  0.00     0.278 C 
ENDBRANCH   4  12
TORSDOF 3
ENDMDL
MODEL 8
REMARK VINA RESULT:    -4.741      2.701      4.342
REMARK INTER + INTRA:          -5.547
REMARK INTER:                  -5.429
REMARK INTRA:                  -0.119
REMARK UNBOUND:                -0.114
REMARK SMILES COc1ccc(C(C)=O)cc1O
REMARK SMILES IDX 6 1 10 2 11 3 3 4 4 5 5 6 7 7 8 8 9 9 12 10 2 12 1 13
REMARK H PARENT 12 11
REMARK Flexibility Score: inf
ROOT
ATOM      1  C   UNL     1      16.420 -11.545  63.583  1.00  0.00     0.021 A 
ATOM      2  C   UNL     1      16.594 -12.372  64.708  1.00  0.00     0.062 A 
ATOM      3  C   UNL     1      16.891 -11.823  65.963  1.00  0.00     0.158 A 
ATOM      4  C   UNL     1      17.019 -10.437  66.115  1.00  0.00     0.160 A 
ATOM      5  C   UNL     1      16.846  -9.604  64.994  1.00  0.00     0.051 A 
ATOM      6  C   UNL     1      16.549 -10.152  63.744  1.00  0.00     0.016 A 
ENDROOT
BRANCH   1   7
ATOM      7  C   UNL     1      16.104 -12.144  62.258  1.00  0.00     0.159 C 
ATOM      8  C   UNL     1      14.861 -11.785  61.501  1.00  0.00     0.093 C 
ATOM      9  O   UNL     1      16.897 -12.980  61.745  1.00  0.00    -0.295 OA
ENDBRANCH   1   7
BRANCH   3  10
ATOM     10  O   UNL     1      17.063 -12.654  67.069  1.00  0.00    -0.504 OA
ATOM     11  H   UNL     1      17.861 -13.274  67.150  1.00  0.00     0.293 HD
ENDBRANCH   3  10
BRANCH   4  12
ATOM     12  O   UNL     1      17.318  -9.925  67.388  1.00  0.00    -0.493 OA
ATOM     13  C   UNL     1      18.628  -9.599  67.838  1.00  0.00     0.278 C 
ENDBRANCH   4  12
TORSDOF 3
ENDMDL
MODEL 9
REMARK VINA RESULT:    -4.731      4.919      6.567
REMARK INTER + INTRA:          -5.536
REMARK INTER:                  -5.436
REMARK INTRA:                  -0.101
REMARK UNBOUND:                -0.114
REMARK SMILES COc1ccc(C(C)=O)cc1O
REMARK SMILES IDX 6 1 10 2 11 3 3 4 4 5 5 6 7 7 8 8 9 9 12 10 2 12 1 13
REMARK H PARENT 12 11
REMARK Flexibility Score: inf
ROOT
ATOM      1  C   UNL     1      13.894 -10.838  62.723  1.00  0.00     0.021 A 
ATOM      2  C   UNL     1      14.703 -11.824  62.128  1.00  0.00     0.062 A 
ATOM      3  C   UNL     1      16.080 -11.874  62.386  1.00  0.00     0.158 A 
ATOM      4  C   UNL     1      16.672 -10.937  63.242  1.00  0.00     0.160 A 
ATOM      5  C   UNL     1      15.869  -9.949  63.839  1.00  0.00     0.051 A 
ATOM      6  C   UNL     1      14.496  -9.901  63.583  1.00  0.00     0.016 A 
ENDROOT
BRANCH   1   7
ATOM      7  C   UNL     1      12.433 -10.801  62.439  1.00  0.00     0.159 C 
ATOM      8  C   UNL     1      11.859  -9.946  61.350  1.00  0.00     0.093 C 
ATOM      9  O   UNL     1      11.644 -11.504  63.127  1.00  0.00    -0.295 OA
ENDBRANCH   1   7
BRANCH   3  10
ATOM     10  O   UNL     1      16.870 -12.856  61.789  1.00  0.00    -0.504 OA
ATOM     11  H   UNL     1      17.404 -12.670  60.948  1.00  0.00     0.293 HD
ENDBRANCH   3  10
BRANCH   4  12
ATOM     12  O   UNL     1      18.055 -11.019  63.474  1.00  0.00    -0.493 OA
ATOM     13  C   UNL     1      18.894  -9.902  63.745  1.00  0.00     0.278 C 
ENDBRANCH   4  12
TORSDOF 3
ENDMDL
