MODEL 1
REMARK VINA RESULT:    -6.635      0.000      0.000
REMARK INTER + INTRA:          -8.309
REMARK INTER:                  -7.993
REMARK INTRA:                  -0.316
REMARK UNBOUND:                -0.316
REMARK SMILES O=c1c(O)c(-c2ccc(O)c(O)c2)oc2cc(O)cc(O)c12
REMARK SMILES IDX 5 1 3 2 2 3 1 4 22 5 20 6 19 7 17 8 16 9 15 10 14 11 6 12
REMARK SMILES IDX 7 13 8 14 9 15 13 16 11 17 10 18 12 20 4 22 21 24 18 26
REMARK H PARENT 10 19 12 21 4 23 21 25 18 27
REMARK Flexibility Score: inf
ROOT
ATOM      1  C   UNL     1       8.677  16.297 -19.306  1.00  0.00     0.180 A 
ATOM      2  C   UNL     1       8.599  15.880 -20.646  1.00  0.00     0.208 A 
ATOM      3  C   UNL     1       8.827  14.529 -20.953  1.00  0.00     0.238 A 
ATOM      4  O   UNL     1       8.701  14.149 -22.147  1.00  0.00    -0.285 OA
ATOM      5  C   UNL     1       9.145  13.615 -19.919  1.00  0.00     0.111 A 
ATOM      6  C   UNL     1       9.434  12.232 -20.120  1.00  0.00     0.134 A 
ATOM      7  C   UNL     1       9.610  11.395 -19.011  1.00  0.00     0.093 A 
ATOM      8  C   UNL     1       9.570  11.902 -17.713  1.00  0.00     0.123 A 
ATOM      9  C   UNL     1       9.346  13.263 -17.507  1.00  0.00     0.094 A 
ATOM     10  C   UNL     1       9.133  14.117 -18.591  1.00  0.00     0.146 A 
ATOM     11  O   UNL     1       8.914  15.405 -18.352  1.00  0.00    -0.452 OA
ENDROOT
BRANCH   1  12
ATOM     12  C   UNL     1       8.473  17.709 -18.908  1.00  0.00     0.025 A 
ATOM     13  C   UNL     1       7.211  18.182 -18.507  1.00  0.00     0.016 A 
ATOM     14  C   UNL     1       7.038  19.524 -18.160  1.00  0.00     0.051 A 
ATOM     15  C   UNL     1       8.113  20.415 -18.220  1.00  0.00     0.157 A 
ATOM     16  C   UNL     1       9.547  18.611 -18.988  1.00  0.00     0.062 A 
ATOM     17  C   UNL     1       9.374  19.958 -18.638  1.00  0.00     0.158 A 
BRANCH  15  18
ATOM     18  O   UNL     1       7.910  21.748 -17.865  1.00  0.00    -0.504 OA
ATOM     19  H   UNL     1       7.030  22.075 -17.481  1.00  0.00     0.293 HD
ENDBRANCH  15  18
BRANCH  17  20
ATOM     20  O   UNL     1      10.449  20.843 -18.708  1.00  0.00    -0.504 OA
ATOM     21  H   UNL     1      10.315  21.827 -18.911  1.00  0.00     0.293 HD
ENDBRANCH  17  20
ENDBRANCH   1  12
BRANCH   2  22
ATOM     22  O   UNL     1       8.260  16.793 -21.649  1.00  0.00    -0.502 OA
ATOM     23  H   UNL     1       8.390  17.791 -21.542  1.00  0.00     0.293 HD
ENDBRANCH   2  22
BRANCH   6  24
ATOM     24  O   UNL     1       9.588  11.642 -21.378  1.00  0.00    -0.507 OA
ATOM     25  H   UNL     1       8.861  11.150 -21.875  1.00  0.00     0.293 HD
ENDBRANCH   6  24
BRANCH   8  26
ATOM     26  O   UNL     1       9.764  11.042 -16.634  1.00  0.00    -0.508 OA
ATOM     27  H   UNL     1       9.116  11.015 -15.855  1.00  0.00     0.293 HD
ENDBRANCH   8  26
TORSDOF 6
ENDMDL
MODEL 2
REMARK VINA RESULT:    -6.420      3.239      7.795
REMARK INTER + INTRA:          -8.050
REMARK INTER:                  -7.727
REMARK INTRA:                  -0.323
REMARK UNBOUND:                -0.316
REMARK SMILES O=c1c(O)c(-c2ccc(O)c(O)c2)oc2cc(O)cc(O)c12
REMARK SMILES IDX 5 1 3 2 2 3 1 4 22 5 20 6 19 7 17 8 16 9 15 10 14 11 6 12
REMARK SMILES IDX 7 13 8 14 9 15 13 16 11 17 10 18 12 20 4 22 21 24 18 26
REMARK H PARENT 10 19 12 21 4 23 21 25 18 27
REMARK Flexibility Score: inf
ROOT
ATOM      1  C   UNL     1       9.591  11.916 -17.060  1.00  0.00     0.180 A 
ATOM      2  C   UNL     1      10.379  13.040 -16.762  1.00  0.00     0.208 A 
ATOM      3  C   UNL     1      10.371  14.131 -17.646  1.00  0.00     0.238 A 
ATOM      4  O   UNL     1      11.035  15.158 -17.346  1.00  0.00    -0.285 OA
ATOM      5  C   UNL     1       9.587  14.078 -18.824  1.00  0.00     0.111 A 
ATOM      6  C   UNL     1       9.534  15.109 -19.809  1.00  0.00     0.134 A 
ATOM      7  C   UNL     1       8.625  15.005 -20.870  1.00  0.00     0.093 A 
ATOM      8  C   UNL     1       7.815  13.880 -21.015  1.00  0.00     0.123 A 
ATOM      9  C   UNL     1       7.901  12.839 -20.090  1.00  0.00     0.094 A 
ATOM     10  C   UNL     1       8.772  12.929 -19.003  1.00  0.00     0.146 A 
ATOM     11  O   UNL     1       8.817  11.922 -18.139  1.00  0.00    -0.452 OA
ENDROOT
BRANCH   1  12
ATOM     12  C   UNL     1       9.567  10.718 -16.190  1.00  0.00     0.025 A 
ATOM     13  C   UNL     1      10.407   9.617 -16.436  1.00  0.00     0.016 A 
ATOM     14  C   UNL     1      10.350   8.487 -15.616  1.00  0.00     0.051 A 
ATOM     15  C   UNL     1       9.447   8.432 -14.550  1.00  0.00     0.157 A 
ATOM     16  C   UNL     1       8.646  10.650 -15.132  1.00  0.00     0.062 A 
ATOM     17  C   UNL     1       8.588   9.517 -14.308  1.00  0.00     0.158 A 
BRANCH  15  18
ATOM     18  O   UNL     1       9.415   7.291 -13.748  1.00  0.00    -0.504 OA
ATOM     19  H   UNL     1      10.074   6.531 -13.867  1.00  0.00     0.293 HD
ENDBRANCH  15  18
BRANCH  17  20
ATOM     20  O   UNL     1       7.680   9.465 -13.251  1.00  0.00    -0.504 OA
ATOM     21  H   UNL     1       7.621  10.209 -12.565  1.00  0.00     0.293 HD
ENDBRANCH  17  20
ENDBRANCH   1  12
BRANCH   2  22
ATOM     22  O   UNL     1      11.128  13.082 -15.582  1.00  0.00    -0.502 OA
ATOM     23  H   UNL     1      11.800  12.365 -15.339  1.00  0.00     0.293 HD
ENDBRANCH   2  22
BRANCH   6  24
ATOM     24  O   UNL     1      10.365  16.233 -19.808  1.00  0.00    -0.507 OA
ATOM     25  H   UNL     1      10.869  16.575 -19.004  1.00  0.00     0.293 HD
ENDBRANCH   6  24
BRANCH   8  26
ATOM     26  O   UNL     1       6.934  13.803 -22.091  1.00  0.00    -0.508 OA
ATOM     27  H   UNL     1       6.038  14.276 -22.077  1.00  0.00     0.293 HD
ENDBRANCH   8  26
TORSDOF 6
ENDMDL
MODEL 3
REMARK VINA RESULT:    -6.298      2.809      5.047
REMARK INTER + INTRA:          -7.902
REMARK INTER:                  -7.678
REMARK INTRA:                  -0.224
REMARK UNBOUND:                -0.316
REMARK SMILES O=c1c(O)c(-c2ccc(O)c(O)c2)oc2cc(O)cc(O)c12
REMARK SMILES IDX 5 1 3 2 2 3 1 4 22 5 20 6 19 7 17 8 16 9 15 10 14 11 6 12
REMARK SMILES IDX 7 13 8 14 9 15 13 16 11 17 10 18 12 20 4 22 21 24 18 26
REMARK H PARENT 10 19 12 21 4 23 21 25 18 27
REMARK Flexibility Score: inf
ROOT
ATOM      1  C   UNL     1       9.067  12.254 -18.262  1.00  0.00     0.180 A 
ATOM      2  C   UNL     1       9.689  11.084 -18.732  1.00  0.00     0.208 A 
ATOM      3  C   UNL     1       9.825   9.990 -17.863  1.00  0.00     0.238 A 
ATOM      4  O   UNL     1      10.331   8.926 -18.305  1.00  0.00    -0.285 OA
ATOM      5  C   UNL     1       9.353  10.084 -16.532  1.00  0.00     0.111 A 
ATOM      6  C   UNL     1       9.473   9.051 -15.554  1.00  0.00     0.134 A 
ATOM      7  C   UNL     1       8.855   9.205 -14.306  1.00  0.00     0.093 A 
ATOM      8  C   UNL     1       8.176  10.378 -13.980  1.00  0.00     0.123 A 
ATOM      9  C   UNL     1       8.102  11.418 -14.907  1.00  0.00     0.094 A 
ATOM     10  C   UNL     1       8.678  11.280 -16.172  1.00  0.00     0.146 A 
ATOM     11  O   UNL     1       8.577  12.289 -17.029  1.00  0.00    -0.452 OA
ENDROOT
BRANCH   1  12
ATOM     12  C   UNL     1       8.910  13.458 -19.111  1.00  0.00     0.025 A 
ATOM     13  C   UNL     1       8.008  13.480 -20.190  1.00  0.00     0.016 A 
ATOM     14  C   UNL     1       7.895  14.618 -20.993  1.00  0.00     0.051 A 
ATOM     15  C   UNL     1       8.686  15.743 -20.741  1.00  0.00     0.157 A 
ATOM     16  C   UNL     1       9.719  14.581 -18.875  1.00  0.00     0.062 A 
ATOM     17  C   UNL     1       9.605  15.724 -19.679  1.00  0.00     0.158 A 
BRANCH  15  18
ATOM     18  O   UNL     1       8.549  16.864 -21.558  1.00  0.00    -0.504 OA
ATOM     19  H   UNL     1       9.249  17.118 -22.246  1.00  0.00     0.293 HD
ENDBRANCH  15  18
BRANCH  17  20
ATOM     20  O   UNL     1      10.404  16.840 -19.427  1.00  0.00    -0.504 OA
ATOM     21  H   UNL     1      10.459  17.611 -20.082  1.00  0.00     0.293 HD
ENDBRANCH  17  20
ENDBRANCH   1  12
BRANCH   2  22
ATOM     22  O   UNL     1      10.127  11.004 -20.057  1.00  0.00    -0.502 OA
ATOM     23  H   UNL     1      10.605  10.189 -20.423  1.00  0.00     0.293 HD
ENDBRANCH   2  22
BRANCH   6  24
ATOM     24  O   UNL     1      10.208   7.877 -15.746  1.00  0.00    -0.507 OA
ATOM     25  H   UNL     1      11.195   7.782 -15.568  1.00  0.00     0.293 HD
ENDBRANCH   6  24
BRANCH   8  26
ATOM     26  O   UNL     1       7.586  10.503 -12.724  1.00  0.00    -0.508 OA
ATOM     27  H   UNL     1       8.067  10.211 -11.881  1.00  0.00     0.293 HD
ENDBRANCH   8  26
TORSDOF 6
ENDMDL
MODEL 4
REMARK VINA RESULT:    -6.275      2.688      7.561
REMARK INTER + INTRA:          -7.875
REMARK INTER:                  -7.564
REMARK INTRA:                  -0.312
REMARK UNBOUND:                -0.316
REMARK SMILES O=c1c(O)c(-c2ccc(O)c(O)c2)oc2cc(O)cc(O)c12
REMARK SMILES IDX 5 1 3 2 2 3 1 4 22 5 20 6 19 7 17 8 16 9 15 10 14 11 6 12
REMARK SMILES IDX 7 13 8 14 9 15 13 16 11 17 10 18 12 20 4 22 21 24 18 26
REMARK H PARENT 10 19 12 21 4 23 21 25 18 27
REMARK Flexibility Score: inf
ROOT
ATOM      1  C   UNL     1       9.074  11.513 -17.810  1.00  0.00     0.180 A 
ATOM      2  C   UNL     1       8.344  11.204 -18.971  1.00  0.00     0.208 A 
ATOM      3  C   UNL     1       8.142  12.205 -19.935  1.00  0.00     0.238 A 
ATOM      4  O   UNL     1       7.536  11.908 -20.998  1.00  0.00    -0.285 OA
ATOM      5  C   UNL     1       8.657  13.505 -19.719  1.00  0.00     0.111 A 
ATOM      6  C   UNL     1       8.478  14.607 -20.609  1.00  0.00     0.134 A 
ATOM      7  C   UNL     1       9.141  15.814 -20.356  1.00  0.00     0.093 A 
ATOM      8  C   UNL     1       9.925  15.980 -19.215  1.00  0.00     0.123 A 
ATOM      9  C   UNL     1      10.059  14.929 -18.308  1.00  0.00     0.094 A 
ATOM     10  C   UNL     1       9.438  13.702 -18.549  1.00  0.00     0.146 A 
ATOM     11  O   UNL     1       9.600  12.723 -17.666  1.00  0.00    -0.452 OA
ENDROOT
BRANCH   1  12
ATOM     12  C   UNL     1       9.308  10.517 -16.739  1.00  0.00     0.025 A 
ATOM     13  C   UNL     1      10.364   9.592 -16.816  1.00  0.00     0.016 A 
ATOM     14  C   UNL     1      10.549   8.646 -15.805  1.00  0.00     0.051 A 
ATOM     15  C   UNL     1       9.680   8.599 -14.712  1.00  0.00     0.157 A 
ATOM     16  C   UNL     1       8.422  10.453 -15.651  1.00  0.00     0.062 A 
ATOM     17  C   UNL     1       8.608   9.505 -14.635  1.00  0.00     0.158 A 
BRANCH  15  18
ATOM     18  O   UNL     1       9.892   7.644 -13.718  1.00  0.00    -0.504 OA
ATOM     19  H   UNL     1       9.293   6.833 -13.614  1.00  0.00     0.293 HD
ENDBRANCH  15  18
BRANCH  17  20
ATOM     20  O   UNL     1       7.732   9.458 -13.551  1.00  0.00    -0.504 OA
ATOM     21  H   UNL     1       7.279  10.294 -13.198  1.00  0.00     0.293 HD
ENDBRANCH  17  20
ENDBRANCH   1  12
BRANCH   2  22
ATOM     22  O   UNL     1       7.864   9.907 -19.176  1.00  0.00    -0.502 OA
ATOM     23  H   UNL     1       7.203   9.466 -18.548  1.00  0.00     0.293 HD
ENDBRANCH   2  22
BRANCH   6  24
ATOM     24  O   UNL     1       7.643  14.576 -21.730  1.00  0.00    -0.507 OA
ATOM     25  H   UNL     1       6.730  15.001 -21.779  1.00  0.00     0.293 HD
ENDBRANCH   6  24
BRANCH   8  26
ATOM     26  O   UNL     1      10.558  17.200 -18.988  1.00  0.00    -0.508 OA
ATOM     27  H   UNL     1      11.558  17.258 -18.839  1.00  0.00     0.293 HD
ENDBRANCH   8  26
TORSDOF 6
ENDMDL
MODEL 5
REMARK VINA RESULT:    -6.255      3.541      6.517
REMARK INTER + INTRA:          -7.851
REMARK INTER:                  -7.596
REMARK INTRA:                  -0.255
REMARK UNBOUND:                -0.316
REMARK SMILES O=c1c(O)c(-c2ccc(O)c(O)c2)oc2cc(O)cc(O)c12
REMARK SMILES IDX 5 1 3 2 2 3 1 4 22 5 20 6 19 7 17 8 16 9 15 10 14 11 6 12
REMARK SMILES IDX 7 13 8 14 9 15 13 16 11 17 10 18 12 20 4 22 21 24 18 26
REMARK H PARENT 10 19 12 21 4 23 21 25 18 27
REMARK Flexibility Score: inf
ROOT
ATOM      1  C   UNL     1       9.681  11.394 -16.362  1.00  0.00     0.180 A 
ATOM      2  C   UNL     1      10.025  10.164 -16.948  1.00  0.00     0.208 A 
ATOM      3  C   UNL     1       9.707   8.975 -16.272  1.00  0.00     0.238 A 
ATOM      4  O   UNL     1       9.967   7.875 -16.827  1.00  0.00    -0.285 OA
ATOM      5  C   UNL     1       9.065   9.031 -15.012  1.00  0.00     0.111 A 
ATOM      6  C   UNL     1       8.732   7.892 -14.220  1.00  0.00     0.134 A 
ATOM      7  C   UNL     1       7.982   8.059 -13.049  1.00  0.00     0.093 A 
ATOM      8  C   UNL     1       7.608   9.328 -12.609  1.00  0.00     0.123 A 
ATOM      9  C   UNL     1       7.979  10.454 -13.345  1.00  0.00     0.094 A 
ATOM     10  C   UNL     1       8.697  10.317 -14.534  1.00  0.00     0.146 A 
ATOM     11  O   UNL     1       9.022  11.413 -15.210  1.00  0.00    -0.452 OA
ENDROOT
BRANCH   1  12
ATOM     12  C   UNL     1      10.005  12.689 -17.003  1.00  0.00     0.025 A 
ATOM     13  C   UNL     1      11.029  13.517 -16.506  1.00  0.00     0.016 A 
ATOM     14  C   UNL     1      11.300  14.746 -17.112  1.00  0.00     0.051 A 
ATOM     15  C   UNL     1      10.549  15.174 -18.211  1.00  0.00     0.157 A 
ATOM     16  C   UNL     1       9.238  13.133 -18.093  1.00  0.00     0.062 A 
ATOM     17  C   UNL     1       9.511  14.366 -18.702  1.00  0.00     0.158 A 
BRANCH  15  18
ATOM     18  O   UNL     1      10.845  16.405 -18.795  1.00  0.00    -0.504 OA
ATOM     19  H   UNL     1      10.143  17.125 -18.918  1.00  0.00     0.293 HD
ENDBRANCH  15  18
BRANCH  17  20
ATOM     20  O   UNL     1       8.752  14.791 -19.793  1.00  0.00    -0.504 OA
ATOM     21  H   UNL     1       8.480  14.152 -20.531  1.00  0.00     0.293 HD
ENDBRANCH  17  20
ENDBRANCH   1  12
BRANCH   2  22
ATOM     22  O   UNL     1      10.638  10.129 -18.204  1.00  0.00    -0.502 OA
ATOM     23  H   UNL     1      11.474  10.660 -18.416  1.00  0.00     0.293 HD
ENDBRANCH   2  22
BRANCH   6  24
ATOM     24  O   UNL     1       9.135   6.587 -14.522  1.00  0.00    -0.507 OA
ATOM     25  H   UNL     1       8.552   5.770 -14.435  1.00  0.00     0.293 HD
ENDBRANCH   6  24
BRANCH   8  26
ATOM     26  O   UNL     1       6.875   9.458 -11.432  1.00  0.00    -0.508 OA
ATOM     27  H   UNL     1       5.993   9.958 -11.409  1.00  0.00     0.293 HD
ENDBRANCH   8  26
TORSDOF 6
ENDMDL
MODEL 6
REMARK VINA RESULT:    -6.199      2.493      7.319
REMARK INTER + INTRA:          -7.784
REMARK INTER:                  -7.757
REMARK INTRA:                  -0.026
REMARK UNBOUND:                -0.316
REMARK SMILES O=c1c(O)c(-c2ccc(O)c(O)c2)oc2cc(O)cc(O)c12
REMARK SMILES IDX 5 1 3 2 2 3 1 4 22 5 20 6 19 7 17 8 16 9 15 10 14 11 6 12
REMARK SMILES IDX 7 13 8 14 9 15 13 16 11 17 10 18 12 20 4 22 21 24 18 26
REMARK H PARENT 10 19 12 21 4 23 21 25 18 27
REMARK Flexibility Score: inf
ROOT
ATOM      1  C   UNL     1       9.429  13.285 -18.598  1.00  0.00     0.180 A 
ATOM      2  C   UNL     1       8.949  14.357 -17.825  1.00  0.00     0.208 A 
ATOM      3  C   UNL     1       8.573  15.546 -18.470  1.00  0.00     0.238 A 
ATOM      4  O   UNL     1       8.091  16.482 -17.780  1.00  0.00    -0.285 OA
ATOM      5  C   UNL     1       8.697  15.655 -19.876  1.00  0.00     0.111 A 
ATOM      6  C   UNL     1       8.383  16.826 -20.629  1.00  0.00     0.134 A 
ATOM      7  C   UNL     1       8.421  16.779 -22.028  1.00  0.00     0.093 A 
ATOM      8  C   UNL     1       8.822  15.624 -22.698  1.00  0.00     0.123 A 
ATOM      9  C   UNL     1       9.188  14.492 -21.971  1.00  0.00     0.094 A 
ATOM     10  C   UNL     1       9.127  14.497 -20.576  1.00  0.00     0.146 A 
ATOM     11  O   UNL     1       9.473  13.395 -19.921  1.00  0.00    -0.452 OA
ENDROOT
BRANCH   1  12
ATOM     12  C   UNL     1       9.868  12.009 -17.988  1.00  0.00     0.025 A 
ATOM     13  C   UNL     1      10.776  11.985 -16.914  1.00  0.00     0.016 A 
ATOM     14  C   UNL     1      11.195  10.768 -16.371  1.00  0.00     0.051 A 
ATOM     15  C   UNL     1      10.728   9.560 -16.897  1.00  0.00     0.157 A 
ATOM     16  C   UNL     1       9.418  10.793 -18.529  1.00  0.00     0.062 A 
ATOM     17  C   UNL     1       9.837   9.571 -17.984  1.00  0.00     0.158 A 
BRANCH  15  18
ATOM     18  O   UNL     1      11.163   8.361 -16.332  1.00  0.00    -0.504 OA
ATOM     19  H   UNL     1      11.894   7.801 -16.755  1.00  0.00     0.293 HD
ENDBRANCH  15  18
BRANCH  17  20
ATOM     20  O   UNL     1       9.374   8.370 -18.519  1.00  0.00    -0.504 OA
ATOM     21  H   UNL     1       9.999   7.717 -18.977  1.00  0.00     0.293 HD
ENDBRANCH  17  20
ENDBRANCH   1  12
BRANCH   2  22
ATOM     22  O   UNL     1       8.812  14.220 -16.441  1.00  0.00    -0.502 OA
ATOM     23  H   UNL     1       9.604  14.059 -15.830  1.00  0.00     0.293 HD
ENDBRANCH   2  22
BRANCH   6  24
ATOM     24  O   UNL     1       8.059  18.059 -20.054  1.00  0.00    -0.507 OA
ATOM     25  H   UNL     1       7.980  18.229 -19.064  1.00  0.00     0.293 HD
ENDBRANCH   6  24
BRANCH   8  26
ATOM     26  O   UNL     1       8.863  15.618 -24.091  1.00  0.00    -0.508 OA
ATOM     27  H   UNL     1       9.724  15.440 -24.595  1.00  0.00     0.293 HD
ENDBRANCH   8  26
TORSDOF 6
ENDMDL
MODEL 7
REMARK VINA RESULT:    -6.145      2.636      7.396
REMARK INTER + INTRA:          -7.718
REMARK INTER:                  -7.390
REMARK INTRA:                  -0.328
REMARK UNBOUND:                -0.316
REMARK SMILES O=c1c(O)c(-c2ccc(O)c(O)c2)oc2cc(O)cc(O)c12
REMARK SMILES IDX 5 1 3 2 2 3 1 4 22 5 20 6 19 7 17 8 16 9 15 10 14 11 6 12
REMARK SMILES IDX 7 13 8 14 9 15 13 16 11 17 10 18 12 20 4 22 21 24 18 26
REMARK H PARENT 10 19 12 21 4 23 21 25 18 27
REMARK Flexibility Score: inf
ROOT
ATOM      1  C   UNL     1       8.802  11.645 -17.930  1.00  0.00     0.180 A 
ATOM      2  C   UNL     1       8.133  11.331 -19.126  1.00  0.00     0.208 A 
ATOM      3  C   UNL     1       7.995  12.324 -20.109  1.00  0.00     0.238 A 
ATOM      4  O   UNL     1       7.445  12.022 -21.201  1.00  0.00    -0.285 OA
ATOM      5  C   UNL     1       8.512  13.621 -19.879  1.00  0.00     0.111 A 
ATOM      6  C   UNL     1       8.394  14.715 -20.788  1.00  0.00     0.134 A 
ATOM      7  C   UNL     1       9.056  15.918 -20.512  1.00  0.00     0.093 A 
ATOM      8  C   UNL     1       9.778  16.087 -19.331  1.00  0.00     0.123 A 
ATOM      9  C   UNL     1       9.851  15.044 -18.407  1.00  0.00     0.094 A 
ATOM     10  C   UNL     1       9.230  13.821 -18.670  1.00  0.00     0.146 A 
ATOM     11  O   UNL     1       9.332  12.851 -17.770  1.00  0.00    -0.452 OA
ENDROOT
BRANCH   1  12
ATOM     12  C   UNL     1       8.965  10.658 -16.837  1.00  0.00     0.025 A 
ATOM     13  C   UNL     1       7.958  10.457 -15.876  1.00  0.00     0.016 A 
ATOM     14  C   UNL     1       8.145   9.539 -14.839  1.00  0.00     0.051 A 
ATOM     15  C   UNL     1       9.339   8.819 -14.738  1.00  0.00     0.157 A 
ATOM     16  C   UNL     1      10.172   9.950 -16.720  1.00  0.00     0.062 A 
ATOM     17  C   UNL     1      10.359   9.028 -15.681  1.00  0.00     0.158 A 
BRANCH  15  18
ATOM     18  O   UNL     1       9.495   7.909 -13.694  1.00  0.00    -0.504 OA
ATOM     19  H   UNL     1       8.712   7.394 -13.307  1.00  0.00     0.293 HD
ENDBRANCH  15  18
BRANCH  17  20
ATOM     20  O   UNL     1      11.556   8.319 -15.581  1.00  0.00    -0.504 OA
ATOM     21  H   UNL     1      12.182   8.442 -14.793  1.00  0.00     0.293 HD
ENDBRANCH  17  20
ENDBRANCH   1  12
BRANCH   2  22
ATOM     22  O   UNL     1       7.650  10.037 -19.344  1.00  0.00    -0.502 OA
ATOM     23  H   UNL     1       7.670   9.596 -20.255  1.00  0.00     0.293 HD
ENDBRANCH   2  22
BRANCH   6  24
ATOM     24  O   UNL     1       7.621  14.681 -21.953  1.00  0.00    -0.507 OA
ATOM     25  H   UNL     1       6.817  14.088 -22.092  1.00  0.00     0.293 HD
ENDBRANCH   6  24
BRANCH   8  26
ATOM     26  O   UNL     1      10.411  17.303 -19.082  1.00  0.00    -0.508 OA
ATOM     27  H   UNL     1       9.883  18.152 -18.922  1.00  0.00     0.293 HD
ENDBRANCH   8  26
TORSDOF 6
ENDMDL
MODEL 8
REMARK VINA RESULT:    -5.898      2.692      4.995
REMARK INTER + INTRA:          -7.421
REMARK INTER:                  -7.172
REMARK INTRA:                  -0.249
REMARK UNBOUND:                -0.316
REMARK SMILES O=c1c(O)c(-c2ccc(O)c(O)c2)oc2cc(O)cc(O)c12
REMARK SMILES IDX 5 1 3 2 2 3 1 4 22 5 20 6 19 7 17 8 16 9 15 10 14 11 6 12
REMARK SMILES IDX 7 13 8 14 9 15 13 16 11 17 10 18 12 20 4 22 21 24 18 26
REMARK H PARENT 10 19 12 21 4 23 21 25 18 27
REMARK Flexibility Score: inf
ROOT
ATOM      1  C   UNL     1       8.909  12.846 -18.052  1.00  0.00     0.180 A 
ATOM      2  C   UNL     1       8.204  12.904 -16.837  1.00  0.00     0.208 A 
ATOM      3  C   UNL     1       8.380  11.875 -15.898  1.00  0.00     0.238 A 
ATOM      4  O   UNL     1       7.790  11.960 -14.789  1.00  0.00    -0.285 OA
ATOM      5  C   UNL     1       9.244  10.793 -16.192  1.00  0.00     0.111 A 
ATOM      6  C   UNL     1       9.467   9.676 -15.332  1.00  0.00     0.134 A 
ATOM      7  C   UNL     1      10.442   8.728 -15.668  1.00  0.00     0.093 A 
ATOM      8  C   UNL     1      11.156   8.823 -16.862  1.00  0.00     0.123 A 
ATOM      9  C   UNL     1      10.905   9.878 -17.738  1.00  0.00     0.094 A 
ATOM     10  C   UNL     1       9.964  10.858 -17.415  1.00  0.00     0.146 A 
ATOM     11  O   UNL     1       9.762  11.852 -18.271  1.00  0.00    -0.452 OA
ENDROOT
BRANCH   1  12
ATOM     12  C   UNL     1       8.757  13.881 -19.100  1.00  0.00     0.025 A 
ATOM     13  C   UNL     1       8.061  13.617 -20.294  1.00  0.00     0.016 A 
ATOM     14  C   UNL     1       7.951  14.601 -21.279  1.00  0.00     0.051 A 
ATOM     15  C   UNL     1       8.543  15.854 -21.097  1.00  0.00     0.157 A 
ATOM     16  C   UNL     1       9.369  15.133 -18.930  1.00  0.00     0.062 A 
ATOM     17  C   UNL     1       9.259  16.121 -19.918  1.00  0.00     0.158 A 
BRANCH  15  18
ATOM     18  O   UNL     1       8.415  16.816 -22.098  1.00  0.00    -0.504 OA
ATOM     19  H   UNL     1       7.613  17.433 -22.152  1.00  0.00     0.293 HD
ENDBRANCH  15  18
BRANCH  17  20
ATOM     20  O   UNL     1       9.859  17.367 -19.733  1.00  0.00    -0.504 OA
ATOM     21  H   UNL     1       9.896  17.808 -18.821  1.00  0.00     0.293 HD
ENDBRANCH  17  20
ENDBRANCH   1  12
BRANCH   2  22
ATOM     22  O   UNL     1       7.373  13.993 -16.556  1.00  0.00    -0.502 OA
ATOM     23  H   UNL     1       7.538  14.615 -15.775  1.00  0.00     0.293 HD
ENDBRANCH   2  22
BRANCH   6  24
ATOM     24  O   UNL     1       8.743   9.438 -14.160  1.00  0.00    -0.507 OA
ATOM     25  H   UNL     1       8.855   9.952 -13.300  1.00  0.00     0.293 HD
ENDBRANCH   6  24
BRANCH   8  26
ATOM     26  O   UNL     1      12.108   7.854 -17.171  1.00  0.00    -0.508 OA
ATOM     27  H   UNL     1      13.098   8.071 -17.192  1.00  0.00     0.293 HD
ENDBRANCH   8  26
TORSDOF 6
ENDMDL
MODEL 9
REMARK VINA RESULT:    -5.898      2.331      6.635
REMARK INTER + INTRA:          -7.421
REMARK INTER:                  -7.581
REMARK INTRA:                   0.160
REMARK UNBOUND:                -0.316
REMARK SMILES O=c1c(O)c(-c2ccc(O)c(O)c2)oc2cc(O)cc(O)c12
REMARK SMILES IDX 5 1 3 2 2 3 1 4 22 5 20 6 19 7 17 8 16 9 15 10 14 11 6 12
REMARK SMILES IDX 7 13 8 14 9 15 13 16 11 17 10 18 12 20 4 22 21 24 18 26
REMARK H PARENT 10 19 12 21 4 23 21 25 18 27
REMARK Flexibility Score: inf
ROOT
ATOM      1  C   UNL     1       8.449  12.762 -17.835  1.00  0.00     0.180 A 
ATOM      2  C   UNL     1       8.869  12.145 -19.027  1.00  0.00     0.208 A 
ATOM      3  C   UNL     1       8.995  12.924 -20.188  1.00  0.00     0.238 A 
ATOM      4  O   UNL     1       9.426  12.379 -21.238  1.00  0.00    -0.285 OA
ATOM      5  C   UNL     1       8.685  14.305 -20.149  1.00  0.00     0.111 A 
ATOM      6  C   UNL     1       8.739  15.181 -21.274  1.00  0.00     0.134 A 
ATOM      7  C   UNL     1       8.535  16.555 -21.091  1.00  0.00     0.093 A 
ATOM      8  C   UNL     1       8.217  17.074 -19.837  1.00  0.00     0.123 A 
ATOM      9  C   UNL     1       8.103  16.219 -18.740  1.00  0.00     0.094 A 
ATOM     10  C   UNL     1       8.335  14.849 -18.884  1.00  0.00     0.146 A 
ATOM     11  O   UNL     1       8.227  14.071 -17.814  1.00  0.00    -0.452 OA
ENDROOT
BRANCH   1  12
ATOM     12  C   UNL     1       8.268  12.002 -16.577  1.00  0.00     0.025 A 
ATOM     13  C   UNL     1       7.770  10.687 -16.581  1.00  0.00     0.016 A 
ATOM     14  C   UNL     1       7.585   9.998 -15.379  1.00  0.00     0.051 A 
ATOM     15  C   UNL     1       7.880  10.613 -14.159  1.00  0.00     0.157 A 
ATOM     16  C   UNL     1       8.542  12.624 -15.348  1.00  0.00     0.062 A 
ATOM     17  C   UNL     1       8.358  11.934 -14.142  1.00  0.00     0.158 A 
BRANCH  15  18
ATOM     18  O   UNL     1       7.686   9.899 -12.977  1.00  0.00    -0.504 OA
ATOM     19  H   UNL     1       6.911   9.258 -12.856  1.00  0.00     0.293 HD
ENDBRANCH  15  18
BRANCH  17  20
ATOM     20  O   UNL     1       8.647  12.556 -12.928  1.00  0.00    -0.504 OA
ATOM     21  H   UNL     1       9.106  12.059 -12.173  1.00  0.00     0.293 HD
ENDBRANCH  17  20
ENDBRANCH   1  12
BRANCH   2  22
ATOM     22  O   UNL     1       9.193  10.786 -19.039  1.00  0.00    -0.502 OA
ATOM     23  H   UNL     1      10.004  10.416 -18.559  1.00  0.00     0.293 HD
ENDBRANCH   2  22
BRANCH   6  24
ATOM     24  O   UNL     1       8.958  14.752 -22.586  1.00  0.00    -0.507 OA
ATOM     25  H   UNL     1       9.865  14.663 -23.018  1.00  0.00     0.293 HD
ENDBRANCH   6  24
BRANCH   8  26
ATOM     26  O   UNL     1       8.006  18.443 -19.694  1.00  0.00    -0.508 OA
ATOM     27  H   UNL     1       8.618  19.122 -20.132  1.00  0.00     0.293 HD
ENDBRANCH   8  26
TORSDOF 6
ENDMDL
