MODEL 1
REMARK VINA RESULT:    -3.139      0.000      0.000
REMARK INTER + INTRA:          -4.616
REMARK INTER:                  -4.240
REMARK INTRA:                  -0.376
REMARK UNBOUND:                -0.376
REMARK SMILES CCCCCCCC(=O)[O-]
REMARK SMILES IDX 5 1 6 2 7 3 8 4 9 5 10 6 4 7 3 8 2 9 1 10
REMARK H PARENT
REMARK Flexibility Score: inf
ROOT
ATOM      1  C   UNL     1       3.900 106.642 181.818  1.00  0.00     0.000 C 
ENDROOT
BRANCH   1   2
ATOM      2  C   UNL     1       3.839 108.168 182.002  1.00  0.00     0.006 C 
BRANCH   2   3
ATOM      3  C   UNL     1       2.405 108.705 181.904  1.00  0.00     0.053 C 
BRANCH   3   4
ATOM      4  C   UNL     1       1.956 109.325 183.192  1.00  0.00     0.041 C 
ATOM      5  O   UNL     1       1.265 108.661 184.008  1.00  0.00    -0.550 OA
ATOM      6  O   UNL     1       2.331 110.625 183.507  1.00  0.00    -0.550 OA
ENDBRANCH   3   4
ENDBRANCH   2   3
ENDBRANCH   1   2
BRANCH   1   7
ATOM      7  C   UNL     1       3.875 106.216 180.339  1.00  0.00     0.000 C 
BRANCH   7   8
ATOM      8  C   UNL     1       2.874 105.092 180.001  1.00  0.00    -0.000 C 
BRANCH   8   9
ATOM      9  C   UNL     1       1.906 105.410 178.847  1.00  0.00    -0.003 C 
ATOM     10  C   UNL     1       1.026 106.627 179.126  1.00  0.00     0.004 C 
ENDBRANCH   8   9
ENDBRANCH   7   8
ENDBRANCH   1   7
TORSDOF 6
ENDMDL
MODEL 2
REMARK VINA RESULT:    -3.068      1.068      1.620
REMARK INTER + INTRA:          -4.520
REMARK INTER:                  -4.018
REMARK INTRA:                  -0.502
REMARK UNBOUND:                -0.376
REMARK SMILES CCCCCCCC(=O)[O-]
REMARK SMILES IDX 5 1 6 2 7 3 8 4 9 5 10 6 4 7 3 8 2 9 1 10
REMARK H PARENT
REMARK Flexibility Score: inf
ROOT
ATOM      1  C   UNL     1       4.838 108.188 181.989  1.00  0.00     0.000 C 
ENDROOT
BRANCH   1   2
ATOM      2  C   UNL     1       3.740 109.038 181.328  1.00  0.00     0.006 C 
BRANCH   2   3
ATOM      3  C   UNL     1       2.337 108.642 181.805  1.00  0.00     0.053 C 
BRANCH   3   4
ATOM      4  C   UNL     1       1.992 109.290 183.112  1.00  0.00     0.041 C 
ATOM      5  O   UNL     1       1.292 108.676 183.958  1.00  0.00    -0.550 OA
ATOM      6  O   UNL     1       2.476 110.558 183.409  1.00  0.00    -0.550 OA
ENDBRANCH   3   4
ENDBRANCH   2   3
ENDBRANCH   1   2
BRANCH   1   7
ATOM      7  C   UNL     1       4.586 106.675 181.855  1.00  0.00     0.000 C 
BRANCH   7   8
ATOM      8  C   UNL     1       5.192 106.021 180.597  1.00  0.00    -0.000 C 
BRANCH   8   9
ATOM      9  C   UNL     1       4.180 105.683 179.489  1.00  0.00    -0.003 C 
ATOM     10  C   UNL     1       2.859 105.144 180.033  1.00  0.00     0.004 C 
ENDBRANCH   8   9
ENDBRANCH   7   8
ENDBRANCH   1   7
TORSDOF 6
ENDMDL
MODEL 3
REMARK VINA RESULT:    -3.025      3.802      6.556
REMARK INTER + INTRA:          -4.463
REMARK INTER:                  -4.157
REMARK INTRA:                  -0.306
REMARK UNBOUND:                -0.376
REMARK SMILES CCCCCCCC(=O)[O-]
REMARK SMILES IDX 5 1 6 2 7 3 8 4 9 5 10 6 4 7 3 8 2 9 1 10
REMARK H PARENT
REMARK Flexibility Score: inf
ROOT
ATOM      1  C   UNL     1       4.352 111.847 183.584  1.00  0.00     0.000 C 
ENDROOT
BRANCH   1   2
ATOM      2  C   UNL     1       3.992 110.909 182.420  1.00  0.00     0.006 C 
BRANCH   2   3
ATOM      3  C   UNL     1       3.719 109.476 182.894  1.00  0.00     0.053 C 
BRANCH   3   4
ATOM      4  C   UNL     1       2.301 109.066 182.637  1.00  0.00     0.041 C 
ATOM      5  O   UNL     1       1.410 109.290 183.497  1.00  0.00    -0.550 OA
ATOM      6  O   UNL     1       1.958 108.470 181.429  1.00  0.00    -0.550 OA
ENDBRANCH   3   4
ENDBRANCH   2   3
ENDBRANCH   1   2
BRANCH   1   7
ATOM      7  C   UNL     1       3.116 112.351 184.351  1.00  0.00     0.000 C 
BRANCH   7   8
ATOM      8  C   UNL     1       3.216 113.801 184.868  1.00  0.00    -0.000 C 
BRANCH   8   9
ATOM      9  C   UNL     1       4.115 114.729 184.032  1.00  0.00    -0.003 C 
ATOM     10  C   UNL     1       3.324 115.763 183.233  1.00  0.00     0.004 C 
ENDBRANCH   8   9
ENDBRANCH   7   8
ENDBRANCH   1   7
TORSDOF 6
ENDMDL
MODEL 4
REMARK VINA RESULT:    -2.966      0.895      1.495
REMARK INTER + INTRA:          -4.383
REMARK INTER:                  -4.099
REMARK INTRA:                  -0.285
REMARK UNBOUND:                -0.376
REMARK SMILES CCCCCCCC(=O)[O-]
REMARK SMILES IDX 5 1 6 2 7 3 8 4 9 5 10 6 4 7 3 8 2 9 1 10
REMARK H PARENT
REMARK Flexibility Score: inf
ROOT
ATOM      1  C   UNL     1       4.055 106.228 180.577  1.00  0.00     0.000 C 
ENDROOT
BRANCH   1   2
ATOM      2  C   UNL     1       3.583 107.031 181.802  1.00  0.00     0.006 C 
BRANCH   2   3
ATOM      3  C   UNL     1       2.685 108.211 181.409  1.00  0.00     0.053 C 
BRANCH   3   4
ATOM      4  C   UNL     1       2.436 109.128 182.567  1.00  0.00     0.041 C 
ATOM      5  O   UNL     1       3.099 110.191 182.688  1.00  0.00    -0.550 OA
ATOM      6  O   UNL     1       1.445 108.826 183.493  1.00  0.00    -0.550 OA
ENDBRANCH   3   4
ENDBRANCH   2   3
ENDBRANCH   1   2
BRANCH   1   7
ATOM      7  C   UNL     1       3.025 105.183 180.114  1.00  0.00     0.000 C 
BRANCH   7   8
ATOM      8  C   UNL     1       3.157 104.744 178.641  1.00  0.00    -0.000 C 
BRANCH   8   9
ATOM      9  C   UNL     1       1.871 104.876 177.807  1.00  0.00    -0.003 C 
ATOM     10  C   UNL     1       1.085 106.148 178.119  1.00  0.00     0.004 C 
ENDBRANCH   8   9
ENDBRANCH   7   8
ENDBRANCH   1   7
TORSDOF 6
ENDMDL
MODEL 5
REMARK VINA RESULT:    -2.945      1.274      2.493
REMARK INTER + INTRA:          -4.355
REMARK INTER:                  -3.859
REMARK INTRA:                  -0.495
REMARK UNBOUND:                -0.376
REMARK SMILES CCCCCCCC(=O)[O-]
REMARK SMILES IDX 5 1 6 2 7 3 8 4 9 5 10 6 4 7 3 8 2 9 1 10
REMARK H PARENT
REMARK Flexibility Score: inf
ROOT
ATOM      1  C   UNL     1       1.852 107.414 179.120  1.00  0.00     0.000 C 
ENDROOT
BRANCH   1   2
ATOM      2  C   UNL     1       1.484 108.077 180.458  1.00  0.00     0.006 C 
BRANCH   2   3
ATOM      3  C   UNL     1       2.682 108.788 181.100  1.00  0.00     0.053 C 
BRANCH   3   4
ATOM      4  C   UNL     1       2.628 108.726 182.596  1.00  0.00     0.041 C 
ATOM      5  O   UNL     1       3.582 108.223 183.244  1.00  0.00    -0.550 OA
ATOM      6  O   UNL     1       1.537 109.256 183.276  1.00  0.00    -0.550 OA
ENDBRANCH   3   4
ENDBRANCH   2   3
ENDBRANCH   1   2
BRANCH   1   7
ATOM      7  C   UNL     1       1.718 105.881 179.155  1.00  0.00     0.000 C 
BRANCH   7   8
ATOM      8  C   UNL     1       2.839 105.145 179.919  1.00  0.00    -0.000 C 
BRANCH   8   9
ATOM      9  C   UNL     1       4.269 105.560 179.531  1.00  0.00    -0.003 C 
ATOM     10  C   UNL     1       5.082 106.076 180.717  1.00  0.00     0.004 C 
ENDBRANCH   8   9
ENDBRANCH   7   8
ENDBRANCH   1   7
TORSDOF 6
ENDMDL
MODEL 6
REMARK VINA RESULT:    -2.891      3.319      5.928
REMARK INTER + INTRA:          -4.282
REMARK INTER:                  -4.082
REMARK INTRA:                  -0.200
REMARK UNBOUND:                -0.376
REMARK SMILES CCCCCCCC(=O)[O-]
REMARK SMILES IDX 5 1 6 2 7 3 8 4 9 5 10 6 4 7 3 8 2 9 1 10
REMARK H PARENT
REMARK Flexibility Score: inf
ROOT
ATOM      1  C   UNL     1       3.978 110.399 181.930  1.00  0.00     0.000 C 
ENDROOT
BRANCH   1   2
ATOM      2  C   UNL     1       3.089 109.174 181.657  1.00  0.00     0.006 C 
BRANCH   2   3
ATOM      3  C   UNL     1       3.239 108.097 182.740  1.00  0.00     0.053 C 
BRANCH   3   4
ATOM      4  C   UNL     1       4.049 106.933 182.256  1.00  0.00     0.041 C 
ATOM      5  O   UNL     1       3.650 106.243 181.282  1.00  0.00    -0.550 OA
ATOM      6  O   UNL     1       5.265 106.633 182.860  1.00  0.00    -0.550 OA
ENDBRANCH   3   4
ENDBRANCH   2   3
ENDBRANCH   1   2
BRANCH   1   7
ATOM      7  C   UNL     1       3.611 111.125 183.236  1.00  0.00     0.000 C 
BRANCH   7   8
ATOM      8  C   UNL     1       4.753 111.947 183.869  1.00  0.00    -0.000 C 
BRANCH   8   9
ATOM      9  C   UNL     1       4.307 112.968 184.931  1.00  0.00    -0.003 C 
ATOM     10  C   UNL     1       2.847 113.389 184.775  1.00  0.00     0.004 C 
ENDBRANCH   8   9
ENDBRANCH   7   8
ENDBRANCH   1   7
TORSDOF 6
ENDMDL
MODEL 7
REMARK VINA RESULT:    -2.787      2.957      5.702
REMARK INTER + INTRA:          -4.141
REMARK INTER:                  -3.807
REMARK INTRA:                  -0.334
REMARK UNBOUND:                -0.376
REMARK SMILES CCCCCCCC(=O)[O-]
REMARK SMILES IDX 5 1 6 2 7 3 8 4 9 5 10 6 4 7 3 8 2 9 1 10
REMARK H PARENT
REMARK Flexibility Score: inf
ROOT
ATOM      1  C   UNL     1       4.348 110.415 182.075  1.00  0.00     0.000 C 
ENDROOT
BRANCH   1   2
ATOM      2  C   UNL     1       4.555 109.262 183.072  1.00  0.00     0.006 C 
BRANCH   2   3
ATOM      3  C   UNL     1       3.569 108.111 182.837  1.00  0.00     0.053 C 
BRANCH   3   4
ATOM      4  C   UNL     1       2.198 108.613 182.501  1.00  0.00     0.041 C 
ATOM      5  O   UNL     1       1.750 108.498 181.331  1.00  0.00    -0.550 OA
ATOM      6  O   UNL     1       1.402 109.177 183.491  1.00  0.00    -0.550 OA
ENDBRANCH   3   4
ENDBRANCH   2   3
ENDBRANCH   1   2
BRANCH   1   7
ATOM      7  C   UNL     1       4.400 111.801 182.744  1.00  0.00     0.000 C 
BRANCH   7   8
ATOM      8  C   UNL     1       3.287 112.068 183.779  1.00  0.00    -0.000 C 
BRANCH   8   9
ATOM      9  C   UNL     1       3.681 113.016 184.925  1.00  0.00    -0.003 C 
ATOM     10  C   UNL     1       5.192 113.114 185.125  1.00  0.00     0.004 C 
ENDBRANCH   8   9
ENDBRANCH   7   8
ENDBRANCH   1   7
TORSDOF 6
ENDMDL
MODEL 8
REMARK VINA RESULT:    -2.780      2.482      3.719
REMARK INTER + INTRA:          -4.132
REMARK INTER:                  -3.666
REMARK INTRA:                  -0.466
REMARK UNBOUND:                -0.376
REMARK SMILES CCCCCCCC(=O)[O-]
REMARK SMILES IDX 5 1 6 2 7 3 8 4 9 5 10 6 4 7 3 8 2 9 1 10
REMARK H PARENT
REMARK Flexibility Score: inf
ROOT
ATOM      1  C   UNL     1       5.706 109.819 183.827  1.00  0.00     0.000 C 
ENDROOT
BRANCH   1   2
ATOM      2  C   UNL     1       4.844 109.933 182.559  1.00  0.00     0.006 C 
BRANCH   2   3
ATOM      3  C   UNL     1       3.425 110.427 182.867  1.00  0.00     0.053 C 
BRANCH   3   4
ATOM      4  C   UNL     1       2.417 109.325 182.752  1.00  0.00     0.041 C 
ATOM      5  O   UNL     1       2.538 108.445 181.861  1.00  0.00    -0.550 OA
ATOM      6  O   UNL     1       1.363 109.249 183.655  1.00  0.00    -0.550 OA
ENDBRANCH   3   4
ENDBRANCH   2   3
ENDBRANCH   1   2
BRANCH   1   7
ATOM      7  C   UNL     1       6.402 108.451 183.956  1.00  0.00     0.000 C 
BRANCH   7   8
ATOM      8  C   UNL     1       5.570 107.248 183.468  1.00  0.00    -0.000 C 
BRANCH   8   9
ATOM      9  C   UNL     1       6.200 106.449 182.313  1.00  0.00    -0.003 C 
ATOM     10  C   UNL     1       5.272 106.313 181.107  1.00  0.00     0.004 C 
ENDBRANCH   8   9
ENDBRANCH   7   8
ENDBRANCH   1   7
TORSDOF 6
ENDMDL
MODEL 9
REMARK VINA RESULT:    -2.775      2.029      4.131
REMARK INTER + INTRA:          -4.124
REMARK INTER:                  -3.526
REMARK INTRA:                  -0.599
REMARK UNBOUND:                -0.376
REMARK SMILES CCCCCCCC(=O)[O-]
REMARK SMILES IDX 5 1 6 2 7 3 8 4 9 5 10 6 4 7 3 8 2 9 1 10
REMARK H PARENT
REMARK Flexibility Score: inf
ROOT
ATOM      1  C   UNL     1       5.078 107.206 181.840  1.00  0.00     0.000 C 
ENDROOT
BRANCH   1   2
ATOM      2  C   UNL     1       3.544 107.134 181.750  1.00  0.00     0.006 C 
BRANCH   2   3
ATOM      3  C   UNL     1       2.908 108.522 181.599  1.00  0.00     0.053 C 
BRANCH   3   4
ATOM      4  C   UNL     1       2.413 109.051 182.911  1.00  0.00     0.041 C 
ATOM      5  O   UNL     1       1.917 108.269 183.763  1.00  0.00    -0.550 OA
ATOM      6  O   UNL     1       2.533 110.404 183.205  1.00  0.00    -0.550 OA
ENDBRANCH   3   4
ENDBRANCH   2   3
ENDBRANCH   1   2
BRANCH   1   7
ATOM      7  C   UNL     1       5.605 106.981 183.269  1.00  0.00     0.000 C 
BRANCH   7   8
ATOM      8  C   UNL     1       6.022 108.262 184.020  1.00  0.00    -0.000 C 
BRANCH   8   9
ATOM      9  C   UNL     1       6.163 109.515 183.137  1.00  0.00    -0.003 C 
ATOM     10  C   UNL     1       5.941 110.815 183.908  1.00  0.00     0.004 C 
ENDBRANCH   8   9
ENDBRANCH   7   8
ENDBRANCH   1   7
TORSDOF 6
ENDMDL
