MODEL 1
REMARK VINA RESULT:    -4.072      0.000      0.000
REMARK INTER + INTRA:          -6.487
REMARK INTER:                  -5.977
REMARK INTRA:                  -0.510
REMARK UNBOUND:                -0.510
REMARK SMILES O=C([O-])CCCCCCCC(=O)[O-]
REMARK SMILES IDX 7 1 6 2 5 3 4 4 2 5 1 6 3 7 8 8 9 9 10 10 11 11 12 12 13 13
REMARK H PARENT
REMARK Flexibility Score: inf
ROOT
ATOM      1  C   UNL     1      17.257 -10.283  12.943  1.00  0.00     0.000 C 
ENDROOT
BRANCH   1   2
ATOM      2  C   UNL     1      18.128  -9.143  13.490  1.00  0.00     0.000 C 
BRANCH   2   3
ATOM      3  C   UNL     1      18.049  -7.866  12.632  1.00  0.00     0.006 C 
BRANCH   3   4
ATOM      4  C   UNL     1      18.034  -6.559  13.441  1.00  0.00     0.053 C 
BRANCH   4   5
ATOM      5  C   UNL     1      16.925  -6.533  14.447  1.00  0.00     0.041 C 
ATOM      6  O   UNL     1      15.725  -6.549  14.066  1.00  0.00    -0.550 OA
ATOM      7  O   UNL     1      17.216  -6.455  15.803  1.00  0.00    -0.550 OA
ENDBRANCH   4   5
ENDBRANCH   3   4
ENDBRANCH   2   3
ENDBRANCH   1   2
BRANCH   1   8
ATOM      8  C   UNL     1      16.184  -9.744  11.990  1.00  0.00     0.000 C 
BRANCH   8   9
ATOM      9  C   UNL     1      14.776 -10.041  12.520  1.00  0.00     0.006 C 
BRANCH   9  10
ATOM     10  C   UNL     1      14.413 -11.515  12.318  1.00  0.00     0.053 C 
BRANCH  10  11
ATOM     11  C   UNL     1      13.089 -11.819  12.946  1.00  0.00     0.041 C 
ATOM     12  O   UNL     1      12.829 -12.985  13.343  1.00  0.00    -0.550 OA
ATOM     13  O   UNL     1      12.124 -10.825  13.048  1.00  0.00    -0.550 OA
ENDBRANCH  10  11
ENDBRANCH   9  10
ENDBRANCH   8   9
ENDBRANCH   1   8
TORSDOF 8
ENDMDL
MODEL 2
REMARK VINA RESULT:    -4.036      0.703      5.848
REMARK INTER + INTRA:          -6.434
REMARK INTER:                  -5.951
REMARK INTRA:                  -0.483
REMARK UNBOUND:                -0.510
REMARK SMILES O=C([O-])CCCCCCCC(=O)[O-]
REMARK SMILES IDX 7 1 6 2 5 3 4 4 2 5 1 6 3 7 8 8 9 9 10 10 11 11 12 12 13 13
REMARK H PARENT
REMARK Flexibility Score: inf
ROOT
ATOM      1  C   UNL     1      17.112 -10.144  12.973  1.00  0.00     0.000 C 
ENDROOT
BRANCH   1   2
ATOM      2  C   UNL     1      15.895  -9.471  12.321  1.00  0.00     0.000 C 
BRANCH   2   3
ATOM      3  C   UNL     1      14.642 -10.368  12.329  1.00  0.00     0.006 C 
BRANCH   3   4
ATOM      4  C   UNL     1      14.925 -11.853  12.055  1.00  0.00     0.053 C 
BRANCH   4   5
ATOM      5  C   UNL     1      13.931 -12.748  12.729  1.00  0.00     0.041 C 
ATOM      6  O   UNL     1      14.133 -13.990  12.783  1.00  0.00    -0.550 OA
ATOM      7  O   UNL     1      12.765 -12.216  13.265  1.00  0.00    -0.550 OA
ENDBRANCH   4   5
ENDBRANCH   3   4
ENDBRANCH   2   3
ENDBRANCH   1   2
BRANCH   1   8
ATOM      8  C   UNL     1      18.154  -9.101  13.394  1.00  0.00     0.000 C 
BRANCH   8   9
ATOM      9  C   UNL     1      18.028  -7.824  12.555  1.00  0.00     0.006 C 
BRANCH   9  10
ATOM     10  C   UNL     1      18.109  -6.576  13.439  1.00  0.00     0.053 C 
BRANCH  10  11
ATOM     11  C   UNL     1      17.064  -6.624  14.510  1.00  0.00     0.041 C 
ATOM     12  O   UNL     1      15.851  -6.461  14.218  1.00  0.00    -0.550 OA
ATOM     13  O   UNL     1      17.437  -6.798  15.837  1.00  0.00    -0.550 OA
ENDBRANCH  10  11
ENDBRANCH   9  10
ENDBRANCH   8   9
ENDBRANCH   1   8
TORSDOF 8
ENDMDL
MODEL 3
REMARK VINA RESULT:    -3.964      1.635      2.501
REMARK INTER + INTRA:          -6.329
REMARK INTER:                  -5.793
REMARK INTRA:                  -0.535
REMARK UNBOUND:                -0.510
REMARK SMILES O=C([O-])CCCCCCCC(=O)[O-]
REMARK SMILES IDX 7 1 6 2 5 3 4 4 2 5 1 6 3 7 8 8 9 9 10 10 11 11 12 12 13 13
REMARK H PARENT
REMARK Flexibility Score: inf
ROOT
ATOM      1  C   UNL     1      18.148  -8.771  13.904  1.00  0.00     0.000 C 
ENDROOT
BRANCH   1   2
ATOM      2  C   UNL     1      17.820  -7.401  13.293  1.00  0.00     0.000 C 
BRANCH   2   3
ATOM      3  C   UNL     1      17.179  -6.434  14.307  1.00  0.00     0.006 C 
BRANCH   3   4
ATOM      4  C   UNL     1      17.424  -6.806  15.778  1.00  0.00     0.053 C 
BRANCH   4   5
ATOM      5  C   UNL     1      16.580  -5.994  16.712  1.00  0.00     0.041 C 
ATOM      6  O   UNL     1      15.422  -5.637  16.370  1.00  0.00    -0.550 OA
ATOM      7  O   UNL     1      17.087  -5.600  17.945  1.00  0.00    -0.550 OA
ENDBRANCH   4   5
ENDBRANCH   3   4
ENDBRANCH   2   3
ENDBRANCH   1   2
BRANCH   1   8
ATOM      8  C   UNL     1      17.563  -9.905  13.054  1.00  0.00     0.000 C 
BRANCH   8   9
ATOM      9  C   UNL     1      16.437  -9.391  12.149  1.00  0.00     0.006 C 
BRANCH   9  10
ATOM     10  C   UNL     1      15.136 -10.160  12.399  1.00  0.00     0.053 C 
BRANCH  10  11
ATOM     11  C   UNL     1      14.023  -9.214  12.723  1.00  0.00     0.041 C 
ATOM     12  O   UNL     1      14.237  -7.975  12.765  1.00  0.00    -0.550 OA
ATOM     13  O   UNL     1      12.760  -9.706  13.028  1.00  0.00    -0.550 OA
ENDBRANCH  10  11
ENDBRANCH   9  10
ENDBRANCH   8   9
ENDBRANCH   1   8
TORSDOF 8
ENDMDL
MODEL 4
REMARK VINA RESULT:    -3.941      1.032      5.435
REMARK INTER + INTRA:          -6.294
REMARK INTER:                  -5.874
REMARK INTRA:                  -0.420
REMARK UNBOUND:                -0.510
REMARK SMILES O=C([O-])CCCCCCCC(=O)[O-]
REMARK SMILES IDX 7 1 6 2 5 3 4 4 2 5 1 6 3 7 8 8 9 9 10 10 11 11 12 12 13 13
REMARK H PARENT
REMARK Flexibility Score: inf
ROOT
ATOM      1  C   UNL     1      18.248  -9.029  13.536  1.00  0.00     0.000 C 
ENDROOT
BRANCH   1   2
ATOM      2  C   UNL     1      17.495 -10.136  12.783  1.00  0.00     0.000 C 
BRANCH   2   3
ATOM      3  C   UNL     1      16.025  -9.772  12.499  1.00  0.00     0.006 C 
BRANCH   3   4
ATOM      4  C   UNL     1      15.114 -10.981  12.235  1.00  0.00     0.053 C 
BRANCH   4   5
ATOM      5  C   UNL     1      13.718 -10.751  12.726  1.00  0.00     0.041 C 
ATOM      6  O   UNL     1      13.264  -9.580  12.817  1.00  0.00    -0.550 OA
ATOM      7  O   UNL     1      12.931 -11.827  13.118  1.00  0.00    -0.550 OA
ENDBRANCH   4   5
ENDBRANCH   3   4
ENDBRANCH   2   3
ENDBRANCH   1   2
BRANCH   1   8
ATOM      8  C   UNL     1      18.201  -7.708  12.760  1.00  0.00     0.000 C 
BRANCH   8   9
ATOM      9  C   UNL     1      17.809  -6.543  13.677  1.00  0.00     0.006 C 
BRANCH   9  10
ATOM     10  C   UNL     1      17.565  -7.029  15.109  1.00  0.00     0.053 C 
BRANCH  10  11
ATOM     11  C   UNL     1      16.526  -6.186  15.778  1.00  0.00     0.041 C 
ATOM     12  O   UNL     1      16.646  -5.879  16.993  1.00  0.00    -0.550 OA
ATOM     13  O   UNL     1      15.400  -5.780  15.073  1.00  0.00    -0.550 OA
ENDBRANCH  10  11
ENDBRANCH   9  10
ENDBRANCH   8   9
ENDBRANCH   1   8
TORSDOF 8
ENDMDL
MODEL 5
REMARK VINA RESULT:    -3.937      0.789      1.323
REMARK INTER + INTRA:          -6.289
REMARK INTER:                  -5.933
REMARK INTRA:                  -0.356
REMARK UNBOUND:                -0.510
REMARK SMILES O=C([O-])CCCCCCCC(=O)[O-]
REMARK SMILES IDX 7 1 6 2 5 3 4 4 2 5 1 6 3 7 8 8 9 9 10 10 11 11 12 12 13 13
REMARK H PARENT
REMARK Flexibility Score: inf
ROOT
ATOM      1  C   UNL     1      17.738  -9.674  13.044  1.00  0.00     0.000 C 
ENDROOT
BRANCH   1   2
ATOM      2  C   UNL     1      17.762  -8.337  12.290  1.00  0.00     0.000 C 
BRANCH   2   3
ATOM      3  C   UNL     1      17.881  -7.123  13.231  1.00  0.00     0.006 C 
BRANCH   3   4
ATOM      4  C   UNL     1      17.698  -7.456  14.720  1.00  0.00     0.053 C 
BRANCH   4   5
ATOM      5  C   UNL     1      16.897  -6.412  15.436  1.00  0.00     0.041 C 
ATOM      6  O   UNL     1      17.206  -6.072  16.608  1.00  0.00    -0.550 OA
ATOM      7  O   UNL     1      15.789  -5.841  14.822  1.00  0.00    -0.550 OA
ENDBRANCH   4   5
ENDBRANCH   3   4
ENDBRANCH   2   3
ENDBRANCH   1   2
BRANCH   1   8
ATOM      8  C   UNL     1      16.968 -10.737  12.251  1.00  0.00     0.000 C 
BRANCH   8   9
ATOM      9  C   UNL     1      15.453 -10.542  12.394  1.00  0.00     0.006 C 
BRANCH   9  10
ATOM     10  C   UNL     1      14.712 -11.875  12.256  1.00  0.00     0.053 C 
BRANCH  10  11
ATOM     11  C   UNL     1      13.348 -11.782  12.863  1.00  0.00     0.041 C 
ATOM     12  O   UNL     1      12.741 -12.825  13.220  1.00  0.00    -0.550 OA
ATOM     13  O   UNL     1      12.727 -10.545  12.990  1.00  0.00    -0.550 OA
ENDBRANCH  10  11
ENDBRANCH   9  10
ENDBRANCH   8   9
ENDBRANCH   1   8
TORSDOF 8
ENDMDL
MODEL 6
REMARK VINA RESULT:    -3.935      0.805      1.556
REMARK INTER + INTRA:          -6.285
REMARK INTER:                  -5.897
REMARK INTRA:                  -0.388
REMARK UNBOUND:                -0.510
REMARK SMILES O=C([O-])CCCCCCCC(=O)[O-]
REMARK SMILES IDX 7 1 6 2 5 3 4 4 2 5 1 6 3 7 8 8 9 9 10 10 11 11 12 12 13 13
REMARK H PARENT
REMARK Flexibility Score: inf
ROOT
ATOM      1  C   UNL     1      16.479 -10.015  12.625  1.00  0.00     0.000 C 
ENDROOT
BRANCH   1   2
ATOM      2  C   UNL     1      17.807  -9.653  13.306  1.00  0.00     0.000 C 
BRANCH   2   3
ATOM      3  C   UNL     1      18.210  -8.182  13.084  1.00  0.00     0.006 C 
BRANCH   3   4
ATOM      4  C   UNL     1      17.024  -7.211  12.971  1.00  0.00     0.053 C 
BRANCH   4   5
ATOM      5  C   UNL     1      16.679  -6.589  14.289  1.00  0.00     0.041 C 
ATOM      6  O   UNL     1      17.512  -6.604  15.234  1.00  0.00    -0.550 OA
ATOM      7  O   UNL     1      15.425  -6.023  14.486  1.00  0.00    -0.550 OA
ENDBRANCH   4   5
ENDBRANCH   3   4
ENDBRANCH   2   3
ENDBRANCH   1   2
BRANCH   1   8
ATOM      8  C   UNL     1      16.568 -11.386  11.944  1.00  0.00     0.000 C 
BRANCH   8   9
ATOM      9  C   UNL     1      15.236 -12.138  12.042  1.00  0.00     0.006 C 
BRANCH   9  10
ATOM     10  C   UNL     1      14.074 -11.170  12.284  1.00  0.00     0.053 C 
BRANCH  10  11
ATOM     11  C   UNL     1      12.937 -11.874  12.955  1.00  0.00     0.041 C 
ATOM     12  O   UNL     1      11.894 -11.241  13.262  1.00  0.00    -0.550 OA
ATOM     13  O   UNL     1      13.049 -13.219  13.284  1.00  0.00    -0.550 OA
ENDBRANCH  10  11
ENDBRANCH   9  10
ENDBRANCH   8   9
ENDBRANCH   1   8
TORSDOF 8
ENDMDL
MODEL 7
REMARK VINA RESULT:    -3.890      0.971      1.427
REMARK INTER + INTRA:          -6.220
REMARK INTER:                  -5.908
REMARK INTRA:                  -0.311
REMARK UNBOUND:                -0.510
REMARK SMILES O=C([O-])CCCCCCCC(=O)[O-]
REMARK SMILES IDX 7 1 6 2 5 3 4 4 2 5 1 6 3 7 8 8 9 9 10 10 11 11 12 12 13 13
REMARK H PARENT
REMARK Flexibility Score: inf
ROOT
ATOM      1  C   UNL     1      17.554 -10.203  13.403  1.00  0.00     0.000 C 
ENDROOT
BRANCH   1   2
ATOM      2  C   UNL     1      18.192  -8.806  13.386  1.00  0.00     0.000 C 
BRANCH   2   3
ATOM      3  C   UNL     1      17.218  -7.711  12.910  1.00  0.00     0.006 C 
BRANCH   3   4
ATOM      4  C   UNL     1      17.421  -6.346  13.586  1.00  0.00     0.053 C 
BRANCH   4   5
ATOM      5  C   UNL     1      16.751  -6.276  14.923  1.00  0.00     0.041 C 
ATOM      6  O   UNL     1      17.379  -6.606  15.964  1.00  0.00    -0.550 OA
ATOM      7  O   UNL     1      15.423  -5.879  15.017  1.00  0.00    -0.550 OA
ENDBRANCH   4   5
ENDBRANCH   3   4
ENDBRANCH   2   3
ENDBRANCH   1   2
BRANCH   1   8
ATOM      8  C   UNL     1      16.810 -10.483  12.093  1.00  0.00     0.000 C 
BRANCH   8   9
ATOM      9  C   UNL     1      16.021 -11.796  12.176  1.00  0.00     0.006 C 
BRANCH   9  10
ATOM     10  C   UNL     1      14.516 -11.527  12.262  1.00  0.00     0.053 C 
BRANCH  10  11
ATOM     11  C   UNL     1      13.796 -12.737  12.770  1.00  0.00     0.041 C 
ATOM     12  O   UNL     1      14.347 -13.868  12.721  1.00  0.00    -0.550 OA
ATOM     13  O   UNL     1      12.498 -12.623  13.251  1.00  0.00    -0.550 OA
ENDBRANCH  10  11
ENDBRANCH   9  10
ENDBRANCH   8   9
ENDBRANCH   1   8
TORSDOF 8
ENDMDL
MODEL 8
REMARK VINA RESULT:    -3.792      3.374      4.835
REMARK INTER + INTRA:          -6.076
REMARK INTER:                  -5.559
REMARK INTRA:                  -0.518
REMARK UNBOUND:                -0.510
REMARK SMILES O=C([O-])CCCCCCCC(=O)[O-]
REMARK SMILES IDX 7 1 6 2 5 3 4 4 2 5 1 6 3 7 8 8 9 9 10 10 11 11 12 12 13 13
REMARK H PARENT
REMARK Flexibility Score: inf
ROOT
ATOM      1  C   UNL     1      16.325  -6.034  13.718  1.00  0.00     0.000 C 
ENDROOT
BRANCH   1   2
ATOM      2  C   UNL     1      15.863  -5.795  15.163  1.00  0.00     0.000 C 
BRANCH   2   3
ATOM      3  C   UNL     1      16.933  -6.178  16.203  1.00  0.00     0.006 C 
BRANCH   3   4
ATOM      4  C   UNL     1      16.385  -6.403  17.621  1.00  0.00     0.053 C 
BRANCH   4   5
ATOM      5  C   UNL     1      16.314  -5.129  18.406  1.00  0.00     0.041 C 
ATOM      6  O   UNL     1      17.305  -4.746  19.081  1.00  0.00    -0.550 OA
ATOM      7  O   UNL     1      15.141  -4.384  18.420  1.00  0.00    -0.550 OA
ENDBRANCH   4   5
ENDBRANCH   3   4
ENDBRANCH   2   3
ENDBRANCH   1   2
BRANCH   1   8
ATOM      8  C   UNL     1      17.848  -5.898  13.600  1.00  0.00     0.000 C 
BRANCH   8   9
ATOM      9  C   UNL     1      18.445  -7.059  12.795  1.00  0.00     0.006 C 
BRANCH   9  10
ATOM     10  C   UNL     1      17.400  -8.152  12.551  1.00  0.00     0.053 C 
BRANCH  10  11
ATOM     11  C   UNL     1      17.813  -9.428  13.215  1.00  0.00     0.041 C 
ATOM     12  O   UNL     1      17.490 -10.536  12.712  1.00  0.00    -0.550 OA
ATOM     13  O   UNL     1      18.511  -9.393  14.415  1.00  0.00    -0.550 OA
ENDBRANCH  10  11
ENDBRANCH   9  10
ENDBRANCH   8   9
ENDBRANCH   1   8
TORSDOF 8
ENDMDL
MODEL 9
REMARK VINA RESULT:    -3.771      1.621      2.672
REMARK INTER + INTRA:          -6.044
REMARK INTER:                  -5.475
REMARK INTRA:                  -0.569
REMARK UNBOUND:                -0.510
REMARK SMILES O=C([O-])CCCCCCCC(=O)[O-]
REMARK SMILES IDX 7 1 6 2 5 3 4 4 2 5 1 6 3 7 8 8 9 9 10 10 11 11 12 12 13 13
REMARK H PARENT
REMARK Flexibility Score: inf
ROOT
ATOM      1  C   UNL     1      17.962  -7.861  12.381  1.00  0.00     0.000 C 
ENDROOT
BRANCH   1   2
ATOM      2  C   UNL     1      18.232  -6.494  13.027  1.00  0.00     0.000 C 
BRANCH   2   3
ATOM      3  C   UNL     1      17.001  -5.925  13.758  1.00  0.00     0.006 C 
BRANCH   3   4
ATOM      4  C   UNL     1      15.714  -5.916  12.918  1.00  0.00     0.053 C 
BRANCH   4   5
ATOM      5  C   UNL     1      14.515  -6.317  13.720  1.00  0.00     0.041 C 
ATOM      6  O   UNL     1      13.776  -7.258  13.328  1.00  0.00    -0.550 OA
ATOM      7  O   UNL     1      14.193  -5.628  14.884  1.00  0.00    -0.550 OA
ENDBRANCH   4   5
ENDBRANCH   3   4
ENDBRANCH   2   3
ENDBRANCH   1   2
BRANCH   1   8
ATOM      8  C   UNL     1      18.174  -8.996  13.390  1.00  0.00     0.000 C 
BRANCH   8   9
ATOM      9  C   UNL     1      17.401 -10.254  12.976  1.00  0.00     0.006 C 
BRANCH   9  10
ATOM     10  C   UNL     1      16.035  -9.890  12.386  1.00  0.00     0.053 C 
BRANCH  10  11
ATOM     11  C   UNL     1      15.116 -11.070  12.429  1.00  0.00     0.041 C 
ATOM     12  O   UNL     1      13.909 -10.920  12.755  1.00  0.00    -0.550 OA
ATOM     13  O   UNL     1      15.604 -12.342  12.158  1.00  0.00    -0.550 OA
ENDBRANCH  10  11
ENDBRANCH   9  10
ENDBRANCH   8   9
ENDBRANCH   1   8
TORSDOF 8
ENDMDL
