MODEL 1
REMARK VINA RESULT:    -4.593      0.000      0.000
REMARK INTER + INTRA:          -5.401
REMARK INTER:                  -5.264
REMARK INTRA:                  -0.137
REMARK UNBOUND:                -0.137
REMARK SMILES O=C([O-])C=Cc1ccc(O)cc1
REMARK SMILES IDX 6 1 7 2 12 3 8 4 11 5 9 6 5 7 4 8 2 9 1 10 3 11 10 12
REMARK H PARENT 10 13
REMARK Flexibility Score: inf
ROOT
ATOM      1  C   UNL     1     -45.855 -51.037  10.080  1.00  0.00    -0.025 A 
ATOM      2  C   UNL     1     -45.420 -52.204   9.417  1.00  0.00     0.012 A 
ATOM      3  C   UNL     1     -45.871 -51.022  11.485  1.00  0.00     0.012 A 
ATOM      4  C   UNL     1     -45.035 -53.331  10.151  1.00  0.00     0.047 A 
ATOM      5  C   UNL     1     -45.487 -52.152  12.214  1.00  0.00     0.047 A 
ATOM      6  C   UNL     1     -45.070 -53.309  11.550  1.00  0.00     0.115 A 
ENDROOT
BRANCH   1   7
ATOM      7  C   UNL     1     -46.262 -49.809   9.351  1.00  0.00     0.010 C 
ATOM      8  C   UNL     1     -45.895 -49.535   8.091  1.00  0.00     0.025 C 
BRANCH   8   9
ATOM      9  C   UNL     1     -46.329 -48.311   7.396  1.00  0.00     0.064 C 
ATOM     10  O   UNL     1     -47.247 -48.340   6.534  1.00  0.00    -0.545 OA
ATOM     11  O   UNL     1     -45.716 -47.102   7.698  1.00  0.00    -0.545 OA
ENDBRANCH   8   9
ENDBRANCH   1   7
BRANCH   6  12
ATOM     12  O   UNL     1     -44.692 -54.427  12.289  1.00  0.00    -0.508 OA
ATOM     13  H   UNL     1     -43.864 -54.420  12.874  1.00  0.00     0.293 HD
ENDBRANCH   6  12
TORSDOF 3
ENDMDL
MODEL 2
REMARK VINA RESULT:    -4.416      1.806      2.233
REMARK INTER + INTRA:          -5.198
REMARK INTER:                  -5.058
REMARK INTRA:                  -0.140
REMARK UNBOUND:                -0.137
REMARK SMILES O=C([O-])C=Cc1ccc(O)cc1
REMARK SMILES IDX 6 1 7 2 12 3 8 4 11 5 9 6 5 7 4 8 2 9 1 10 3 11 10 12
REMARK H PARENT 10 13
REMARK Flexibility Score: inf
ROOT
ATOM      1  C   UNL     1     -45.464 -50.594  10.921  1.00  0.00    -0.025 A 
ATOM      2  C   UNL     1     -44.506 -51.442  10.328  1.00  0.00     0.012 A 
ATOM      3  C   UNL     1     -46.091 -51.006  12.110  1.00  0.00     0.012 A 
ATOM      4  C   UNL     1     -44.207 -52.682  10.904  1.00  0.00     0.047 A 
ATOM      5  C   UNL     1     -45.790 -52.247  12.680  1.00  0.00     0.047 A 
ATOM      6  C   UNL     1     -44.849 -53.088  12.079  1.00  0.00     0.115 A 
ENDROOT
BRANCH   1   7
ATOM      7  C   UNL     1     -45.810 -49.264  10.360  1.00  0.00     0.010 C 
ATOM      8  C   UNL     1     -45.603 -48.107  11.003  1.00  0.00     0.025 C 
BRANCH   8   9
ATOM      9  C   UNL     1     -45.948 -46.804  10.408  1.00  0.00     0.064 C 
ATOM     10  O   UNL     1     -46.391 -45.860  11.116  1.00  0.00    -0.545 OA
ATOM     11  O   UNL     1     -45.783 -46.613   9.043  1.00  0.00    -0.545 OA
ENDBRANCH   8   9
ENDBRANCH   1   7
BRANCH   6  12
ATOM     12  O   UNL     1     -44.560 -54.321  12.658  1.00  0.00    -0.508 OA
ATOM     13  H   UNL     1     -45.146 -55.132  12.499  1.00  0.00     0.293 HD
ENDBRANCH   6  12
TORSDOF 3
ENDMDL
MODEL 3
REMARK VINA RESULT:    -4.400      2.390      3.207
REMARK INTER + INTRA:          -5.181
REMARK INTER:                  -5.040
REMARK INTRA:                  -0.141
REMARK UNBOUND:                -0.137
REMARK SMILES O=C([O-])C=Cc1ccc(O)cc1
REMARK SMILES IDX 6 1 7 2 12 3 8 4 11 5 9 6 5 7 4 8 2 9 1 10 3 11 10 12
REMARK H PARENT 10 13
REMARK Flexibility Score: inf
ROOT
ATOM      1  C   UNL     1     -45.728 -51.128  10.856  1.00  0.00    -0.025 A 
ATOM      2  C   UNL     1     -45.265 -52.217  11.624  1.00  0.00     0.012 A 
ATOM      3  C   UNL     1     -45.933 -51.310   9.478  1.00  0.00     0.012 A 
ATOM      4  C   UNL     1     -44.993 -53.447  11.015  1.00  0.00     0.047 A 
ATOM      5  C   UNL     1     -45.658 -52.540   8.873  1.00  0.00     0.047 A 
ATOM      6  C   UNL     1     -45.187 -53.611   9.638  1.00  0.00     0.115 A 
ENDROOT
BRANCH   1   7
ATOM      7  C   UNL     1     -46.044 -49.807  11.454  1.00  0.00     0.010 C 
ATOM      8  C   UNL     1     -45.525 -48.650  11.020  1.00  0.00     0.025 C 
BRANCH   8   9
ATOM      9  C   UNL     1     -45.871 -47.355  11.631  1.00  0.00     0.064 C 
ATOM     10  O   UNL     1     -45.892 -47.209  12.882  1.00  0.00    -0.545 OA
ATOM     11  O   UNL     1     -46.179 -46.276  10.814  1.00  0.00    -0.545 OA
ENDBRANCH   8   9
ENDBRANCH   1   7
BRANCH   6  12
ATOM     12  O   UNL     1     -44.917 -54.830   9.022  1.00  0.00    -0.508 OA
ATOM     13  H   UNL     1     -45.557 -55.613   9.092  1.00  0.00     0.293 HD
ENDBRANCH   6  12
TORSDOF 3
ENDMDL
MODEL 4
REMARK VINA RESULT:    -4.233      1.873      6.059
REMARK INTER + INTRA:          -4.989
REMARK INTER:                  -4.847
REMARK INTRA:                  -0.141
REMARK UNBOUND:                -0.137
REMARK SMILES O=C([O-])C=Cc1ccc(O)cc1
REMARK SMILES IDX 6 1 7 2 12 3 8 4 11 5 9 6 5 7 4 8 2 9 1 10 3 11 10 12
REMARK H PARENT 10 13
REMARK Flexibility Score: inf
ROOT
ATOM      1  C   UNL     1     -45.418 -49.839   7.391  1.00  0.00    -0.025 A 
ATOM      2  C   UNL     1     -44.997 -50.019   6.056  1.00  0.00     0.012 A 
ATOM      3  C   UNL     1     -46.384 -48.857   7.670  1.00  0.00     0.012 A 
ATOM      4  C   UNL     1     -45.518 -49.215   5.036  1.00  0.00     0.047 A 
ATOM      5  C   UNL     1     -46.901 -48.055   6.647  1.00  0.00     0.047 A 
ATOM      6  C   UNL     1     -46.469 -48.230   5.330  1.00  0.00     0.115 A 
ENDROOT
BRANCH   1   7
ATOM      7  C   UNL     1     -44.907 -50.671   8.508  1.00  0.00     0.010 C 
ATOM      8  C   UNL     1     -45.696 -51.363   9.343  1.00  0.00     0.025 C 
BRANCH   8   9
ATOM      9  C   UNL     1     -45.151 -52.189  10.434  1.00  0.00     0.064 C 
ATOM     10  O   UNL     1     -44.324 -53.111  10.204  1.00  0.00    -0.545 OA
ATOM     11  O   UNL     1     -45.556 -51.946  11.740  1.00  0.00    -0.545 OA
ENDBRANCH   8   9
ENDBRANCH   1   7
BRANCH   6  12
ATOM     12  O   UNL     1     -46.992 -47.423   4.322  1.00  0.00    -0.508 OA
ATOM     13  H   UNL     1     -46.588 -47.408   3.393  1.00  0.00     0.293 HD
ENDBRANCH   6  12
TORSDOF 3
ENDMDL
MODEL 5
REMARK VINA RESULT:    -4.231      1.742      2.201
REMARK INTER + INTRA:          -4.987
REMARK INTER:                  -4.836
REMARK INTRA:                  -0.151
REMARK UNBOUND:                -0.137
REMARK SMILES O=C([O-])C=Cc1ccc(O)cc1
REMARK SMILES IDX 6 1 7 2 12 3 8 4 11 5 9 6 5 7 4 8 2 9 1 10 3 11 10 12
REMARK H PARENT 10 13
REMARK Flexibility Score: inf
ROOT
ATOM      1  C   UNL     1     -44.009 -51.715  10.482  1.00  0.00    -0.025 A 
ATOM      2  C   UNL     1     -42.992 -52.578  10.940  1.00  0.00     0.012 A 
ATOM      3  C   UNL     1     -45.234 -51.686  11.169  1.00  0.00     0.012 A 
ATOM      4  C   UNL     1     -43.214 -53.407  12.046  1.00  0.00     0.047 A 
ATOM      5  C   UNL     1     -45.452 -52.517  12.273  1.00  0.00     0.047 A 
ATOM      6  C   UNL     1     -44.444 -53.380  12.713  1.00  0.00     0.115 A 
ENDROOT
BRANCH   1   7
ATOM      7  C   UNL     1     -43.823 -50.807   9.322  1.00  0.00     0.010 C 
ATOM      8  C   UNL     1     -44.834 -50.222   8.664  1.00  0.00     0.025 C 
BRANCH   8   9
ATOM      9  C   UNL     1     -44.609 -49.317   7.524  1.00  0.00     0.064 C 
ATOM     10  O   UNL     1     -43.676 -48.470   7.538  1.00  0.00    -0.545 OA
ATOM     11  O   UNL     1     -45.439 -49.398   6.414  1.00  0.00    -0.545 OA
ENDBRANCH   8   9
ENDBRANCH   1   7
BRANCH   6  12
ATOM     12  O   UNL     1     -44.675 -54.202  13.813  1.00  0.00    -0.508 OA
ATOM     13  H   UNL     1     -45.120 -53.851  14.653  1.00  0.00     0.293 HD
ENDBRANCH   6  12
TORSDOF 3
ENDMDL
MODEL 6
REMARK VINA RESULT:    -4.158      2.293      5.984
REMARK INTER + INTRA:          -4.903
REMARK INTER:                  -4.760
REMARK INTRA:                  -0.143
REMARK UNBOUND:                -0.137
REMARK SMILES O=C([O-])C=Cc1ccc(O)cc1
REMARK SMILES IDX 6 1 7 2 12 3 8 4 11 5 9 6 5 7 4 8 2 9 1 10 3 11 10 12
REMARK H PARENT 10 13
REMARK Flexibility Score: inf
ROOT
ATOM      1  C   UNL     1     -45.870 -49.189  11.185  1.00  0.00    -0.025 A 
ATOM      2  C   UNL     1     -45.845 -48.180  12.171  1.00  0.00     0.012 A 
ATOM      3  C   UNL     1     -45.864 -48.812   9.831  1.00  0.00     0.012 A 
ATOM      4  C   UNL     1     -45.839 -46.831  11.803  1.00  0.00     0.047 A 
ATOM      5  C   UNL     1     -45.861 -47.462   9.467  1.00  0.00     0.047 A 
ATOM      6  C   UNL     1     -45.850 -46.468  10.450  1.00  0.00     0.115 A 
ENDROOT
BRANCH   1   7
ATOM      7  C   UNL     1     -45.864 -50.634  11.521  1.00  0.00     0.010 C 
ATOM      8  C   UNL     1     -45.046 -51.529  10.949  1.00  0.00     0.025 C 
BRANCH   8   9
ATOM      9  C   UNL     1     -45.060 -52.955  11.317  1.00  0.00     0.064 C 
ATOM     10  O   UNL     1     -44.766 -53.331  12.483  1.00  0.00    -0.545 OA
ATOM     11  O   UNL     1     -45.406 -53.902  10.362  1.00  0.00    -0.545 OA
ENDBRANCH   8   9
ENDBRANCH   1   7
BRANCH   6  12
ATOM     12  O   UNL     1     -45.847 -45.128  10.073  1.00  0.00    -0.508 OA
ATOM     13  H   UNL     1     -45.095 -44.504  10.341  1.00  0.00     0.293 HD
ENDBRANCH   6  12
TORSDOF 3
ENDMDL
MODEL 7
REMARK VINA RESULT:    -4.044      7.829      8.735
REMARK INTER + INTRA:          -4.773
REMARK INTER:                  -4.620
REMARK INTRA:                  -0.153
REMARK UNBOUND:                -0.137
REMARK SMILES O=C([O-])C=Cc1ccc(O)cc1
REMARK SMILES IDX 6 1 7 2 12 3 8 4 11 5 9 6 5 7 4 8 2 9 1 10 3 11 10 12
REMARK H PARENT 10 13
REMARK Flexibility Score: inf
ROOT
ATOM      1  C   UNL     1     -46.318 -43.319  13.797  1.00  0.00    -0.025 A 
ATOM      2  C   UNL     1     -46.340 -43.147  15.197  1.00  0.00     0.012 A 
ATOM      3  C   UNL     1     -47.059 -44.371  13.231  1.00  0.00     0.012 A 
ATOM      4  C   UNL     1     -47.069 -44.027  16.005  1.00  0.00     0.047 A 
ATOM      5  C   UNL     1     -47.784 -45.248  14.043  1.00  0.00     0.047 A 
ATOM      6  C   UNL     1     -47.790 -45.080  15.431  1.00  0.00     0.115 A 
ENDROOT
BRANCH   1   7
ATOM      7  C   UNL     1     -45.572 -42.409  12.893  1.00  0.00     0.010 C 
ATOM      8  C   UNL     1     -45.551 -42.536  11.559  1.00  0.00     0.025 C 
BRANCH   8   9
ATOM      9  C   UNL     1     -44.808 -41.605  10.692  1.00  0.00     0.064 C 
ATOM     10  O   UNL     1     -44.522 -41.907   9.503  1.00  0.00    -0.545 OA
ATOM     11  O   UNL     1     -44.417 -40.371  11.194  1.00  0.00    -0.545 OA
ENDBRANCH   8   9
ENDBRANCH   1   7
BRANCH   6  12
ATOM     12  O   UNL     1     -48.517 -45.962  16.227  1.00  0.00    -0.508 OA
ATOM     13  H   UNL     1     -48.931 -45.666  17.103  1.00  0.00     0.293 HD
ENDBRANCH   6  12
TORSDOF 3
ENDMDL
MODEL 8
REMARK VINA RESULT:    -3.941      2.560      3.038
REMARK INTER + INTRA:          -4.654
REMARK INTER:                  -4.516
REMARK INTRA:                  -0.139
REMARK UNBOUND:                -0.137
REMARK SMILES O=C([O-])C=Cc1ccc(O)cc1
REMARK SMILES IDX 6 1 7 2 12 3 8 4 11 5 9 6 5 7 4 8 2 9 1 10 3 11 10 12
REMARK H PARENT 10 13
REMARK Flexibility Score: inf
ROOT
ATOM      1  C   UNL     1     -43.956 -51.683  10.524  1.00  0.00    -0.025 A 
ATOM      2  C   UNL     1     -45.221 -51.700  11.148  1.00  0.00     0.012 A 
ATOM      3  C   UNL     1     -42.953 -52.542  11.004  1.00  0.00     0.012 A 
ATOM      4  C   UNL     1     -45.460 -52.540  12.240  1.00  0.00     0.047 A 
ATOM      5  C   UNL     1     -43.196 -53.380  12.098  1.00  0.00     0.047 A 
ATOM      6  C   UNL     1     -44.448 -53.380  12.719  1.00  0.00     0.115 A 
ENDROOT
BRANCH   1   7
ATOM      7  C   UNL     1     -43.654 -50.820   9.355  1.00  0.00     0.010 C 
ATOM      8  C   UNL     1     -42.719 -49.860   9.360  1.00  0.00     0.025 C 
BRANCH   8   9
ATOM      9  C   UNL     1     -42.438 -49.031   8.175  1.00  0.00     0.064 C 
ATOM     10  O   UNL     1     -43.368 -48.469   7.537  1.00  0.00    -0.545 OA
ATOM     11  O   UNL     1     -41.125 -48.864   7.755  1.00  0.00    -0.545 OA
ENDBRANCH   8   9
ENDBRANCH   1   7
BRANCH   6  12
ATOM     12  O   UNL     1     -44.675 -54.219  13.807  1.00  0.00    -0.508 OA
ATOM     13  H   UNL     1     -45.537 -54.744  13.901  1.00  0.00     0.293 HD
ENDBRANCH   6  12
TORSDOF 3
ENDMDL
MODEL 9
REMARK VINA RESULT:    -3.925      7.364     10.015
REMARK INTER + INTRA:          -4.636
REMARK INTER:                  -4.486
REMARK INTRA:                  -0.149
REMARK UNBOUND:                -0.137
REMARK SMILES O=C([O-])C=Cc1ccc(O)cc1
REMARK SMILES IDX 6 1 7 2 12 3 8 4 11 5 9 6 5 7 4 8 2 9 1 10 3 11 10 12
REMARK H PARENT 10 13
REMARK Flexibility Score: inf
ROOT
ATOM      1  C   UNL     1     -45.386 -42.509  10.989  1.00  0.00    -0.025 A 
ATOM      2  C   UNL     1     -45.091 -42.339   9.620  1.00  0.00     0.012 A 
ATOM      3  C   UNL     1     -44.972 -41.520  11.898  1.00  0.00     0.012 A 
ATOM      4  C   UNL     1     -44.377 -41.217   9.184  1.00  0.00     0.047 A 
ATOM      5  C   UNL     1     -44.258 -40.402  11.458  1.00  0.00     0.047 A 
ATOM      6  C   UNL     1     -43.957 -40.248  10.102  1.00  0.00     0.115 A 
ENDROOT
BRANCH   1   7
ATOM      7  C   UNL     1     -46.150 -43.673  11.503  1.00  0.00     0.010 C 
ATOM      8  C   UNL     1     -46.184 -44.030  12.794  1.00  0.00     0.025 C 
BRANCH   8   9
ATOM      9  C   UNL     1     -46.964 -45.186  13.269  1.00  0.00     0.064 C 
ATOM     10  O   UNL     1     -46.602 -46.366  13.016  1.00  0.00    -0.545 OA
ATOM     11  O   UNL     1     -48.119 -44.971  14.010  1.00  0.00    -0.545 OA
ENDBRANCH   8   9
ENDBRANCH   1   7
BRANCH   6  12
ATOM     12  O   UNL     1     -43.244 -39.129   9.678  1.00  0.00    -0.508 OA
ATOM     13  H   UNL     1     -42.680 -39.147   8.837  1.00  0.00     0.293 HD
ENDBRANCH   6  12
TORSDOF 3
ENDMDL
