MODEL 1
REMARK VINA RESULT:    -5.579      0.000      0.000
REMARK INTER + INTRA:         -11.390
REMARK INTER:                 -10.472
REMARK INTRA:                  -0.919
REMARK UNBOUND:                -0.919
REMARK SMILES O=C([O-])CCCCCCCCCCCCCCC(=O)[O-]
REMARK SMILES IDX 10 1 9 2 8 3 7 4 6 5 5 6 4 7 2 8 1 9 3 10 11 11 12 12 13 13
REMARK SMILES IDX 14 14 15 15 16 16 17 17 18 18 19 19 20 20
REMARK H PARENT
REMARK Flexibility Score: inf
ROOT
ATOM      1  C   UNL     1      22.373  13.571  10.281  1.00  0.00     0.000 C 
ENDROOT
BRANCH   1   2
ATOM      2  C   UNL     1      22.622  12.122  10.727  1.00  0.00     0.000 C 
BRANCH   2   3
ATOM      3  C   UNL     1      21.338  11.278  10.736  1.00  0.00     0.000 C 
BRANCH   3   4
ATOM      4  C   UNL     1      21.659   9.794  10.946  1.00  0.00     0.000 C 
BRANCH   4   5
ATOM      5  C   UNL     1      22.678   9.605  12.078  1.00  0.00     0.000 C 
BRANCH   5   6
ATOM      6  C   UNL     1      22.045   9.092  13.383  1.00  0.00     0.006 C 
BRANCH   6   7
ATOM      7  C   UNL     1      20.745   8.293  13.176  1.00  0.00     0.053 C 
BRANCH   7   8
ATOM      8  C   UNL     1      19.572   8.912  13.874  1.00  0.00     0.041 C 
ATOM      9  O   UNL     1      19.104  10.010  13.473  1.00  0.00    -0.550 OA
ATOM     10  O   UNL     1      19.016   8.295  14.988  1.00  0.00    -0.550 OA
ENDBRANCH   7   8
ENDBRANCH   6   7
ENDBRANCH   5   6
ENDBRANCH   4   5
ENDBRANCH   3   4
ENDBRANCH   2   3
ENDBRANCH   1   2
BRANCH   1  11
ATOM     11  C   UNL     1      22.576  13.768   8.768  1.00  0.00     0.000 C 
BRANCH  11  12
ATOM     12  C   UNL     1      23.886  13.145   8.262  1.00  0.00     0.000 C 
BRANCH  12  13
ATOM     13  C   UNL     1      25.128  13.915   8.733  1.00  0.00     0.000 C 
BRANCH  13  14
ATOM     14  C   UNL     1      26.158  14.040   7.604  1.00  0.00     0.000 C 
BRANCH  14  15
ATOM     15  C   UNL     1      27.033  15.284   7.790  1.00  0.00     0.000 C 
BRANCH  15  16
ATOM     16  C   UNL     1      26.175  16.544   7.949  1.00  0.00     0.006 C 
BRANCH  16  17
ATOM     17  C   UNL     1      27.041  17.806   7.928  1.00  0.00     0.053 C 
BRANCH  17  18
ATOM     18  C   UNL     1      26.291  18.947   7.315  1.00  0.00     0.041 C 
ATOM     19  O   UNL     1      25.201  18.742   6.720  1.00  0.00    -0.550 OA
ATOM     20  O   UNL     1      26.821  20.230   7.358  1.00  0.00    -0.550 OA
ENDBRANCH  17  18
ENDBRANCH  16  17
ENDBRANCH  15  16
ENDBRANCH  14  15
ENDBRANCH  13  14
ENDBRANCH  12  13
ENDBRANCH  11  12
ENDBRANCH   1  11
TORSDOF 15
ENDMDL
MODEL 2
REMARK VINA RESULT:    -5.555      3.550      4.456
REMARK INTER + INTRA:         -11.345
REMARK INTER:                  -9.848
REMARK INTRA:                  -1.498
REMARK UNBOUND:                -0.919
REMARK SMILES O=C([O-])CCCCCCCCCCCCCCC(=O)[O-]
REMARK SMILES IDX 10 1 9 2 8 3 7 4 6 5 5 6 4 7 2 8 1 9 3 10 11 11 12 12 13 13
REMARK SMILES IDX 14 14 15 15 16 16 17 17 18 18 19 19 20 20
REMARK H PARENT
REMARK Flexibility Score: inf
ROOT
ATOM      1  C   UNL     1      22.539  13.608  10.133  1.00  0.00     0.000 C 
ENDROOT
BRANCH   1   2
ATOM      2  C   UNL     1      22.461  12.287  10.913  1.00  0.00     0.000 C 
BRANCH   2   3
ATOM      3  C   UNL     1      21.669  11.205  10.163  1.00  0.00     0.000 C 
BRANCH   3   4
ATOM      4  C   UNL     1      21.632   9.898  10.964  1.00  0.00     0.000 C 
BRANCH   4   5
ATOM      5  C   UNL     1      22.345  10.059  12.314  1.00  0.00     0.000 C 
BRANCH   5   6
ATOM      6  C   UNL     1      21.992   8.949  13.320  1.00  0.00     0.006 C 
BRANCH   6   7
ATOM      7  C   UNL     1      20.617   8.300  13.079  1.00  0.00     0.053 C 
BRANCH   7   8
ATOM      8  C   UNL     1      19.533   8.926  13.904  1.00  0.00     0.041 C 
ATOM      9  O   UNL     1      19.043  10.036  13.568  1.00  0.00    -0.550 OA
ATOM     10  O   UNL     1      19.088   8.302  15.063  1.00  0.00    -0.550 OA
ENDBRANCH   7   8
ENDBRANCH   6   7
ENDBRANCH   5   6
ENDBRANCH   4   5
ENDBRANCH   3   4
ENDBRANCH   2   3
ENDBRANCH   1   2
BRANCH   1  11
ATOM     11  C   UNL     1      22.577  13.395   8.609  1.00  0.00     0.000 C 
BRANCH  11  12
ATOM     12  C   UNL     1      24.004  13.179   8.079  1.00  0.00     0.000 C 
BRANCH  12  13
ATOM     13  C   UNL     1      25.021  14.139   8.712  1.00  0.00     0.000 C 
BRANCH  13  14
ATOM     14  C   UNL     1      26.443  13.574   8.616  1.00  0.00     0.000 C 
BRANCH  14  15
ATOM     15  C   UNL     1      27.053  13.373  10.008  1.00  0.00     0.000 C 
BRANCH  15  16
ATOM     16  C   UNL     1      26.098  12.595  10.921  1.00  0.00     0.006 C 
BRANCH  16  17
ATOM     17  C   UNL     1      26.809  12.136  12.196  1.00  0.00     0.053 C 
BRANCH  17  18
ATOM     18  C   UNL     1      25.823  11.590  13.180  1.00  0.00     0.041 C 
ATOM     19  O   UNL     1      25.944  10.414  13.613  1.00  0.00    -0.550 OA
ATOM     20  O   UNL     1      24.741  12.363  13.581  1.00  0.00    -0.550 OA
ENDBRANCH  17  18
ENDBRANCH  16  17
ENDBRANCH  15  16
ENDBRANCH  14  15
ENDBRANCH  13  14
ENDBRANCH  12  13
ENDBRANCH  11  12
ENDBRANCH   1  11
TORSDOF 15
ENDMDL
MODEL 3
REMARK VINA RESULT:    -5.376      0.842      9.845
REMARK INTER + INTRA:         -11.009
REMARK INTER:                  -9.888
REMARK INTRA:                  -1.121
REMARK UNBOUND:                -0.919
REMARK SMILES O=C([O-])CCCCCCCCCCCCCCC(=O)[O-]
REMARK SMILES IDX 10 1 9 2 8 3 7 4 6 5 5 6 4 7 2 8 1 9 3 10 11 11 12 12 13 13
REMARK SMILES IDX 14 14 15 15 16 16 17 17 18 18 19 19 20 20
REMARK H PARENT
REMARK Flexibility Score: inf
ROOT
ATOM      1  C   UNL     1      24.194  13.448   8.792  1.00  0.00     0.000 C 
ENDROOT
BRANCH   1   2
ATOM      2  C   UNL     1      25.286  13.133   9.826  1.00  0.00     0.000 C 
BRANCH   2   3
ATOM      3  C   UNL     1      26.680  13.590   9.371  1.00  0.00     0.000 C 
BRANCH   3   4
ATOM      4  C   UNL     1      26.605  14.329   8.029  1.00  0.00     0.000 C 
BRANCH   4   5
ATOM      5  C   UNL     1      27.702  15.398   7.926  1.00  0.00     0.000 C 
BRANCH   5   6
ATOM      6  C   UNL     1      27.144  16.825   7.781  1.00  0.00     0.006 C 
BRANCH   6   7
ATOM      7  C   UNL     1      25.606  16.895   7.750  1.00  0.00     0.053 C 
BRANCH   7   8
ATOM      8  C   UNL     1      25.101  18.160   7.126  1.00  0.00     0.041 C 
ATOM      9  O   UNL     1      25.909  18.991   6.634  1.00  0.00    -0.550 OA
ATOM     10  O   UNL     1      23.739  18.440   7.117  1.00  0.00    -0.550 OA
ENDBRANCH   7   8
ENDBRANCH   6   7
ENDBRANCH   5   6
ENDBRANCH   4   5
ENDBRANCH   3   4
ENDBRANCH   2   3
ENDBRANCH   1   2
BRANCH   1  11
ATOM     11  C   UNL     1      22.774  13.297   9.366  1.00  0.00     0.000 C 
BRANCH  11  12
ATOM     12  C   UNL     1      22.721  12.336  10.563  1.00  0.00     0.000 C 
BRANCH  12  13
ATOM     13  C   UNL     1      21.388  11.579  10.655  1.00  0.00     0.000 C 
BRANCH  13  14
ATOM     14  C   UNL     1      21.620  10.067  10.761  1.00  0.00     0.000 C 
BRANCH  14  15
ATOM     15  C   UNL     1      22.645   9.741  11.853  1.00  0.00     0.000 C 
BRANCH  15  16
ATOM     16  C   UNL     1      21.976   9.662  13.230  1.00  0.00     0.006 C 
BRANCH  16  17
ATOM     17  C   UNL     1      20.986   8.497  13.294  1.00  0.00     0.053 C 
BRANCH  17  18
ATOM     18  C   UNL     1      19.665   8.960  13.822  1.00  0.00     0.041 C 
ATOM     19  O   UNL     1      19.133  10.008  13.370  1.00  0.00    -0.550 OA
ATOM     20  O   UNL     1      19.042   8.261  14.848  1.00  0.00    -0.550 OA
ENDBRANCH  17  18
ENDBRANCH  16  17
ENDBRANCH  15  16
ENDBRANCH  14  15
ENDBRANCH  13  14
ENDBRANCH  12  13
ENDBRANCH  11  12
ENDBRANCH   1  11
TORSDOF 15
ENDMDL
MODEL 4
REMARK VINA RESULT:    -5.333      2.796      3.501
REMARK INTER + INTRA:         -10.928
REMARK INTER:                  -9.557
REMARK INTRA:                  -1.372
REMARK UNBOUND:                -0.919
REMARK SMILES O=C([O-])CCCCCCCCCCCCCCC(=O)[O-]
REMARK SMILES IDX 10 1 9 2 8 3 7 4 6 5 5 6 4 7 2 8 1 9 3 10 11 11 12 12 13 13
REMARK SMILES IDX 14 14 15 15 16 16 17 17 18 18 19 19 20 20
REMARK H PARENT
REMARK Flexibility Score: inf
ROOT
ATOM      1  C   UNL     1      22.338  12.289  10.270  1.00  0.00     0.000 C 
ENDROOT
BRANCH   1   2
ATOM      2  C   UNL     1      21.776  10.863  10.381  1.00  0.00     0.000 C 
BRANCH   2   3
ATOM      3  C   UNL     1      20.790  10.706  11.549  1.00  0.00     0.000 C 
BRANCH   3   4
ATOM      4  C   UNL     1      21.320   9.707  12.584  1.00  0.00     0.000 C 
BRANCH   4   5
ATOM      5  C   UNL     1      22.793   9.365  12.316  1.00  0.00     0.000 C 
BRANCH   5   6
ATOM      6  C   UNL     1      23.743   9.886  13.409  1.00  0.00     0.006 C 
BRANCH   6   7
ATOM      7  C   UNL     1      24.386  11.246  13.084  1.00  0.00     0.053 C 
BRANCH   7   8
ATOM      8  C   UNL     1      25.865  11.257  13.331  1.00  0.00     0.041 C 
ATOM      9  O   UNL     1      26.377  10.443  14.144  1.00  0.00    -0.550 OA
ATOM     10  O   UNL     1      26.674  12.188  12.690  1.00  0.00    -0.550 OA
ENDBRANCH   7   8
ENDBRANCH   6   7
ENDBRANCH   5   6
ENDBRANCH   4   5
ENDBRANCH   3   4
ENDBRANCH   2   3
ENDBRANCH   1   2
BRANCH   1  11
ATOM     11  C   UNL     1      22.536  12.736   8.811  1.00  0.00     0.000 C 
BRANCH  11  12
ATOM     12  C   UNL     1      23.887  13.433   8.585  1.00  0.00     0.000 C 
BRANCH  12  13
ATOM     13  C   UNL     1      24.904  13.121   9.691  1.00  0.00     0.000 C 
BRANCH  13  14
ATOM     14  C   UNL     1      26.287  13.683   9.340  1.00  0.00     0.000 C 
BRANCH  14  15
ATOM     15  C   UNL     1      26.456  13.826   7.823  1.00  0.00     0.000 C 
BRANCH  15  16
ATOM     16  C   UNL     1      27.208  15.115   7.472  1.00  0.00     0.006 C 
BRANCH  16  17
ATOM     17  C   UNL     1      26.833  16.249   8.430  1.00  0.00     0.053 C 
BRANCH  17  18
ATOM     18  C   UNL     1      26.134  17.348   7.694  1.00  0.00     0.041 C 
ATOM     19  O   UNL     1      26.757  18.397   7.381  1.00  0.00    -0.550 OA
ATOM     20  O   UNL     1      24.782  17.236   7.396  1.00  0.00    -0.550 OA
ENDBRANCH  17  18
ENDBRANCH  16  17
ENDBRANCH  15  16
ENDBRANCH  14  15
ENDBRANCH  13  14
ENDBRANCH  12  13
ENDBRANCH  11  12
ENDBRANCH   1  11
TORSDOF 15
ENDMDL
MODEL 5
REMARK VINA RESULT:    -5.333      3.519      8.361
REMARK INTER + INTRA:         -10.928
REMARK INTER:                  -9.721
REMARK INTRA:                  -1.207
REMARK UNBOUND:                -0.919
REMARK SMILES O=C([O-])CCCCCCCCCCCCCCC(=O)[O-]
REMARK SMILES IDX 10 1 9 2 8 3 7 4 6 5 5 6 4 7 2 8 1 9 3 10 11 11 12 12 13 13
REMARK SMILES IDX 14 14 15 15 16 16 17 17 18 18 19 19 20 20
REMARK H PARENT
REMARK Flexibility Score: inf
ROOT
ATOM      1  C   UNL     1      23.336  13.155   8.412  1.00  0.00     0.000 C 
ENDROOT
BRANCH   1   2
ATOM      2  C   UNL     1      24.552  14.094   8.392  1.00  0.00     0.000 C 
BRANCH   2   3
ATOM      3  C   UNL     1      25.886  13.333   8.378  1.00  0.00     0.000 C 
BRANCH   3   4
ATOM      4  C   UNL     1      27.006  14.174   9.002  1.00  0.00     0.000 C 
BRANCH   4   5
ATOM      5  C   UNL     1      27.529  13.525  10.292  1.00  0.00     0.000 C 
BRANCH   5   6
ATOM      6  C   UNL     1      26.445  12.747  11.060  1.00  0.00     0.006 C 
BRANCH   6   7
ATOM      7  C   UNL     1      27.003  11.680  12.019  1.00  0.00     0.053 C 
BRANCH   7   8
ATOM      8  C   UNL     1      26.190  11.553  13.272  1.00  0.00     0.041 C 
ATOM      9  O   UNL     1      25.057  12.095  13.350  1.00  0.00    -0.550 OA
ATOM     10  O   UNL     1      26.699  10.866  14.368  1.00  0.00    -0.550 OA
ENDBRANCH   7   8
ENDBRANCH   6   7
ENDBRANCH   5   6
ENDBRANCH   4   5
ENDBRANCH   3   4
ENDBRANCH   2   3
ENDBRANCH   1   2
BRANCH   1  11
ATOM     11  C   UNL     1      22.457  13.352   9.661  1.00  0.00     0.000 C 
BRANCH  11  12
ATOM     12  C   UNL     1      22.582  12.190  10.659  1.00  0.00     0.000 C 
BRANCH  12  13
ATOM     13  C   UNL     1      21.334  11.297  10.685  1.00  0.00     0.000 C 
BRANCH  13  14
ATOM     14  C   UNL     1      21.699   9.852  11.047  1.00  0.00     0.000 C 
BRANCH  14  15
ATOM     15  C   UNL     1      22.611   9.805  12.278  1.00  0.00     0.000 C 
BRANCH  15  16
ATOM     16  C   UNL     1      22.075   8.821  13.324  1.00  0.00     0.006 C 
BRANCH  16  17
ATOM     17  C   UNL     1      20.689   8.304  12.932  1.00  0.00     0.053 C 
BRANCH  17  18
ATOM     18  C   UNL     1      19.635   8.924  13.794  1.00  0.00     0.041 C 
ATOM     19  O   UNL     1      19.177   8.297  14.786  1.00  0.00    -0.550 OA
ATOM     20  O   UNL     1      19.122  10.174  13.475  1.00  0.00    -0.550 OA
ENDBRANCH  17  18
ENDBRANCH  16  17
ENDBRANCH  15  16
ENDBRANCH  14  15
ENDBRANCH  13  14
ENDBRANCH  12  13
ENDBRANCH  11  12
ENDBRANCH   1  11
TORSDOF 15
ENDMDL
MODEL 6
REMARK VINA RESULT:    -5.299      2.114      3.637
REMARK INTER + INTRA:         -10.865
REMARK INTER:                 -10.002
REMARK INTRA:                  -0.863
REMARK UNBOUND:                -0.919
REMARK SMILES O=C([O-])CCCCCCCCCCCCCCC(=O)[O-]
REMARK SMILES IDX 10 1 9 2 8 3 7 4 6 5 5 6 4 7 2 8 1 9 3 10 11 11 12 12 13 13
REMARK SMILES IDX 14 14 15 15 16 16 17 17 18 18 19 19 20 20
REMARK H PARENT
REMARK Flexibility Score: inf
ROOT
ATOM      1  C   UNL     1      26.330  13.495   9.251  1.00  0.00     0.000 C 
ENDROOT
BRANCH   1   2
ATOM      2  C   UNL     1      24.943  13.142   9.809  1.00  0.00     0.000 C 
BRANCH   2   3
ATOM      3  C   UNL     1      23.811  13.454   8.818  1.00  0.00     0.000 C 
BRANCH   3   4
ATOM      4  C   UNL     1      22.439  13.216   9.459  1.00  0.00     0.000 C 
BRANCH   4   5
ATOM      5  C   UNL     1      22.540  12.223  10.626  1.00  0.00     0.000 C 
BRANCH   5   6
ATOM      6  C   UNL     1      21.697  10.953  10.413  1.00  0.00     0.006 C 
BRANCH   6   7
ATOM      7  C   UNL     1      20.911  10.509  11.660  1.00  0.00     0.053 C 
BRANCH   7   8
ATOM      8  C   UNL     1      21.677   9.538  12.507  1.00  0.00     0.041 C 
ATOM      9  O   UNL     1      21.276   9.255  13.667  1.00  0.00    -0.550 OA
ATOM     10  O   UNL     1      22.852   8.970  12.030  1.00  0.00    -0.550 OA
ENDBRANCH   7   8
ENDBRANCH   6   7
ENDBRANCH   5   6
ENDBRANCH   4   5
ENDBRANCH   3   4
ENDBRANCH   2   3
ENDBRANCH   1   2
BRANCH   1  11
ATOM     11  C   UNL     1      26.282  13.925   7.774  1.00  0.00     0.000 C 
BRANCH  11  12
ATOM     12  C   UNL     1      27.170  15.146   7.486  1.00  0.00     0.000 C 
BRANCH  12  13
ATOM     13  C   UNL     1      26.698  16.406   8.225  1.00  0.00     0.000 C 
BRANCH  13  14
ATOM     14  C   UNL     1      26.762  17.636   7.311  1.00  0.00     0.000 C 
BRANCH  14  15
ATOM     15  C   UNL     1      25.650  18.635   7.652  1.00  0.00     0.000 C 
BRANCH  15  16
ATOM     16  C   UNL     1      24.368  18.320   6.872  1.00  0.00     0.006 C 
BRANCH  16  17
ATOM     17  C   UNL     1      23.977  19.489   5.964  1.00  0.00     0.053 C 
BRANCH  17  18
ATOM     18  C   UNL     1      22.489  19.638   5.912  1.00  0.00     0.041 C 
ATOM     19  O   UNL     1      21.878  19.526   4.817  1.00  0.00    -0.550 OA
ATOM     20  O   UNL     1      21.781  19.948   7.066  1.00  0.00    -0.550 OA
ENDBRANCH  17  18
ENDBRANCH  16  17
ENDBRANCH  15  16
ENDBRANCH  14  15
ENDBRANCH  13  14
ENDBRANCH  12  13
ENDBRANCH  11  12
ENDBRANCH   1  11
TORSDOF 15
ENDMDL
MODEL 7
REMARK VINA RESULT:    -5.203      2.923      7.994
REMARK INTER + INTRA:         -10.684
REMARK INTER:                  -9.139
REMARK INTRA:                  -1.545
REMARK UNBOUND:                -0.919
REMARK SMILES O=C([O-])CCCCCCCCCCCCCCC(=O)[O-]
REMARK SMILES IDX 10 1 9 2 8 3 7 4 6 5 5 6 4 7 2 8 1 9 3 10 11 11 12 12 13 13
REMARK SMILES IDX 14 14 15 15 16 16 17 17 18 18 19 19 20 20
REMARK H PARENT
REMARK Flexibility Score: inf
ROOT
ATOM      1  C   UNL     1      24.232  11.081  13.288  1.00  0.00     0.000 C 
ENDROOT
BRANCH   1   2
ATOM      2  C   UNL     1      25.703  11.452  13.041  1.00  0.00     0.000 C 
BRANCH   2   3
ATOM      3  C   UNL     1      25.896  12.279  11.761  1.00  0.00     0.000 C 
BRANCH   3   4
ATOM      4  C   UNL     1      27.305  12.083  11.188  1.00  0.00     0.000 C 
BRANCH   4   5
ATOM      5  C   UNL     1      27.496  12.901   9.903  1.00  0.00     0.000 C 
BRANCH   5   6
ATOM      6  C   UNL     1      26.200  13.576   9.418  1.00  0.00     0.006 C 
BRANCH   6   7
ATOM      7  C   UNL     1      26.161  13.837   7.901  1.00  0.00     0.053 C 
BRANCH   7   8
ATOM      8  C   UNL     1      26.758  15.160   7.529  1.00  0.00     0.041 C 
ATOM      9  O   UNL     1      27.813  15.208   6.844  1.00  0.00    -0.550 OA
ATOM     10  O   UNL     1      26.169  16.340   7.967  1.00  0.00    -0.550 OA
ENDBRANCH   7   8
ENDBRANCH   6   7
ENDBRANCH   5   6
ENDBRANCH   4   5
ENDBRANCH   3   4
ENDBRANCH   2   3
ENDBRANCH   1   2
BRANCH   1  11
ATOM     11  C   UNL     1      24.058   9.616  13.729  1.00  0.00     0.000 C 
BRANCH  11  12
ATOM     12  C   UNL     1      22.962   8.888  12.936  1.00  0.00     0.000 C 
BRANCH  12  13
ATOM     13  C   UNL     1      21.558   9.130  13.507  1.00  0.00     0.000 C 
BRANCH  13  14
ATOM     14  C   UNL     1      20.629   9.733  12.446  1.00  0.00     0.000 C 
BRANCH  14  15
ATOM     15  C   UNL     1      21.380   9.984  11.133  1.00  0.00     0.000 C 
BRANCH  15  16
ATOM     16  C   UNL     1      21.295  11.458  10.722  1.00  0.00     0.006 C 
BRANCH  16  17
ATOM     17  C   UNL     1      22.638  11.956  10.183  1.00  0.00     0.053 C 
BRANCH  17  18
ATOM     18  C   UNL     1      22.464  13.258   9.466  1.00  0.00     0.041 C 
ATOM     19  O   UNL     1      22.105  14.287  10.098  1.00  0.00    -0.550 OA
ATOM     20  O   UNL     1      22.652  13.326   8.092  1.00  0.00    -0.550 OA
ENDBRANCH  17  18
ENDBRANCH  16  17
ENDBRANCH  15  16
ENDBRANCH  14  15
ENDBRANCH  13  14
ENDBRANCH  12  13
ENDBRANCH  11  12
ENDBRANCH   1  11
TORSDOF 15
ENDMDL
MODEL 8
REMARK VINA RESULT:    -5.194      8.106     12.384
REMARK INTER + INTRA:         -10.667
REMARK INTER:                  -9.014
REMARK INTRA:                  -1.653
REMARK UNBOUND:                -0.919
REMARK SMILES O=C([O-])CCCCCCCCCCCCCCC(=O)[O-]
REMARK SMILES IDX 10 1 9 2 8 3 7 4 6 5 5 6 4 7 2 8 1 9 3 10 11 11 12 12 13 13
REMARK SMILES IDX 14 14 15 15 16 16 17 17 18 18 19 19 20 20
REMARK H PARENT
REMARK Flexibility Score: inf
ROOT
ATOM      1  C   UNL     1      26.614  21.687   6.277  1.00  0.00     0.000 C 
ENDROOT
BRANCH   1   2
ATOM      2  C   UNL     1      26.350  21.961   4.788  1.00  0.00     0.000 C 
BRANCH   2   3
ATOM      3  C   UNL     1      25.970  23.424   4.515  1.00  0.00     0.000 C 
BRANCH   3   4
ATOM      4  C   UNL     1      26.971  24.383   5.170  1.00  0.00     0.000 C 
BRANCH   4   5
ATOM      5  C   UNL     1      26.246  25.527   5.893  1.00  0.00     0.000 C 
BRANCH   5   6
ATOM      6  C   UNL     1      24.971  25.068   6.623  1.00  0.00     0.006 C 
BRANCH   6   7
ATOM      7  C   UNL     1      24.309  26.166   7.476  1.00  0.00     0.053 C 
BRANCH   7   8
ATOM      8  C   UNL     1      24.803  26.172   8.891  1.00  0.00     0.041 C 
ATOM      9  O   UNL     1      25.737  26.943   9.233  1.00  0.00    -0.550 OA
ATOM     10  O   UNL     1      24.255  25.300   9.825  1.00  0.00    -0.550 OA
ENDBRANCH   7   8
ENDBRANCH   6   7
ENDBRANCH   5   6
ENDBRANCH   4   5
ENDBRANCH   3   4
ENDBRANCH   2   3
ENDBRANCH   1   2
BRANCH   1  11
ATOM     11  C   UNL     1      27.925  20.915   6.514  1.00  0.00     0.000 C 
BRANCH  11  12
ATOM     12  C   UNL     1      27.700  19.580   7.241  1.00  0.00     0.000 C 
BRANCH  12  13
ATOM     13  C   UNL     1      26.594  18.735   6.595  1.00  0.00     0.000 C 
BRANCH  13  14
ATOM     14  C   UNL     1      25.547  18.314   7.634  1.00  0.00     0.000 C 
BRANCH  14  15
ATOM     15  C   UNL     1      24.135  18.341   7.037  1.00  0.00     0.000 C 
BRANCH  15  16
ATOM     16  C   UNL     1      24.108  19.128   5.722  1.00  0.00     0.006 C 
BRANCH  16  17
ATOM     17  C   UNL     1      22.690  19.602   5.394  1.00  0.00     0.053 C 
BRANCH  17  18
ATOM     18  C   UNL     1      22.297  20.738   6.285  1.00  0.00     0.041 C 
ATOM     19  O   UNL     1      22.825  21.872   6.137  1.00  0.00    -0.550 OA
ATOM     20  O   UNL     1      21.385  20.533   7.312  1.00  0.00    -0.550 OA
ENDBRANCH  17  18
ENDBRANCH  16  17
ENDBRANCH  15  16
ENDBRANCH  14  15
ENDBRANCH  13  14
ENDBRANCH  12  13
ENDBRANCH  11  12
ENDBRANCH   1  11
TORSDOF 15
ENDMDL
MODEL 9
REMARK VINA RESULT:    -5.099      2.370      9.769
REMARK INTER + INTRA:         -10.489
REMARK INTER:                  -9.742
REMARK INTRA:                  -0.748
REMARK UNBOUND:                -0.919
REMARK SMILES O=C([O-])CCCCCCCCCCCCCCC(=O)[O-]
REMARK SMILES IDX 10 1 9 2 8 3 7 4 6 5 5 6 4 7 2 8 1 9 3 10 11 11 12 12 13 13
REMARK SMILES IDX 14 14 15 15 16 16 17 17 18 18 19 19 20 20
REMARK H PARENT
REMARK Flexibility Score: inf
ROOT
ATOM      1  C   UNL     1      25.796  15.842   7.801  1.00  0.00     0.000 C 
ENDROOT
BRANCH   1   2
ATOM      2  C   UNL     1      26.938  16.808   8.153  1.00  0.00     0.000 C 
BRANCH   2   3
ATOM      3  C   UNL     1      26.494  18.279   8.136  1.00  0.00     0.000 C 
BRANCH   3   4
ATOM      4  C   UNL     1      26.635  18.879   6.732  1.00  0.00     0.000 C 
BRANCH   4   5
ATOM      5  C   UNL     1      25.357  19.624   6.321  1.00  0.00     0.000 C 
BRANCH   5   6
ATOM      6  C   UNL     1      24.089  18.758   6.435  1.00  0.00     0.006 C 
BRANCH   6   7
ATOM      7  C   UNL     1      22.872  19.329   5.685  1.00  0.00     0.053 C 
BRANCH   7   8
ATOM      8  C   UNL     1      22.210  20.448   6.432  1.00  0.00     0.041 C 
ATOM      9  O   UNL     1      22.453  21.645   6.125  1.00  0.00    -0.550 OA
ATOM     10  O   UNL     1      21.352  20.172   7.489  1.00  0.00    -0.550 OA
ENDBRANCH   7   8
ENDBRANCH   6   7
ENDBRANCH   5   6
ENDBRANCH   4   5
ENDBRANCH   3   4
ENDBRANCH   2   3
ENDBRANCH   1   2
BRANCH   1  11
ATOM     11  C   UNL     1      26.229  14.366   7.860  1.00  0.00     0.000 C 
BRANCH  11  12
ATOM     12  C   UNL     1      26.258  13.817   9.295  1.00  0.00     0.000 C 
BRANCH  12  13
ATOM     13  C   UNL     1      24.923  13.185   9.713  1.00  0.00     0.000 C 
BRANCH  13  14
ATOM     14  C   UNL     1      23.916  13.213   8.556  1.00  0.00     0.000 C 
BRANCH  14  15
ATOM     15  C   UNL     1      22.670  12.385   8.889  1.00  0.00     0.000 C 
BRANCH  15  16
ATOM     16  C   UNL     1      22.406  12.368  10.399  1.00  0.00     0.006 C 
BRANCH  16  17
ATOM     17  C   UNL     1      21.512  11.188  10.787  1.00  0.00     0.053 C 
BRANCH  17  18
ATOM     18  C   UNL     1      22.168  10.358  11.846  1.00  0.00     0.041 C 
ATOM     19  O   UNL     1      23.235  10.749  12.387  1.00  0.00    -0.550 OA
ATOM     20  O   UNL     1      21.627   9.129  12.200  1.00  0.00    -0.550 OA
ENDBRANCH  17  18
ENDBRANCH  16  17
ENDBRANCH  15  16
ENDBRANCH  14  15
ENDBRANCH  13  14
ENDBRANCH  12  13
ENDBRANCH  11  12
ENDBRANCH   1  11
TORSDOF 15
ENDMDL
