MODEL 1
REMARK VINA RESULT:    -5.059      0.000      0.000
REMARK INTER + INTRA:          -5.059
REMARK INTER:                  -5.059
REMARK INTRA:                   0.000
REMARK UNBOUND:                 0.000
REMARK SMILES C=C1CCC[C@]2(C)CC(=O)C(=C(C)C)C[C@@H]12
REMARK SMILES IDX 13 1 12 2 11 3 15 4 16 5 2 6 1 7 3 8 4 9 5 10 6 11 8 12 9 13
REMARK SMILES IDX 10 14 7 15 14 16
REMARK H PARENT
REMARK Flexibility Score: inf
ROOT
ATOM      1  C   UNL     1      16.385  20.185  23.522  1.00  0.00     0.039 C 
ATOM      2  C   UNL     1      15.347  19.095  23.385  1.00  0.00    -0.070 C 
ATOM      3  C   UNL     1      15.046  18.251  24.417  1.00  0.00    -0.006 C 
ATOM      4  C   UNL     1      13.954  17.200  24.278  1.00  0.00     0.047 C 
ATOM      5  C   UNL     1      13.278  16.828  25.624  1.00  0.00     0.025 C 
ATOM      6  C   UNL     1      12.256  15.690  25.534  1.00  0.00    -0.073 C 
ATOM      7  C   UNL     1      11.837  15.149  24.375  1.00  0.00     0.008 C 
ATOM      8  C   UNL     1      11.666  15.161  26.821  1.00  0.00     0.031 C 
ATOM      9  C   UNL     1      12.060  16.027  28.018  1.00  0.00     0.005 C 
ATOM     10  C   UNL     1      13.585  16.202  28.125  1.00  0.00     0.008 C 
ATOM     11  C   UNL     1      14.310  16.524  26.762  1.00  0.00    -0.018 C 
ATOM     12  C   UNL     1      15.201  17.776  26.958  1.00  0.00     0.088 C 
ATOM     13  C   UNL     1      15.840  18.223  25.678  1.00  0.00     0.159 C 
ATOM     14  O   UNL     1      17.056  18.554  25.693  1.00  0.00    -0.295 OA
ATOM     15  C   UNL     1      15.208  15.313  26.387  1.00  0.00     0.012 C 
ATOM     16  C   UNL     1      14.625  19.001  22.060  1.00  0.00     0.039 C 
ENDROOT
TORSDOF 0
ENDMDL
MODEL 2
REMARK VINA RESULT:    -4.792      2.179      4.884
REMARK INTER + INTRA:          -4.792
REMARK INTER:                  -4.792
REMARK INTRA:                   0.000
REMARK UNBOUND:                 0.000
REMARK SMILES C=C1CCC[C@]2(C)CC(=O)C(=C(C)C)C[C@@H]12
REMARK SMILES IDX 13 1 12 2 11 3 15 4 16 5 2 6 1 7 3 8 4 9 5 10 6 11 8 12 9 13
REMARK SMILES IDX 10 14 7 15 14 16
REMARK H PARENT
REMARK Flexibility Score: inf
ROOT
ATOM      1  C   UNL     1      10.875  13.075  26.059  1.00  0.00     0.039 C 
ATOM      2  C   UNL     1      11.543  14.194  25.294  1.00  0.00    -0.070 C 
ATOM      3  C   UNL     1      12.278  15.159  25.923  1.00  0.00    -0.006 C 
ATOM      4  C   UNL     1      12.993  16.243  25.129  1.00  0.00     0.047 C 
ATOM      5  C   UNL     1      14.261  16.793  25.835  1.00  0.00     0.025 C 
ATOM      6  C   UNL     1      14.937  17.965  25.115  1.00  0.00    -0.073 C 
ATOM      7  C   UNL     1      14.583  18.397  23.890  1.00  0.00     0.008 C 
ATOM      8  C   UNL     1      16.084  18.660  25.811  1.00  0.00     0.031 C 
ATOM      9  C   UNL     1      16.513  17.911  27.074  1.00  0.00     0.005 C 
ATOM     10  C   UNL     1      15.332  17.672  28.030  1.00  0.00     0.008 C 
ATOM     11  C   UNL     1      14.011  17.167  27.335  1.00  0.00    -0.018 C 
ATOM     12  C   UNL     1      13.513  15.901  28.076  1.00  0.00     0.088 C 
ATOM     13  C   UNL     1      12.320  15.285  27.407  1.00  0.00     0.159 C 
ATOM     14  O   UNL     1      11.360  14.897  28.125  1.00  0.00    -0.295 OA
ATOM     15  C   UNL     1      12.937  18.283  27.456  1.00  0.00     0.012 C 
ATOM     16  C   UNL     1      11.393  14.179  23.790  1.00  0.00     0.039 C 
ENDROOT
TORSDOF 0
ENDMDL
MODEL 3
REMARK VINA RESULT:    -4.764      0.364      0.364
REMARK INTER + INTRA:          -4.764
REMARK INTER:                  -4.764
REMARK INTRA:                   0.000
REMARK UNBOUND:                 0.000
REMARK SMILES C=C1CCC[C@]2(C)CC(=O)C(=C(C)C)C[C@@H]12
REMARK SMILES IDX 13 1 12 2 11 3 15 4 16 5 2 6 1 7 3 8 4 9 5 10 6 11 8 12 9 13
REMARK SMILES IDX 10 14 7 15 14 16
REMARK H PARENT
REMARK Flexibility Score: inf
ROOT
ATOM      1  C   UNL     1      16.580  20.334  23.381  1.00  0.00     0.039 C 
ATOM      2  C   UNL     1      15.459  19.323  23.293  1.00  0.00    -0.070 C 
ATOM      3  C   UNL     1      15.144  18.503  24.339  1.00  0.00    -0.006 C 
ATOM      4  C   UNL     1      13.973  17.535  24.251  1.00  0.00     0.047 C 
ATOM      5  C   UNL     1      13.332  17.212  25.627  1.00  0.00     0.025 C 
ATOM      6  C   UNL     1      12.227  16.152  25.586  1.00  0.00    -0.073 C 
ATOM      7  C   UNL     1      11.718  15.644  24.448  1.00  0.00     0.008 C 
ATOM      8  C   UNL     1      11.658  15.666  26.899  1.00  0.00     0.031 C 
ATOM      9  C   UNL     1      12.168  16.500  28.076  1.00  0.00     0.005 C 
ATOM     10  C   UNL     1      13.704  16.562  28.113  1.00  0.00     0.008 C 
ATOM     11  C   UNL     1      14.389  16.832  26.719  1.00  0.00    -0.018 C 
ATOM     12  C   UNL     1      15.377  18.014  26.872  1.00  0.00     0.088 C 
ATOM     13  C   UNL     1      15.990  18.415  25.563  1.00  0.00     0.159 C 
ATOM     14  O   UNL     1      17.226  18.656  25.523  1.00  0.00    -0.295 OA
ATOM     15  C   UNL     1      15.178  15.558  26.307  1.00  0.00     0.012 C 
ATOM     16  C   UNL     1      14.674  19.285  22.002  1.00  0.00     0.039 C 
ENDROOT
TORSDOF 0
ENDMDL
MODEL 4
REMARK VINA RESULT:    -2.178      1.763      3.064
REMARK INTER + INTRA:          -2.178
REMARK INTER:                  -2.178
REMARK INTRA:                   0.000
REMARK UNBOUND:                 0.000
REMARK SMILES C=C1CCC[C@]2(C)CC(=O)C(=C(C)C)C[C@@H]12
REMARK SMILES IDX 13 1 12 2 11 3 15 4 16 5 2 6 1 7 3 8 4 9 5 10 6 11 8 12 9 13
REMARK SMILES IDX 10 14 7 15 14 16
REMARK H PARENT
REMARK Flexibility Score: inf
ROOT
ATOM      1  C   UNL     1      15.366  19.539  23.933  1.00  0.00     0.039 C 
ATOM      2  C   UNL     1      15.797  18.442  24.880  1.00  0.00    -0.070 C 
ATOM      3  C   UNL     1      14.890  17.639  25.514  1.00  0.00    -0.006 C 
ATOM      4  C   UNL     1      15.347  16.502  26.416  1.00  0.00     0.047 C 
ATOM      5  C   UNL     1      14.335  15.327  26.490  1.00  0.00     0.025 C 
ATOM      6  C   UNL     1      14.712  14.220  27.480  1.00  0.00    -0.073 C 
ATOM      7  C   UNL     1      15.892  14.160  28.124  1.00  0.00     0.008 C 
ATOM      8  C   UNL     1      13.709  13.117  27.729  1.00  0.00     0.031 C 
ATOM      9  C   UNL     1      12.530  13.199  26.758  1.00  0.00     0.005 C 
ATOM     10  C   UNL     1      11.864  14.586  26.777  1.00  0.00     0.008 C 
ATOM     11  C   UNL     1      12.867  15.802  26.761  1.00  0.00    -0.018 C 
ATOM     12  C   UNL     1      12.453  16.772  25.627  1.00  0.00     0.088 C 
ATOM     13  C   UNL     1      13.425  17.902  25.464  1.00  0.00     0.159 C 
ATOM     14  O   UNL     1      12.973  19.068  25.302  1.00  0.00    -0.295 OA
ATOM     15  C   UNL     1      12.765  16.539  28.125  1.00  0.00     0.012 C 
ATOM     16  C   UNL     1      17.284  18.247  25.069  1.00  0.00     0.039 C 
ENDROOT
TORSDOF 0
ENDMDL
MODEL 5
REMARK VINA RESULT:    -2.119      1.835      4.760
REMARK INTER + INTRA:          -2.119
REMARK INTER:                  -2.119
REMARK INTRA:                   0.000
REMARK UNBOUND:                 0.000
REMARK SMILES C=C1CCC[C@]2(C)CC(=O)C(=C(C)C)C[C@@H]12
REMARK SMILES IDX 13 1 12 2 11 3 15 4 16 5 2 6 1 7 3 8 4 9 5 10 6 11 8 12 9 13
REMARK SMILES IDX 10 14 7 15 14 16
REMARK H PARENT
REMARK Flexibility Score: inf
ROOT
ATOM      1  C   UNL     1      11.592  13.606  26.209  1.00  0.00     0.039 C 
ATOM      2  C   UNL     1      12.043  14.749  25.329  1.00  0.00    -0.070 C 
ATOM      3  C   UNL     1      12.971  15.660  25.749  1.00  0.00    -0.006 C 
ATOM      4  C   UNL     1      13.457  16.768  24.826  1.00  0.00     0.047 C 
ATOM      5  C   UNL     1      14.899  17.247  25.139  1.00  0.00     0.025 C 
ATOM      6  C   UNL     1      15.373  18.440  24.302  1.00  0.00    -0.073 C 
ATOM      7  C   UNL     1      14.684  18.948  23.263  1.00  0.00     0.008 C 
ATOM      8  C   UNL     1      16.703  19.067  24.648  1.00  0.00     0.031 C 
ATOM      9  C   UNL     1      17.463  18.239  25.686  1.00  0.00     0.005 C 
ATOM     10  C   UNL     1      16.616  17.976  26.944  1.00  0.00     0.008 C 
ATOM     11  C   UNL     1      15.127  17.543  26.660  1.00  0.00    -0.018 C 
ATOM     12  C   UNL     1      14.826  16.251  27.458  1.00  0.00     0.088 C 
ATOM     13  C   UNL     1      13.464  15.702  27.155  1.00  0.00     0.159 C 
ATOM     14  O   UNL     1      12.749  15.298  28.111  1.00  0.00    -0.295 OA
ATOM     15  C   UNL     1      14.185  18.677  27.151  1.00  0.00     0.012 C 
ATOM     16  C   UNL     1      11.446  14.821  23.942  1.00  0.00     0.039 C 
ENDROOT
TORSDOF 0
ENDMDL
