MODEL 1
REMARK VINA RESULT:    -4.836      0.000      0.000
REMARK INTER + INTRA:          -9.798
REMARK INTER:                  -8.794
REMARK INTRA:                  -1.003
REMARK UNBOUND:                -1.003
REMARK SMILES CCCCCC=CCC=CCCCCCCCC(=O)[O-]
REMARK SMILES IDX 11 1 12 2 13 3 14 4 15 5 16 6 17 7 18 8 19 9 20 10 10 11
REMARK SMILES IDX 9 12 8 13 7 14 6 15 5 16 4 17 3 18 2 19 1 20
REMARK H PARENT
REMARK Flexibility Score: inf
ROOT
ATOM      1  C   UNL     1       3.752   1.008  30.169  1.00  0.00     0.027 C 
ENDROOT
BRANCH   1   2
ATOM      2  C   UNL     1       3.155   1.463  31.509  1.00  0.00     0.004 C 
BRANCH   2   3
ATOM      3  C   UNL     1       3.046   0.305  32.517  1.00  0.00     0.000 C 
BRANCH   3   4
ATOM      4  C   UNL     1       3.877  -0.919  32.103  1.00  0.00     0.000 C 
BRANCH   4   5
ATOM      5  C   UNL     1       3.464  -2.194  32.858  1.00  0.00     0.000 C 
BRANCH   5   6
ATOM      6  C   UNL     1       4.525  -2.662  33.872  1.00  0.00     0.006 C 
BRANCH   6   7
ATOM      7  C   UNL     1       3.948  -3.077  35.237  1.00  0.00     0.053 C 
BRANCH   7   8
ATOM      8  C   UNL     1       4.531  -4.357  35.747  1.00  0.00     0.041 C 
ATOM      9  O   UNL     1       4.400  -5.423  35.088  1.00  0.00    -0.550 OA
ATOM     10  O   UNL     1       5.240  -4.372  36.942  1.00  0.00    -0.550 OA
ENDBRANCH   7   8
ENDBRANCH   6   7
ENDBRANCH   5   6
ENDBRANCH   4   5
ENDBRANCH   3   4
ENDBRANCH   2   3
ENDBRANCH   1   2
BRANCH   1  11
ATOM     11  C   UNL     1       2.705   0.850  29.100  1.00  0.00    -0.031 C 
ATOM     12  C   UNL     1       2.297  -0.359  28.686  1.00  0.00    -0.027 C 
BRANCH  12  13
ATOM     13  C   UNL     1       1.229  -0.516  27.640  1.00  0.00     0.054 C 
BRANCH  13  14
ATOM     14  C   UNL     1       0.838   0.822  27.080  1.00  0.00    -0.027 C 
ATOM     15  C   UNL     1      -0.441   1.223  27.048  1.00  0.00    -0.031 C 
BRANCH  15  16
ATOM     16  C   UNL     1      -0.834   2.562  26.483  1.00  0.00     0.027 C 
BRANCH  16  17
ATOM     17  C   UNL     1      -0.326   3.737  27.337  1.00  0.00     0.004 C 
BRANCH  17  18
ATOM     18  C   UNL     1      -1.435   4.682  27.836  1.00  0.00     0.000 C 
BRANCH  18  19
ATOM     19  C   UNL     1      -2.383   5.128  26.714  1.00  0.00    -0.003 C 
ATOM     20  C   UNL     1      -1.763   6.250  25.885  1.00  0.00     0.004 C 
ENDBRANCH  18  19
ENDBRANCH  17  18
ENDBRANCH  16  17
ENDBRANCH  15  16
ENDBRANCH  13  14
ENDBRANCH  12  13
ENDBRANCH   1  11
TORSDOF 14
ENDMDL
MODEL 2
REMARK VINA RESULT:    -4.799      5.596      9.388
REMARK INTER + INTRA:          -9.729
REMARK INTER:                  -8.867
REMARK INTRA:                  -0.862
REMARK UNBOUND:                -1.003
REMARK SMILES CCCCCC=CCC=CCCCCCCCC(=O)[O-]
REMARK SMILES IDX 11 1 12 2 13 3 14 4 15 5 16 6 17 7 18 8 19 9 20 10 10 11
REMARK SMILES IDX 9 12 8 13 7 14 6 15 5 16 4 17 3 18 2 19 1 20
REMARK H PARENT
REMARK Flexibility Score: inf
ROOT
ATOM      1  C   UNL     1       4.899   3.039  32.893  1.00  0.00     0.027 C 
ENDROOT
BRANCH   1   2
ATOM      2  C   UNL     1       6.394   3.393  32.848  1.00  0.00     0.004 C 
BRANCH   2   3
ATOM      3  C   UNL     1       6.631   4.838  32.378  1.00  0.00     0.000 C 
BRANCH   3   4
ATOM      4  C   UNL     1       6.821   5.818  33.547  1.00  0.00     0.000 C 
BRANCH   4   5
ATOM      5  C   UNL     1       5.753   6.924  33.569  1.00  0.00     0.000 C 
BRANCH   5   6
ATOM      6  C   UNL     1       5.272   7.266  34.992  1.00  0.00     0.006 C 
BRANCH   6   7
ATOM      7  C   UNL     1       6.169   6.703  36.109  1.00  0.00     0.053 C 
BRANCH   7   8
ATOM      8  C   UNL     1       5.415   5.853  37.083  1.00  0.00     0.041 C 
ATOM      9  O   UNL     1       5.755   4.656  37.279  1.00  0.00    -0.550 OA
ATOM     10  O   UNL     1       4.348   6.388  37.794  1.00  0.00    -0.550 OA
ENDBRANCH   7   8
ENDBRANCH   6   7
ENDBRANCH   5   6
ENDBRANCH   4   5
ENDBRANCH   3   4
ENDBRANCH   2   3
ENDBRANCH   1   2
BRANCH   1  11
ATOM     11  C   UNL     1       4.611   1.694  32.281  1.00  0.00    -0.031 C 
ATOM     12  C   UNL     1       3.384   1.152  32.318  1.00  0.00    -0.027 C 
BRANCH  12  13
ATOM     13  C   UNL     1       3.089  -0.176  31.679  1.00  0.00     0.054 C 
BRANCH  13  14
ATOM     14  C   UNL     1       3.207  -1.283  32.687  1.00  0.00    -0.027 C 
ATOM     15  C   UNL     1       2.124  -1.834  33.254  1.00  0.00    -0.031 C 
BRANCH  15  16
ATOM     16  C   UNL     1       2.241  -2.942  34.267  1.00  0.00     0.027 C 
BRANCH  16  17
ATOM     17  C   UNL     1       3.570  -2.900  35.040  1.00  0.00     0.004 C 
BRANCH  17  18
ATOM     18  C   UNL     1       4.275  -4.265  35.160  1.00  0.00     0.000 C 
BRANCH  18  19
ATOM     19  C   UNL     1       5.730  -4.142  35.632  1.00  0.00    -0.003 C 
ATOM     20  C   UNL     1       5.903  -2.954  36.576  1.00  0.00     0.004 C 
ENDBRANCH  18  19
ENDBRANCH  17  18
ENDBRANCH  16  17
ENDBRANCH  15  16
ENDBRANCH  13  14
ENDBRANCH  12  13
ENDBRANCH   1  11
TORSDOF 14
ENDMDL
MODEL 3
REMARK VINA RESULT:    -4.765      1.206      2.006
REMARK INTER + INTRA:          -9.668
REMARK INTER:                  -8.804
REMARK INTRA:                  -0.864
REMARK UNBOUND:                -1.003
REMARK SMILES CCCCCC=CCC=CCCCCCCCC(=O)[O-]
REMARK SMILES IDX 11 1 12 2 13 3 14 4 15 5 16 6 17 7 18 8 19 9 20 10 10 11
REMARK SMILES IDX 9 12 8 13 7 14 6 15 5 16 4 17 3 18 2 19 1 20
REMARK H PARENT
REMARK Flexibility Score: inf
ROOT
ATOM      1  C   UNL     1       3.330   0.390  32.113  1.00  0.00     0.027 C 
ENDROOT
BRANCH   1   2
ATOM      2  C   UNL     1       3.420  -1.100  32.475  1.00  0.00     0.004 C 
BRANCH   2   3
ATOM      3  C   UNL     1       2.178  -1.583  33.245  1.00  0.00     0.000 C 
BRANCH   3   4
ATOM      4  C   UNL     1       2.380  -2.966  33.885  1.00  0.00     0.000 C 
BRANCH   4   5
ATOM      5  C   UNL     1       3.066  -2.884  35.260  1.00  0.00     0.000 C 
BRANCH   5   6
ATOM      6  C   UNL     1       4.546  -3.308  35.217  1.00  0.00     0.006 C 
BRANCH   6   7
ATOM      7  C   UNL     1       4.928  -4.358  36.276  1.00  0.00     0.053 C 
BRANCH   7   8
ATOM      8  C   UNL     1       4.775  -5.762  35.780  1.00  0.00     0.041 C 
ATOM      9  O   UNL     1       5.005  -6.735  36.546  1.00  0.00    -0.550 OA
ATOM     10  O   UNL     1       4.356  -5.998  34.477  1.00  0.00    -0.550 OA
ENDBRANCH   7   8
ENDBRANCH   6   7
ENDBRANCH   5   6
ENDBRANCH   4   5
ENDBRANCH   3   4
ENDBRANCH   2   3
ENDBRANCH   1   2
BRANCH   1  11
ATOM     11  C   UNL     1       3.231   0.613  30.628  1.00  0.00    -0.031 C 
ATOM     12  C   UNL     1       3.016  -0.401  29.776  1.00  0.00    -0.027 C 
BRANCH  12  13
ATOM     13  C   UNL     1       2.886  -0.174  28.296  1.00  0.00     0.054 C 
BRANCH  13  14
ATOM     14  C   UNL     1       1.793   0.815  28.008  1.00  0.00    -0.027 C 
ATOM     15  C   UNL     1       0.645   0.442  27.423  1.00  0.00    -0.031 C 
BRANCH  15  16
ATOM     16  C   UNL     1      -0.450   1.433  27.130  1.00  0.00     0.027 C 
BRANCH  16  17
ATOM     17  C   UNL     1       0.080   2.866  26.955  1.00  0.00     0.004 C 
BRANCH  17  18
ATOM     18  C   UNL     1      -1.015   3.950  26.972  1.00  0.00     0.000 C 
BRANCH  18  19
ATOM     19  C   UNL     1      -0.900   4.890  28.181  1.00  0.00    -0.003 C 
ATOM     20  C   UNL     1      -0.258   6.218  27.786  1.00  0.00     0.004 C 
ENDBRANCH  18  19
ENDBRANCH  17  18
ENDBRANCH  16  17
ENDBRANCH  15  16
ENDBRANCH  13  14
ENDBRANCH  12  13
ENDBRANCH   1  11
TORSDOF 14
ENDMDL
MODEL 4
REMARK VINA RESULT:    -4.737      4.440      7.354
REMARK INTER + INTRA:          -9.617
REMARK INTER:                  -8.516
REMARK INTRA:                  -1.101
REMARK UNBOUND:                -1.003
REMARK SMILES CCCCCC=CCC=CCCCCCCCC(=O)[O-]
REMARK SMILES IDX 11 1 12 2 13 3 14 4 15 5 16 6 17 7 18 8 19 9 20 10 10 11
REMARK SMILES IDX 9 12 8 13 7 14 6 15 5 16 4 17 3 18 2 19 1 20
REMARK H PARENT
REMARK Flexibility Score: inf
ROOT
ATOM      1  C   UNL     1       3.053   1.679  32.378  1.00  0.00     0.027 C 
ENDROOT
BRANCH   1   2
ATOM      2  C   UNL     1       3.388   1.025  31.029  1.00  0.00     0.004 C 
BRANCH   2   3
ATOM      3  C   UNL     1       3.349  -0.511  31.105  1.00  0.00     0.000 C 
BRANCH   3   4
ATOM      4  C   UNL     1       3.692  -1.042  32.506  1.00  0.00     0.000 C 
BRANCH   4   5
ATOM      5  C   UNL     1       2.505  -1.765  33.168  1.00  0.00     0.000 C 
BRANCH   5   6
ATOM      6  C   UNL     1       2.905  -3.102  33.821  1.00  0.00     0.006 C 
BRANCH   6   7
ATOM      7  C   UNL     1       3.203  -3.000  35.327  1.00  0.00     0.053 C 
BRANCH   7   8
ATOM      8  C   UNL     1       4.545  -3.554  35.691  1.00  0.00     0.041 C 
ATOM      9  O   UNL     1       5.540  -2.790  35.800  1.00  0.00    -0.550 OA
ATOM     10  O   UNL     1       4.694  -4.914  35.932  1.00  0.00    -0.550 OA
ENDBRANCH   7   8
ENDBRANCH   6   7
ENDBRANCH   5   6
ENDBRANCH   4   5
ENDBRANCH   3   4
ENDBRANCH   2   3
ENDBRANCH   1   2
BRANCH   1  11
ATOM     11  C   UNL     1       4.146   2.596  32.857  1.00  0.00    -0.031 C 
ATOM     12  C   UNL     1       5.413   2.463  32.435  1.00  0.00    -0.027 C 
BRANCH  12  13
ATOM     13  C   UNL     1       6.497   3.399  32.888  1.00  0.00     0.054 C 
BRANCH  13  14
ATOM     14  C   UNL     1       5.964   4.796  33.031  1.00  0.00    -0.027 C 
ATOM     15  C   UNL     1       6.566   5.700  33.816  1.00  0.00    -0.031 C 
BRANCH  15  16
ATOM     16  C   UNL     1       6.031   7.100  33.963  1.00  0.00     0.027 C 
BRANCH  16  17
ATOM     17  C   UNL     1       5.183   7.279  35.234  1.00  0.00     0.004 C 
BRANCH  17  18
ATOM     18  C   UNL     1       5.977   7.775  36.458  1.00  0.00     0.000 C 
BRANCH  18  19
ATOM     19  C   UNL     1       6.300   6.649  37.451  1.00  0.00    -0.003 C 
ATOM     20  C   UNL     1       5.256   5.538  37.380  1.00  0.00     0.004 C 
ENDBRANCH  18  19
ENDBRANCH  17  18
ENDBRANCH  16  17
ENDBRANCH  15  16
ENDBRANCH  13  14
ENDBRANCH  12  13
ENDBRANCH   1  11
TORSDOF 14
ENDMDL
MODEL 5
REMARK VINA RESULT:    -4.686      5.700      9.748
REMARK INTER + INTRA:          -9.524
REMARK INTER:                  -8.620
REMARK INTRA:                  -0.904
REMARK UNBOUND:                -1.003
REMARK SMILES CCCCCC=CCC=CCCCCCCCC(=O)[O-]
REMARK SMILES IDX 11 1 12 2 13 3 14 4 15 5 16 6 17 7 18 8 19 9 20 10 10 11
REMARK SMILES IDX 9 12 8 13 7 14 6 15 5 16 4 17 3 18 2 19 1 20
REMARK H PARENT
REMARK Flexibility Score: inf
ROOT
ATOM      1  C   UNL     1       4.202   2.327  32.500  1.00  0.00     0.027 C 
ENDROOT
BRANCH   1   2
ATOM      2  C   UNL     1       5.690   1.987  32.332  1.00  0.00     0.004 C 
BRANCH   2   3
ATOM      3  C   UNL     1       6.602   3.102  32.874  1.00  0.00     0.000 C 
BRANCH   3   4
ATOM      4  C   UNL     1       5.897   4.466  32.933  1.00  0.00     0.000 C 
BRANCH   4   5
ATOM      5  C   UNL     1       6.432   5.357  34.068  1.00  0.00     0.000 C 
BRANCH   5   6
ATOM      6  C   UNL     1       7.374   4.605  35.027  1.00  0.00     0.006 C 
BRANCH   6   7
ATOM      7  C   UNL     1       7.755   5.404  36.286  1.00  0.00     0.053 C 
BRANCH   7   8
ATOM      8  C   UNL     1       6.589   5.643  37.194  1.00  0.00     0.041 C 
ATOM      9  O   UNL     1       6.497   6.720  37.841  1.00  0.00    -0.550 OA
ATOM     10  O   UNL     1       5.590   4.685  37.310  1.00  0.00    -0.550 OA
ENDBRANCH   7   8
ENDBRANCH   6   7
ENDBRANCH   5   6
ENDBRANCH   4   5
ENDBRANCH   3   4
ENDBRANCH   2   3
ENDBRANCH   1   2
BRANCH   1  11
ATOM     11  C   UNL     1       3.324   1.107  32.431  1.00  0.00    -0.031 C 
ATOM     12  C   UNL     1       3.778  -0.061  31.950  1.00  0.00    -0.027 C 
BRANCH  12  13
ATOM     13  C   UNL     1       2.911  -1.288  31.910  1.00  0.00     0.054 C 
BRANCH  13  14
ATOM     14  C   UNL     1       2.759  -1.871  33.285  1.00  0.00    -0.027 C 
ATOM     15  C   UNL     1       3.778  -2.486  33.904  1.00  0.00    -0.031 C 
BRANCH  15  16
ATOM     16  C   UNL     1       3.626  -3.075  35.282  1.00  0.00     0.027 C 
BRANCH  16  17
ATOM     17  C   UNL     1       4.851  -3.900  35.711  1.00  0.00     0.004 C 
BRANCH  17  18
ATOM     18  C   UNL     1       5.781  -3.180  36.705  1.00  0.00     0.000 C 
BRANCH  18  19
ATOM     19  C   UNL     1       5.980  -3.967  38.009  1.00  0.00    -0.003 C 
ATOM     20  C   UNL     1       5.714  -5.456  37.797  1.00  0.00     0.004 C 
ENDBRANCH  18  19
ENDBRANCH  17  18
ENDBRANCH  16  17
ENDBRANCH  15  16
ENDBRANCH  13  14
ENDBRANCH  12  13
ENDBRANCH   1  11
TORSDOF 14
ENDMDL
MODEL 6
REMARK VINA RESULT:    -4.677      4.586      5.788
REMARK INTER + INTRA:          -9.508
REMARK INTER:                  -8.481
REMARK INTRA:                  -1.027
REMARK UNBOUND:                -1.003
REMARK SMILES CCCCCC=CCC=CCCCCCCCC(=O)[O-]
REMARK SMILES IDX 11 1 12 2 13 3 14 4 15 5 16 6 17 7 18 8 19 9 20 10 10 11
REMARK SMILES IDX 9 12 8 13 7 14 6 15 5 16 4 17 3 18 2 19 1 20
REMARK H PARENT
REMARK Flexibility Score: inf
ROOT
ATOM      1  C   UNL     1       3.586   0.211  32.117  1.00  0.00     0.027 C 
ENDROOT
BRANCH   1   2
ATOM      2  C   UNL     1       3.035   1.599  32.480  1.00  0.00     0.004 C 
BRANCH   2   3
ATOM      3  C   UNL     1       4.159   2.615  32.745  1.00  0.00     0.000 C 
BRANCH   3   4
ATOM      4  C   UNL     1       5.545   2.082  32.349  1.00  0.00     0.000 C 
BRANCH   4   5
ATOM      5  C   UNL     1       6.686   2.997  32.825  1.00  0.00     0.000 C 
BRANCH   5   6
ATOM      6  C   UNL     1       6.184   4.223  33.611  1.00  0.00     0.006 C 
BRANCH   6   7
ATOM      7  C   UNL     1       6.677   5.570  33.054  1.00  0.00     0.053 C 
BRANCH   7   8
ATOM      8  C   UNL     1       5.879   6.732  33.557  1.00  0.00     0.041 C 
ATOM      9  O   UNL     1       5.524   7.648  32.770  1.00  0.00    -0.550 OA
ATOM     10  O   UNL     1       5.508   6.794  34.895  1.00  0.00    -0.550 OA
ENDBRANCH   7   8
ENDBRANCH   6   7
ENDBRANCH   5   6
ENDBRANCH   4   5
ENDBRANCH   3   4
ENDBRANCH   2   3
ENDBRANCH   1   2
BRANCH   1  11
ATOM     11  C   UNL     1       3.268  -0.178  30.698  1.00  0.00    -0.031 C 
ATOM     12  C   UNL     1       3.045   0.743  29.748  1.00  0.00    -0.027 C 
BRANCH  12  13
ATOM     13  C   UNL     1       2.758   0.355  28.325  1.00  0.00     0.054 C 
BRANCH  13  14
ATOM     14  C   UNL     1       1.511   1.032  27.834  1.00  0.00    -0.027 C 
ATOM     15  C   UNL     1       0.463   0.330  27.379  1.00  0.00    -0.031 C 
BRANCH  15  16
ATOM     16  C   UNL     1      -0.786   1.008  26.883  1.00  0.00     0.027 C 
BRANCH  16  17
ATOM     17  C   UNL     1      -0.487   2.167  25.916  1.00  0.00     0.004 C 
BRANCH  17  18
ATOM     18  C   UNL     1      -1.552   3.280  25.916  1.00  0.00     0.000 C 
BRANCH  18  19
ATOM     19  C   UNL     1      -1.055   4.577  26.571  1.00  0.00    -0.003 C 
ATOM     20  C   UNL     1      -1.421   4.619  28.052  1.00  0.00     0.004 C 
ENDBRANCH  18  19
ENDBRANCH  17  18
ENDBRANCH  16  17
ENDBRANCH  15  16
ENDBRANCH  13  14
ENDBRANCH  12  13
ENDBRANCH   1  11
TORSDOF 14
ENDMDL
MODEL 7
REMARK VINA RESULT:    -4.660      4.340      8.367
REMARK INTER + INTRA:          -9.477
REMARK INTER:                  -7.358
REMARK INTRA:                  -2.119
REMARK UNBOUND:                -1.003
REMARK SMILES CCCCCC=CCC=CCCCCCCCC(=O)[O-]
REMARK SMILES IDX 11 1 12 2 13 3 14 4 15 5 16 6 17 7 18 8 19 9 20 10 10 11
REMARK SMILES IDX 9 12 8 13 7 14 6 15 5 16 4 17 3 18 2 19 1 20
REMARK H PARENT
REMARK Flexibility Score: inf
ROOT
ATOM      1  C   UNL     1       3.221   0.821  32.317  1.00  0.00     0.027 C 
ENDROOT
BRANCH   1   2
ATOM      2  C   UNL     1       3.960   1.204  31.025  1.00  0.00     0.004 C 
BRANCH   2   3
ATOM      3  C   UNL     1       3.073   1.030  29.780  1.00  0.00     0.000 C 
BRANCH   3   4
ATOM      4  C   UNL     1       3.732   0.157  28.700  1.00  0.00     0.000 C 
BRANCH   4   5
ATOM      5  C   UNL     1       3.435  -1.340  28.891  1.00  0.00     0.000 C 
BRANCH   5   6
ATOM      6  C   UNL     1       1.942  -1.681  28.722  1.00  0.00     0.006 C 
BRANCH   6   7
ATOM      7  C   UNL     1       1.586  -3.134  29.086  1.00  0.00     0.053 C 
BRANCH   7   8
ATOM      8  C   UNL     1       2.120  -4.124  28.099  1.00  0.00     0.041 C 
ATOM      9  O   UNL     1       1.636  -4.190  26.938  1.00  0.00    -0.550 OA
ATOM     10  O   UNL     1       3.169  -4.963  28.453  1.00  0.00    -0.550 OA
ENDBRANCH   7   8
ENDBRANCH   6   7
ENDBRANCH   5   6
ENDBRANCH   4   5
ENDBRANCH   3   4
ENDBRANCH   2   3
ENDBRANCH   1   2
BRANCH   1  11
ATOM     11  C   UNL     1       2.991  -0.662  32.426  1.00  0.00    -0.031 C 
ATOM     12  C   UNL     1       2.107  -1.176  33.295  1.00  0.00    -0.027 C 
BRANCH  12  13
ATOM     13  C   UNL     1       1.855  -2.655  33.383  1.00  0.00     0.054 C 
BRANCH  13  14
ATOM     14  C   UNL     1       3.013  -3.350  34.039  1.00  0.00    -0.027 C 
ATOM     15  C   UNL     1       3.475  -2.965  35.237  1.00  0.00    -0.031 C 
BRANCH  15  16
ATOM     16  C   UNL     1       4.639  -3.659  35.895  1.00  0.00     0.027 C 
BRANCH  16  17
ATOM     17  C   UNL     1       5.971  -2.925  35.667  1.00  0.00     0.004 C 
BRANCH  17  18
ATOM     18  C   UNL     1       6.559  -3.107  34.255  1.00  0.00     0.000 C 
BRANCH  18  19
ATOM     19  C   UNL     1       6.408  -1.852  33.383  1.00  0.00    -0.003 C 
ATOM     20  C   UNL     1       6.223  -2.223  31.914  1.00  0.00     0.004 C 
ENDBRANCH  18  19
ENDBRANCH  17  18
ENDBRANCH  16  17
ENDBRANCH  15  16
ENDBRANCH  13  14
ENDBRANCH  12  13
ENDBRANCH   1  11
TORSDOF 14
ENDMDL
MODEL 8
REMARK VINA RESULT:    -4.588      6.461      9.192
REMARK INTER + INTRA:          -9.346
REMARK INTER:                  -7.884
REMARK INTRA:                  -1.462
REMARK UNBOUND:                -1.003
REMARK SMILES CCCCCC=CCC=CCCCCCCCC(=O)[O-]
REMARK SMILES IDX 11 1 12 2 13 3 14 4 15 5 16 6 17 7 18 8 19 9 20 10 10 11
REMARK SMILES IDX 9 12 8 13 7 14 6 15 5 16 4 17 3 18 2 19 1 20
REMARK H PARENT
REMARK Flexibility Score: inf
ROOT
ATOM      1  C   UNL     1       6.685   7.259  31.889  1.00  0.00     0.027 C 
ENDROOT
BRANCH   1   2
ATOM      2  C   UNL     1       7.444   8.022  32.985  1.00  0.00     0.004 C 
BRANCH   2   3
ATOM      3  C   UNL     1       6.508   8.505  34.107  1.00  0.00     0.000 C 
BRANCH   3   4
ATOM      4  C   UNL     1       7.170   8.457  35.493  1.00  0.00     0.000 C 
BRANCH   4   5
ATOM      5  C   UNL     1       8.254   7.369  35.590  1.00  0.00     0.000 C 
BRANCH   5   6
ATOM      6  C   UNL     1       7.711   6.028  36.120  1.00  0.00     0.006 C 
BRANCH   6   7
ATOM      7  C   UNL     1       6.928   6.146  37.440  1.00  0.00     0.053 C 
BRANCH   7   8
ATOM      8  C   UNL     1       5.495   5.738  37.300  1.00  0.00     0.041 C 
ATOM      9  O   UNL     1       5.179   4.519  37.294  1.00  0.00    -0.550 OA
ATOM     10  O   UNL     1       4.503   6.705  37.200  1.00  0.00    -0.550 OA
ENDBRANCH   7   8
ENDBRANCH   6   7
ENDBRANCH   5   6
ENDBRANCH   4   5
ENDBRANCH   3   4
ENDBRANCH   2   3
ENDBRANCH   1   2
BRANCH   1  11
ATOM     11  C   UNL     1       6.363   5.846  32.292  1.00  0.00    -0.031 C 
ATOM     12  C   UNL     1       7.327   4.967  32.612  1.00  0.00    -0.027 C 
BRANCH  12  13
ATOM     13  C   UNL     1       7.003   3.565  33.045  1.00  0.00     0.054 C 
BRANCH  13  14
ATOM     14  C   UNL     1       5.520   3.336  33.026  1.00  0.00    -0.027 C 
ATOM     15  C   UNL     1       4.989   2.216  32.514  1.00  0.00    -0.031 C 
BRANCH  15  16
ATOM     16  C   UNL     1       3.501   1.986  32.491  1.00  0.00     0.027 C 
BRANCH  16  17
ATOM     17  C   UNL     1       3.117   0.663  31.805  1.00  0.00     0.004 C 
BRANCH  17  18
ATOM     18  C   UNL     1       3.649  -0.595  32.516  1.00  0.00     0.000 C 
BRANCH  18  19
ATOM     19  C   UNL     1       2.768  -1.830  32.277  1.00  0.00    -0.003 C 
ATOM     20  C   UNL     1       1.866  -2.102  33.477  1.00  0.00     0.004 C 
ENDBRANCH  18  19
ENDBRANCH  17  18
ENDBRANCH  16  17
ENDBRANCH  15  16
ENDBRANCH  13  14
ENDBRANCH  12  13
ENDBRANCH   1  11
TORSDOF 14
ENDMDL
MODEL 9
REMARK VINA RESULT:    -4.513      6.038      9.090
REMARK INTER + INTRA:          -9.210
REMARK INTER:                  -7.651
REMARK INTRA:                  -1.560
REMARK UNBOUND:                -1.003
REMARK SMILES CCCCCC=CCC=CCCCCCCCC(=O)[O-]
REMARK SMILES IDX 11 1 12 2 13 3 14 4 15 5 16 6 17 7 18 8 19 9 20 10 10 11
REMARK SMILES IDX 9 12 8 13 7 14 6 15 5 16 4 17 3 18 2 19 1 20
REMARK H PARENT
REMARK Flexibility Score: inf
ROOT
ATOM      1  C   UNL     1       7.362   5.272  31.725  1.00  0.00     0.027 C 
ENDROOT
BRANCH   1   2
ATOM      2  C   UNL     1       7.046   3.785  31.944  1.00  0.00     0.004 C 
BRANCH   2   3
ATOM      3  C   UNL     1       5.740   3.582  32.731  1.00  0.00     0.000 C 
BRANCH   3   4
ATOM      4  C   UNL     1       5.133   2.185  32.520  1.00  0.00     0.000 C 
BRANCH   4   5
ATOM      5  C   UNL     1       3.594   2.204  32.536  1.00  0.00     0.000 C 
BRANCH   5   6
ATOM      6  C   UNL     1       2.975   0.826  32.233  1.00  0.00     0.006 C 
BRANCH   6   7
ATOM      7  C   UNL     1       3.974  -0.342  32.313  1.00  0.00     0.053 C 
BRANCH   7   8
ATOM      8  C   UNL     1       3.840  -1.298  31.169  1.00  0.00     0.041 C 
ATOM      9  O   UNL     1       2.815  -2.022  31.063  1.00  0.00    -0.550 OA
ATOM     10  O   UNL     1       4.838  -1.375  30.206  1.00  0.00    -0.550 OA
ENDBRANCH   7   8
ENDBRANCH   6   7
ENDBRANCH   5   6
ENDBRANCH   4   5
ENDBRANCH   3   4
ENDBRANCH   2   3
ENDBRANCH   1   2
BRANCH   1  11
ATOM     11  C   UNL     1       6.381   6.175  32.424  1.00  0.00    -0.031 C 
ATOM     12  C   UNL     1       6.578   7.500  32.508  1.00  0.00    -0.027 C 
BRANCH  12  13
ATOM     13  C   UNL     1       5.583   8.404  33.178  1.00  0.00     0.054 C 
BRANCH  13  14
ATOM     14  C   UNL     1       5.607   8.204  34.666  1.00  0.00    -0.027 C 
ATOM     15  C   UNL     1       4.495   7.902  35.353  1.00  0.00    -0.031 C 
BRANCH  15  16
ATOM     16  C   UNL     1       4.518   7.706  36.846  1.00  0.00     0.027 C 
BRANCH  16  17
ATOM     17  C   UNL     1       5.234   6.409  37.261  1.00  0.00     0.004 C 
BRANCH  17  18
ATOM     18  C   UNL     1       6.686   6.613  37.734  1.00  0.00     0.000 C 
BRANCH  18  19
ATOM     19  C   UNL     1       7.717   6.044  36.749  1.00  0.00    -0.003 C 
ATOM     20  C   UNL     1       7.105   4.938  35.893  1.00  0.00     0.004 C 
ENDBRANCH  18  19
ENDBRANCH  17  18
ENDBRANCH  16  17
ENDBRANCH  15  16
ENDBRANCH  13  14
ENDBRANCH  12  13
ENDBRANCH   1  11
TORSDOF 14
ENDMDL
