MODEL 1
REMARK VINA RESULT:    -5.451      0.000      0.000
REMARK INTER + INTRA:          -9.092
REMARK INTER:                  -8.319
REMARK INTRA:                  -0.773
REMARK UNBOUND:                -0.773
REMARK SMILES O=C([O-])CCCCCCCCC(=O)[O-]
REMARK SMILES IDX 7 1 6 2 5 3 4 4 2 5 1 6 3 7 8 8 9 9 10 10 11 11 12 12 13 13
REMARK SMILES IDX 14 14
REMARK H PARENT
REMARK Flexibility Score: inf
ROOT
ATOM      1  C   UNL     1     -15.692  -8.636   0.507  1.00  0.00     0.000 C 
ENDROOT
BRANCH   1   2
ATOM      2  C   UNL     1     -15.085  -8.362  -0.884  1.00  0.00     0.000 C 
BRANCH   2   3
ATOM      3  C   UNL     1     -16.000  -7.581  -1.849  1.00  0.00     0.006 C 
BRANCH   3   4
ATOM      4  C   UNL     1     -16.807  -8.465  -2.813  1.00  0.00     0.053 C 
BRANCH   4   5
ATOM      5  C   UNL     1     -16.162  -8.560  -4.161  1.00  0.00     0.041 C 
ATOM      6  O   UNL     1     -16.528  -7.796  -5.094  1.00  0.00    -0.550 OA
ATOM      7  O   UNL     1     -15.134  -9.468  -4.380  1.00  0.00    -0.550 OA
ENDBRANCH   4   5
ENDBRANCH   3   4
ENDBRANCH   2   3
ENDBRANCH   1   2
BRANCH   1   8
ATOM      8  C   UNL     1     -16.841  -7.694   0.920  1.00  0.00     0.000 C 
BRANCH   8   9
ATOM      9  C   UNL     1     -18.211  -8.376   1.083  1.00  0.00     0.000 C 
BRANCH   9  10
ATOM     10  C   UNL     1     -18.210  -9.838   0.603  1.00  0.00     0.006 C 
BRANCH  10  11
ATOM     11  C   UNL     1     -19.008 -10.020  -0.695  1.00  0.00     0.053 C 
BRANCH  11  12
ATOM     12  C   UNL     1     -18.845 -11.401  -1.254  1.00  0.00     0.041 C 
ATOM     13  O   UNL     1     -18.297 -11.571  -2.375  1.00  0.00    -0.550 OA
ATOM     14  O   UNL     1     -19.330 -12.497  -0.552  1.00  0.00    -0.550 OA
ENDBRANCH  11  12
ENDBRANCH  10  11
ENDBRANCH   9  10
ENDBRANCH   8   9
ENDBRANCH   1   8
TORSDOF 9
ENDMDL
MODEL 2
REMARK VINA RESULT:    -5.337      2.058      3.301
REMARK INTER + INTRA:          -8.918
REMARK INTER:                  -8.283
REMARK INTRA:                  -0.635
REMARK UNBOUND:                -0.773
REMARK SMILES O=C([O-])CCCCCCCCC(=O)[O-]
REMARK SMILES IDX 7 1 6 2 5 3 4 4 2 5 1 6 3 7 8 8 9 9 10 10 11 11 12 12 13 13
REMARK SMILES IDX 14 14
REMARK H PARENT
REMARK Flexibility Score: inf
ROOT
ATOM      1  C   UNL     1     -17.698 -10.606   0.094  1.00  0.00     0.000 C 
ENDROOT
BRANCH   1   2
ATOM      2  C   UNL     1     -17.675  -9.222  -0.585  1.00  0.00     0.000 C 
BRANCH   2   3
ATOM      3  C   UNL     1     -17.498  -9.252  -2.117  1.00  0.00     0.006 C 
BRANCH   3   4
ATOM      4  C   UNL     1     -16.400  -8.316  -2.647  1.00  0.00     0.053 C 
BRANCH   4   5
ATOM      5  C   UNL     1     -16.048  -8.615  -4.072  1.00  0.00     0.041 C 
ATOM      6  O   UNL     1     -15.151  -9.457  -4.340  1.00  0.00    -0.550 OA
ATOM      7  O   UNL     1     -16.732  -7.986  -5.105  1.00  0.00    -0.550 OA
ENDBRANCH   4   5
ENDBRANCH   3   4
ENDBRANCH   2   3
ENDBRANCH   1   2
BRANCH   1   8
ATOM      8  C   UNL     1     -18.912 -11.489  -0.256  1.00  0.00     0.000 C 
BRANCH   8   9
ATOM      9  C   UNL     1     -18.563 -12.893  -0.780  1.00  0.00     0.000 C 
BRANCH   9  10
ATOM     10  C   UNL     1     -17.167 -13.364  -0.338  1.00  0.00     0.006 C 
BRANCH  10  11
ATOM     11  C   UNL     1     -16.483 -14.227  -1.406  1.00  0.00     0.053 C 
BRANCH  11  12
ATOM     12  C   UNL     1     -16.417 -13.522  -2.727  1.00  0.00     0.041 C 
ATOM     13  O   UNL     1     -15.795 -12.433  -2.835  1.00  0.00    -0.550 OA
ATOM     14  O   UNL     1     -17.073 -14.052  -3.831  1.00  0.00    -0.550 OA
ENDBRANCH  11  12
ENDBRANCH  10  11
ENDBRANCH   9  10
ENDBRANCH   8   9
ENDBRANCH   1   8
TORSDOF 9
ENDMDL
MODEL 3
REMARK VINA RESULT:    -5.316      1.017      4.463
REMARK INTER + INTRA:          -8.886
REMARK INTER:                  -8.260
REMARK INTRA:                  -0.626
REMARK UNBOUND:                -0.773
REMARK SMILES O=C([O-])CCCCCCCCC(=O)[O-]
REMARK SMILES IDX 7 1 6 2 5 3 4 4 2 5 1 6 3 7 8 8 9 9 10 10 11 11 12 12 13 13
REMARK SMILES IDX 14 14
REMARK H PARENT
REMARK Flexibility Score: inf
ROOT
ATOM      1  C   UNL     1     -18.252  -8.891   0.860  1.00  0.00     0.000 C 
ENDROOT
BRANCH   1   2
ATOM      2  C   UNL     1     -17.974 -10.336   0.401  1.00  0.00     0.000 C 
BRANCH   2   3
ATOM      3  C   UNL     1     -18.974 -10.895  -0.632  1.00  0.00     0.006 C 
BRANCH   3   4
ATOM      4  C   UNL     1     -18.937 -12.423  -0.789  1.00  0.00     0.053 C 
BRANCH   4   5
ATOM      5  C   UNL     1     -18.511 -12.836  -2.163  1.00  0.00     0.041 C 
ATOM      6  O   UNL     1     -17.429 -12.411  -2.646  1.00  0.00    -0.550 OA
ATOM      7  O   UNL     1     -19.293 -13.718  -2.900  1.00  0.00    -0.550 OA
ENDBRANCH   4   5
ENDBRANCH   3   4
ENDBRANCH   2   3
ENDBRANCH   1   2
BRANCH   1   8
ATOM      8  C   UNL     1     -17.037  -7.943   0.813  1.00  0.00     0.000 C 
BRANCH   8   9
ATOM      9  C   UNL     1     -15.902  -8.390  -0.125  1.00  0.00     0.000 C 
BRANCH   9  10
ATOM     10  C   UNL     1     -15.918  -7.649  -1.474  1.00  0.00     0.006 C 
BRANCH  10  11
ATOM     11  C   UNL     1     -16.799  -8.358  -2.511  1.00  0.00     0.053 C 
BRANCH  11  12
ATOM     12  C   UNL     1     -16.109  -8.472  -3.836  1.00  0.00     0.041 C 
ATOM     13  O   UNL     1     -16.650  -8.013  -4.876  1.00  0.00    -0.550 OA
ATOM     14  O   UNL     1     -14.882  -9.117  -3.928  1.00  0.00    -0.550 OA
ENDBRANCH  11  12
ENDBRANCH  10  11
ENDBRANCH   9  10
ENDBRANCH   8   9
ENDBRANCH   1   8
TORSDOF 9
ENDMDL
MODEL 4
REMARK VINA RESULT:    -5.257      2.197      5.022
REMARK INTER + INTRA:          -8.796
REMARK INTER:                  -8.182
REMARK INTRA:                  -0.613
REMARK UNBOUND:                -0.773
REMARK SMILES O=C([O-])CCCCCCCCC(=O)[O-]
REMARK SMILES IDX 7 1 6 2 5 3 4 4 2 5 1 6 3 7 8 8 9 9 10 10 11 11 12 12 13 13
REMARK SMILES IDX 14 14
REMARK H PARENT
REMARK Flexibility Score: inf
ROOT
ATOM      1  C   UNL     1     -19.192 -11.521  -0.250  1.00  0.00     0.000 C 
ENDROOT
BRANCH   1   2
ATOM      2  C   UNL     1     -18.517 -12.790  -0.809  1.00  0.00     0.000 C 
BRANCH   2   3
ATOM      3  C   UNL     1     -17.133 -13.110  -0.208  1.00  0.00     0.006 C 
BRANCH   3   4
ATOM      4  C   UNL     1     -16.381 -14.247  -0.916  1.00  0.00     0.053 C 
BRANCH   4   5
ATOM      5  C   UNL     1     -16.530 -14.177  -2.405  1.00  0.00     0.041 C 
ATOM      6  O   UNL     1     -15.945 -13.274  -3.058  1.00  0.00    -0.550 OA
ATOM      7  O   UNL     1     -17.289 -15.128  -3.075  1.00  0.00    -0.550 OA
ENDBRANCH   4   5
ENDBRANCH   3   4
ENDBRANCH   2   3
ENDBRANCH   1   2
BRANCH   1   8
ATOM      8  C   UNL     1     -19.023 -10.254  -1.112  1.00  0.00     0.000 C 
BRANCH   8   9
ATOM      9  C   UNL     1     -17.943  -9.274  -0.620  1.00  0.00     0.000 C 
BRANCH   9  10
ATOM     10  C   UNL     1     -17.096  -8.695  -1.768  1.00  0.00     0.006 C 
BRANCH  10  11
ATOM     11  C   UNL     1     -16.805  -9.739  -2.854  1.00  0.00     0.053 C 
BRANCH  11  12
ATOM     12  C   UNL     1     -16.035  -9.148  -3.996  1.00  0.00     0.041 C 
ATOM     13  O   UNL     1     -14.845  -9.499  -4.208  1.00  0.00    -0.550 OA
ATOM     14  O   UNL     1     -16.622  -8.182  -4.804  1.00  0.00    -0.550 OA
ENDBRANCH  11  12
ENDBRANCH  10  11
ENDBRANCH   9  10
ENDBRANCH   8   9
ENDBRANCH   1   8
TORSDOF 9
ENDMDL
MODEL 5
REMARK VINA RESULT:    -5.227      2.427      3.457
REMARK INTER + INTRA:          -8.751
REMARK INTER:                  -7.926
REMARK INTRA:                  -0.825
REMARK UNBOUND:                -0.773
REMARK SMILES O=C([O-])CCCCCCCCC(=O)[O-]
REMARK SMILES IDX 7 1 6 2 5 3 4 4 2 5 1 6 3 7 8 8 9 9 10 10 11 11 12 12 13 13
REMARK SMILES IDX 14 14
REMARK H PARENT
REMARK Flexibility Score: inf
ROOT
ATOM      1  C   UNL     1     -19.019 -10.300  -1.022  1.00  0.00     0.000 C 
ENDROOT
BRANCH   1   2
ATOM      2  C   UNL     1     -17.991  -9.255  -0.542  1.00  0.00     0.000 C 
BRANCH   2   3
ATOM      3  C   UNL     1     -17.027  -8.743  -1.632  1.00  0.00     0.006 C 
BRANCH   3   4
ATOM      4  C   UNL     1     -16.882  -9.680  -2.841  1.00  0.00     0.053 C 
BRANCH   4   5
ATOM      5  C   UNL     1     -16.083  -9.055  -3.943  1.00  0.00     0.041 C 
ATOM      6  O   UNL     1     -16.533  -8.056  -4.564  1.00  0.00    -0.550 OA
ATOM      7  O   UNL     1     -14.827  -9.555  -4.263  1.00  0.00    -0.550 OA
ENDBRANCH   4   5
ENDBRANCH   3   4
ENDBRANCH   2   3
ENDBRANCH   1   2
BRANCH   1   8
ATOM      8  C   UNL     1     -19.003 -11.637  -0.254  1.00  0.00     0.000 C 
BRANCH   8   9
ATOM      9  C   UNL     1     -18.728 -12.879  -1.121  1.00  0.00     0.000 C 
BRANCH   9  10
ATOM     10  C   UNL     1     -17.292 -13.408  -0.967  1.00  0.00     0.006 C 
BRANCH  10  11
ATOM     11  C   UNL     1     -16.759 -13.225   0.461  1.00  0.00     0.053 C 
BRANCH  11  12
ATOM     12  C   UNL     1     -15.444 -12.507   0.472  1.00  0.00     0.041 C 
ATOM     13  O   UNL     1     -15.287 -11.460  -0.209  1.00  0.00    -0.550 OA
ATOM     14  O   UNL     1     -14.381 -13.014   1.209  1.00  0.00    -0.550 OA
ENDBRANCH  11  12
ENDBRANCH  10  11
ENDBRANCH   9  10
ENDBRANCH   8   9
ENDBRANCH   1   8
TORSDOF 9
ENDMDL
MODEL 6
REMARK VINA RESULT:    -5.210      2.572      4.986
REMARK INTER + INTRA:          -8.724
REMARK INTER:                  -8.188
REMARK INTRA:                  -0.536
REMARK UNBOUND:                -0.773
REMARK SMILES O=C([O-])CCCCCCCCC(=O)[O-]
REMARK SMILES IDX 7 1 6 2 5 3 4 4 2 5 1 6 3 7 8 8 9 9 10 10 11 11 12 12 13 13
REMARK SMILES IDX 14 14
REMARK H PARENT
REMARK Flexibility Score: inf
ROOT
ATOM      1  C   UNL     1     -18.985 -11.631  -0.297  1.00  0.00     0.000 C 
ENDROOT
BRANCH   1   2
ATOM      2  C   UNL     1     -18.310 -12.940  -0.756  1.00  0.00     0.000 C 
BRANCH   2   3
ATOM      3  C   UNL     1     -17.041 -13.328   0.030  1.00  0.00     0.006 C 
BRANCH   3   4
ATOM      4  C   UNL     1     -16.050 -14.200  -0.757  1.00  0.00     0.053 C 
BRANCH   4   5
ATOM      5  C   UNL     1     -14.895 -13.404  -1.281  1.00  0.00     0.041 C 
ATOM      6  O   UNL     1     -15.040 -12.185  -1.561  1.00  0.00    -0.550 OA
ATOM      7  O   UNL     1     -13.648 -14.000  -1.430  1.00  0.00    -0.550 OA
ENDBRANCH   4   5
ENDBRANCH   3   4
ENDBRANCH   2   3
ENDBRANCH   1   2
BRANCH   1   8
ATOM      8  C   UNL     1     -18.019 -10.530   0.185  1.00  0.00     0.000 C 
BRANCH   8   9
ATOM      9  C   UNL     1     -18.015  -9.251  -0.673  1.00  0.00     0.000 C 
BRANCH   9  10
ATOM     10  C   UNL     1     -17.533  -9.501  -2.112  1.00  0.00     0.006 C 
BRANCH  10  11
ATOM     11  C   UNL     1     -16.665  -8.349  -2.638  1.00  0.00     0.053 C 
BRANCH  11  12
ATOM     12  C   UNL     1     -16.180  -8.615  -4.031  1.00  0.00     0.041 C 
ATOM     13  O   UNL     1     -15.252  -9.442  -4.233  1.00  0.00    -0.550 OA
ATOM     14  O   UNL     1     -16.730  -7.924  -5.103  1.00  0.00    -0.550 OA
ENDBRANCH  11  12
ENDBRANCH  10  11
ENDBRANCH   9  10
ENDBRANCH   8   9
ENDBRANCH   1   8
TORSDOF 9
ENDMDL
MODEL 7
REMARK VINA RESULT:    -5.159      2.540      3.704
REMARK INTER + INTRA:          -8.647
REMARK INTER:                  -7.943
REMARK INTRA:                  -0.704
REMARK UNBOUND:                -0.773
REMARK SMILES O=C([O-])CCCCCCCCC(=O)[O-]
REMARK SMILES IDX 7 1 6 2 5 3 4 4 2 5 1 6 3 7 8 8 9 9 10 10 11 11 12 12 13 13
REMARK SMILES IDX 14 14
REMARK H PARENT
REMARK Flexibility Score: inf
ROOT
ATOM      1  C   UNL     1     -18.356 -10.055  -1.490  1.00  0.00     0.000 C 
ENDROOT
BRANCH   1   2
ATOM      2  C   UNL     1     -17.162  -9.864  -2.447  1.00  0.00     0.000 C 
BRANCH   2   3
ATOM      3  C   UNL     1     -16.761  -8.397  -2.702  1.00  0.00     0.006 C 
BRANCH   3   4
ATOM      4  C   UNL     1     -15.998  -7.738  -1.542  1.00  0.00     0.053 C 
BRANCH   4   5
ATOM      5  C   UNL     1     -14.846  -8.576  -1.080  1.00  0.00     0.041 C 
ATOM      6  O   UNL     1     -13.804  -8.664  -1.781  1.00  0.00    -0.550 OA
ATOM      7  O   UNL     1     -14.909  -9.234   0.143  1.00  0.00    -0.550 OA
ENDBRANCH   4   5
ENDBRANCH   3   4
ENDBRANCH   2   3
ENDBRANCH   1   2
BRANCH   1   8
ATOM      8  C   UNL     1     -18.088 -10.976  -0.283  1.00  0.00     0.000 C 
BRANCH   8   9
ATOM      9  C   UNL     1     -18.290 -12.477  -0.555  1.00  0.00     0.000 C 
BRANCH   9  10
ATOM     10  C   UNL     1     -17.046 -13.317  -0.218  1.00  0.00     0.006 C 
BRANCH  10  11
ATOM     11  C   UNL     1     -16.754 -14.374  -1.292  1.00  0.00     0.053 C 
BRANCH  11  12
ATOM     12  C   UNL     1     -16.462 -13.745  -2.621  1.00  0.00     0.041 C 
ATOM     13  O   UNL     1     -17.172 -14.020  -3.623  1.00  0.00    -0.550 OA
ATOM     14  O   UNL     1     -15.383 -12.881  -2.758  1.00  0.00    -0.550 OA
ENDBRANCH  11  12
ENDBRANCH  10  11
ENDBRANCH   9  10
ENDBRANCH   8   9
ENDBRANCH   1   8
TORSDOF 9
ENDMDL
MODEL 8
REMARK VINA RESULT:    -5.153      1.934      4.678
REMARK INTER + INTRA:          -8.637
REMARK INTER:                  -8.021
REMARK INTRA:                  -0.616
REMARK UNBOUND:                -0.773
REMARK SMILES O=C([O-])CCCCCCCCC(=O)[O-]
REMARK SMILES IDX 7 1 6 2 5 3 4 4 2 5 1 6 3 7 8 8 9 9 10 10 11 11 12 12 13 13
REMARK SMILES IDX 14 14
REMARK H PARENT
REMARK Flexibility Score: inf
ROOT
ATOM      1  C   UNL     1     -18.992  -9.502  -0.601  1.00  0.00     0.000 C 
ENDROOT
BRANCH   1   2
ATOM      2  C   UNL     1     -18.838 -10.790  -1.434  1.00  0.00     0.000 C 
BRANCH   2   3
ATOM      3  C   UNL     1     -19.040 -12.102  -0.648  1.00  0.00     0.006 C 
BRANCH   3   4
ATOM      4  C   UNL     1     -18.121 -13.253  -1.087  1.00  0.00     0.053 C 
BRANCH   4   5
ATOM      5  C   UNL     1     -18.247 -13.544  -2.551  1.00  0.00     0.041 C 
ATOM      6  O   UNL     1     -17.238 -13.469  -3.301  1.00  0.00    -0.550 OA
ATOM      7  O   UNL     1     -19.471 -13.932  -3.082  1.00  0.00    -0.550 OA
ENDBRANCH   4   5
ENDBRANCH   3   4
ENDBRANCH   2   3
ENDBRANCH   1   2
BRANCH   1   8
ATOM      8  C   UNL     1     -18.110  -9.428   0.661  1.00  0.00     0.000 C 
BRANCH   8   9
ATOM      9  C   UNL     1     -17.521  -8.038   0.960  1.00  0.00     0.000 C 
BRANCH   9  10
ATOM     10  C   UNL     1     -16.036  -7.924   0.574  1.00  0.00     0.006 C 
BRANCH  10  11
ATOM     11  C   UNL     1     -15.848  -7.660  -0.926  1.00  0.00     0.053 C 
BRANCH  11  12
ATOM     12  C   UNL     1     -14.962  -8.689  -1.561  1.00  0.00     0.041 C 
ATOM     13  O   UNL     1     -13.734  -8.459  -1.719  1.00  0.00    -0.550 OA
ATOM     14  O   UNL     1     -15.500  -9.890  -2.008  1.00  0.00    -0.550 OA
ENDBRANCH  11  12
ENDBRANCH  10  11
ENDBRANCH   9  10
ENDBRANCH   8   9
ENDBRANCH   1   8
TORSDOF 9
ENDMDL
MODEL 9
REMARK VINA RESULT:    -5.149      2.827      4.905
REMARK INTER + INTRA:          -8.632
REMARK INTER:                  -7.981
REMARK INTRA:                  -0.651
REMARK UNBOUND:                -0.773
REMARK SMILES O=C([O-])CCCCCCCCC(=O)[O-]
REMARK SMILES IDX 7 1 6 2 5 3 4 4 2 5 1 6 3 7 8 8 9 9 10 10 11 11 12 12 13 13
REMARK SMILES IDX 14 14
REMARK H PARENT
REMARK Flexibility Score: inf
ROOT
ATOM      1  C   UNL     1     -18.626 -11.045  -0.227  1.00  0.00     0.000 C 
ENDROOT
BRANCH   1   2
ATOM      2  C   UNL     1     -18.482 -12.505  -0.701  1.00  0.00     0.000 C 
BRANCH   2   3
ATOM      3  C   UNL     1     -17.184 -13.209  -0.255  1.00  0.00     0.006 C 
BRANCH   3   4
ATOM      4  C   UNL     1     -16.668 -14.271  -1.239  1.00  0.00     0.053 C 
BRANCH   4   5
ATOM      5  C   UNL     1     -16.436 -13.705  -2.606  1.00  0.00     0.041 C 
ATOM      6  O   UNL     1     -15.514 -12.871  -2.798  1.00  0.00    -0.550 OA
ATOM      7  O   UNL     1     -17.219 -14.124  -3.675  1.00  0.00    -0.550 OA
ENDBRANCH   4   5
ENDBRANCH   3   4
ENDBRANCH   2   3
ENDBRANCH   1   2
BRANCH   1   8
ATOM      8  C   UNL     1     -18.627  -9.988  -1.350  1.00  0.00     0.000 C 
BRANCH   8   9
ATOM      9  C   UNL     1     -17.285  -9.823  -2.086  1.00  0.00     0.000 C 
BRANCH   9  10
ATOM     10  C   UNL     1     -16.848  -8.353  -2.207  1.00  0.00     0.006 C 
BRANCH  10  11
ATOM     11  C   UNL     1     -15.534  -8.079  -1.462  1.00  0.00     0.053 C 
BRANCH  11  12
ATOM     12  C   UNL     1     -15.648  -8.406  -0.004  1.00  0.00     0.041 C 
ATOM     13  O   UNL     1     -16.353  -7.690   0.754  1.00  0.00    -0.550 OA
ATOM     14  O   UNL     1     -14.947  -9.483   0.523  1.00  0.00    -0.550 OA
ENDBRANCH  11  12
ENDBRANCH  10  11
ENDBRANCH   9  10
ENDBRANCH   8   9
ENDBRANCH   1   8
TORSDOF 9
ENDMDL
