MODEL 1
REMARK VINA RESULT:    -5.219      0.000      0.000
REMARK INTER + INTRA:          -7.732
REMARK INTER:                  -7.049
REMARK INTRA:                  -0.683
REMARK UNBOUND:                -0.683
REMARK SMILES CC(=O)CCC=C(C)CCC=C(C)C
REMARK SMILES IDX 7 1 6 2 8 3 9 4 10 5 11 6 13 7 12 8 14 9 5 10 4 11 2 12 3 13
REMARK SMILES IDX 1 14
REMARK H PARENT
REMARK Flexibility Score: inf
ROOT
ATOM      1  C   UNL     1      49.150  22.457  20.765  1.00  0.00    -0.077 C 
ATOM      2  C   UNL     1      49.739  22.841  19.610  1.00  0.00    -0.028 C 
ATOM      3  C   UNL     1      49.561  23.026  22.102  1.00  0.00     0.039 C 
ENDROOT
BRANCH   1   4
ATOM      4  C   UNL     1      48.049  21.421  20.714  1.00  0.00     0.034 C 
BRANCH   4   5
ATOM      5  C   UNL     1      47.022  21.776  19.634  1.00  0.00     0.032 C 
BRANCH   5   6
ATOM      6  C   UNL     1      45.620  21.511  20.120  1.00  0.00    -0.028 C 
ATOM      7  C   UNL     1      43.496  21.982  21.264  1.00  0.00     0.039 C 
ATOM      8  C   UNL     1      44.870  22.400  20.808  1.00  0.00    -0.080 C 
ATOM      9  C   UNL     1      45.363  23.796  21.112  1.00  0.00     0.039 C 
ENDBRANCH   5   6
ENDBRANCH   4   5
ENDBRANCH   1   4
BRANCH   2  10
ATOM     10  C   UNL     1      50.900  23.803  19.509  1.00  0.00     0.035 C 
BRANCH  10  11
ATOM     11  C   UNL     1      51.222  24.121  18.045  1.00  0.00     0.079 C 
BRANCH  11  12
ATOM     12  C   UNL     1      50.605  25.426  17.614  1.00  0.00     0.130 C 
ATOM     13  O   UNL     1      50.235  25.564  16.458  1.00  0.00    -0.300 OA
ATOM     14  C   UNL     1      50.432  26.562  18.578  1.00  0.00     0.087 C 
ENDBRANCH  11  12
ENDBRANCH  10  11
ENDBRANCH   2  10
TORSDOF 6
ENDMDL
MODEL 2
REMARK VINA RESULT:    -5.201      2.809      6.168
REMARK INTER + INTRA:          -7.708
REMARK INTER:                  -6.817
REMARK INTRA:                  -0.892
REMARK UNBOUND:                -0.683
REMARK SMILES CC(=O)CCC=C(C)CCC=C(C)C
REMARK SMILES IDX 7 1 6 2 8 3 9 4 10 5 11 6 13 7 12 8 14 9 5 10 4 11 2 12 3 13
REMARK SMILES IDX 1 14
REMARK H PARENT
REMARK Flexibility Score: inf
ROOT
ATOM      1  C   UNL     1      47.975  22.984  21.440  1.00  0.00    -0.077 C 
ATOM      2  C   UNL     1      47.336  22.064  20.681  1.00  0.00    -0.028 C 
ATOM      3  C   UNL     1      47.327  24.290  21.831  1.00  0.00     0.039 C 
ENDROOT
BRANCH   1   4
ATOM      4  C   UNL     1      49.386  22.695  21.905  1.00  0.00     0.034 C 
BRANCH   4   5
ATOM      5  C   UNL     1      50.321  23.853  21.544  1.00  0.00     0.032 C 
BRANCH   5   6
ATOM      6  C   UNL     1      50.845  23.699  20.138  1.00  0.00    -0.028 C 
ATOM      7  C   UNL     1      51.334  24.360  17.822  1.00  0.00     0.039 C 
ATOM      8  C   UNL     1      50.807  24.670  19.199  1.00  0.00    -0.080 C 
ATOM      9  C   UNL     1      50.271  26.051  19.498  1.00  0.00     0.039 C 
ENDBRANCH   5   6
ENDBRANCH   4   5
ENDBRANCH   1   4
BRANCH   2  10
ATOM     10  C   UNL     1      45.962  22.243  20.080  1.00  0.00     0.035 C 
BRANCH  10  11
ATOM     11  C   UNL     1      44.908  21.474  20.883  1.00  0.00     0.079 C 
BRANCH  11  12
ATOM     12  C   UNL     1      43.657  22.290  21.077  1.00  0.00     0.130 C 
ATOM     13  O   UNL     1      42.566  21.744  21.005  1.00  0.00    -0.300 OA
ATOM     14  C   UNL     1      43.722  23.761  21.360  1.00  0.00     0.087 C 
ENDBRANCH  11  12
ENDBRANCH  10  11
ENDBRANCH   2  10
TORSDOF 6
ENDMDL
MODEL 3
REMARK VINA RESULT:    -5.131      1.649      2.765
REMARK INTER + INTRA:          -7.614
REMARK INTER:                  -7.301
REMARK INTRA:                  -0.313
REMARK UNBOUND:                -0.683
REMARK SMILES CC(=O)CCC=C(C)CCC=C(C)C
REMARK SMILES IDX 7 1 6 2 8 3 9 4 10 5 11 6 13 7 12 8 14 9 5 10 4 11 2 12 3 13
REMARK SMILES IDX 1 14
REMARK H PARENT
REMARK Flexibility Score: inf
ROOT
ATOM      1  C   UNL     1      50.525  23.971  20.804  1.00  0.00    -0.077 C 
ATOM      2  C   UNL     1      50.435  23.544  19.524  1.00  0.00    -0.028 C 
ATOM      3  C   UNL     1      51.528  25.017  21.231  1.00  0.00     0.039 C 
ENDROOT
BRANCH   1   4
ATOM      4  C   UNL     1      49.595  23.379  21.840  1.00  0.00     0.034 C 
BRANCH   4   5
ATOM      5  C   UNL     1      48.369  22.752  21.168  1.00  0.00     0.032 C 
BRANCH   5   6
ATOM      6  C   UNL     1      48.550  21.263  21.008  1.00  0.00    -0.028 C 
ATOM      7  C   UNL     1      47.868  18.922  20.701  1.00  0.00     0.039 C 
ATOM      8  C   UNL     1      47.540  20.388  20.806  1.00  0.00    -0.080 C 
ATOM      9  C   UNL     1      46.105  20.843  20.664  1.00  0.00     0.039 C 
ENDBRANCH   5   6
ENDBRANCH   4   5
ENDBRANCH   1   4
BRANCH   2  10
ATOM     10  C   UNL     1      51.344  23.982  18.400  1.00  0.00     0.035 C 
BRANCH  10  11
ATOM     11  C   UNL     1      50.678  25.069  17.550  1.00  0.00     0.079 C 
BRANCH  11  12
ATOM     12  C   UNL     1      51.537  25.456  16.375  1.00  0.00     0.130 C 
ATOM     13  O   UNL     1      52.587  24.864  16.176  1.00  0.00    -0.300 OA
ATOM     14  C   UNL     1      51.127  26.554  15.438  1.00  0.00     0.087 C 
ENDBRANCH  11  12
ENDBRANCH  10  11
ENDBRANCH   2  10
TORSDOF 6
ENDMDL
MODEL 4
REMARK VINA RESULT:    -5.128      1.371      2.057
REMARK INTER + INTRA:          -7.609
REMARK INTER:                  -7.091
REMARK INTRA:                  -0.518
REMARK UNBOUND:                -0.683
REMARK SMILES CC(=O)CCC=C(C)CCC=C(C)C
REMARK SMILES IDX 7 1 6 2 8 3 9 4 10 5 11 6 13 7 12 8 14 9 5 10 4 11 2 12 3 13
REMARK SMILES IDX 1 14
REMARK H PARENT
REMARK Flexibility Score: inf
ROOT
ATOM      1  C   UNL     1      50.447  23.735  20.854  1.00  0.00    -0.077 C 
ATOM      2  C   UNL     1      50.461  23.308  19.571  1.00  0.00    -0.028 C 
ATOM      3  C   UNL     1      51.269  24.915  21.315  1.00  0.00     0.039 C 
ENDROOT
BRANCH   1   4
ATOM      4  C   UNL     1      49.583  23.004  21.858  1.00  0.00     0.034 C 
BRANCH   4   5
ATOM      5  C   UNL     1      48.400  22.325  21.160  1.00  0.00     0.032 C 
BRANCH   5   6
ATOM      6  C   UNL     1      47.156  23.169  21.271  1.00  0.00    -0.028 C 
ATOM      7  C   UNL     1      44.768  23.717  21.068  1.00  0.00     0.039 C 
ATOM      8  C   UNL     1      45.915  22.748  20.940  1.00  0.00    -0.080 C 
ATOM      9  C   UNL     1      45.650  21.338  20.465  1.00  0.00     0.039 C 
ENDBRANCH   5   6
ENDBRANCH   4   5
ENDBRANCH   1   4
BRANCH   2  10
ATOM     10  C   UNL     1      51.329  23.884  18.477  1.00  0.00     0.035 C 
BRANCH  10  11
ATOM     11  C   UNL     1      50.552  24.910  17.644  1.00  0.00     0.079 C 
BRANCH  11  12
ATOM     12  C   UNL     1      51.387  25.451  16.513  1.00  0.00     0.130 C 
ATOM     13  O   UNL     1      52.483  24.962  16.287  1.00  0.00    -0.300 OA
ATOM     14  C   UNL     1      50.897  26.579  15.654  1.00  0.00     0.087 C 
ENDBRANCH  11  12
ENDBRANCH  10  11
ENDBRANCH   2  10
TORSDOF 6
ENDMDL
MODEL 5
REMARK VINA RESULT:    -5.121      2.387      6.060
REMARK INTER + INTRA:          -7.600
REMARK INTER:                  -6.897
REMARK INTRA:                  -0.703
REMARK UNBOUND:                -0.683
REMARK SMILES CC(=O)CCC=C(C)CCC=C(C)C
REMARK SMILES IDX 7 1 6 2 8 3 9 4 10 5 11 6 13 7 12 8 14 9 5 10 4 11 2 12 3 13
REMARK SMILES IDX 1 14
REMARK H PARENT
REMARK Flexibility Score: inf
ROOT
ATOM      1  C   UNL     1      49.840  23.095  20.555  1.00  0.00    -0.077 C 
ATOM      2  C   UNL     1      49.263  22.157  19.770  1.00  0.00    -0.028 C 
ATOM      3  C   UNL     1      49.367  23.361  21.964  1.00  0.00     0.039 C 
ENDROOT
BRANCH   1   4
ATOM      4  C   UNL     1      50.991  23.904  20.001  1.00  0.00     0.034 C 
BRANCH   4   5
ATOM      5  C   UNL     1      51.123  23.691  18.489  1.00  0.00     0.032 C 
BRANCH   5   6
ATOM      6  C   UNL     1      50.593  24.882  17.732  1.00  0.00    -0.028 C 
ATOM      7  C   UNL     1      50.589  26.674  16.050  1.00  0.00     0.039 C 
ATOM      8  C   UNL     1      51.221  25.464  16.687  1.00  0.00    -0.080 C 
ATOM      9  C   UNL     1      52.521  24.925  16.134  1.00  0.00     0.039 C 
ENDBRANCH   5   6
ENDBRANCH   4   5
ENDBRANCH   1   4
BRANCH   2  10
ATOM     10  C   UNL     1      48.060  21.328  20.154  1.00  0.00     0.035 C 
BRANCH  10  11
ATOM     11  C   UNL     1      46.808  21.800  19.406  1.00  0.00     0.079 C 
BRANCH  11  12
ATOM     12  C   UNL     1      45.664  22.057  20.352  1.00  0.00     0.130 C 
ATOM     13  O   UNL     1      44.783  21.220  20.472  1.00  0.00    -0.300 OA
ATOM     14  C   UNL     1      45.585  23.323  21.153  1.00  0.00     0.087 C 
ENDBRANCH  11  12
ENDBRANCH  10  11
ENDBRANCH   2  10
TORSDOF 6
ENDMDL
MODEL 6
REMARK VINA RESULT:    -5.092      1.578      2.643
REMARK INTER + INTRA:          -7.561
REMARK INTER:                  -6.717
REMARK INTRA:                  -0.844
REMARK UNBOUND:                -0.683
REMARK SMILES CC(=O)CCC=C(C)CCC=C(C)C
REMARK SMILES IDX 7 1 6 2 8 3 9 4 10 5 11 6 13 7 12 8 14 9 5 10 4 11 2 12 3 13
REMARK SMILES IDX 1 14
REMARK H PARENT
REMARK Flexibility Score: inf
ROOT
ATOM      1  C   UNL     1      47.619  21.720  20.555  1.00  0.00    -0.077 C 
ATOM      2  C   UNL     1      48.153  22.755  21.243  1.00  0.00    -0.028 C 
ATOM      3  C   UNL     1      48.364  20.422  20.356  1.00  0.00     0.039 C 
ENDROOT
BRANCH   1   4
ATOM      4  C   UNL     1      46.236  21.872  19.963  1.00  0.00     0.034 C 
BRANCH   4   5
ATOM      5  C   UNL     1      45.170  21.824  21.062  1.00  0.00     0.032 C 
BRANCH   5   6
ATOM      6  C   UNL     1      44.040  22.774  20.754  1.00  0.00    -0.028 C 
ATOM      7  C   UNL     1      42.796  24.894  20.782  1.00  0.00     0.039 C 
ATOM      8  C   UNL     1      44.010  24.072  21.129  1.00  0.00    -0.080 C 
ATOM      9  C   UNL     1      45.161  24.718  21.865  1.00  0.00     0.039 C 
ENDBRANCH   5   6
ENDBRANCH   4   5
ENDBRANCH   1   4
BRANCH   2  10
ATOM     10  C   UNL     1      49.548  22.780  21.823  1.00  0.00     0.035 C 
BRANCH  10  11
ATOM     11  C   UNL     1      50.274  24.076  21.446  1.00  0.00     0.079 C 
BRANCH  11  12
ATOM     12  C   UNL     1      50.541  24.149  19.965  1.00  0.00     0.130 C 
ATOM     13  O   UNL     1      50.267  25.170  19.354  1.00  0.00    -0.300 OA
ATOM     14  C   UNL     1      51.140  22.990  19.223  1.00  0.00     0.087 C 
ENDBRANCH  11  12
ENDBRANCH  10  11
ENDBRANCH   2  10
TORSDOF 6
ENDMDL
MODEL 7
REMARK VINA RESULT:    -5.017      3.906      6.635
REMARK INTER + INTRA:          -7.460
REMARK INTER:                  -6.825
REMARK INTRA:                  -0.635
REMARK UNBOUND:                -0.683
REMARK SMILES CC(=O)CCC=C(C)CCC=C(C)C
REMARK SMILES IDX 7 1 6 2 8 3 9 4 10 5 11 6 13 7 12 8 14 9 5 10 4 11 2 12 3 13
REMARK SMILES IDX 1 14
REMARK H PARENT
REMARK Flexibility Score: inf
ROOT
ATOM      1  C   UNL     1      50.106  24.580  21.433  1.00  0.00    -0.077 C 
ATOM      2  C   UNL     1      49.787  23.271  21.543  1.00  0.00    -0.028 C 
ATOM      3  C   UNL     1      49.067  25.636  21.141  1.00  0.00     0.039 C 
ENDROOT
BRANCH   1   4
ATOM      4  C   UNL     1      51.550  24.998  21.604  1.00  0.00     0.034 C 
BRANCH   4   5
ATOM      5  C   UNL     1      51.643  26.483  21.968  1.00  0.00     0.032 C 
BRANCH   5   6
ATOM      6  C   UNL     1      52.122  26.657  23.387  1.00  0.00    -0.028 C 
ATOM      7  C   UNL     1      52.068  27.460  25.710  1.00  0.00     0.039 C 
ATOM      8  C   UNL     1      51.449  27.336  24.342  1.00  0.00    -0.080 C 
ATOM      9  C   UNL     1      50.094  27.953  24.079  1.00  0.00     0.039 C 
ENDBRANCH   5   6
ENDBRANCH   4   5
ENDBRANCH   1   4
BRANCH   2  10
ATOM     10  C   UNL     1      48.408  22.695  21.321  1.00  0.00     0.035 C 
BRANCH  10  11
ATOM     11  C   UNL     1      48.407  21.713  20.145  1.00  0.00     0.079 C 
BRANCH  11  12
ATOM     12  C   UNL     1      47.660  20.448  20.481  1.00  0.00     0.130 C 
ATOM     13  O   UNL     1      46.493  20.515  20.836  1.00  0.00    -0.300 OA
ATOM     14  C   UNL     1      48.321  19.105  20.385  1.00  0.00     0.087 C 
ENDBRANCH  11  12
ENDBRANCH  10  11
ENDBRANCH   2  10
TORSDOF 6
ENDMDL
MODEL 8
REMARK VINA RESULT:    -4.947      2.782      5.961
REMARK INTER + INTRA:          -7.365
REMARK INTER:                  -6.528
REMARK INTRA:                  -0.837
REMARK UNBOUND:                -0.683
REMARK SMILES CC(=O)CCC=C(C)CCC=C(C)C
REMARK SMILES IDX 7 1 6 2 8 3 9 4 10 5 11 6 13 7 12 8 14 9 5 10 4 11 2 12 3 13
REMARK SMILES IDX 1 14
REMARK H PARENT
REMARK Flexibility Score: inf
ROOT
ATOM      1  C   UNL     1      48.776  24.771  21.462  1.00  0.00    -0.077 C 
ATOM      2  C   UNL     1      49.529  23.657  21.322  1.00  0.00    -0.028 C 
ATOM      3  C   UNL     1      47.359  24.720  21.983  1.00  0.00     0.039 C 
ENDROOT
BRANCH   1   4
ATOM      4  C   UNL     1      49.371  26.109  21.081  1.00  0.00     0.034 C 
BRANCH   4   5
ATOM      5  C   UNL     1      50.682  25.916  20.311  1.00  0.00     0.032 C 
BRANCH   5   6
ATOM      6  C   UNL     1      50.489  26.213  18.845  1.00  0.00    -0.028 C 
ATOM      7  C   UNL     1      50.543  25.785  16.425  1.00  0.00     0.039 C 
ATOM      8  C   UNL     1      50.748  25.337  17.849  1.00  0.00    -0.080 C 
ATOM      9  C   UNL     1      51.216  23.926  18.126  1.00  0.00     0.039 C 
ENDBRANCH   5   6
ENDBRANCH   4   5
ENDBRANCH   1   4
BRANCH   2  10
ATOM     10  C   UNL     1      49.048  22.249  21.585  1.00  0.00     0.035 C 
BRANCH  10  11
ATOM     11  C   UNL     1      48.506  21.606  20.304  1.00  0.00     0.079 C 
BRANCH  11  12
ATOM     12  C   UNL     1      47.559  20.475  20.610  1.00  0.00     0.130 C 
ATOM     13  O   UNL     1      46.364  20.703  20.717  1.00  0.00    -0.300 OA
ATOM     14  C   UNL     1      48.055  19.070  20.785  1.00  0.00     0.087 C 
ENDBRANCH  11  12
ENDBRANCH  10  11
ENDBRANCH   2  10
TORSDOF 6
ENDMDL
MODEL 9
REMARK VINA RESULT:    -4.934      1.566      3.030
REMARK INTER + INTRA:          -7.347
REMARK INTER:                  -6.704
REMARK INTRA:                  -0.643
REMARK UNBOUND:                -0.683
REMARK SMILES CC(=O)CCC=C(C)CCC=C(C)C
REMARK SMILES IDX 7 1 6 2 8 3 9 4 10 5 11 6 13 7 12 8 14 9 5 10 4 11 2 12 3 13
REMARK SMILES IDX 1 14
REMARK H PARENT
REMARK Flexibility Score: inf
ROOT
ATOM      1  C   UNL     1      50.594  23.996  20.009  1.00  0.00    -0.077 C 
ATOM      2  C   UNL     1      50.475  25.195  19.395  1.00  0.00    -0.028 C 
ATOM      3  C   UNL     1      51.020  22.753  19.264  1.00  0.00     0.039 C 
ENDROOT
BRANCH   1   4
ATOM      4  C   UNL     1      50.285  23.898  21.487  1.00  0.00     0.034 C 
BRANCH   4   5
ATOM      5  C   UNL     1      49.425  22.663  21.778  1.00  0.00     0.032 C 
BRANCH   5   6
ATOM      6  C   UNL     1      48.087  22.769  21.091  1.00  0.00    -0.028 C 
ATOM      7  C   UNL     1      46.168  22.021  19.750  1.00  0.00     0.039 C 
ATOM      8  C   UNL     1      47.491  21.758  20.421  1.00  0.00    -0.080 C 
ATOM      9  C   UNL     1      48.104  20.379  20.345  1.00  0.00     0.039 C 
ENDBRANCH   5   6
ENDBRANCH   4   5
ENDBRANCH   1   4
BRANCH   2  10
ATOM     10  C   UNL     1      50.672  25.433  17.916  1.00  0.00     0.035 C 
BRANCH  10  11
ATOM     11  C   UNL     1      50.525  26.920  17.576  1.00  0.00     0.079 C 
BRANCH  11  12
ATOM     12  C   UNL     1      50.576  27.154  16.089  1.00  0.00     0.130 C 
ATOM     13  O   UNL     1      50.062  28.158  15.620  1.00  0.00    -0.300 OA
ATOM     14  C   UNL     1      51.250  26.179  15.169  1.00  0.00     0.087 C 
ENDBRANCH  11  12
ENDBRANCH  10  11
ENDBRANCH   2  10
TORSDOF 6
ENDMDL
