MODEL 1
REMARK VINA RESULT:    -5.812      0.000      0.000
REMARK INTER + INTRA:          -7.555
REMARK INTER:                  -7.171
REMARK INTRA:                  -0.384
REMARK UNBOUND:                -0.384
REMARK SMILES Oc1cc(O)c2cc(O)c(-c3cc(O)c(O)c(O)c3)[o+]c2c1
REMARK SMILES IDX 10 1 20 2 21 3 22 4 2 5 3 6 4 7 6 8 7 9 8 10 11 11 12 12
REMARK SMILES IDX 13 13 19 14 15 15 17 16 14 17 16 19 18 21 9 23 1 25 5 27
REMARK H PARENT 14 18 16 20 18 22 9 24 1 26 5 28
REMARK Flexibility Score: inf
ROOT
ATOM      1  C   UNL     1      -2.868  -1.651  23.382  1.00  0.00     0.402 A 
ATOM      2  O   UNL     1      -1.684  -1.259  22.920  1.00  0.00    -0.202 OA
ATOM      3  C   UNL     1      -0.542  -1.860  23.235  1.00  0.00     0.368 A 
ATOM      4  C   UNL     1       0.653  -1.375  22.697  1.00  0.00     0.162 A 
ATOM      5  C   UNL     1       1.867  -1.989  23.007  1.00  0.00     0.128 A 
ATOM      6  C   UNL     1       1.888  -3.098  23.862  1.00  0.00     0.093 A 
ATOM      7  C   UNL     1       0.705  -3.603  24.413  1.00  0.00     0.136 A 
ATOM      8  C   UNL     1      -0.531  -2.979  24.102  1.00  0.00     0.125 A 
ATOM      9  C   UNL     1      -1.764  -3.409  24.619  1.00  0.00     0.078 A 
ATOM     10  C   UNL     1      -2.941  -2.740  24.271  1.00  0.00     0.223 A 
ENDROOT
BRANCH   1  11
ATOM     11  C   UNL     1      -4.071  -0.903  22.950  1.00  0.00     0.091 A 
ATOM     12  C   UNL     1      -4.470   0.235  23.667  1.00  0.00     0.068 A 
ATOM     13  C   UNL     1      -5.591   0.972  23.270  1.00  0.00     0.162 A 
ATOM     14  C   UNL     1      -4.791  -1.276  21.803  1.00  0.00     0.068 A 
ATOM     15  C   UNL     1      -6.320   0.583  22.134  1.00  0.00     0.200 A 
ATOM     16  C   UNL     1      -5.916  -0.542  21.397  1.00  0.00     0.162 A 
BRANCH  13  17
ATOM     17  O   UNL     1      -5.963   2.088  24.019  1.00  0.00    -0.504 OA
ATOM     18  H   UNL     1      -5.851   3.033  23.670  1.00  0.00     0.293 HD
ENDBRANCH  13  17
BRANCH  15  19
ATOM     19  O   UNL     1      -7.440   1.323  21.747  1.00  0.00    -0.502 OA
ATOM     20  H   UNL     1      -7.635   2.243  22.123  1.00  0.00     0.293 HD
ENDBRANCH  15  19
BRANCH  16  21
ATOM     21  O   UNL     1      -6.626  -0.925  20.260  1.00  0.00    -0.504 OA
ATOM     22  H   UNL     1      -7.473  -0.448  19.976  1.00  0.00     0.293 HD
ENDBRANCH  16  21
ENDBRANCH   1  11
BRANCH  10  23
ATOM     23  O   UNL     1      -4.160  -3.135  24.823  1.00  0.00    -0.500 OA
ATOM     24  H   UNL     1      -4.245  -3.388  25.800  1.00  0.00     0.294 HD
ENDBRANCH  10  23
BRANCH   5  25
ATOM     25  O   UNL     1       3.048  -1.491  22.461  1.00  0.00    -0.507 OA
ATOM     26  H   UNL     1       3.944  -1.637  22.911  1.00  0.00     0.293 HD
ENDBRANCH   5  25
BRANCH   7  27
ATOM     27  O   UNL     1       0.810  -4.714  25.255  1.00  0.00    -0.507 OA
ATOM     28  H   UNL     1       0.486  -5.641  25.021  1.00  0.00     0.293 HD
ENDBRANCH   7  27
TORSDOF 7
ENDMDL
MODEL 2
REMARK VINA RESULT:    -5.607      1.275      7.095
REMARK INTER + INTRA:          -7.302
REMARK INTER:                  -6.922
REMARK INTRA:                  -0.380
REMARK UNBOUND:                -0.384
REMARK SMILES Oc1cc(O)c2cc(O)c(-c3cc(O)c(O)c(O)c3)[o+]c2c1
REMARK SMILES IDX 10 1 20 2 21 3 22 4 2 5 3 6 4 7 6 8 7 9 8 10 11 11 12 12
REMARK SMILES IDX 13 13 19 14 15 15 17 16 14 17 16 19 18 21 9 23 1 25 5 27
REMARK H PARENT 14 18 16 20 18 22 9 24 1 26 5 28
REMARK Flexibility Score: inf
ROOT
ATOM      1  C   UNL     1      -1.733  -1.464  23.676  1.00  0.00     0.402 A 
ATOM      2  O   UNL     1      -2.563  -1.443  22.636  1.00  0.00    -0.202 OA
ATOM      3  C   UNL     1      -3.704  -0.763  22.627  1.00  0.00     0.368 A 
ATOM      4  C   UNL     1      -4.509  -0.800  21.484  1.00  0.00     0.162 A 
ATOM      5  C   UNL     1      -5.711  -0.094  21.445  1.00  0.00     0.128 A 
ATOM      6  C   UNL     1      -6.114   0.658  22.555  1.00  0.00     0.093 A 
ATOM      7  C   UNL     1      -5.326   0.712  23.710  1.00  0.00     0.136 A 
ATOM      8  C   UNL     1      -4.104  -0.008  23.756  1.00  0.00     0.125 A 
ATOM      9  C   UNL     1      -3.258  -0.023  24.876  1.00  0.00     0.078 A 
ATOM     10  C   UNL     1      -2.070  -0.760  24.848  1.00  0.00     0.223 A 
ENDROOT
BRANCH   1  11
ATOM     11  C   UNL     1      -0.485  -2.253  23.562  1.00  0.00     0.091 A 
ATOM     12  C   UNL     1       0.694  -1.620  23.141  1.00  0.00     0.068 A 
ATOM     13  C   UNL     1       1.892  -2.336  23.043  1.00  0.00     0.162 A 
ATOM     14  C   UNL     1      -0.443  -3.611  23.920  1.00  0.00     0.068 A 
ATOM     15  C   UNL     1       1.925  -3.698  23.382  1.00  0.00     0.200 A 
ATOM     16  C   UNL     1       0.754  -4.335  23.826  1.00  0.00     0.162 A 
BRANCH  13  17
ATOM     17  O   UNL     1       3.039  -1.674  22.606  1.00  0.00    -0.504 OA
ATOM     18  H   UNL     1       3.028  -1.044  21.812  1.00  0.00     0.293 HD
ENDBRANCH  13  17
BRANCH  15  19
ATOM     19  O   UNL     1       3.125  -4.406  23.279  1.00  0.00    -0.502 OA
ATOM     20  H   UNL     1       3.282  -5.277  23.772  1.00  0.00     0.293 HD
ENDBRANCH  15  19
BRANCH  16  21
ATOM     21  O   UNL     1       0.783  -5.684  24.179  1.00  0.00    -0.504 OA
ATOM     22  H   UNL     1       0.173  -6.059  24.896  1.00  0.00     0.293 HD
ENDBRANCH  16  21
ENDBRANCH   1  11
BRANCH  10  23
ATOM     23  O   UNL     1      -1.253  -0.816  25.978  1.00  0.00    -0.500 OA
ATOM     24  H   UNL     1      -1.491  -0.325  26.831  1.00  0.00     0.294 HD
ENDBRANCH  10  23
BRANCH   5  25
ATOM     25  O   UNL     1      -6.499  -0.143  20.297  1.00  0.00    -0.507 OA
ATOM     26  H   UNL     1      -6.138   0.141  19.393  1.00  0.00     0.293 HD
ENDBRANCH   5  25
BRANCH   7  27
ATOM     27  O   UNL     1      -5.796   1.486  24.775  1.00  0.00    -0.507 OA
ATOM     28  H   UNL     1      -5.215   1.861  25.510  1.00  0.00     0.293 HD
ENDBRANCH   7  27
TORSDOF 7
ENDMDL
MODEL 3
REMARK VINA RESULT:    -5.409      1.933      7.494
REMARK INTER + INTRA:          -7.059
REMARK INTER:                  -6.678
REMARK INTRA:                  -0.380
REMARK UNBOUND:                -0.384
REMARK SMILES Oc1cc(O)c2cc(O)c(-c3cc(O)c(O)c(O)c3)[o+]c2c1
REMARK SMILES IDX 10 1 20 2 21 3 22 4 2 5 3 6 4 7 6 8 7 9 8 10 11 11 12 12
REMARK SMILES IDX 13 13 19 14 15 15 17 16 14 17 16 19 18 21 9 23 1 25 5 27
REMARK H PARENT 14 18 16 20 18 22 9 24 1 26 5 28
REMARK Flexibility Score: inf
ROOT
ATOM      1  C   UNL     1      -0.883  -1.659  22.358  1.00  0.00     0.402 A 
ATOM      2  O   UNL     1      -2.002  -1.197  22.911  1.00  0.00    -0.202 OA
ATOM      3  C   UNL     1      -2.961  -0.592  22.219  1.00  0.00     0.368 A 
ATOM      4  C   UNL     1      -4.103  -0.143  22.890  1.00  0.00     0.162 A 
ATOM      5  C   UNL     1      -5.128   0.493  22.190  1.00  0.00     0.128 A 
ATOM      6  C   UNL     1      -5.014   0.682  20.807  1.00  0.00     0.093 A 
ATOM      7  C   UNL     1      -3.882   0.241  20.113  1.00  0.00     0.136 A 
ATOM      8  C   UNL     1      -2.835  -0.404  20.822  1.00  0.00     0.125 A 
ATOM      9  C   UNL     1      -1.659  -0.866  20.211  1.00  0.00     0.078 A 
ATOM     10  C   UNL     1      -0.669  -1.488  20.977  1.00  0.00     0.223 A 
ENDROOT
BRANCH   1  11
ATOM     11  C   UNL     1       0.108  -2.324  23.234  1.00  0.00     0.091 A 
ATOM     12  C   UNL     1       0.054  -3.716  23.405  1.00  0.00     0.068 A 
ATOM     13  C   UNL     1       0.990  -4.374  24.210  1.00  0.00     0.162 A 
ATOM     14  C   UNL     1       1.140  -1.599  23.852  1.00  0.00     0.068 A 
ATOM     15  C   UNL     1       2.007  -3.642  24.844  1.00  0.00     0.200 A 
ATOM     16  C   UNL     1       2.084  -2.251  24.660  1.00  0.00     0.162 A 
BRANCH  13  17
ATOM     17  O   UNL     1       0.891  -5.756  24.367  1.00  0.00    -0.504 OA
ATOM     18  H   UNL     1       1.438  -6.260  25.055  1.00  0.00     0.293 HD
ENDBRANCH  13  17
BRANCH  15  19
ATOM     19  O   UNL     1       2.936  -4.305  25.648  1.00  0.00    -0.502 OA
ATOM     20  H   UNL     1       3.022  -4.118  26.640  1.00  0.00     0.293 HD
ENDBRANCH  15  19
BRANCH  16  21
ATOM     21  O   UNL     1       3.100  -1.519  25.274  1.00  0.00    -0.504 OA
ATOM     22  H   UNL     1       3.644  -0.834  24.764  1.00  0.00     0.293 HD
ENDBRANCH  16  21
ENDBRANCH   1  11
BRANCH  10  23
ATOM     23  O   UNL     1       0.522  -1.903  20.380  1.00  0.00    -0.500 OA
ATOM     24  H   UNL     1       1.375  -1.364  20.462  1.00  0.00     0.294 HD
ENDBRANCH  10  23
BRANCH   5  25
ATOM     25  O   UNL     1      -6.258   0.934  22.876  1.00  0.00    -0.507 OA
ATOM     26  H   UNL     1      -6.260   1.810  23.386  1.00  0.00     0.293 HD
ENDBRANCH   5  25
BRANCH   7  27
ATOM     27  O   UNL     1      -3.845   0.465  18.734  1.00  0.00    -0.507 OA
ATOM     28  H   UNL     1      -4.621   0.814  18.190  1.00  0.00     0.293 HD
ENDBRANCH   7  27
TORSDOF 7
ENDMDL
MODEL 4
REMARK VINA RESULT:    -5.389      1.869      6.937
REMARK INTER + INTRA:          -7.034
REMARK INTER:                  -6.659
REMARK INTRA:                  -0.374
REMARK UNBOUND:                -0.384
REMARK SMILES Oc1cc(O)c2cc(O)c(-c3cc(O)c(O)c(O)c3)[o+]c2c1
REMARK SMILES IDX 10 1 20 2 21 3 22 4 2 5 3 6 4 7 6 8 7 9 8 10 11 11 12 12
REMARK SMILES IDX 13 13 19 14 15 15 17 16 14 17 16 19 18 21 9 23 1 25 5 27
REMARK H PARENT 14 18 16 20 18 22 9 24 1 26 5 28
REMARK Flexibility Score: inf
ROOT
ATOM      1  C   UNL     1      -2.815  -1.229  23.419  1.00  0.00     0.402 A 
ATOM      2  O   UNL     1      -2.729  -0.946  22.122  1.00  0.00    -0.202 OA
ATOM      3  C   UNL     1      -3.737  -0.445  21.416  1.00  0.00     0.368 A 
ATOM      4  C   UNL     1      -3.548  -0.178  20.056  1.00  0.00     0.162 A 
ATOM      5  C   UNL     1      -4.588   0.351  19.290  1.00  0.00     0.128 A 
ATOM      6  C   UNL     1      -5.826   0.616  19.886  1.00  0.00     0.093 A 
ATOM      7  C   UNL     1      -6.040   0.359  21.245  1.00  0.00     0.136 A 
ATOM      8  C   UNL     1      -4.986  -0.183  22.027  1.00  0.00     0.125 A 
ATOM      9  C   UNL     1      -5.115  -0.485  23.392  1.00  0.00     0.078 A 
ATOM     10  C   UNL     1      -4.032  -1.021  24.096  1.00  0.00     0.223 A 
ENDROOT
BRANCH   1  11
ATOM     11  C   UNL     1      -1.619  -1.775  24.098  1.00  0.00     0.091 A 
ATOM     12  C   UNL     1      -1.293  -3.130  23.938  1.00  0.00     0.068 A 
ATOM     13  C   UNL     1      -0.157  -3.670  24.552  1.00  0.00     0.162 A 
ATOM     14  C   UNL     1      -0.767  -0.952  24.854  1.00  0.00     0.068 A 
ATOM     15  C   UNL     1       0.679  -2.847  25.325  1.00  0.00     0.200 A 
ATOM     16  C   UNL     1       0.374  -1.484  25.472  1.00  0.00     0.162 A 
BRANCH  13  17
ATOM     17  O   UNL     1       0.123  -5.025  24.381  1.00  0.00    -0.504 OA
ATOM     18  H   UNL     1       0.997  -5.437  24.684  1.00  0.00     0.293 HD
ENDBRANCH  13  17
BRANCH  15  19
ATOM     19  O   UNL     1       1.809  -3.394  25.936  1.00  0.00    -0.502 OA
ATOM     20  H   UNL     1       1.931  -4.393  26.051  1.00  0.00     0.293 HD
ENDBRANCH  15  19
BRANCH  16  21
ATOM     21  O   UNL     1       1.208  -0.658  26.225  1.00  0.00    -0.504 OA
ATOM     22  H   UNL     1       1.795   0.044  25.790  1.00  0.00     0.293 HD
ENDBRANCH  16  21
ENDBRANCH   1  11
BRANCH  10  23
ATOM     23  O   UNL     1      -4.174  -1.369  25.440  1.00  0.00    -0.500 OA
ATOM     24  H   UNL     1      -4.186  -0.669  26.172  1.00  0.00     0.294 HD
ENDBRANCH  10  23
BRANCH   5  25
ATOM     25  O   UNL     1      -4.380   0.610  17.938  1.00  0.00    -0.507 OA
ATOM     26  H   UNL     1      -4.029  -0.102  17.309  1.00  0.00     0.293 HD
ENDBRANCH   5  25
BRANCH   7  27
ATOM     27  O   UNL     1      -7.303   0.653  21.766  1.00  0.00    -0.507 OA
ATOM     28  H   UNL     1      -7.834   1.483  21.544  1.00  0.00     0.293 HD
ENDBRANCH   7  27
TORSDOF 7
ENDMDL
MODEL 5
REMARK VINA RESULT:    -5.386      3.827      7.032
REMARK INTER + INTRA:          -7.029
REMARK INTER:                  -6.668
REMARK INTRA:                  -0.361
REMARK UNBOUND:                -0.384
REMARK SMILES Oc1cc(O)c2cc(O)c(-c3cc(O)c(O)c(O)c3)[o+]c2c1
REMARK SMILES IDX 10 1 20 2 21 3 22 4 2 5 3 6 4 7 6 8 7 9 8 10 11 11 12 12
REMARK SMILES IDX 13 13 19 14 15 15 17 16 14 17 16 19 18 21 9 23 1 25 5 27
REMARK H PARENT 14 18 16 20 18 22 9 24 1 26 5 28
REMARK Flexibility Score: inf
ROOT
ATOM      1  C   UNL     1       0.948  -2.807  22.513  1.00  0.00     0.402 A 
ATOM      2  O   UNL     1      -0.251  -3.122  22.995  1.00  0.00    -0.202 OA
ATOM      3  C   UNL     1      -0.681  -2.741  24.192  1.00  0.00     0.368 A 
ATOM      4  C   UNL     1      -1.960  -3.121  24.609  1.00  0.00     0.162 A 
ATOM      5  C   UNL     1      -2.439  -2.732  25.861  1.00  0.00     0.128 A 
ATOM      6  C   UNL     1      -1.634  -1.956  26.704  1.00  0.00     0.093 A 
ATOM      7  C   UNL     1      -0.350  -1.562  26.310  1.00  0.00     0.136 A 
ATOM      8  C   UNL     1       0.141  -1.959  25.038  1.00  0.00     0.125 A 
ATOM      9  C   UNL     1       1.420  -1.622  24.566  1.00  0.00     0.078 A 
ATOM     10  C   UNL     1       1.837  -2.053  23.303  1.00  0.00     0.223 A 
ENDROOT
BRANCH   1  11
ATOM     11  C   UNL     1       1.308  -3.284  21.159  1.00  0.00     0.091 A 
ATOM     12  C   UNL     1       2.043  -4.471  21.019  1.00  0.00     0.068 A 
ATOM     13  C   UNL     1       2.380  -4.957  19.751  1.00  0.00     0.162 A 
ATOM     14  C   UNL     1       0.880  -2.605  20.006  1.00  0.00     0.068 A 
ATOM     15  C   UNL     1       1.968  -4.262  18.601  1.00  0.00     0.200 A 
ATOM     16  C   UNL     1       1.212  -3.085  18.731  1.00  0.00     0.162 A 
BRANCH  13  17
ATOM     17  O   UNL     1       3.124  -6.132  19.655  1.00  0.00    -0.504 OA
ATOM     18  H   UNL     1       3.951  -6.294  20.219  1.00  0.00     0.293 HD
ENDBRANCH  13  17
BRANCH  15  19
ATOM     19  O   UNL     1       2.311  -4.752  17.340  1.00  0.00    -0.502 OA
ATOM     20  H   UNL     1       3.078  -5.399  17.202  1.00  0.00     0.293 HD
ENDBRANCH  15  19
BRANCH  16  21
ATOM     21  O   UNL     1       0.787  -2.398  17.594  1.00  0.00    -0.504 OA
ATOM     22  H   UNL     1      -0.157  -2.492  17.238  1.00  0.00     0.293 HD
ENDBRANCH  16  21
ENDBRANCH   1  11
BRANCH  10  23
ATOM     23  O   UNL     1       3.125  -1.761  22.854  1.00  0.00    -0.500 OA
ATOM     24  H   UNL     1       3.298  -1.036  22.168  1.00  0.00     0.294 HD
ENDBRANCH  10  23
BRANCH   5  25
ATOM     25  O   UNL     1      -3.716  -3.121  26.258  1.00  0.00    -0.507 OA
ATOM     26  H   UNL     1      -3.944  -3.274  27.234  1.00  0.00     0.293 HD
ENDBRANCH   5  25
BRANCH   7  27
ATOM     27  O   UNL     1       0.389  -0.787  27.207  1.00  0.00    -0.507 OA
ATOM     28  H   UNL     1       0.503  -0.999  28.188  1.00  0.00     0.293 HD
ENDBRANCH   7  27
TORSDOF 7
ENDMDL
MODEL 6
REMARK VINA RESULT:    -5.379      5.401      6.985
REMARK INTER + INTRA:          -7.022
REMARK INTER:                  -6.709
REMARK INTRA:                  -0.312
REMARK UNBOUND:                -0.384
REMARK SMILES Oc1cc(O)c2cc(O)c(-c3cc(O)c(O)c(O)c3)[o+]c2c1
REMARK SMILES IDX 10 1 20 2 21 3 22 4 2 5 3 6 4 7 6 8 7 9 8 10 11 11 12 12
REMARK SMILES IDX 13 13 19 14 15 15 17 16 14 17 16 19 18 21 9 23 1 25 5 27
REMARK H PARENT 14 18 16 20 18 22 9 24 1 26 5 28
REMARK Flexibility Score: inf
ROOT
ATOM      1  C   UNL     1       1.848  -3.544  23.083  1.00  0.00     0.402 A 
ATOM      2  O   UNL     1       1.405  -2.940  21.983  1.00  0.00    -0.202 OA
ATOM      3  C   UNL     1       1.547  -3.447  20.764  1.00  0.00     0.368 A 
ATOM      4  C   UNL     1       1.046  -2.738  19.669  1.00  0.00     0.162 A 
ATOM      5  C   UNL     1       1.178  -3.248  18.377  1.00  0.00     0.128 A 
ATOM      6  C   UNL     1       1.815  -4.478  18.176  1.00  0.00     0.093 A 
ATOM      7  C   UNL     1       2.325  -5.208  19.255  1.00  0.00     0.136 A 
ATOM      8  C   UNL     1       2.196  -4.691  20.571  1.00  0.00     0.125 A 
ATOM      9  C   UNL     1       2.688  -5.347  21.710  1.00  0.00     0.078 A 
ATOM     10  C   UNL     1       2.527  -4.773  22.975  1.00  0.00     0.223 A 
ENDROOT
BRANCH   1  11
ATOM     11  C   UNL     1       1.621  -2.881  24.387  1.00  0.00     0.091 A 
ATOM     12  C   UNL     1       0.670  -3.409  25.272  1.00  0.00     0.068 A 
ATOM     13  C   UNL     1       0.448  -2.815  26.520  1.00  0.00     0.162 A 
ATOM     14  C   UNL     1       2.378  -1.766  24.782  1.00  0.00     0.068 A 
ATOM     15  C   UNL     1       1.193  -1.688  26.902  1.00  0.00     0.200 A 
ATOM     16  C   UNL     1       2.164  -1.165  26.031  1.00  0.00     0.162 A 
BRANCH  13  17
ATOM     17  O   UNL     1      -0.517  -3.362  27.365  1.00  0.00    -0.504 OA
ATOM     18  H   UNL     1      -0.290  -4.064  28.060  1.00  0.00     0.293 HD
ENDBRANCH  13  17
BRANCH  15  19
ATOM     19  O   UNL     1       0.964  -1.099  28.147  1.00  0.00    -0.502 OA
ATOM     20  H   UNL     1       1.721  -0.783  28.742  1.00  0.00     0.293 HD
ENDBRANCH  15  19
BRANCH  16  21
ATOM     21  O   UNL     1       2.918  -0.055  26.410  1.00  0.00    -0.504 OA
ATOM     22  H   UNL     1       2.954   0.261  27.371  1.00  0.00     0.293 HD
ENDBRANCH  16  21
ENDBRANCH   1  11
BRANCH  10  23
ATOM     23  O   UNL     1       3.060  -5.399  24.102  1.00  0.00    -0.500 OA
ATOM     24  H   UNL     1       3.516  -4.873  24.837  1.00  0.00     0.294 HD
ENDBRANCH  10  23
BRANCH   5  25
ATOM     25  O   UNL     1       0.672  -2.526  17.298  1.00  0.00    -0.507 OA
ATOM     26  H   UNL     1       1.283  -2.096  16.614  1.00  0.00     0.293 HD
ENDBRANCH   5  25
BRANCH   7  27
ATOM     27  O   UNL     1       2.945  -6.428  18.972  1.00  0.00    -0.507 OA
ATOM     28  H   UNL     1       2.464  -7.250  18.637  1.00  0.00     0.293 HD
ENDBRANCH   7  27
TORSDOF 7
ENDMDL
MODEL 7
REMARK VINA RESULT:    -5.363      1.969      7.329
REMARK INTER + INTRA:          -7.001
REMARK INTER:                  -6.617
REMARK INTRA:                  -0.385
REMARK UNBOUND:                -0.384
REMARK SMILES Oc1cc(O)c2cc(O)c(-c3cc(O)c(O)c(O)c3)[o+]c2c1
REMARK SMILES IDX 10 1 20 2 21 3 22 4 2 5 3 6 4 7 6 8 7 9 8 10 11 11 12 12
REMARK SMILES IDX 13 13 19 14 15 15 17 16 14 17 16 19 18 21 9 23 1 25 5 27
REMARK H PARENT 14 18 16 20 18 22 9 24 1 26 5 28
REMARK Flexibility Score: inf
ROOT
ATOM      1  C   UNL     1      -0.838  -1.677  22.316  1.00  0.00     0.402 A 
ATOM      2  O   UNL     1      -1.969  -1.244  22.865  1.00  0.00    -0.202 OA
ATOM      3  C   UNL     1      -2.926  -0.629  22.178  1.00  0.00     0.368 A 
ATOM      4  C   UNL     1      -4.081  -0.212  22.845  1.00  0.00     0.162 A 
ATOM      5  C   UNL     1      -5.104   0.433  22.149  1.00  0.00     0.128 A 
ATOM      6  C   UNL     1      -4.972   0.664  20.774  1.00  0.00     0.093 A 
ATOM      7  C   UNL     1      -3.826   0.255  20.083  1.00  0.00     0.136 A 
ATOM      8  C   UNL     1      -2.782  -0.399  20.789  1.00  0.00     0.125 A 
ATOM      9  C   UNL     1      -1.592  -0.830  20.182  1.00  0.00     0.078 A 
ATOM     10  C   UNL     1      -0.606  -1.464  20.944  1.00  0.00     0.223 A 
ENDROOT
BRANCH   1  11
ATOM     11  C   UNL     1       0.149  -2.357  23.186  1.00  0.00     0.091 A 
ATOM     12  C   UNL     1       1.080  -1.590  23.902  1.00  0.00     0.068 A 
ATOM     13  C   UNL     1       2.011  -2.204  24.748  1.00  0.00     0.162 A 
ATOM     14  C   UNL     1       0.136  -3.752  23.355  1.00  0.00     0.068 A 
ATOM     15  C   UNL     1       2.008  -3.601  24.897  1.00  0.00     0.200 A 
ATOM     16  C   UNL     1       1.065  -4.375  24.201  1.00  0.00     0.162 A 
BRANCH  13  17
ATOM     17  O   UNL     1       2.929  -1.407  25.430  1.00  0.00    -0.504 OA
ATOM     18  H   UNL     1       3.801  -1.778  25.789  1.00  0.00     0.293 HD
ENDBRANCH  13  17
BRANCH  15  19
ATOM     19  O   UNL     1       2.943  -4.205  25.740  1.00  0.00    -0.502 OA
ATOM     20  H   UNL     1       3.887  -3.854  25.840  1.00  0.00     0.293 HD
ENDBRANCH  15  19
BRANCH  16  21
ATOM     21  O   UNL     1       1.047  -5.761  24.356  1.00  0.00    -0.504 OA
ATOM     22  H   UNL     1       0.974  -6.193  25.270  1.00  0.00     0.293 HD
ENDBRANCH  16  21
ENDBRANCH   1  11
BRANCH  10  23
ATOM     23  O   UNL     1       0.597  -1.849  20.352  1.00  0.00    -0.500 OA
ATOM     24  H   UNL     1       0.628  -2.525  19.599  1.00  0.00     0.294 HD
ENDBRANCH  10  23
BRANCH   5  25
ATOM     25  O   UNL     1      -6.248   0.842  22.831  1.00  0.00    -0.507 OA
ATOM     26  H   UNL     1      -6.248   1.667  23.419  1.00  0.00     0.293 HD
ENDBRANCH   5  25
BRANCH   7  27
ATOM     27  O   UNL     1      -3.772   0.519  18.712  1.00  0.00    -0.507 OA
ATOM     28  H   UNL     1      -3.791  -0.188  17.992  1.00  0.00     0.293 HD
ENDBRANCH   7  27
TORSDOF 7
ENDMDL
MODEL 8
REMARK VINA RESULT:    -5.236      1.186      3.144
REMARK INTER + INTRA:          -6.844
REMARK INTER:                  -6.667
REMARK INTRA:                  -0.177
REMARK UNBOUND:                -0.384
REMARK SMILES Oc1cc(O)c2cc(O)c(-c3cc(O)c(O)c(O)c3)[o+]c2c1
REMARK SMILES IDX 10 1 20 2 21 3 22 4 2 5 3 6 4 7 6 8 7 9 8 10 11 11 12 12
REMARK SMILES IDX 13 13 19 14 15 15 17 16 14 17 16 19 18 21 9 23 1 25 5 27
REMARK H PARENT 14 18 16 20 18 22 9 24 1 26 5 28
REMARK Flexibility Score: inf
ROOT
ATOM      1  C   UNL     1      -2.265  -1.021  22.126  1.00  0.00     0.402 A 
ATOM      2  O   UNL     1      -1.945  -1.693  23.229  1.00  0.00    -0.202 OA
ATOM      3  C   UNL     1      -0.757  -2.253  23.423  1.00  0.00     0.368 A 
ATOM      4  C   UNL     1      -0.514  -2.937  24.618  1.00  0.00     0.162 A 
ATOM      5  C   UNL     1       0.725  -3.533  24.851  1.00  0.00     0.128 A 
ATOM      6  C   UNL     1       1.733  -3.445  23.883  1.00  0.00     0.093 A 
ATOM      7  C   UNL     1       1.516  -2.765  22.679  1.00  0.00     0.136 A 
ATOM      8  C   UNL     1       0.255  -2.160  22.437  1.00  0.00     0.125 A 
ATOM      9  C   UNL     1      -0.057  -1.471  21.254  1.00  0.00     0.078 A 
ATOM     10  C   UNL     1      -1.324  -0.905  21.085  1.00  0.00     0.223 A 
ENDROOT
BRANCH   1  11
ATOM     11  C   UNL     1      -3.621  -0.433  22.031  1.00  0.00     0.091 A 
ATOM     12  C   UNL     1      -4.499  -0.883  21.034  1.00  0.00     0.068 A 
ATOM     13  C   UNL     1      -5.793  -0.360  20.933  1.00  0.00     0.162 A 
ATOM     14  C   UNL     1      -4.069   0.525  22.956  1.00  0.00     0.068 A 
ATOM     15  C   UNL     1      -6.229   0.614  21.847  1.00  0.00     0.200 A 
ATOM     16  C   UNL     1      -5.365   1.054  22.863  1.00  0.00     0.162 A 
BRANCH  13  17
ATOM     17  O   UNL     1      -6.630  -0.822  19.918  1.00  0.00    -0.504 OA
ATOM     18  H   UNL     1      -6.268  -1.247  19.072  1.00  0.00     0.293 HD
ENDBRANCH  13  17
BRANCH  15  19
ATOM     19  O   UNL     1      -7.521   1.132  21.738  1.00  0.00    -0.502 OA
ATOM     20  H   UNL     1      -8.346   0.556  21.856  1.00  0.00     0.293 HD
ENDBRANCH  15  19
BRANCH  16  21
ATOM     21  O   UNL     1      -5.796   2.009  23.783  1.00  0.00    -0.504 OA
ATOM     22  H   UNL     1      -6.734   2.389  23.755  1.00  0.00     0.293 HD
ENDBRANCH  16  21
ENDBRANCH   1  11
BRANCH  10  23
ATOM     23  O   UNL     1      -1.651  -0.263  19.891  1.00  0.00    -0.500 OA
ATOM     24  H   UNL     1      -2.329  -0.651  19.246  1.00  0.00     0.294 HD
ENDBRANCH  10  23
BRANCH   5  25
ATOM     25  O   UNL     1       0.948  -4.210  26.048  1.00  0.00    -0.507 OA
ATOM     26  H   UNL     1       0.287  -4.891  26.402  1.00  0.00     0.293 HD
ENDBRANCH   5  25
BRANCH   7  27
ATOM     27  O   UNL     1       2.573  -2.720  21.765  1.00  0.00    -0.507 OA
ATOM     28  H   UNL     1       2.546  -2.228  20.884  1.00  0.00     0.293 HD
ENDBRANCH   7  27
TORSDOF 7
ENDMDL
MODEL 9
REMARK VINA RESULT:    -5.177      3.262      7.294
REMARK INTER + INTRA:          -6.772
REMARK INTER:                  -6.421
REMARK INTRA:                  -0.351
REMARK UNBOUND:                -0.384
REMARK SMILES Oc1cc(O)c2cc(O)c(-c3cc(O)c(O)c(O)c3)[o+]c2c1
REMARK SMILES IDX 10 1 20 2 21 3 22 4 2 5 3 6 4 7 6 8 7 9 8 10 11 11 12 12
REMARK SMILES IDX 13 13 19 14 15 15 17 16 14 17 16 19 18 21 9 23 1 25 5 27
REMARK H PARENT 14 18 16 20 18 22 9 24 1 26 5 28
REMARK Flexibility Score: inf
ROOT
ATOM      1  C   UNL     1      -1.381  -2.141  25.478  1.00  0.00     0.402 A 
ATOM      2  O   UNL     1      -1.251  -1.896  26.779  1.00  0.00    -0.202 OA
ATOM      3  C   UNL     1      -2.250  -1.474  27.546  1.00  0.00     0.368 A 
ATOM      4  C   UNL     1      -2.015  -1.246  28.905  1.00  0.00     0.162 A 
ATOM      5  C   UNL     1      -3.046  -0.806  29.735  1.00  0.00     0.128 A 
ATOM      6  C   UNL     1      -4.324  -0.592  29.205  1.00  0.00     0.093 A 
ATOM      7  C   UNL     1      -4.586  -0.814  27.848  1.00  0.00     0.136 A 
ATOM      8  C   UNL     1      -3.538  -1.259  26.999  1.00  0.00     0.125 A 
ATOM      9  C   UNL     1      -3.705  -1.493  25.625  1.00  0.00     0.078 A 
ATOM     10  C   UNL     1      -2.624  -1.926  24.851  1.00  0.00     0.223 A 
ENDROOT
BRANCH   1  11
ATOM     11  C   UNL     1      -0.194  -2.616  24.731  1.00  0.00     0.091 A 
ATOM     12  C   UNL     1      -0.078  -3.978  24.416  1.00  0.00     0.068 A 
ATOM     13  C   UNL     1       1.023  -4.453  23.694  1.00  0.00     0.162 A 
ATOM     14  C   UNL     1       0.793  -1.723  24.281  1.00  0.00     0.068 A 
ATOM     15  C   UNL     1       2.018  -3.559  23.264  1.00  0.00     0.200 A 
ATOM     16  C   UNL     1       1.899  -2.190  23.556  1.00  0.00     0.162 A 
BRANCH  13  17
ATOM     17  O   UNL     1       1.109  -5.816  23.414  1.00  0.00    -0.504 OA
ATOM     18  H   UNL     1       0.453  -6.282  22.798  1.00  0.00     0.293 HD
ENDBRANCH  13  17
BRANCH  15  19
ATOM     19  O   UNL     1       3.115  -4.041  22.547  1.00  0.00    -0.502 OA
ATOM     20  H   UNL     1       3.990  -3.534  22.495  1.00  0.00     0.293 HD
ENDBRANCH  15  19
BRANCH  16  21
ATOM     21  O   UNL     1       2.875  -1.294  23.121  1.00  0.00    -0.504 OA
ATOM     22  H   UNL     1       2.851  -0.893  22.191  1.00  0.00     0.293 HD
ENDBRANCH  16  21
ENDBRANCH   1  11
BRANCH  10  23
ATOM     23  O   UNL     1      -2.776  -2.112  23.477  1.00  0.00    -0.500 OA
ATOM     24  H   UNL     1      -2.059  -2.559  22.918  1.00  0.00     0.294 HD
ENDBRANCH  10  23
BRANCH   5  25
ATOM     25  O   UNL     1      -2.793  -0.585  31.087  1.00  0.00    -0.507 OA
ATOM     26  H   UNL     1      -1.900  -0.227  31.407  1.00  0.00     0.293 HD
ENDBRANCH   5  25
BRANCH   7  27
ATOM     27  O   UNL     1      -5.887  -0.580  27.396  1.00  0.00    -0.507 OA
ATOM     28  H   UNL     1      -6.704  -1.074  27.724  1.00  0.00     0.293 HD
ENDBRANCH   7  27
TORSDOF 7
ENDMDL
