MODEL 1
REMARK VINA RESULT:    -3.428      0.000      0.000
REMARK INTER + INTRA:          -3.726
REMARK INTER:                  -3.628
REMARK INTRA:                  -0.098
REMARK UNBOUND:                -0.098
REMARK SMILES C=C(C)[C@H]1CC=C(C)C(=O)C1
REMARK SMILES IDX 8 1 7 2 6 3 5 4 4 5 11 6 9 7 10 8 2 9 1 10 3 11
REMARK H PARENT
REMARK Flexibility Score: inf
ROOT
ATOM      1  C   UNL     1       7.504 -34.644  12.912  1.00  0.00     0.048 C 
ATOM      2  C   UNL     1       8.078 -33.905  14.091  1.00  0.00    -0.012 C 
ATOM      3  C   UNL     1       8.864 -32.833  13.898  1.00  0.00    -0.019 C 
ATOM      4  C   UNL     1       9.526 -32.111  15.042  1.00  0.00     0.036 C 
ATOM      5  C   UNL     1       8.676 -32.203  16.325  1.00  0.00     0.025 C 
ATOM      6  C   UNL     1       8.373 -33.675  16.661  1.00  0.00     0.089 C 
ATOM      7  C   UNL     1       7.793 -34.383  15.467  1.00  0.00     0.158 C 
ATOM      8  O   UNL     1       7.096 -35.418  15.646  1.00  0.00    -0.295 OA
ENDROOT
BRANCH   5   9
ATOM      9  C   UNL     1       9.341 -31.486  17.492  1.00  0.00    -0.077 C 
ATOM     10  C   UNL     1       8.921 -31.669  18.757  1.00  0.00     0.008 C 
ATOM     11  C   UNL     1      10.494 -30.548  17.245  1.00  0.00     0.039 C 
ENDBRANCH   5   9
TORSDOF 1
ENDMDL
MODEL 2
REMARK VINA RESULT:    -3.408      1.487      2.240
REMARK INTER + INTRA:          -3.705
REMARK INTER:                  -3.608
REMARK INTRA:                  -0.096
REMARK UNBOUND:                -0.098
REMARK SMILES C=C(C)[C@H]1CC=C(C)C(=O)C1
REMARK SMILES IDX 8 1 7 2 6 3 5 4 4 5 11 6 9 7 10 8 2 9 1 10 3 11
REMARK H PARENT
REMARK Flexibility Score: inf
ROOT
ATOM      1  C   UNL     1       7.026 -34.352  12.903  1.00  0.00     0.048 C 
ATOM      2  C   UNL     1       7.623 -33.509  13.998  1.00  0.00    -0.012 C 
ATOM      3  C   UNL     1       6.876 -33.147  15.055  1.00  0.00    -0.019 C 
ATOM      4  C   UNL     1       7.405 -32.239  16.134  1.00  0.00     0.036 C 
ATOM      5  C   UNL     1       8.927 -32.409  16.307  1.00  0.00     0.025 C 
ATOM      6  C   UNL     1       9.646 -32.197  14.962  1.00  0.00     0.089 C 
ATOM      7  C   UNL     1       9.033 -33.058  13.892  1.00  0.00     0.158 C 
ATOM      8  O   UNL     1       9.718 -33.357  12.877  1.00  0.00    -0.295 OA
ENDROOT
BRANCH   5   9
ATOM      9  C   UNL     1       9.476 -31.487  17.388  1.00  0.00    -0.077 C 
ATOM     10  C   UNL     1      10.460 -30.608  17.126  1.00  0.00     0.008 C 
ATOM     11  C   UNL     1       8.917 -31.545  18.786  1.00  0.00     0.039 C 
ENDBRANCH   5   9
TORSDOF 1
ENDMDL
MODEL 3
REMARK VINA RESULT:    -3.284      2.177      4.732
REMARK INTER + INTRA:          -3.574
REMARK INTER:                  -3.479
REMARK INTRA:                  -0.095
REMARK UNBOUND:                -0.098
REMARK SMILES C=C(C)[C@H]1CC=C(C)C(=O)C1
REMARK SMILES IDX 8 1 7 2 6 3 5 4 4 5 11 6 9 7 10 8 2 9 1 10 3 11
REMARK H PARENT
REMARK Flexibility Score: inf
ROOT
ATOM      1  C   UNL     1       9.261 -31.428  19.169  1.00  0.00     0.048 C 
ATOM      2  C   UNL     1       9.084 -31.874  17.743  1.00  0.00    -0.012 C 
ATOM      3  C   UNL     1       8.117 -32.751  17.425  1.00  0.00    -0.019 C 
ATOM      4  C   UNL     1       7.953 -33.287  16.027  1.00  0.00     0.036 C 
ATOM      5  C   UNL     1       8.411 -32.256  14.978  1.00  0.00     0.025 C 
ATOM      6  C   UNL     1       9.856 -31.807  15.264  1.00  0.00     0.089 C 
ATOM      7  C   UNL     1       9.999 -31.360  16.693  1.00  0.00     0.158 C 
ATOM      8  O   UNL     1      10.936 -30.574  17.000  1.00  0.00    -0.295 OA
ENDROOT
BRANCH   5   9
ATOM      9  C   UNL     1       8.260 -32.791  13.560  1.00  0.00    -0.077 C 
ATOM     10  C   UNL     1       9.307 -33.308  12.892  1.00  0.00     0.008 C 
ATOM     11  C   UNL     1       6.918 -32.750  12.875  1.00  0.00     0.039 C 
ENDBRANCH   5   9
TORSDOF 1
ENDMDL
MODEL 4
REMARK VINA RESULT:    -3.243      2.291      4.371
REMARK INTER + INTRA:          -3.530
REMARK INTER:                  -3.435
REMARK INTRA:                  -0.095
REMARK UNBOUND:                -0.098
REMARK SMILES C=C(C)[C@H]1CC=C(C)C(=O)C1
REMARK SMILES IDX 8 1 7 2 6 3 5 4 4 5 11 6 9 7 10 8 2 9 1 10 3 11
REMARK H PARENT
REMARK Flexibility Score: inf
ROOT
ATOM      1  C   UNL     1      11.872 -31.281  14.380  1.00  0.00     0.048 C 
ATOM      2  C   UNL     1      10.496 -31.878  14.262  1.00  0.00    -0.012 C 
ATOM      3  C   UNL     1      10.073 -32.374  13.088  1.00  0.00    -0.019 C 
ATOM      4  C   UNL     1       8.677 -32.908  12.901  1.00  0.00     0.036 C 
ATOM      5  C   UNL     1       8.129 -33.504  14.213  1.00  0.00     0.025 C 
ATOM      6  C   UNL     1       8.210 -32.465  15.347  1.00  0.00     0.089 C 
ATOM      7  C   UNL     1       9.598 -31.893  15.444  1.00  0.00     0.158 C 
ATOM      8  O   UNL     1       9.977 -31.384  16.534  1.00  0.00    -0.295 OA
ENDROOT
BRANCH   5   9
ATOM      9  C   UNL     1       6.713 -34.037  14.039  1.00  0.00    -0.077 C 
ATOM     10  C   UNL     1       5.887 -33.538  13.102  1.00  0.00     0.008 C 
ATOM     11  C   UNL     1       6.208 -35.145  14.927  1.00  0.00     0.039 C 
ENDBRANCH   5   9
TORSDOF 1
ENDMDL
MODEL 5
REMARK VINA RESULT:    -3.157      2.120      4.730
REMARK INTER + INTRA:          -3.440
REMARK INTER:                  -3.350
REMARK INTRA:                  -0.090
REMARK UNBOUND:                -0.098
REMARK SMILES C=C(C)[C@H]1CC=C(C)C(=O)C1
REMARK SMILES IDX 8 1 7 2 6 3 5 4 4 5 11 6 9 7 10 8 2 9 1 10 3 11
REMARK H PARENT
REMARK Flexibility Score: inf
ROOT
ATOM      1  C   UNL     1      10.749 -30.602  16.999  1.00  0.00     0.048 C 
ATOM      2  C   UNL     1       9.886 -31.483  16.137  1.00  0.00    -0.012 C 
ATOM      3  C   UNL     1       8.709 -31.936  16.599  1.00  0.00    -0.019 C 
ATOM      4  C   UNL     1       7.850 -32.884  15.805  1.00  0.00     0.036 C 
ATOM      5  C   UNL     1       8.031 -32.664  14.290  1.00  0.00     0.025 C 
ATOM      6  C   UNL     1       9.520 -32.766  13.909  1.00  0.00     0.089 C 
ATOM      7  C   UNL     1      10.354 -31.869  14.782  1.00  0.00     0.158 C 
ATOM      8  O   UNL     1      11.480 -31.483  14.367  1.00  0.00    -0.295 OA
ENDROOT
BRANCH   5   9
ATOM      9  C   UNL     1       7.175 -33.625  13.476  1.00  0.00    -0.077 C 
ATOM     10  C   UNL     1       5.875 -33.375  13.238  1.00  0.00     0.008 C 
ATOM     11  C   UNL     1       7.779 -34.887  12.917  1.00  0.00     0.039 C 
ENDBRANCH   5   9
TORSDOF 1
ENDMDL
MODEL 6
REMARK VINA RESULT:    -3.025      1.632      4.349
REMARK INTER + INTRA:          -3.300
REMARK INTER:                  -3.211
REMARK INTRA:                  -0.088
REMARK UNBOUND:                -0.098
REMARK SMILES C=C(C)[C@H]1CC=C(C)C(=O)C1
REMARK SMILES IDX 8 1 7 2 6 3 5 4 4 5 11 6 9 7 10 8 2 9 1 10 3 11
REMARK H PARENT
REMARK Flexibility Score: inf
ROOT
ATOM      1  C   UNL     1      10.556 -30.760  17.001  1.00  0.00     0.048 C 
ATOM      2  C   UNL     1       9.717 -31.665  16.140  1.00  0.00    -0.012 C 
ATOM      3  C   UNL     1      10.067 -31.898  14.865  1.00  0.00    -0.019 C 
ATOM      4  C   UNL     1       9.217 -32.731  13.942  1.00  0.00     0.036 C 
ATOM      5  C   UNL     1       8.443 -33.812  14.722  1.00  0.00     0.025 C 
ATOM      6  C   UNL     1       7.619 -33.169  15.853  1.00  0.00     0.089 C 
ATOM      7  C   UNL     1       8.486 -32.278  16.700  1.00  0.00     0.158 C 
ATOM      8  O   UNL     1       8.132 -32.021  17.882  1.00  0.00    -0.295 OA
ENDROOT
BRANCH   5   9
ATOM      9  C   UNL     1       7.570 -34.653  13.800  1.00  0.00    -0.077 C 
ATOM     10  C   UNL     1       7.834 -35.954  13.580  1.00  0.00     0.008 C 
ATOM     11  C   UNL     1       6.382 -34.034  13.110  1.00  0.00     0.039 C 
ENDBRANCH   5   9
TORSDOF 1
ENDMDL
MODEL 7
REMARK VINA RESULT:    -2.885      2.442      4.480
REMARK INTER + INTRA:          -3.151
REMARK INTER:                  -3.062
REMARK INTRA:                  -0.089
REMARK UNBOUND:                -0.098
REMARK SMILES C=C(C)[C@H]1CC=C(C)C(=O)C1
REMARK SMILES IDX 8 1 7 2 6 3 5 4 4 5 11 6 9 7 10 8 2 9 1 10 3 11
REMARK H PARENT
REMARK Flexibility Score: inf
ROOT
ATOM      1  C   UNL     1      11.849 -31.243  14.311  1.00  0.00     0.048 C 
ATOM      2  C   UNL     1      10.664 -32.167  14.390  1.00  0.00    -0.012 C 
ATOM      3  C   UNL     1       9.626 -31.867  15.188  1.00  0.00    -0.019 C 
ATOM      4  C   UNL     1       8.455 -32.799  15.360  1.00  0.00     0.036 C 
ATOM      5  C   UNL     1       8.211 -33.629  14.085  1.00  0.00     0.025 C 
ATOM      6  C   UNL     1       9.496 -34.375  13.678  1.00  0.00     0.089 C 
ATOM      7  C   UNL     1      10.659 -33.424  13.600  1.00  0.00     0.158 C 
ATOM      8  O   UNL     1      11.654 -33.729  12.889  1.00  0.00    -0.295 OA
ENDROOT
BRANCH   5   9
ATOM      9  C   UNL     1       7.036 -34.583  14.251  1.00  0.00    -0.077 C 
ATOM     10  C   UNL     1       6.018 -34.600  13.373  1.00  0.00     0.008 C 
ATOM     11  C   UNL     1       6.996 -35.536  15.418  1.00  0.00     0.039 C 
ENDBRANCH   5   9
TORSDOF 1
ENDMDL
