MODEL 1
REMARK VINA RESULT:    -5.653      0.000      0.000
REMARK INTER + INTRA:          -6.023
REMARK INTER:                  -5.984
REMARK INTRA:                  -0.039
REMARK UNBOUND:                -0.039
REMARK SMILES COc1ccc2ccc(=O)oc2c1
REMARK SMILES IDX 3 1 13 2 12 3 6 4 5 5 4 6 7 7 8 8 9 9 10 10 11 11 2 12 1 13
REMARK H PARENT
REMARK Flexibility Score: inf
ROOT
ATOM      1  C   UNL     1      13.033  10.441  14.139  1.00  0.00     0.122 A 
ATOM      2  C   UNL     1      12.245   9.772  13.181  1.00  0.00     0.094 A 
ATOM      3  C   UNL     1      10.866   9.630  13.377  1.00  0.00     0.142 A 
ATOM      4  C   UNL     1      10.263  10.158  14.539  1.00  0.00     0.018 A 
ATOM      5  C   UNL     1      11.047  10.822  15.491  1.00  0.00     0.016 A 
ATOM      6  C   UNL     1      12.423  10.961  15.289  1.00  0.00     0.047 A 
ATOM      7  C   UNL     1       8.884   9.999  14.707  1.00  0.00     0.019 A 
ATOM      8  C   UNL     1       8.149   9.330  13.729  1.00  0.00     0.094 A 
ATOM      9  C   UNL     1       8.813   8.833  12.603  1.00  0.00     0.336 A 
ATOM     10  O   UNL     1       8.168   8.225  11.710  1.00  0.00    -0.246 OA
ATOM     11  O   UNL     1      10.127   8.998  12.468  1.00  0.00    -0.423 OA
ENDROOT
BRANCH   1  12
ATOM     12  O   UNL     1      14.417  10.610  13.988  1.00  0.00    -0.497 OA
ATOM     13  C   UNL     1      15.177  10.084  12.905  1.00  0.00     0.278 C 
ENDBRANCH   1  12
TORSDOF 1
ENDMDL
MODEL 2
REMARK VINA RESULT:    -5.509      1.171      4.548
REMARK INTER + INTRA:          -5.870
REMARK INTER:                  -5.832
REMARK INTRA:                  -0.039
REMARK UNBOUND:                -0.039
REMARK SMILES COc1ccc2ccc(=O)oc2c1
REMARK SMILES IDX 3 1 13 2 12 3 6 4 5 5 4 6 7 7 8 8 9 9 10 10 11 11 2 12 1 13
REMARK H PARENT
REMARK Flexibility Score: inf
ROOT
ATOM      1  C   UNL     1       8.902   8.692  12.230  1.00  0.00     0.122 A 
ATOM      2  C   UNL     1      10.278   8.999  12.205  1.00  0.00     0.094 A 
ATOM      3  C   UNL     1      10.866   9.688  13.272  1.00  0.00     0.142 A 
ATOM      4  C   UNL     1      10.079  10.075  14.378  1.00  0.00     0.018 A 
ATOM      5  C   UNL     1       8.712   9.771  14.402  1.00  0.00     0.016 A 
ATOM      6  C   UNL     1       8.131   9.083  13.333  1.00  0.00     0.047 A 
ATOM      7  C   UNL     1      10.695  10.762  15.428  1.00  0.00     0.019 A 
ATOM      8  C   UNL     1      12.060  11.041  15.355  1.00  0.00     0.094 A 
ATOM      9  C   UNL     1      12.777  10.626  14.229  1.00  0.00     0.336 A 
ATOM     10  O   UNL     1      14.009  10.869  14.144  1.00  0.00    -0.246 OA
ATOM     11  O   UNL     1      12.166   9.974  13.243  1.00  0.00    -0.423 OA
ENDROOT
BRANCH   1  12
ATOM     12  O   UNL     1       8.267   8.004  11.185  1.00  0.00    -0.497 OA
ATOM     13  C   UNL     1       8.951   7.332  10.133  1.00  0.00     0.278 C 
ENDBRANCH   1  12
TORSDOF 1
ENDMDL
MODEL 3
REMARK VINA RESULT:    -5.208      2.059      2.837
REMARK INTER + INTRA:          -5.552
REMARK INTER:                  -5.518
REMARK INTRA:                  -0.034
REMARK UNBOUND:                -0.039
REMARK SMILES COc1ccc2ccc(=O)oc2c1
REMARK SMILES IDX 3 1 13 2 12 3 6 4 5 5 4 6 7 7 8 8 9 9 10 10 11 11 2 12 1 13
REMARK H PARENT
REMARK Flexibility Score: inf
ROOT
ATOM      1  C   UNL     1      13.290  10.625  12.429  1.00  0.00     0.122 A 
ATOM      2  C   UNL     1      12.890  10.600  13.780  1.00  0.00     0.094 A 
ATOM      3  C   UNL     1      11.616  10.139  14.131  1.00  0.00     0.142 A 
ATOM      4  C   UNL     1      10.728   9.697  13.127  1.00  0.00     0.018 A 
ATOM      5  C   UNL     1      11.124   9.723  11.784  1.00  0.00     0.016 A 
ATOM      6  C   UNL     1      12.399  10.184  11.441  1.00  0.00     0.047 A 
ATOM      7  C   UNL     1       9.462   9.243  13.509  1.00  0.00     0.019 A 
ATOM      8  C   UNL     1       9.116   9.238  14.859  1.00  0.00     0.094 A 
ATOM      9  C   UNL     1      10.047   9.690  15.800  1.00  0.00     0.336 A 
ATOM     10  O   UNL     1       9.753   9.694  17.024  1.00  0.00    -0.246 OA
ATOM     11  O   UNL     1      11.246  10.118  15.409  1.00  0.00    -0.423 OA
ENDROOT
BRANCH   1  12
ATOM     12  O   UNL     1      14.555  11.078  12.027  1.00  0.00    -0.497 OA
ATOM     13  C   UNL     1      15.786  10.494  12.440  1.00  0.00     0.278 C 
ENDBRANCH   1  12
TORSDOF 1
ENDMDL
MODEL 4
REMARK VINA RESULT:    -5.161      1.819      2.344
REMARK INTER + INTRA:          -5.502
REMARK INTER:                  -5.463
REMARK INTRA:                  -0.039
REMARK UNBOUND:                -0.039
REMARK SMILES COc1ccc2ccc(=O)oc2c1
REMARK SMILES IDX 3 1 13 2 12 3 6 4 5 5 4 6 7 7 8 8 9 9 10 10 11 11 2 12 1 13
REMARK H PARENT
REMARK Flexibility Score: inf
ROOT
ATOM      1  C   UNL     1      12.463   9.743  11.622  1.00  0.00     0.122 A 
ATOM      2  C   UNL     1      11.066   9.597  11.743  1.00  0.00     0.094 A 
ATOM      3  C   UNL     1      10.464   9.589  13.006  1.00  0.00     0.142 A 
ATOM      4  C   UNL     1      11.260   9.728  14.164  1.00  0.00     0.018 A 
ATOM      5  C   UNL     1      12.647   9.872  14.044  1.00  0.00     0.016 A 
ATOM      6  C   UNL     1      13.242   9.880  12.779  1.00  0.00     0.047 A 
ATOM      7  C   UNL     1      10.629   9.715  15.412  1.00  0.00     0.019 A 
ATOM      8  C   UNL     1       9.244   9.568  15.478  1.00  0.00     0.094 A 
ATOM      9  C   UNL     1       8.520   9.436  14.288  1.00  0.00     0.336 A 
ATOM     10  O   UNL     1       7.269   9.302  14.326  1.00  0.00    -0.246 OA
ATOM     11  O   UNL     1       9.145   9.451  13.113  1.00  0.00    -0.423 OA
ENDROOT
BRANCH   1  12
ATOM     12  O   UNL     1      13.112   9.758  10.378  1.00  0.00    -0.497 OA
ATOM     13  C   UNL     1      14.378  10.362  10.140  1.00  0.00     0.278 C 
ENDBRANCH   1  12
TORSDOF 1
ENDMDL
MODEL 5
REMARK VINA RESULT:    -5.082      1.972      4.660
REMARK INTER + INTRA:          -5.418
REMARK INTER:                  -5.380
REMARK INTRA:                  -0.038
REMARK UNBOUND:                -0.039
REMARK SMILES COc1ccc2ccc(=O)oc2c1
REMARK SMILES IDX 3 1 13 2 12 3 6 4 5 5 4 6 7 7 8 8 9 9 10 10 11 11 2 12 1 13
REMARK H PARENT
REMARK Flexibility Score: inf
ROOT
ATOM      1  C   UNL     1       9.895   9.466  14.511  1.00  0.00     0.122 A 
ATOM      2  C   UNL     1      11.175  10.042  14.372  1.00  0.00     0.094 A 
ATOM      3  C   UNL     1      11.787  10.106  13.115  1.00  0.00     0.142 A 
ATOM      4  C   UNL     1      11.121   9.592  11.982  1.00  0.00     0.018 A 
ATOM      5  C   UNL     1       9.850   9.020  12.119  1.00  0.00     0.016 A 
ATOM      6  C   UNL     1       9.244   8.959  13.378  1.00  0.00     0.047 A 
ATOM      7  C   UNL     1      11.759   9.671  10.740  1.00  0.00     0.019 A 
ATOM      8  C   UNL     1      13.024  10.250  10.657  1.00  0.00     0.094 A 
ATOM      9  C   UNL     1      13.624  10.739  11.822  1.00  0.00     0.336 A 
ATOM     10  O   UNL     1      14.767  11.265  11.768  1.00  0.00    -0.246 OA
ATOM     11  O   UNL     1      12.995  10.651  12.992  1.00  0.00    -0.423 OA
ENDROOT
BRANCH   1  12
ATOM     12  O   UNL     1       9.240   9.379  15.748  1.00  0.00    -0.497 OA
ATOM     13  C   UNL     1       9.901   9.386  17.009  1.00  0.00     0.278 C 
ENDBRANCH   1  12
TORSDOF 1
ENDMDL
MODEL 6
REMARK VINA RESULT:    -5.004      1.417      4.709
REMARK INTER + INTRA:          -5.336
REMARK INTER:                  -5.296
REMARK INTRA:                  -0.040
REMARK UNBOUND:                -0.039
REMARK SMILES COc1ccc2ccc(=O)oc2c1
REMARK SMILES IDX 3 1 13 2 12 3 6 4 5 5 4 6 7 7 8 8 9 9 10 10 11 11 2 12 1 13
REMARK H PARENT
REMARK Flexibility Score: inf
ROOT
ATOM      1  C   UNL     1       9.721   9.647  13.599  1.00  0.00     0.122 A 
ATOM      2  C   UNL     1      10.733   9.410  12.647  1.00  0.00     0.094 A 
ATOM      3  C   UNL     1      12.069   9.701  12.949  1.00  0.00     0.142 A 
ATOM      4  C   UNL     1      12.403  10.235  14.213  1.00  0.00     0.018 A 
ATOM      5  C   UNL     1      11.397  10.471  15.159  1.00  0.00     0.016 A 
ATOM      6  C   UNL     1      10.066  10.178  14.850  1.00  0.00     0.047 A 
ATOM      7  C   UNL     1      13.745  10.515  14.485  1.00  0.00     0.019 A 
ATOM      8  C   UNL     1      14.708  10.261  13.509  1.00  0.00     0.094 A 
ATOM      9  C   UNL     1      14.304   9.731  12.279  1.00  0.00     0.336 A 
ATOM     10  O   UNL     1      15.159   9.496  11.385  1.00  0.00    -0.246 OA
ATOM     11  O   UNL     1      13.019   9.473  12.046  1.00  0.00    -0.423 OA
ENDROOT
BRANCH   1  12
ATOM     12  O   UNL     1       8.370   9.372  13.344  1.00  0.00    -0.497 OA
ATOM     13  C   UNL     1       7.345   9.392  14.331  1.00  0.00     0.278 C 
ENDBRANCH   1  12
TORSDOF 1
ENDMDL
MODEL 7
REMARK VINA RESULT:    -4.752      2.339      4.392
REMARK INTER + INTRA:          -5.069
REMARK INTER:                  -5.034
REMARK INTRA:                  -0.035
REMARK UNBOUND:                -0.039
REMARK SMILES COc1ccc2ccc(=O)oc2c1
REMARK SMILES IDX 3 1 13 2 12 3 6 4 5 5 4 6 7 7 8 8 9 9 10 10 11 11 2 12 1 13
REMARK H PARENT
REMARK Flexibility Score: inf
ROOT
ATOM      1  C   UNL     1      10.630  10.632  14.901  1.00  0.00     0.122 A 
ATOM      2  C   UNL     1      11.331   9.685  14.128  1.00  0.00     0.094 A 
ATOM      3  C   UNL     1      12.276  10.105  13.184  1.00  0.00     0.142 A 
ATOM      4  C   UNL     1      12.527  11.483  13.006  1.00  0.00     0.018 A 
ATOM      5  C   UNL     1      11.830  12.423  13.774  1.00  0.00     0.016 A 
ATOM      6  C   UNL     1      10.889  11.997  14.715  1.00  0.00     0.047 A 
ATOM      7  C   UNL     1      13.476  11.870  12.055  1.00  0.00     0.019 A 
ATOM      8  C   UNL     1      14.143  10.894  11.316  1.00  0.00     0.094 A 
ATOM      9  C   UNL     1      13.842   9.547  11.546  1.00  0.00     0.336 A 
ATOM     10  O   UNL     1      14.433   8.650  10.888  1.00  0.00    -0.246 OA
ATOM     11  O   UNL     1      12.935   9.205  12.457  1.00  0.00    -0.423 OA
ENDROOT
BRANCH   1  12
ATOM     12  O   UNL     1       9.675  10.261  15.859  1.00  0.00    -0.497 OA
ATOM     13  C   UNL     1       9.932   9.389  16.954  1.00  0.00     0.278 C 
ENDBRANCH   1  12
TORSDOF 1
ENDMDL
MODEL 8
REMARK VINA RESULT:    -4.680      3.484      4.533
REMARK INTER + INTRA:          -4.993
REMARK INTER:                  -4.954
REMARK INTRA:                  -0.039
REMARK UNBOUND:                -0.039
REMARK SMILES COc1ccc2ccc(=O)oc2c1
REMARK SMILES IDX 3 1 13 2 12 3 6 4 5 5 4 6 7 7 8 8 9 9 10 10 11 11 2 12 1 13
REMARK H PARENT
REMARK Flexibility Score: inf
ROOT
ATOM      1  C   UNL     1      14.888   8.221  12.922  1.00  0.00     0.122 A 
ATOM      2  C   UNL     1      14.413   9.009  13.990  1.00  0.00     0.094 A 
ATOM      3  C   UNL     1      13.667  10.166  13.735  1.00  0.00     0.142 A 
ATOM      4  C   UNL     1      13.390  10.544  12.403  1.00  0.00     0.018 A 
ATOM      5  C   UNL     1      13.863   9.761  11.343  1.00  0.00     0.016 A 
ATOM      6  C   UNL     1      14.607   8.607  11.605  1.00  0.00     0.047 A 
ATOM      7  C   UNL     1      12.643  11.705  12.181  1.00  0.00     0.019 A 
ATOM      8  C   UNL     1      12.195  12.449  13.272  1.00  0.00     0.094 A 
ATOM      9  C   UNL     1      12.507  12.014  14.564  1.00  0.00     0.336 A 
ATOM     10  O   UNL     1      12.113  12.673  15.562  1.00  0.00    -0.246 OA
ATOM     11  O   UNL     1      13.220  10.905  14.748  1.00  0.00    -0.423 OA
ENDROOT
BRANCH   1  12
ATOM     12  O   UNL     1      15.639   7.053  13.127  1.00  0.00    -0.497 OA
ATOM     13  C   UNL     1      15.739   5.988  12.188  1.00  0.00     0.278 C 
ENDBRANCH   1  12
TORSDOF 1
ENDMDL
MODEL 9
REMARK VINA RESULT:    -4.647      2.292      2.917
REMARK INTER + INTRA:          -4.958
REMARK INTER:                  -4.922
REMARK INTRA:                  -0.036
REMARK UNBOUND:                -0.039
REMARK SMILES COc1ccc2ccc(=O)oc2c1
REMARK SMILES IDX 3 1 13 2 12 3 6 4 5 5 4 6 7 7 8 8 9 9 10 10 11 11 2 12 1 13
REMARK H PARENT
REMARK Flexibility Score: inf
ROOT
ATOM      1  C   UNL     1      13.551  10.284  11.999  1.00  0.00     0.122 A 
ATOM      2  C   UNL     1      12.770   9.537  12.904  1.00  0.00     0.094 A 
ATOM      3  C   UNL     1      11.875  10.185  13.764  1.00  0.00     0.142 A 
ATOM      4  C   UNL     1      11.754  11.591  13.724  1.00  0.00     0.018 A 
ATOM      5  C   UNL     1      12.530  12.332  12.825  1.00  0.00     0.016 A 
ATOM      6  C   UNL     1      13.422  11.679  11.969  1.00  0.00     0.047 A 
ATOM      7  C   UNL     1      10.852  12.208  14.596  1.00  0.00     0.019 A 
ATOM      8  C   UNL     1      10.103  11.423  15.473  1.00  0.00     0.094 A 
ATOM      9  C   UNL     1      10.274  10.035  15.457  1.00  0.00     0.336 A 
ATOM     10  O   UNL     1       9.608   9.311  16.241  1.00  0.00    -0.246 OA
ATOM     11  O   UNL     1      11.140   9.473  14.617  1.00  0.00    -0.423 OA
ENDROOT
BRANCH   1  12
ATOM     12  O   UNL     1      14.461   9.682  11.117  1.00  0.00    -0.497 OA
ATOM     13  C   UNL     1      15.307   8.590  11.459  1.00  0.00     0.278 C 
ENDBRANCH   1  12
TORSDOF 1
ENDMDL
