MODEL 1
REMARK VINA RESULT:    -5.018      0.000      0.000
REMARK INTER + INTRA:         -11.944
REMARK INTER:                  -9.711
REMARK INTRA:                  -2.233
REMARK UNBOUND:                -2.233
REMARK SMILES CCCCCCCCCCCCCCCCCC(=O)[O-]
REMARK SMILES IDX 10 1 11 2 12 3 13 4 14 5 15 6 16 7 17 8 18 9 19 10 20 11
REMARK SMILES IDX 9 12 8 13 7 14 6 15 5 16 4 17 3 18 2 19 1 20
REMARK H PARENT
REMARK Flexibility Score: inf
ROOT
ATOM      1  C   UNL     1      -3.188  11.990  23.039  1.00  0.00     0.000 C 
ENDROOT
BRANCH   1   2
ATOM      2  C   UNL     1      -3.716  11.096  24.174  1.00  0.00     0.000 C 
BRANCH   2   3
ATOM      3  C   UNL     1      -3.034  11.383  25.525  1.00  0.00     0.000 C 
BRANCH   3   4
ATOM      4  C   UNL     1      -1.965  12.494  25.495  1.00  0.00     0.000 C 
BRANCH   4   5
ATOM      5  C   UNL     1      -1.288  12.789  26.848  1.00  0.00     0.000 C 
BRANCH   5   6
ATOM      6  C   UNL     1       0.162  13.299  26.753  1.00  0.00     0.000 C 
BRANCH   6   7
ATOM      7  C   UNL     1       0.493  13.900  25.376  1.00  0.00     0.006 C 
BRANCH   7   8
ATOM      8  C   UNL     1       1.576  14.983  25.464  1.00  0.00     0.053 C 
BRANCH   8   9
ATOM      9  C   UNL     1       2.350  15.104  24.187  1.00  0.00     0.041 C 
ATOM     10  O   UNL     1       3.126  14.179  23.826  1.00  0.00    -0.550 OA
ATOM     11  O   UNL     1       2.236  16.249  23.408  1.00  0.00    -0.550 OA
ENDBRANCH   8   9
ENDBRANCH   7   8
ENDBRANCH   6   7
ENDBRANCH   5   6
ENDBRANCH   4   5
ENDBRANCH   3   4
ENDBRANCH   2   3
ENDBRANCH   1   2
BRANCH   1  12
ATOM     12  C   UNL     1      -3.504  11.422  21.646  1.00  0.00     0.000 C 
BRANCH  12  13
ATOM     13  C   UNL     1      -3.973   9.960  21.693  1.00  0.00    -0.000 C 
BRANCH  13  14
ATOM     14  C   UNL     1      -3.247   9.117  20.633  1.00  0.00    -0.000 C 
BRANCH  14  15
ATOM     15  C   UNL     1      -1.899   8.570  21.131  1.00  0.00    -0.000 C 
BRANCH  15  16
ATOM     16  C   UNL     1      -1.904   8.268  22.637  1.00  0.00    -0.000 C 
BRANCH  16  17
ATOM     17  C   UNL     1      -0.732   8.964  23.340  1.00  0.00    -0.000 C 
BRANCH  17  18
ATOM     18  C   UNL     1      -0.847   8.831  24.866  1.00  0.00    -0.000 C 
BRANCH  18  19
ATOM     19  C   UNL     1       0.276   9.570  25.610  1.00  0.00    -0.003 C 
ATOM     20  C   UNL     1       1.533   9.747  24.759  1.00  0.00     0.004 C 
ENDBRANCH  18  19
ENDBRANCH  17  18
ENDBRANCH  16  17
ENDBRANCH  15  16
ENDBRANCH  14  15
ENDBRANCH  13  14
ENDBRANCH  12  13
ENDBRANCH   1  12
TORSDOF 16
ENDMDL
MODEL 2
REMARK VINA RESULT:    -4.819      1.098      3.304
REMARK INTER + INTRA:         -11.560
REMARK INTER:                  -9.227
REMARK INTRA:                  -2.334
REMARK UNBOUND:                -2.233
REMARK SMILES CCCCCCCCCCCCCCCCCC(=O)[O-]
REMARK SMILES IDX 10 1 11 2 12 3 13 4 14 5 15 6 16 7 17 8 18 9 19 10 20 11
REMARK SMILES IDX 9 12 8 13 7 14 6 15 5 16 4 17 3 18 2 19 1 20
REMARK H PARENT
REMARK Flexibility Score: inf
ROOT
ATOM      1  C   UNL     1      -1.079   8.874  23.355  1.00  0.00     0.000 C 
ENDROOT
BRANCH   1   2
ATOM      2  C   UNL     1      -1.165   8.496  24.844  1.00  0.00     0.000 C 
BRANCH   2   3
ATOM      3  C   UNL     1      -0.534   9.558  25.765  1.00  0.00     0.000 C 
BRANCH   3   4
ATOM      4  C   UNL     1       0.943   9.887  25.468  1.00  0.00     0.000 C 
BRANCH   4   5
ATOM      5  C   UNL     1       1.359  11.345  25.746  1.00  0.00     0.000 C 
BRANCH   5   6
ATOM      6  C   UNL     1       0.317  12.184  26.508  1.00  0.00     0.000 C 
BRANCH   6   7
ATOM      7  C   UNL     1       0.032  13.537  25.833  1.00  0.00     0.006 C 
BRANCH   7   8
ATOM      8  C   UNL     1       1.171  14.542  26.049  1.00  0.00     0.053 C 
BRANCH   8   9
ATOM      9  C   UNL     1       1.803  14.958  24.756  1.00  0.00     0.041 C 
ATOM     10  O   UNL     1       1.144  15.623  23.914  1.00  0.00    -0.550 OA
ATOM     11  O   UNL     1       3.111  14.586  24.469  1.00  0.00    -0.550 OA
ENDBRANCH   8   9
ENDBRANCH   7   8
ENDBRANCH   6   7
ENDBRANCH   5   6
ENDBRANCH   4   5
ENDBRANCH   3   4
ENDBRANCH   2   3
ENDBRANCH   1   2
BRANCH   1  12
ATOM     12  C   UNL     1      -2.139   8.156  22.504  1.00  0.00     0.000 C 
BRANCH  12  13
ATOM     13  C   UNL     1      -2.377   8.842  21.149  1.00  0.00    -0.000 C 
BRANCH  13  14
ATOM     14  C   UNL     1      -3.613   9.753  21.207  1.00  0.00    -0.000 C 
BRANCH  14  15
ATOM     15  C   UNL     1      -3.248  11.236  21.389  1.00  0.00    -0.000 C 
BRANCH  15  16
ATOM     16  C   UNL     1      -3.911  11.861  22.625  1.00  0.00    -0.000 C 
BRANCH  16  17
ATOM     17  C   UNL     1      -2.968  11.819  23.834  1.00  0.00    -0.000 C 
BRANCH  17  18
ATOM     18  C   UNL     1      -3.662  11.187  25.051  1.00  0.00    -0.000 C 
BRANCH  18  19
ATOM     19  C   UNL     1      -4.579  10.016  24.666  1.00  0.00    -0.003 C 
ATOM     20  C   UNL     1      -5.100   9.249  25.882  1.00  0.00     0.004 C 
ENDBRANCH  18  19
ENDBRANCH  17  18
ENDBRANCH  16  17
ENDBRANCH  15  16
ENDBRANCH  14  15
ENDBRANCH  13  14
ENDBRANCH  12  13
ENDBRANCH   1  12
TORSDOF 16
ENDMDL
MODEL 3
REMARK VINA RESULT:    -4.802      3.068      5.268
REMARK INTER + INTRA:         -11.527
REMARK INTER:                  -9.218
REMARK INTRA:                  -2.309
REMARK UNBOUND:                -2.233
REMARK SMILES CCCCCCCCCCCCCCCCCC(=O)[O-]
REMARK SMILES IDX 10 1 11 2 12 3 13 4 14 5 15 6 16 7 17 8 18 9 19 10 20 11
REMARK SMILES IDX 9 12 8 13 7 14 6 15 5 16 4 17 3 18 2 19 1 20
REMARK H PARENT
REMARK Flexibility Score: inf
ROOT
ATOM      1  C   UNL     1       1.683  10.157  25.117  1.00  0.00     0.000 C 
ENDROOT
BRANCH   1   2
ATOM      2  C   UNL     1       1.910  11.522  25.789  1.00  0.00     0.000 C 
BRANCH   2   3
ATOM      3  C   UNL     1       0.687  12.001  26.592  1.00  0.00     0.000 C 
BRANCH   3   4
ATOM      4  C   UNL     1      -0.002  13.267  26.043  1.00  0.00     0.000 C 
BRANCH   4   5
ATOM      5  C   UNL     1      -1.537  13.291  26.181  1.00  0.00     0.000 C 
BRANCH   5   6
ATOM      6  C   UNL     1      -2.277  12.183  25.409  1.00  0.00     0.000 C 
BRANCH   6   7
ATOM      7  C   UNL     1      -3.208  11.351  26.306  1.00  0.00     0.006 C 
BRANCH   7   8
ATOM      8  C   UNL     1      -3.077  11.733  27.787  1.00  0.00     0.053 C 
BRANCH   8   9
ATOM      9  C   UNL     1      -2.389  10.664  28.580  1.00  0.00     0.041 C 
ATOM     10  O   UNL     1      -2.208   9.522  28.081  1.00  0.00    -0.550 OA
ATOM     11  O   UNL     1      -1.972  10.922  29.880  1.00  0.00    -0.550 OA
ENDBRANCH   8   9
ENDBRANCH   7   8
ENDBRANCH   6   7
ENDBRANCH   5   6
ENDBRANCH   4   5
ENDBRANCH   3   4
ENDBRANCH   2   3
ENDBRANCH   1   2
BRANCH   1  12
ATOM     12  C   UNL     1       0.281   9.591  25.392  1.00  0.00     0.000 C 
BRANCH  12  13
ATOM     13  C   UNL     1      -0.469   9.210  24.106  1.00  0.00    -0.000 C 
BRANCH  13  14
ATOM     14  C   UNL     1      -1.849   8.618  24.431  1.00  0.00    -0.000 C 
BRANCH  14  15
ATOM     15  C   UNL     1      -2.357   7.664  23.337  1.00  0.00    -0.000 C 
BRANCH  15  16
ATOM     16  C   UNL     1      -3.482   8.278  22.491  1.00  0.00    -0.000 C 
BRANCH  16  17
ATOM     17  C   UNL     1      -2.929   8.863  21.185  1.00  0.00    -0.000 C 
BRANCH  17  18
ATOM     18  C   UNL     1      -3.483  10.274  20.937  1.00  0.00    -0.000 C 
BRANCH  18  19
ATOM     19  C   UNL     1      -3.200  11.234  22.103  1.00  0.00    -0.003 C 
ATOM     20  C   UNL     1      -4.164  12.420  22.140  1.00  0.00     0.004 C 
ENDBRANCH  18  19
ENDBRANCH  17  18
ENDBRANCH  16  17
ENDBRANCH  15  16
ENDBRANCH  14  15
ENDBRANCH  13  14
ENDBRANCH  12  13
ENDBRANCH   1  12
TORSDOF 16
ENDMDL
MODEL 4
REMARK VINA RESULT:    -4.798      2.372      4.152
REMARK INTER + INTRA:         -11.518
REMARK INTER:                 -10.115
REMARK INTRA:                  -1.403
REMARK UNBOUND:                -2.233
REMARK SMILES CCCCCCCCCCCCCCCCCC(=O)[O-]
REMARK SMILES IDX 10 1 11 2 12 3 13 4 14 5 15 6 16 7 17 8 18 9 19 10 20 11
REMARK SMILES IDX 9 12 8 13 7 14 6 15 5 16 4 17 3 18 2 19 1 20
REMARK H PARENT
REMARK Flexibility Score: inf
ROOT
ATOM      1  C   UNL     1      -2.332  11.094  25.326  1.00  0.00     0.000 C 
ENDROOT
BRANCH   1   2
ATOM      2  C   UNL     1      -1.617  11.794  26.495  1.00  0.00     0.000 C 
BRANCH   2   3
ATOM      3  C   UNL     1      -1.194  13.235  26.158  1.00  0.00     0.000 C 
BRANCH   3   4
ATOM      4  C   UNL     1       0.245  13.609  26.571  1.00  0.00     0.000 C 
BRANCH   4   5
ATOM      5  C   UNL     1       1.008  14.491  25.564  1.00  0.00     0.000 C 
BRANCH   5   6
ATOM      6  C   UNL     1       2.413  13.984  25.190  1.00  0.00     0.000 C 
BRANCH   6   7
ATOM      7  C   UNL     1       2.969  14.653  23.921  1.00  0.00     0.006 C 
BRANCH   7   8
ATOM      8  C   UNL     1       2.398  16.061  23.712  1.00  0.00     0.053 C 
BRANCH   8   9
ATOM      9  C   UNL     1       3.480  17.092  23.603  1.00  0.00     0.041 C 
ATOM     10  O   UNL     1       4.690  16.742  23.603  1.00  0.00    -0.550 OA
ATOM     11  O   UNL     1       3.153  18.441  23.531  1.00  0.00    -0.550 OA
ENDBRANCH   8   9
ENDBRANCH   7   8
ENDBRANCH   6   7
ENDBRANCH   5   6
ENDBRANCH   4   5
ENDBRANCH   3   4
ENDBRANCH   2   3
ENDBRANCH   1   2
BRANCH   1  12
ATOM     12  C   UNL     1      -1.684   9.749  24.959  1.00  0.00     0.000 C 
BRANCH  12  13
ATOM     13  C   UNL     1      -0.419   9.456  25.781  1.00  0.00    -0.000 C 
BRANCH  13  14
ATOM     14  C   UNL     1       0.836   9.525  24.897  1.00  0.00    -0.000 C 
BRANCH  14  15
ATOM     15  C   UNL     1       1.866  10.546  25.411  1.00  0.00    -0.000 C 
BRANCH  15  16
ATOM     16  C   UNL     1       3.044   9.883  26.139  1.00  0.00    -0.000 C 
BRANCH  16  17
ATOM     17  C   UNL     1       3.032   8.363  25.932  1.00  0.00    -0.000 C 
BRANCH  17  18
ATOM     18  C   UNL     1       4.406   7.753  26.245  1.00  0.00    -0.000 C 
BRANCH  18  19
ATOM     19  C   UNL     1       4.445   7.054  27.613  1.00  0.00    -0.003 C 
ATOM     20  C   UNL     1       3.130   6.356  27.958  1.00  0.00     0.004 C 
ENDBRANCH  18  19
ENDBRANCH  17  18
ENDBRANCH  16  17
ENDBRANCH  15  16
ENDBRANCH  14  15
ENDBRANCH  13  14
ENDBRANCH  12  13
ENDBRANCH   1  12
TORSDOF 16
ENDMDL
MODEL 5
REMARK VINA RESULT:    -4.718      2.728      6.661
REMARK INTER + INTRA:         -11.365
REMARK INTER:                  -9.982
REMARK INTRA:                  -1.382
REMARK UNBOUND:                -2.233
REMARK SMILES CCCCCCCCCCCCCCCCCC(=O)[O-]
REMARK SMILES IDX 10 1 11 2 12 3 13 4 14 5 15 6 16 7 17 8 18 9 19 10 20 11
REMARK SMILES IDX 9 12 8 13 7 14 6 15 5 16 4 17 3 18 2 19 1 20
REMARK H PARENT
REMARK Flexibility Score: inf
ROOT
ATOM      1  C   UNL     1      -2.052  11.939  25.353  1.00  0.00     0.000 C 
ENDROOT
BRANCH   1   2
ATOM      2  C   UNL     1      -3.159  10.877  25.223  1.00  0.00     0.000 C 
BRANCH   2   3
ATOM      3  C   UNL     1      -4.040  11.086  23.977  1.00  0.00     0.000 C 
BRANCH   3   4
ATOM      4  C   UNL     1      -3.377  11.876  22.831  1.00  0.00     0.000 C 
BRANCH   4   5
ATOM      5  C   UNL     1      -3.355  11.159  21.467  1.00  0.00     0.000 C 
BRANCH   5   6
ATOM      6  C   UNL     1      -4.373  10.013  21.318  1.00  0.00     0.000 C 
BRANCH   6   7
ATOM      7  C   UNL     1      -3.711   8.669  20.968  1.00  0.00     0.006 C 
BRANCH   7   8
ATOM      8  C   UNL     1      -2.185   8.720  21.120  1.00  0.00     0.053 C 
BRANCH   8   9
ATOM      9  C   UNL     1      -1.755   8.445  22.528  1.00  0.00     0.041 C 
ATOM     10  O   UNL     1      -0.670   8.915  22.962  1.00  0.00    -0.550 OA
ATOM     11  O   UNL     1      -2.538   7.647  23.353  1.00  0.00    -0.550 OA
ENDBRANCH   8   9
ENDBRANCH   7   8
ENDBRANCH   6   7
ENDBRANCH   5   6
ENDBRANCH   4   5
ENDBRANCH   3   4
ENDBRANCH   2   3
ENDBRANCH   1   2
BRANCH   1  12
ATOM     12  C   UNL     1      -0.728  11.349  25.865  1.00  0.00     0.000 C 
BRANCH  12  13
ATOM     13  C   UNL     1       0.149  12.390  26.578  1.00  0.00    -0.000 C 
BRANCH  13  14
ATOM     14  C   UNL     1      -0.125  13.801  26.036  1.00  0.00    -0.000 C 
BRANCH  14  15
ATOM     15  C   UNL     1       1.157  14.635  25.878  1.00  0.00    -0.000 C 
BRANCH  15  16
ATOM     16  C   UNL     1       1.281  15.274  24.487  1.00  0.00    -0.000 C 
BRANCH  16  17
ATOM     17  C   UNL     1       2.671  15.022  23.889  1.00  0.00    -0.000 C 
BRANCH  17  18
ATOM     18  C   UNL     1       3.246  13.684  24.377  1.00  0.00    -0.000 C 
BRANCH  18  19
ATOM     19  C   UNL     1       4.638  13.835  25.010  1.00  0.00    -0.003 C 
ATOM     20  C   UNL     1       5.709  14.235  23.995  1.00  0.00     0.004 C 
ENDBRANCH  18  19
ENDBRANCH  17  18
ENDBRANCH  16  17
ENDBRANCH  15  16
ENDBRANCH  14  15
ENDBRANCH  13  14
ENDBRANCH  12  13
ENDBRANCH   1  12
TORSDOF 16
ENDMDL
MODEL 6
REMARK VINA RESULT:    -4.715      1.968      3.969
REMARK INTER + INTRA:         -11.358
REMARK INTER:                  -8.764
REMARK INTRA:                  -2.594
REMARK UNBOUND:                -2.233
REMARK SMILES CCCCCCCCCCCCCCCCCC(=O)[O-]
REMARK SMILES IDX 10 1 11 2 12 3 13 4 14 5 15 6 16 7 17 8 18 9 19 10 20 11
REMARK SMILES IDX 9 12 8 13 7 14 6 15 5 16 4 17 3 18 2 19 1 20
REMARK H PARENT
REMARK Flexibility Score: inf
ROOT
ATOM      1  C   UNL     1      -1.612   9.035  25.775  1.00  0.00     0.000 C 
ENDROOT
BRANCH   1   2
ATOM      2  C   UNL     1      -2.837   9.362  26.646  1.00  0.00     0.000 C 
BRANCH   2   3
ATOM      3  C   UNL     1      -2.469   9.629  28.117  1.00  0.00     0.000 C 
BRANCH   3   4
ATOM      4  C   UNL     1      -2.924  10.996  28.668  1.00  0.00     0.000 C 
BRANCH   4   5
ATOM      5  C   UNL     1      -3.274  12.050  27.600  1.00  0.00     0.000 C 
BRANCH   5   6
ATOM      6  C   UNL     1      -2.449  13.348  27.672  1.00  0.00     0.000 C 
BRANCH   6   7
ATOM      7  C   UNL     1      -1.272  13.362  26.682  1.00  0.00     0.006 C 
BRANCH   7   8
ATOM      8  C   UNL     1      -0.076  12.549  27.194  1.00  0.00     0.053 C 
BRANCH   8   9
ATOM      9  C   UNL     1       0.965  12.360  26.134  1.00  0.00     0.041 C 
ATOM     10  O   UNL     1       1.302  11.200  25.776  1.00  0.00    -0.550 OA
ATOM     11  O   UNL     1       1.584  13.464  25.560  1.00  0.00    -0.550 OA
ENDBRANCH   8   9
ENDBRANCH   7   8
ENDBRANCH   6   7
ENDBRANCH   5   6
ENDBRANCH   4   5
ENDBRANCH   3   4
ENDBRANCH   2   3
ENDBRANCH   1   2
BRANCH   1  12
ATOM     12  C   UNL     1      -1.754   9.557  24.337  1.00  0.00     0.000 C 
BRANCH  12  13
ATOM     13  C   UNL     1      -1.960  11.079  24.275  1.00  0.00    -0.000 C 
BRANCH  13  14
ATOM     14  C   UNL     1      -3.399  11.421  23.857  1.00  0.00    -0.000 C 
BRANCH  14  15
ATOM     15  C   UNL     1      -3.482  11.988  22.431  1.00  0.00    -0.000 C 
BRANCH  15  16
ATOM     16  C   UNL     1      -4.164  11.023  21.449  1.00  0.00    -0.000 C 
BRANCH  16  17
ATOM     17  C   UNL     1      -3.175   9.966  20.943  1.00  0.00    -0.000 C 
BRANCH  17  18
ATOM     18  C   UNL     1      -3.696   8.548  21.219  1.00  0.00    -0.000 C 
BRANCH  18  19
ATOM     19  C   UNL     1      -4.970   8.543  22.079  1.00  0.00    -0.003 C 
ATOM     20  C   UNL     1      -4.764   7.873  23.437  1.00  0.00     0.004 C 
ENDBRANCH  18  19
ENDBRANCH  17  18
ENDBRANCH  16  17
ENDBRANCH  15  16
ENDBRANCH  14  15
ENDBRANCH  13  14
ENDBRANCH  12  13
ENDBRANCH   1  12
TORSDOF 16
ENDMDL
MODEL 7
REMARK VINA RESULT:    -4.700      1.443      3.480
REMARK INTER + INTRA:         -11.329
REMARK INTER:                  -8.812
REMARK INTRA:                  -2.517
REMARK UNBOUND:                -2.233
REMARK SMILES CCCCCCCCCCCCCCCCCC(=O)[O-]
REMARK SMILES IDX 10 1 11 2 12 3 13 4 14 5 15 6 16 7 17 8 18 9 19 10 20 11
REMARK SMILES IDX 9 12 8 13 7 14 6 15 5 16 4 17 3 18 2 19 1 20
REMARK H PARENT
REMARK Flexibility Score: inf
ROOT
ATOM      1  C   UNL     1      -1.821   8.442  21.258  1.00  0.00     0.000 C 
ENDROOT
BRANCH   1   2
ATOM      2  C   UNL     1      -1.740   8.369  22.793  1.00  0.00     0.000 C 
BRANCH   2   3
ATOM      3  C   UNL     1      -0.560   9.175  23.367  1.00  0.00     0.000 C 
BRANCH   3   4
ATOM      4  C   UNL     1      -0.524   9.279  24.905  1.00  0.00     0.000 C 
BRANCH   4   5
ATOM      5  C   UNL     1       0.477  10.306  25.470  1.00  0.00     0.000 C 
BRANCH   5   6
ATOM      6  C   UNL     1      -0.127  11.336  26.442  1.00  0.00     0.000 C 
BRANCH   6   7
ATOM      7  C   UNL     1       0.322  12.776  26.139  1.00  0.00     0.006 C 
BRANCH   7   8
ATOM      8  C   UNL     1       1.725  12.826  25.520  1.00  0.00     0.053 C 
BRANCH   8   9
ATOM      9  C   UNL     1       2.108  14.217  25.117  1.00  0.00     0.041 C 
ATOM     10  O   UNL     1       2.874  14.404  24.135  1.00  0.00    -0.550 OA
ATOM     11  O   UNL     1       1.643  15.306  25.844  1.00  0.00    -0.550 OA
ENDBRANCH   8   9
ENDBRANCH   7   8
ENDBRANCH   6   7
ENDBRANCH   5   6
ENDBRANCH   4   5
ENDBRANCH   3   4
ENDBRANCH   2   3
ENDBRANCH   1   2
BRANCH   1  12
ATOM     12  C   UNL     1      -3.147   9.044  20.766  1.00  0.00     0.000 C 
BRANCH  12  13
ATOM     13  C   UNL     1      -3.268  10.544  21.076  1.00  0.00    -0.000 C 
BRANCH  13  14
ATOM     14  C   UNL     1      -4.608  10.855  21.760  1.00  0.00    -0.000 C 
BRANCH  14  15
ATOM     15  C   UNL     1      -4.461  11.841  22.932  1.00  0.00    -0.000 C 
BRANCH  15  16
ATOM     16  C   UNL     1      -3.175  11.611  23.739  1.00  0.00    -0.000 C 
BRANCH  16  17
ATOM     17  C   UNL     1      -3.497  11.275  25.201  1.00  0.00    -0.000 C 
BRANCH  17  18
ATOM     18  C   UNL     1      -4.736  10.373  25.298  1.00  0.00    -0.000 C 
BRANCH  18  19
ATOM     19  C   UNL     1      -4.382   8.878  25.268  1.00  0.00    -0.003 C 
ATOM     20  C   UNL     1      -5.114   8.119  24.162  1.00  0.00     0.004 C 
ENDBRANCH  18  19
ENDBRANCH  17  18
ENDBRANCH  16  17
ENDBRANCH  15  16
ENDBRANCH  14  15
ENDBRANCH  13  14
ENDBRANCH  12  13
ENDBRANCH   1  12
TORSDOF 16
ENDMDL
MODEL 8
REMARK VINA RESULT:    -4.679      3.700      5.881
REMARK INTER + INTRA:         -11.288
REMARK INTER:                  -9.222
REMARK INTRA:                  -2.066
REMARK UNBOUND:                -2.233
REMARK SMILES CCCCCCCCCCCCCCCCCC(=O)[O-]
REMARK SMILES IDX 10 1 11 2 12 3 13 4 14 5 15 6 16 7 17 8 18 9 19 10 20 11
REMARK SMILES IDX 9 12 8 13 7 14 6 15 5 16 4 17 3 18 2 19 1 20
REMARK H PARENT
REMARK Flexibility Score: inf
ROOT
ATOM      1  C   UNL     1       0.772  11.843  26.396  1.00  0.00     0.000 C 
ENDROOT
BRANCH   1   2
ATOM      2  C   UNL     1       0.235  13.204  25.920  1.00  0.00     0.000 C 
BRANCH   2   3
ATOM      3  C   UNL     1      -1.287  13.344  26.112  1.00  0.00     0.000 C 
BRANCH   3   4
ATOM      4  C   UNL     1      -2.124  12.160  25.586  1.00  0.00     0.000 C 
BRANCH   4   5
ATOM      5  C   UNL     1      -3.023  11.476  26.635  1.00  0.00     0.000 C 
BRANCH   5   6
ATOM      6  C   UNL     1      -2.270  10.734  27.753  1.00  0.00     0.000 C 
BRANCH   6   7
ATOM      7  C   UNL     1      -3.159  10.429  28.971  1.00  0.00     0.006 C 
BRANCH   7   8
ATOM      8  C   UNL     1      -3.386  11.669  29.846  1.00  0.00     0.053 C 
BRANCH   8   9
ATOM      9  C   UNL     1      -2.690  11.554  31.167  1.00  0.00     0.041 C 
ATOM     10  O   UNL     1      -3.319  11.770  32.237  1.00  0.00    -0.550 OA
ATOM     11  O   UNL     1      -1.338  11.236  31.217  1.00  0.00    -0.550 OA
ENDBRANCH   8   9
ENDBRANCH   7   8
ENDBRANCH   6   7
ENDBRANCH   5   6
ENDBRANCH   4   5
ENDBRANCH   3   4
ENDBRANCH   2   3
ENDBRANCH   1   2
BRANCH   1  12
ATOM     12  C   UNL     1       1.916  11.319  25.512  1.00  0.00     0.000 C 
BRANCH  12  13
ATOM     13  C   UNL     1       1.662   9.894  24.996  1.00  0.00    -0.000 C 
BRANCH  13  14
ATOM     14  C   UNL     1       0.209   9.468  25.257  1.00  0.00    -0.000 C 
BRANCH  14  15
ATOM     15  C   UNL     1      -0.574   9.210  23.959  1.00  0.00    -0.000 C 
BRANCH  15  16
ATOM     16  C   UNL     1      -1.909   8.492  24.205  1.00  0.00    -0.000 C 
BRANCH  16  17
ATOM     17  C   UNL     1      -3.052   9.184  23.452  1.00  0.00    -0.000 C 
BRANCH  17  18
ATOM     18  C   UNL     1      -3.057   8.783  21.970  1.00  0.00    -0.000 C 
BRANCH  18  19
ATOM     19  C   UNL     1      -3.211   9.990  21.031  1.00  0.00    -0.003 C 
ATOM     20  C   UNL     1      -3.228  11.322  21.780  1.00  0.00     0.004 C 
ENDBRANCH  18  19
ENDBRANCH  17  18
ENDBRANCH  16  17
ENDBRANCH  15  16
ENDBRANCH  14  15
ENDBRANCH  13  14
ENDBRANCH  12  13
ENDBRANCH   1  12
TORSDOF 16
ENDMDL
MODEL 9
REMARK VINA RESULT:    -4.655      1.347      3.949
REMARK INTER + INTRA:         -11.242
REMARK INTER:                  -9.214
REMARK INTRA:                  -2.029
REMARK UNBOUND:                -2.233
REMARK SMILES CCCCCCCCCCCCCCCCCC(=O)[O-]
REMARK SMILES IDX 10 1 11 2 12 3 13 4 14 5 15 6 16 7 17 8 18 9 19 10 20 11
REMARK SMILES IDX 9 12 8 13 7 14 6 15 5 16 4 17 3 18 2 19 1 20
REMARK H PARENT
REMARK Flexibility Score: inf
ROOT
ATOM      1  C   UNL     1      -0.665   9.240  24.624  1.00  0.00     0.000 C 
ENDROOT
BRANCH   1   2
ATOM      2  C   UNL     1       0.796   9.602  24.305  1.00  0.00     0.000 C 
BRANCH   2   3
ATOM      3  C   UNL     1       1.560  10.131  25.533  1.00  0.00     0.000 C 
BRANCH   3   4
ATOM      4  C   UNL     1       1.569  11.665  25.687  1.00  0.00     0.000 C 
BRANCH   4   5
ATOM      5  C   UNL     1       0.475  12.238  26.610  1.00  0.00     0.000 C 
BRANCH   5   6
ATOM      6  C   UNL     1       0.301  13.766  26.541  1.00  0.00     0.000 C 
BRANCH   6   7
ATOM      7  C   UNL     1       0.880  14.375  25.252  1.00  0.00     0.006 C 
BRANCH   7   8
ATOM      8  C   UNL     1       1.975  15.410  25.544  1.00  0.00     0.053 C 
BRANCH   8   9
ATOM      9  C   UNL     1       3.198  15.178  24.710  1.00  0.00     0.041 C 
ATOM     10  O   UNL     1       3.424  15.898  23.702  1.00  0.00    -0.550 OA
ATOM     11  O   UNL     1       4.075  14.148  25.030  1.00  0.00    -0.550 OA
ENDBRANCH   8   9
ENDBRANCH   7   8
ENDBRANCH   6   7
ENDBRANCH   5   6
ENDBRANCH   4   5
ENDBRANCH   3   4
ENDBRANCH   2   3
ENDBRANCH   1   2
BRANCH   1  12
ATOM     12  C   UNL     1      -0.876   8.892  26.106  1.00  0.00     0.000 C 
BRANCH  12  13
ATOM     13  C   UNL     1      -2.334   9.074  26.558  1.00  0.00    -0.000 C 
BRANCH  13  14
ATOM     14  C   UNL     1      -2.884  10.432  26.096  1.00  0.00    -0.000 C 
BRANCH  14  15
ATOM     15  C   UNL     1      -4.146  10.295  25.228  1.00  0.00    -0.000 C 
BRANCH  15  16
ATOM     16  C   UNL     1      -4.428   8.842  24.817  1.00  0.00    -0.000 C 
BRANCH  16  17
ATOM     17  C   UNL     1      -4.353   8.679  23.293  1.00  0.00    -0.000 C 
BRANCH  17  18
ATOM     18  C   UNL     1      -4.175  10.038  22.602  1.00  0.00    -0.000 C 
BRANCH  18  19
ATOM     19  C   UNL     1      -2.955  10.072  21.669  1.00  0.00    -0.003 C 
ATOM     20  C   UNL     1      -2.661   8.715  21.031  1.00  0.00     0.004 C 
ENDBRANCH  18  19
ENDBRANCH  17  18
ENDBRANCH  16  17
ENDBRANCH  15  16
ENDBRANCH  14  15
ENDBRANCH  13  14
ENDBRANCH  12  13
ENDBRANCH   1  12
TORSDOF 16
ENDMDL
