MODEL 1
REMARK VINA RESULT:    -4.353      0.000      0.000
REMARK INTER + INTRA:         -14.158
REMARK INTER:                  -9.950
REMARK INTRA:                  -4.208
REMARK UNBOUND:                -4.208
REMARK SMILES CCCCCCCCCCCCCCCCCCCCCCCC(=O)[O-]
REMARK SMILES IDX 13 1 14 2 15 3 16 4 17 5 18 6 19 7 20 8 21 9 22 10 23 11
REMARK SMILES IDX 24 12 25 13 26 14 12 15 11 16 10 17 9 18 8 19 7 20 6 21 5 22
REMARK SMILES IDX 4 23 3 24 2 25 1 26
REMARK H PARENT
REMARK Flexibility Score: inf
ROOT
ATOM      1  C   UNL     1      40.760  23.503 223.933  1.00  0.00     0.000 C 
ENDROOT
BRANCH   1   2
ATOM      2  C   UNL     1      40.569  22.519 222.766  1.00  0.00     0.000 C 
BRANCH   2   3
ATOM      3  C   UNL     1      41.734  21.524 222.619  1.00  0.00     0.000 C 
BRANCH   3   4
ATOM      4  C   UNL     1      41.327  20.047 222.431  1.00  0.00     0.000 C 
BRANCH   4   5
ATOM      5  C   UNL     1      41.016  19.275 223.726  1.00  0.00     0.000 C 
BRANCH   5   6
ATOM      6  C   UNL     1      42.059  19.513 224.831  1.00  0.00     0.000 C 
BRANCH   6   7
ATOM      7  C   UNL     1      41.416  19.758 226.208  1.00  0.00     0.000 C 
BRANCH   7   8
ATOM      8  C   UNL     1      39.891  19.984 226.184  1.00  0.00     0.000 C 
BRANCH   8   9
ATOM      9  C   UNL     1      39.425  21.367 226.686  1.00  0.00     0.000 C 
BRANCH   9  10
ATOM     10  C   UNL     1      38.044  21.810 226.172  1.00  0.00     0.006 C 
BRANCH  10  11
ATOM     11  C   UNL     1      37.388  20.769 225.254  1.00  0.00     0.053 C 
BRANCH  11  12
ATOM     12  C   UNL     1      36.134  20.235 225.873  1.00  0.00     0.041 C 
ATOM     13  O   UNL     1      35.749  20.662 226.994  1.00  0.00    -0.550 OA
ATOM     14  O   UNL     1      35.406  19.243 225.227  1.00  0.00    -0.550 OA
ENDBRANCH  11  12
ENDBRANCH  10  11
ENDBRANCH   9  10
ENDBRANCH   8   9
ENDBRANCH   7   8
ENDBRANCH   6   7
ENDBRANCH   5   6
ENDBRANCH   4   5
ENDBRANCH   3   4
ENDBRANCH   2   3
ENDBRANCH   1   2
BRANCH   1  15
ATOM     15  C   UNL     1      42.022  23.204 224.766  1.00  0.00     0.000 C 
BRANCH  15  16
ATOM     16  C   UNL     1      42.077  23.904 226.135  1.00  0.00     0.000 C 
BRANCH  16  17
ATOM     17  C   UNL     1      42.978  25.152 226.132  1.00  0.00     0.000 C 
BRANCH  17  18
ATOM     18  C   UNL     1      42.185  26.444 226.395  1.00  0.00    -0.000 C 
BRANCH  18  19
ATOM     19  C   UNL     1      40.801  26.165 227.007  1.00  0.00    -0.000 C 
BRANCH  19  20
ATOM     20  C   UNL     1      39.716  27.105 226.462  1.00  0.00    -0.000 C 
BRANCH  20  21
ATOM     21  C   UNL     1      38.914  26.486 225.304  1.00  0.00    -0.000 C 
BRANCH  21  22
ATOM     22  C   UNL     1      38.215  25.173 225.723  1.00  0.00    -0.000 C 
BRANCH  22  23
ATOM     23  C   UNL     1      36.679  25.289 225.817  1.00  0.00    -0.000 C 
BRANCH  23  24
ATOM     24  C   UNL     1      35.920  24.877 224.546  1.00  0.00    -0.000 C 
BRANCH  24  25
ATOM     25  C   UNL     1      36.822  24.189 223.510  1.00  0.00    -0.003 C 
ATOM     26  C   UNL     1      36.018  23.227 222.640  1.00  0.00     0.004 C 
ENDBRANCH  24  25
ENDBRANCH  23  24
ENDBRANCH  22  23
ENDBRANCH  21  22
ENDBRANCH  20  21
ENDBRANCH  19  20
ENDBRANCH  18  19
ENDBRANCH  17  18
ENDBRANCH  16  17
ENDBRANCH  15  16
ENDBRANCH   1  15
TORSDOF 22
ENDMDL
MODEL 2
REMARK VINA RESULT:    -4.203      1.833      5.823
REMARK INTER + INTRA:         -13.816
REMARK INTER:                  -9.526
REMARK INTRA:                  -4.290
REMARK UNBOUND:                -4.208
REMARK SMILES CCCCCCCCCCCCCCCCCCCCCCCC(=O)[O-]
REMARK SMILES IDX 13 1 14 2 15 3 16 4 17 5 18 6 19 7 20 8 21 9 22 10 23 11
REMARK SMILES IDX 24 12 25 13 26 14 12 15 11 16 10 17 9 18 8 19 7 20 6 21 5 22
REMARK SMILES IDX 4 23 3 24 2 25 1 26
REMARK H PARENT
REMARK Flexibility Score: inf
ROOT
ATOM      1  C   UNL     1      38.940  26.415 226.948  1.00  0.00     0.000 C 
ENDROOT
BRANCH   1   2
ATOM      2  C   UNL     1      40.147  26.791 226.073  1.00  0.00     0.000 C 
BRANCH   2   3
ATOM      3  C   UNL     1      41.422  27.064 226.891  1.00  0.00     0.000 C 
BRANCH   3   4
ATOM      4  C   UNL     1      42.543  26.012 226.746  1.00  0.00     0.000 C 
BRANCH   4   5
ATOM      5  C   UNL     1      42.426  25.082 225.525  1.00  0.00     0.000 C 
BRANCH   5   6
ATOM      6  C   UNL     1      42.111  23.626 225.907  1.00  0.00     0.000 C 
BRANCH   6   7
ATOM      7  C   UNL     1      41.055  22.988 224.986  1.00  0.00     0.000 C 
BRANCH   7   8
ATOM      8  C   UNL     1      41.124  23.432 223.511  1.00  0.00     0.000 C 
BRANCH   8   9
ATOM      9  C   UNL     1      39.851  24.117 222.972  1.00  0.00     0.000 C 
BRANCH   9  10
ATOM     10  C   UNL     1      38.621  24.012 223.891  1.00  0.00     0.006 C 
BRANCH  10  11
ATOM     11  C   UNL     1      37.697  25.234 223.791  1.00  0.00     0.053 C 
BRANCH  11  12
ATOM     12  C   UNL     1      36.387  24.962 224.462  1.00  0.00     0.041 C 
ATOM     13  O   UNL     1      35.774  23.884 224.242  1.00  0.00    -0.550 OA
ATOM     14  O   UNL     1      35.827  25.911 225.310  1.00  0.00    -0.550 OA
ENDBRANCH  11  12
ENDBRANCH  10  11
ENDBRANCH   9  10
ENDBRANCH   8   9
ENDBRANCH   7   8
ENDBRANCH   6   7
ENDBRANCH   5   6
ENDBRANCH   4   5
ENDBRANCH   3   4
ENDBRANCH   2   3
ENDBRANCH   1   2
BRANCH   1  15
ATOM     15  C   UNL     1      39.201  25.177 227.827  1.00  0.00     0.000 C 
BRANCH  15  16
ATOM     16  C   UNL     1      38.338  23.947 227.491  1.00  0.00     0.000 C 
BRANCH  16  17
ATOM     17  C   UNL     1      39.025  22.619 227.854  1.00  0.00     0.000 C 
BRANCH  17  18
ATOM     18  C   UNL     1      38.061  21.422 227.768  1.00  0.00    -0.000 C 
BRANCH  18  19
ATOM     19  C   UNL     1      37.134  21.506 226.543  1.00  0.00    -0.000 C 
BRANCH  19  20
ATOM     20  C   UNL     1      37.437  20.418 225.501  1.00  0.00    -0.000 C 
BRANCH  20  21
ATOM     21  C   UNL     1      37.630  19.027 226.128  1.00  0.00    -0.000 C 
BRANCH  21  22
ATOM     22  C   UNL     1      39.046  18.467 225.866  1.00  0.00    -0.000 C 
BRANCH  22  23
ATOM     23  C   UNL     1      40.009  19.486 225.222  1.00  0.00    -0.000 C 
BRANCH  23  24
ATOM     24  C   UNL     1      41.426  18.955 224.950  1.00  0.00    -0.000 C 
BRANCH  24  25
ATOM     25  C   UNL     1      42.179  19.782 223.897  1.00  0.00    -0.003 C 
ATOM     26  C   UNL     1      41.425  19.791 222.570  1.00  0.00     0.004 C 
ENDBRANCH  24  25
ENDBRANCH  23  24
ENDBRANCH  22  23
ENDBRANCH  21  22
ENDBRANCH  20  21
ENDBRANCH  19  20
ENDBRANCH  18  19
ENDBRANCH  17  18
ENDBRANCH  16  17
ENDBRANCH  15  16
ENDBRANCH   1  15
TORSDOF 22
ENDMDL
MODEL 3
REMARK VINA RESULT:    -4.190      2.679      4.795
REMARK INTER + INTRA:         -13.786
REMARK INTER:                  -9.240
REMARK INTRA:                  -4.546
REMARK UNBOUND:                -4.208
REMARK SMILES CCCCCCCCCCCCCCCCCCCCCCCC(=O)[O-]
REMARK SMILES IDX 13 1 14 2 15 3 16 4 17 5 18 6 19 7 20 8 21 9 22 10 23 11
REMARK SMILES IDX 24 12 25 13 26 14 12 15 11 16 10 17 9 18 8 19 7 20 6 21 5 22
REMARK SMILES IDX 4 23 3 24 2 25 1 26
REMARK H PARENT
REMARK Flexibility Score: inf
ROOT
ATOM      1  C   UNL     1      38.815  21.845 226.900  1.00  0.00     0.000 C 
ENDROOT
BRANCH   1   2
ATOM      2  C   UNL     1      37.318  21.960 226.568  1.00  0.00     0.000 C 
BRANCH   2   3
ATOM      3  C   UNL     1      36.812  20.823 225.661  1.00  0.00     0.000 C 
BRANCH   3   4
ATOM      4  C   UNL     1      35.939  19.757 226.356  1.00  0.00     0.000 C 
BRANCH   4   5
ATOM      5  C   UNL     1      36.534  18.338 226.402  1.00  0.00     0.000 C 
BRANCH   5   6
ATOM      6  C   UNL     1      37.902  18.285 227.103  1.00  0.00     0.000 C 
BRANCH   6   7
ATOM      7  C   UNL     1      39.063  18.054 226.117  1.00  0.00     0.000 C 
BRANCH   7   8
ATOM      8  C   UNL     1      40.459  18.419 226.658  1.00  0.00     0.000 C 
BRANCH   8   9
ATOM      9  C   UNL     1      41.316  19.296 225.721  1.00  0.00     0.000 C 
BRANCH   9  10
ATOM     10  C   UNL     1      40.658  19.640 224.374  1.00  0.00     0.006 C 
BRANCH  10  11
ATOM     11  C   UNL     1      41.555  19.313 223.172  1.00  0.00     0.053 C 
BRANCH  11  12
ATOM     12  C   UNL     1      42.908  19.931 223.340  1.00  0.00     0.041 C 
ATOM     13  O   UNL     1      43.887  19.224 223.702  1.00  0.00    -0.550 OA
ATOM     14  O   UNL     1      43.084  21.292 223.127  1.00  0.00    -0.550 OA
ENDBRANCH  11  12
ENDBRANCH  10  11
ENDBRANCH   9  10
ENDBRANCH   8   9
ENDBRANCH   7   8
ENDBRANCH   6   7
ENDBRANCH   5   6
ENDBRANCH   4   5
ENDBRANCH   3   4
ENDBRANCH   2   3
ENDBRANCH   1   2
BRANCH   1  15
ATOM     15  C   UNL     1      39.366  23.092 227.618  1.00  0.00     0.000 C 
BRANCH  15  16
ATOM     16  C   UNL     1      40.743  23.571 227.125  1.00  0.00     0.000 C 
BRANCH  16  17
ATOM     17  C   UNL     1      41.134  22.966 225.766  1.00  0.00     0.000 C 
BRANCH  17  18
ATOM     18  C   UNL     1      41.617  24.034 224.769  1.00  0.00    -0.000 C 
BRANCH  18  19
ATOM     19  C   UNL     1      40.915  23.918 223.405  1.00  0.00    -0.000 C 
BRANCH  19  20
ATOM     20  C   UNL     1      39.643  23.058 223.468  1.00  0.00    -0.000 C 
BRANCH  20  21
ATOM     21  C   UNL     1      38.492  23.631 222.623  1.00  0.00    -0.000 C 
BRANCH  21  22
ATOM     22  C   UNL     1      37.271  24.010 223.491  1.00  0.00    -0.000 C 
BRANCH  22  23
ATOM     23  C   UNL     1      37.314  25.455 224.027  1.00  0.00    -0.000 C 
BRANCH  23  24
ATOM     24  C   UNL     1      37.883  25.602 225.448  1.00  0.00    -0.000 C 
BRANCH  24  25
ATOM     25  C   UNL     1      39.132  26.495 225.499  1.00  0.00    -0.003 C 
ATOM     26  C   UNL     1      39.373  27.014 226.914  1.00  0.00     0.004 C 
ENDBRANCH  24  25
ENDBRANCH  23  24
ENDBRANCH  22  23
ENDBRANCH  21  22
ENDBRANCH  20  21
ENDBRANCH  19  20
ENDBRANCH  18  19
ENDBRANCH  17  18
ENDBRANCH  16  17
ENDBRANCH  15  16
ENDBRANCH   1  15
TORSDOF 22
ENDMDL
MODEL 4
REMARK VINA RESULT:    -4.181      1.535      2.753
REMARK INTER + INTRA:         -13.767
REMARK INTER:                 -10.051
REMARK INTRA:                  -3.716
REMARK UNBOUND:                -4.208
REMARK SMILES CCCCCCCCCCCCCCCCCCCCCCCC(=O)[O-]
REMARK SMILES IDX 13 1 14 2 15 3 16 4 17 5 18 6 19 7 20 8 21 9 22 10 23 11
REMARK SMILES IDX 24 12 25 13 26 14 12 15 11 16 10 17 9 18 8 19 7 20 6 21 5 22
REMARK SMILES IDX 4 23 3 24 2 25 1 26
REMARK H PARENT
REMARK Flexibility Score: inf
ROOT
ATOM      1  C   UNL     1      42.321  23.541 226.734  1.00  0.00     0.000 C 
ENDROOT
BRANCH   1   2
ATOM      2  C   UNL     1      42.188  23.934 225.253  1.00  0.00     0.000 C 
BRANCH   2   3
ATOM      3  C   UNL     1      41.792  22.753 224.349  1.00  0.00     0.000 C 
BRANCH   3   4
ATOM      4  C   UNL     1      40.349  22.788 223.803  1.00  0.00     0.000 C 
BRANCH   4   5
ATOM      5  C   UNL     1      39.416  21.679 224.324  1.00  0.00     0.000 C 
BRANCH   5   6
ATOM      6  C   UNL     1      38.415  22.183 225.377  1.00  0.00     0.000 C 
BRANCH   6   7
ATOM      7  C   UNL     1      38.926  21.992 226.817  1.00  0.00     0.000 C 
BRANCH   7   8
ATOM      8  C   UNL     1      39.802  20.743 227.038  1.00  0.00     0.000 C 
BRANCH   8   9
ATOM      9  C   UNL     1      39.224  19.701 228.016  1.00  0.00     0.000 C 
BRANCH   9  10
ATOM     10  C   UNL     1      37.689  19.581 228.002  1.00  0.00     0.006 C 
BRANCH  10  11
ATOM     11  C   UNL     1      37.173  18.683 226.869  1.00  0.00     0.053 C 
BRANCH  11  12
ATOM     12  C   UNL     1      36.025  19.334 226.161  1.00  0.00     0.041 C 
ATOM     13  O   UNL     1      35.502  20.379 226.631  1.00  0.00    -0.550 OA
ATOM     14  O   UNL     1      35.514  18.771 224.998  1.00  0.00    -0.550 OA
ENDBRANCH  11  12
ENDBRANCH  10  11
ENDBRANCH   9  10
ENDBRANCH   8   9
ENDBRANCH   7   8
ENDBRANCH   6   7
ENDBRANCH   5   6
ENDBRANCH   4   5
ENDBRANCH   3   4
ENDBRANCH   2   3
ENDBRANCH   1   2
BRANCH   1  15
ATOM     15  C   UNL     1      42.111  24.732 227.689  1.00  0.00     0.000 C 
BRANCH  15  16
ATOM     16  C   UNL     1      40.665  25.253 227.769  1.00  0.00     0.000 C 
BRANCH  16  17
ATOM     17  C   UNL     1      40.573  26.783 227.638  1.00  0.00     0.000 C 
BRANCH  17  18
ATOM     18  C   UNL     1      39.819  27.215 226.369  1.00  0.00    -0.000 C 
BRANCH  18  19
ATOM     19  C   UNL     1      39.366  26.013 225.522  1.00  0.00    -0.000 C 
BRANCH  19  20
ATOM     20  C   UNL     1      37.842  25.815 225.548  1.00  0.00    -0.000 C 
BRANCH  20  21
ATOM     21  C   UNL     1      37.240  25.617 224.146  1.00  0.00    -0.000 C 
BRANCH  21  22
ATOM     22  C   UNL     1      35.928  24.804 224.190  1.00  0.00    -0.000 C 
BRANCH  22  23
ATOM     23  C   UNL     1      35.794  23.776 223.047  1.00  0.00    -0.000 C 
BRANCH  23  24
ATOM     24  C   UNL     1      36.766  23.983 221.874  1.00  0.00    -0.000 C 
BRANCH  24  25
ATOM     25  C   UNL     1      36.097  23.789 220.505  1.00  0.00    -0.003 C 
ATOM     26  C   UNL     1      37.085  23.220 219.491  1.00  0.00     0.004 C 
ENDBRANCH  24  25
ENDBRANCH  23  24
ENDBRANCH  22  23
ENDBRANCH  21  22
ENDBRANCH  20  21
ENDBRANCH  19  20
ENDBRANCH  18  19
ENDBRANCH  17  18
ENDBRANCH  16  17
ENDBRANCH  15  16
ENDBRANCH   1  15
TORSDOF 22
ENDMDL
MODEL 5
REMARK VINA RESULT:    -4.134      2.850      6.640
REMARK INTER + INTRA:         -13.659
REMARK INTER:                  -9.628
REMARK INTRA:                  -4.032
REMARK UNBOUND:                -4.208
REMARK SMILES CCCCCCCCCCCCCCCCCCCCCCCC(=O)[O-]
REMARK SMILES IDX 13 1 14 2 15 3 16 4 17 5 18 6 19 7 20 8 21 9 22 10 23 11
REMARK SMILES IDX 24 12 25 13 26 14 12 15 11 16 10 17 9 18 8 19 7 20 6 21 5 22
REMARK SMILES IDX 4 23 3 24 2 25 1 26
REMARK H PARENT
REMARK Flexibility Score: inf
ROOT
ATOM      1  C   UNL     1      38.612  25.470 227.675  1.00  0.00     0.000 C 
ENDROOT
BRANCH   1   2
ATOM      2  C   UNL     1      39.203  25.816 226.298  1.00  0.00     0.000 C 
BRANCH   2   3
ATOM      3  C   UNL     1      38.130  25.991 225.208  1.00  0.00     0.000 C 
BRANCH   3   4
ATOM      4  C   UNL     1      36.757  25.357 225.518  1.00  0.00     0.000 C 
BRANCH   4   5
ATOM      5  C   UNL     1      36.078  24.636 224.340  1.00  0.00     0.000 C 
BRANCH   5   6
ATOM      6  C   UNL     1      36.959  24.585 223.080  1.00  0.00     0.000 C 
BRANCH   6   7
ATOM      7  C   UNL     1      37.727  23.256 222.949  1.00  0.00     0.000 C 
BRANCH   7   8
ATOM      8  C   UNL     1      39.102  23.364 222.262  1.00  0.00     0.000 C 
BRANCH   8   9
ATOM      9  C   UNL     1      40.179  24.123 223.065  1.00  0.00     0.000 C 
BRANCH   9  10
ATOM     10  C   UNL     1      41.323  23.246 223.604  1.00  0.00     0.006 C 
BRANCH  10  11
ATOM     11  C   UNL     1      41.465  21.919 222.846  1.00  0.00     0.053 C 
BRANCH  11  12
ATOM     12  C   UNL     1      42.613  21.124 223.384  1.00  0.00     0.041 C 
ATOM     13  O   UNL     1      42.608  20.733 224.581  1.00  0.00    -0.550 OA
ATOM     14  O   UNL     1      43.704  20.838 222.572  1.00  0.00    -0.550 OA
ENDBRANCH  11  12
ENDBRANCH  10  11
ENDBRANCH   9  10
ENDBRANCH   8   9
ENDBRANCH   7   8
ENDBRANCH   6   7
ENDBRANCH   5   6
ENDBRANCH   4   5
ENDBRANCH   3   4
ENDBRANCH   2   3
ENDBRANCH   1   2
BRANCH   1  15
ATOM     15  C   UNL     1      38.817  23.991 228.058  1.00  0.00     0.000 C 
BRANCH  15  16
ATOM     16  C   UNL     1      39.737  23.196 227.114  1.00  0.00     0.000 C 
BRANCH  16  17
ATOM     17  C   UNL     1      38.958  22.303 226.133  1.00  0.00     0.000 C 
BRANCH  17  18
ATOM     18  C   UNL     1      37.568  21.921 226.670  1.00  0.00    -0.000 C 
BRANCH  18  19
ATOM     19  C   UNL     1      36.844  20.918 225.755  1.00  0.00    -0.000 C 
BRANCH  19  20
ATOM     20  C   UNL     1      36.041  19.873 226.545  1.00  0.00    -0.000 C 
BRANCH  20  21
ATOM     21  C   UNL     1      36.551  18.438 226.329  1.00  0.00    -0.000 C 
BRANCH  21  22
ATOM     22  C   UNL     1      38.055  18.407 225.977  1.00  0.00    -0.000 C 
BRANCH  22  23
ATOM     23  C   UNL     1      38.981  18.339 227.208  1.00  0.00    -0.000 C 
BRANCH  23  24
ATOM     24  C   UNL     1      38.305  17.856 228.502  1.00  0.00    -0.000 C 
BRANCH  24  25
ATOM     25  C   UNL     1      38.479  18.840 229.668  1.00  0.00    -0.003 C 
ATOM     26  C   UNL     1      39.369  20.012 229.263  1.00  0.00     0.004 C 
ENDBRANCH  24  25
ENDBRANCH  23  24
ENDBRANCH  22  23
ENDBRANCH  21  22
ENDBRANCH  20  21
ENDBRANCH  19  20
ENDBRANCH  18  19
ENDBRANCH  17  18
ENDBRANCH  16  17
ENDBRANCH  15  16
ENDBRANCH   1  15
TORSDOF 22
ENDMDL
MODEL 6
REMARK VINA RESULT:    -4.086      1.642      4.296
REMARK INTER + INTRA:         -13.548
REMARK INTER:                  -9.321
REMARK INTRA:                  -4.227
REMARK UNBOUND:                -4.208
REMARK SMILES CCCCCCCCCCCCCCCCCCCCCCCC(=O)[O-]
REMARK SMILES IDX 13 1 14 2 15 3 16 4 17 5 18 6 19 7 20 8 21 9 22 10 23 11
REMARK SMILES IDX 24 12 25 13 26 14 12 15 11 16 10 17 9 18 8 19 7 20 6 21 5 22
REMARK SMILES IDX 4 23 3 24 2 25 1 26
REMARK H PARENT
REMARK Flexibility Score: inf
ROOT
ATOM      1  C   UNL     1      41.064  22.379 224.965  1.00  0.00     0.000 C 
ENDROOT
BRANCH   1   2
ATOM      2  C   UNL     1      39.881  21.787 225.748  1.00  0.00     0.000 C 
BRANCH   2   3
ATOM      3  C   UNL     1      39.913  22.136 227.246  1.00  0.00     0.000 C 
BRANCH   3   4
ATOM      4  C   UNL     1      38.720  21.616 228.077  1.00  0.00     0.000 C 
BRANCH   4   5
ATOM      5  C   UNL     1      39.039  20.461 229.044  1.00  0.00     0.000 C 
BRANCH   5   6
ATOM      6  C   UNL     1      40.515  20.032 229.000  1.00  0.00     0.000 C 
BRANCH   6   7
ATOM      7  C   UNL     1      40.702  18.613 228.432  1.00  0.00     0.000 C 
BRANCH   7   8
ATOM      8  C   UNL     1      39.417  17.950 227.899  1.00  0.00     0.000 C 
BRANCH   8   9
ATOM      9  C   UNL     1      39.270  17.942 226.364  1.00  0.00     0.000 C 
BRANCH   9  10
ATOM     10  C   UNL     1      37.971  18.577 225.835  1.00  0.00     0.006 C 
BRANCH  10  11
ATOM     11  C   UNL     1      36.803  18.456 226.823  1.00  0.00     0.053 C 
BRANCH  11  12
ATOM     12  C   UNL     1      35.689  19.378 226.439  1.00  0.00     0.041 C 
ATOM     13  O   UNL     1      34.695  18.940 225.800  1.00  0.00    -0.550 OA
ATOM     14  O   UNL     1      35.759  20.728 226.759  1.00  0.00    -0.550 OA
ENDBRANCH  11  12
ENDBRANCH  10  11
ENDBRANCH   9  10
ENDBRANCH   8   9
ENDBRANCH   7   8
ENDBRANCH   6   7
ENDBRANCH   5   6
ENDBRANCH   4   5
ENDBRANCH   3   4
ENDBRANCH   2   3
ENDBRANCH   1   2
BRANCH   1  15
ATOM     15  C   UNL     1      40.782  22.501 223.455  1.00  0.00     0.000 C 
BRANCH  15  16
ATOM     16  C   UNL     1      40.066  23.795 223.030  1.00  0.00     0.000 C 
BRANCH  16  17
ATOM     17  C   UNL     1      38.676  23.537 222.423  1.00  0.00     0.000 C 
BRANCH  17  18
ATOM     18  C   UNL     1      37.556  24.237 223.211  1.00  0.00    -0.000 C 
BRANCH  18  19
ATOM     19  C   UNL     1      36.947  23.328 224.293  1.00  0.00    -0.000 C 
BRANCH  19  20
ATOM     20  C   UNL     1      36.942  23.986 225.681  1.00  0.00    -0.000 C 
BRANCH  20  21
ATOM     21  C   UNL     1      37.479  25.428 225.661  1.00  0.00    -0.000 C 
BRANCH  21  22
ATOM     22  C   UNL     1      38.771  25.575 226.495  1.00  0.00    -0.000 C 
BRANCH  22  23
ATOM     23  C   UNL     1      39.736  26.654 225.963  1.00  0.00    -0.000 C 
BRANCH  23  24
ATOM     24  C   UNL     1      41.132  26.648 226.607  1.00  0.00    -0.000 C 
BRANCH  24  25
ATOM     25  C   UNL     1      42.111  25.700 225.898  1.00  0.00    -0.003 C 
ATOM     26  C   UNL     1      42.906  24.881 226.911  1.00  0.00     0.004 C 
ENDBRANCH  24  25
ENDBRANCH  23  24
ENDBRANCH  22  23
ENDBRANCH  21  22
ENDBRANCH  20  21
ENDBRANCH  19  20
ENDBRANCH  18  19
ENDBRANCH  17  18
ENDBRANCH  16  17
ENDBRANCH  15  16
ENDBRANCH   1  15
TORSDOF 22
ENDMDL
MODEL 7
REMARK VINA RESULT:    -4.062      2.422      6.166
REMARK INTER + INTRA:         -13.494
REMARK INTER:                  -9.607
REMARK INTRA:                  -3.887
REMARK UNBOUND:                -4.208
REMARK SMILES CCCCCCCCCCCCCCCCCCCCCCCC(=O)[O-]
REMARK SMILES IDX 13 1 14 2 15 3 16 4 17 5 18 6 19 7 20 8 21 9 22 10 23 11
REMARK SMILES IDX 24 12 25 13 26 14 12 15 11 16 10 17 9 18 8 19 7 20 6 21 5 22
REMARK SMILES IDX 4 23 3 24 2 25 1 26
REMARK H PARENT
REMARK Flexibility Score: inf
ROOT
ATOM      1  C   UNL     1      41.039  19.983 226.768  1.00  0.00     0.000 C 
ENDROOT
BRANCH   1   2
ATOM      2  C   UNL     1      41.033  18.849 225.730  1.00  0.00     0.000 C 
BRANCH   2   3
ATOM      3  C   UNL     1      40.676  19.331 224.312  1.00  0.00     0.000 C 
BRANCH   3   4
ATOM      4  C   UNL     1      41.877  19.619 223.386  1.00  0.00     0.000 C 
BRANCH   4   5
ATOM      5  C   UNL     1      41.642  20.696 222.311  1.00  0.00     0.000 C 
BRANCH   5   6
ATOM      6  C   UNL     1      41.477  22.106 222.902  1.00  0.00     0.000 C 
BRANCH   6   7
ATOM      7  C   UNL     1      40.048  22.654 222.735  1.00  0.00     0.000 C 
BRANCH   7   8
ATOM      8  C   UNL     1      39.892  24.163 223.007  1.00  0.00     0.000 C 
BRANCH   8   9
ATOM      9  C   UNL     1      39.785  24.554 224.495  1.00  0.00     0.000 C 
BRANCH   9  10
ATOM     10  C   UNL     1      38.499  25.310 224.875  1.00  0.00     0.006 C 
BRANCH  10  11
ATOM     11  C   UNL     1      37.437  25.273 223.767  1.00  0.00     0.053 C 
BRANCH  11  12
ATOM     12  C   UNL     1      36.101  24.900 224.329  1.00  0.00     0.041 C 
ATOM     13  O   UNL     1      35.372  24.066 223.729  1.00  0.00    -0.550 OA
ATOM     14  O   UNL     1      35.646  25.496 225.499  1.00  0.00    -0.550 OA
ENDBRANCH  11  12
ENDBRANCH  10  11
ENDBRANCH   9  10
ENDBRANCH   8   9
ENDBRANCH   7   8
ENDBRANCH   6   7
ENDBRANCH   5   6
ENDBRANCH   4   5
ENDBRANCH   3   4
ENDBRANCH   2   3
ENDBRANCH   1   2
BRANCH   1  15
ATOM     15  C   UNL     1      40.497  21.311 226.206  1.00  0.00     0.000 C 
BRANCH  15  16
ATOM     16  C   UNL     1      39.103  21.714 226.719  1.00  0.00     0.000 C 
BRANCH  16  17
ATOM     17  C   UNL     1      37.992  21.470 225.683  1.00  0.00     0.000 C 
BRANCH  17  18
ATOM     18  C   UNL     1      36.892  20.535 226.216  1.00  0.00    -0.000 C 
BRANCH  18  19
ATOM     19  C   UNL     1      37.156  19.062 225.860  1.00  0.00    -0.000 C 
BRANCH  19  20
ATOM     20  C   UNL     1      36.200  18.101 226.582  1.00  0.00    -0.000 C 
BRANCH  20  21
ATOM     21  C   UNL     1      36.862  17.376 227.767  1.00  0.00    -0.000 C 
BRANCH  21  22
ATOM     22  C   UNL     1      38.404  17.433 227.690  1.00  0.00    -0.000 C 
BRANCH  22  23
ATOM     23  C   UNL     1      39.096  17.422 229.069  1.00  0.00    -0.000 C 
BRANCH  23  24
ATOM     24  C   UNL     1      38.550  18.447 230.076  1.00  0.00    -0.000 C 
BRANCH  24  25
ATOM     25  C   UNL     1      38.596  19.887 229.543  1.00  0.00    -0.003 C 
ATOM     26  C   UNL     1      39.585  20.731 230.342  1.00  0.00     0.004 C 
ENDBRANCH  24  25
ENDBRANCH  23  24
ENDBRANCH  22  23
ENDBRANCH  21  22
ENDBRANCH  20  21
ENDBRANCH  19  20
ENDBRANCH  18  19
ENDBRANCH  17  18
ENDBRANCH  16  17
ENDBRANCH  15  16
ENDBRANCH   1  15
TORSDOF 22
ENDMDL
MODEL 8
REMARK VINA RESULT:    -4.058      1.653      2.806
REMARK INTER + INTRA:         -13.485
REMARK INTER:                  -9.220
REMARK INTRA:                  -4.264
REMARK UNBOUND:                -4.208
REMARK SMILES CCCCCCCCCCCCCCCCCCCCCCCC(=O)[O-]
REMARK SMILES IDX 13 1 14 2 15 3 16 4 17 5 18 6 19 7 20 8 21 9 22 10 23 11
REMARK SMILES IDX 24 12 25 13 26 14 12 15 11 16 10 17 9 18 8 19 7 20 6 21 5 22
REMARK SMILES IDX 4 23 3 24 2 25 1 26
REMARK H PARENT
REMARK Flexibility Score: inf
ROOT
ATOM      1  C   UNL     1      41.756  24.050 224.566  1.00  0.00     0.000 C 
ENDROOT
BRANCH   1   2
ATOM      2  C   UNL     1      41.768  22.524 224.758  1.00  0.00     0.000 C 
BRANCH   2   3
ATOM      3  C   UNL     1      42.009  22.102 226.219  1.00  0.00     0.000 C 
BRANCH   3   4
ATOM      4  C   UNL     1      41.411  20.737 226.624  1.00  0.00     0.000 C 
BRANCH   4   5
ATOM      5  C   UNL     1      41.498  19.632 225.557  1.00  0.00     0.000 C 
BRANCH   5   6
ATOM      6  C   UNL     1      40.214  18.791 225.459  1.00  0.00     0.000 C 
BRANCH   6   7
ATOM      7  C   UNL     1      40.346  17.427 226.162  1.00  0.00     0.000 C 
BRANCH   7   8
ATOM      8  C   UNL     1      39.258  17.127 227.212  1.00  0.00     0.000 C 
BRANCH   8   9
ATOM      9  C   UNL     1      38.901  18.305 228.141  1.00  0.00     0.000 C 
BRANCH   9  10
ATOM     10  C   UNL     1      37.506  18.913 227.908  1.00  0.00     0.006 C 
BRANCH  10  11
ATOM     11  C   UNL     1      36.708  18.175 226.824  1.00  0.00     0.053 C 
BRANCH  11  12
ATOM     12  C   UNL     1      35.769  19.112 226.131  1.00  0.00     0.041 C 
ATOM     13  O   UNL     1      35.340  20.136 226.726  1.00  0.00    -0.550 OA
ATOM     14  O   UNL     1      35.343  18.840 224.836  1.00  0.00    -0.550 OA
ENDBRANCH  11  12
ENDBRANCH  10  11
ENDBRANCH   9  10
ENDBRANCH   8   9
ENDBRANCH   7   8
ENDBRANCH   6   7
ENDBRANCH   5   6
ENDBRANCH   4   5
ENDBRANCH   3   4
ENDBRANCH   2   3
ENDBRANCH   1   2
BRANCH   1  15
ATOM     15  C   UNL     1      42.118  24.817 225.852  1.00  0.00     0.000 C 
BRANCH  15  16
ATOM     16  C   UNL     1      41.320  26.113 226.082  1.00  0.00     0.000 C 
BRANCH  16  17
ATOM     17  C   UNL     1      40.068  25.899 226.950  1.00  0.00     0.000 C 
BRANCH  17  18
ATOM     18  C   UNL     1      40.335  24.957 228.136  1.00  0.00    -0.000 C 
BRANCH  18  19
ATOM     19  C   UNL     1      39.400  23.735 228.134  1.00  0.00    -0.000 C 
BRANCH  19  20
ATOM     20  C   UNL     1      38.612  23.599 226.821  1.00  0.00    -0.000 C 
BRANCH  20  21
ATOM     21  C   UNL     1      38.156  22.156 226.544  1.00  0.00    -0.000 C 
BRANCH  21  22
ATOM     22  C   UNL     1      38.056  21.863 225.031  1.00  0.00    -0.000 C 
BRANCH  22  23
ATOM     23  C   UNL     1      38.203  23.115 224.143  1.00  0.00    -0.000 C 
BRANCH  23  24
ATOM     24  C   UNL     1      37.001  23.406 223.230  1.00  0.00    -0.000 C 
BRANCH  24  25
ATOM     25  C   UNL     1      36.455  24.832 223.401  1.00  0.00    -0.003 C 
ATOM     26  C   UNL     1      36.026  25.082 224.844  1.00  0.00     0.004 C 
ENDBRANCH  24  25
ENDBRANCH  23  24
ENDBRANCH  22  23
ENDBRANCH  21  22
ENDBRANCH  20  21
ENDBRANCH  19  20
ENDBRANCH  18  19
ENDBRANCH  17  18
ENDBRANCH  16  17
ENDBRANCH  15  16
ENDBRANCH   1  15
TORSDOF 22
ENDMDL
MODEL 9
REMARK VINA RESULT:    -4.039      2.080      5.285
REMARK INTER + INTRA:         -13.443
REMARK INTER:                  -8.532
REMARK INTRA:                  -4.910
REMARK UNBOUND:                -4.208
REMARK SMILES CCCCCCCCCCCCCCCCCCCCCCCC(=O)[O-]
REMARK SMILES IDX 13 1 14 2 15 3 16 4 17 5 18 6 19 7 20 8 21 9 22 10 23 11
REMARK SMILES IDX 24 12 25 13 26 14 12 15 11 16 10 17 9 18 8 19 7 20 6 21 5 22
REMARK SMILES IDX 4 23 3 24 2 25 1 26
REMARK H PARENT
REMARK Flexibility Score: inf
ROOT
ATOM      1  C   UNL     1      40.350  26.477 226.106  1.00  0.00     0.000 C 
ENDROOT
BRANCH   1   2
ATOM      2  C   UNL     1      38.898  25.980 226.003  1.00  0.00     0.000 C 
BRANCH   2   3
ATOM      3  C   UNL     1      38.340  26.042 224.570  1.00  0.00     0.000 C 
BRANCH   3   4
ATOM      4  C   UNL     1      37.421  24.870 224.163  1.00  0.00     0.000 C 
BRANCH   4   5
ATOM      5  C   UNL     1      38.139  23.624 223.612  1.00  0.00     0.000 C 
BRANCH   5   6
ATOM      6  C   UNL     1      37.862  22.358 224.439  1.00  0.00     0.000 C 
BRANCH   6   7
ATOM      7  C   UNL     1      37.166  22.666 225.778  1.00  0.00     0.000 C 
BRANCH   7   8
ATOM      8  C   UNL     1      37.931  22.200 227.032  1.00  0.00     0.000 C 
BRANCH   8   9
ATOM      9  C   UNL     1      39.468  22.306 226.941  1.00  0.00     0.000 C 
BRANCH   9  10
ATOM     10  C   UNL     1      40.230  21.730 228.147  1.00  0.00     0.006 C 
BRANCH  10  11
ATOM     11  C   UNL     1      39.498  20.551 228.806  1.00  0.00     0.053 C 
BRANCH  11  12
ATOM     12  C   UNL     1      39.358  20.774 230.279  1.00  0.00     0.041 C 
ATOM     13  O   UNL     1      40.091  20.146 231.088  1.00  0.00    -0.550 OA
ATOM     14  O   UNL     1      38.396  21.654 230.763  1.00  0.00    -0.550 OA
ENDBRANCH  11  12
ENDBRANCH  10  11
ENDBRANCH   9  10
ENDBRANCH   8   9
ENDBRANCH   7   8
ENDBRANCH   6   7
ENDBRANCH   5   6
ENDBRANCH   4   5
ENDBRANCH   3   4
ENDBRANCH   2   3
ENDBRANCH   1   2
BRANCH   1  15
ATOM     15  C   UNL     1      41.318  25.394 226.621  1.00  0.00     0.000 C 
BRANCH  15  16
ATOM     16  C   UNL     1      42.334  24.885 225.583  1.00  0.00     0.000 C 
BRANCH  16  17
ATOM     17  C   UNL     1      41.677  24.076 224.451  1.00  0.00     0.000 C 
BRANCH  17  18
ATOM     18  C   UNL     1      42.013  22.577 224.536  1.00  0.00    -0.000 C 
BRANCH  18  19
ATOM     19  C   UNL     1      41.546  21.803 223.290  1.00  0.00    -0.000 C 
BRANCH  19  20
ATOM     20  C   UNL     1      40.917  20.446 223.642  1.00  0.00    -0.000 C 
BRANCH  20  21
ATOM     21  C   UNL     1      41.612  19.754 224.828  1.00  0.00    -0.000 C 
BRANCH  21  22
ATOM     22  C   UNL     1      40.621  18.927 225.676  1.00  0.00    -0.000 C 
BRANCH  22  23
ATOM     23  C   UNL     1      39.157  19.030 225.199  1.00  0.00    -0.000 C 
BRANCH  23  24
ATOM     24  C   UNL     1      38.120  18.421 226.157  1.00  0.00    -0.000 C 
BRANCH  24  25
ATOM     25  C   UNL     1      36.685  18.518 225.619  1.00  0.00    -0.003 C 
ATOM     26  C   UNL     1      35.770  19.208 226.626  1.00  0.00     0.004 C 
ENDBRANCH  24  25
ENDBRANCH  23  24
ENDBRANCH  22  23
ENDBRANCH  21  22
ENDBRANCH  20  21
ENDBRANCH  19  20
ENDBRANCH  18  19
ENDBRANCH  17  18
ENDBRANCH  16  17
ENDBRANCH  15  16
ENDBRANCH   1  15
TORSDOF 22
ENDMDL
