MODEL 1
REMARK VINA RESULT:    -7.262      0.000      0.000
REMARK INTER + INTRA:          -9.188
REMARK INTER:                  -8.748
REMARK INTRA:                  -0.440
REMARK UNBOUND:                -0.440
REMARK SMILES CCCCc1oc(O)c2ccccc12
REMARK SMILES IDX 4 1 5 2 7 3 6 4 9 5 14 6 10 7 13 8 11 9 12 10 8 11 3 13 2 14
REMARK SMILES IDX 1 15
REMARK H PARENT 8 12
REMARK Flexibility Score: inf
ROOT
ATOM      1  C   UNL     1      15.873 -36.964 -15.687  1.00  0.00     0.076 C 
ENDROOT
BRANCH   1   2
ATOM      2  C   UNL     1      14.827 -37.872 -15.116  1.00  0.00     0.116 A 
ATOM      3  C   UNL     1      13.717 -39.008 -13.676  1.00  0.00     0.290 A 
ATOM      4  O   UNL     1      14.721 -38.166 -13.832  1.00  0.00    -0.430 OA
ATOM      5  C   UNL     1      13.144 -39.281 -14.897  1.00  0.00     0.066 A 
ATOM      6  C   UNL     1      13.853 -38.559 -15.819  1.00  0.00     0.027 A 
ATOM      7  C   UNL     1      12.079 -40.101 -15.259  1.00  0.00     0.016 A 
ATOM      8  C   UNL     1      13.547 -38.607 -17.179  1.00  0.00     0.012 A 
ATOM      9  C   UNL     1      11.743 -40.169 -16.624  1.00  0.00     0.001 A 
ATOM     10  C   UNL     1      12.474 -39.425 -17.580  1.00  0.00     0.001 A 
BRANCH   3  11
ATOM     11  O   UNL     1      13.314 -39.533 -12.454  1.00  0.00    -0.480 OA
ATOM     12  H   UNL     1      12.750 -38.980 -11.819  1.00  0.00     0.297 HD
ENDBRANCH   3  11
ENDBRANCH   1   2
BRANCH   1  13
ATOM     13  C   UNL     1      17.025 -37.784 -16.284  1.00  0.00     0.008 C 
BRANCH  13  14
ATOM     14  C   UNL     1      17.559 -37.181 -17.591  1.00  0.00    -0.003 C 
ATOM     15  C   UNL     1      16.476 -37.033 -18.659  1.00  0.00     0.004 C 
ENDBRANCH  13  14
ENDBRANCH   1  13
TORSDOF 4
ENDMDL
MODEL 2
REMARK VINA RESULT:    -7.130      1.141      4.164
REMARK INTER + INTRA:          -9.029
REMARK INTER:                  -8.585
REMARK INTRA:                  -0.444
REMARK UNBOUND:                -0.440
REMARK SMILES CCCCc1oc(O)c2ccccc12
REMARK SMILES IDX 4 1 5 2 7 3 6 4 9 5 14 6 10 7 13 8 11 9 12 10 8 11 3 13 2 14
REMARK SMILES IDX 1 15
REMARK H PARENT 8 12
REMARK Flexibility Score: inf
ROOT
ATOM      1  C   UNL     1      12.057 -40.122 -15.606  1.00  0.00     0.076 C 
ENDROOT
BRANCH   1   2
ATOM      2  C   UNL     1      13.117 -39.257 -14.997  1.00  0.00     0.116 A 
ATOM      3  C   UNL     1      14.268 -38.234 -13.505  1.00  0.00     0.290 A 
ATOM      4  O   UNL     1      13.260 -39.064 -13.697  1.00  0.00    -0.430 OA
ATOM      5  C   UNL     1      14.804 -37.864 -14.717  1.00  0.00     0.066 A 
ATOM      6  C   UNL     1      14.070 -38.514 -15.672  1.00  0.00     0.027 A 
ATOM      7  C   UNL     1      15.857 -37.014 -15.045  1.00  0.00     0.016 A 
ATOM      8  C   UNL     1      14.336 -38.359 -17.032  1.00  0.00     0.012 A 
ATOM      9  C   UNL     1      16.153 -36.839 -16.410  1.00  0.00     0.001 A 
ATOM     10  C   UNL     1      15.395 -37.508 -17.399  1.00  0.00     0.001 A 
BRANCH   3  11
ATOM     11  O   UNL     1      14.705 -37.804 -12.258  1.00  0.00    -0.480 OA
ATOM     12  H   UNL     1      14.226 -38.101 -11.416  1.00  0.00     0.297 HD
ENDBRANCH   3  11
ENDBRANCH   1   2
BRANCH   1  13
ATOM     13  C   UNL     1      10.888 -39.263 -16.106  1.00  0.00     0.008 C 
BRANCH  13  14
ATOM     14  C   UNL     1      10.365 -39.720 -17.476  1.00  0.00    -0.003 C 
ATOM     15  C   UNL     1      11.490 -40.083 -18.445  1.00  0.00     0.004 C 
ENDBRANCH  13  14
ENDBRANCH   1  13
TORSDOF 4
ENDMDL
MODEL 3
REMARK VINA RESULT:    -7.063      1.459      4.506
REMARK INTER + INTRA:          -8.948
REMARK INTER:                  -8.629
REMARK INTRA:                  -0.319
REMARK UNBOUND:                -0.440
REMARK SMILES CCCCc1oc(O)c2ccccc12
REMARK SMILES IDX 4 1 5 2 7 3 6 4 9 5 14 6 10 7 13 8 11 9 12 10 8 11 3 13 2 14
REMARK SMILES IDX 1 15
REMARK H PARENT 8 12
REMARK Flexibility Score: inf
ROOT
ATOM      1  C   UNL     1      12.116 -40.118 -16.096  1.00  0.00     0.076 C 
ENDROOT
BRANCH   1   2
ATOM      2  C   UNL     1      13.161 -39.280 -15.425  1.00  0.00     0.116 A 
ATOM      3  C   UNL     1      14.273 -38.319 -13.864  1.00  0.00     0.290 A 
ATOM      4  O   UNL     1      13.271 -39.141 -14.116  1.00  0.00    -0.430 OA
ATOM      5  C   UNL     1      14.839 -37.900 -15.046  1.00  0.00     0.066 A 
ATOM      6  C   UNL     1      14.129 -38.510 -16.045  1.00  0.00     0.027 A 
ATOM      7  C   UNL     1      15.900 -37.038 -15.313  1.00  0.00     0.016 A 
ATOM      8  C   UNL     1      14.429 -38.299 -17.391  1.00  0.00     0.012 A 
ATOM      9  C   UNL     1      16.229 -36.806 -16.661  1.00  0.00     0.001 A 
ATOM     10  C   UNL     1      15.496 -37.433 -17.696  1.00  0.00     0.001 A 
BRANCH   3  11
ATOM     11  O   UNL     1      14.680 -37.943 -12.590  1.00  0.00    -0.480 OA
ATOM     12  H   UNL     1      14.735 -38.628 -11.846  1.00  0.00     0.297 HD
ENDBRANCH   3  11
ENDBRANCH   1   2
BRANCH   1  13
ATOM     13  C   UNL     1      11.022 -39.227 -16.700  1.00  0.00     0.008 C 
BRANCH  13  14
ATOM     14  C   UNL     1      10.104 -38.617 -15.631  1.00  0.00    -0.003 C 
ATOM     15  C   UNL     1       8.623 -38.874 -15.910  1.00  0.00     0.004 C 
ENDBRANCH  13  14
ENDBRANCH   1  13
TORSDOF 4
ENDMDL
MODEL 4
REMARK VINA RESULT:    -7.043      0.880      1.362
REMARK INTER + INTRA:          -8.925
REMARK INTER:                  -8.610
REMARK INTRA:                  -0.315
REMARK UNBOUND:                -0.440
REMARK SMILES CCCCc1oc(O)c2ccccc12
REMARK SMILES IDX 4 1 5 2 7 3 6 4 9 5 14 6 10 7 13 8 11 9 12 10 8 11 3 13 2 14
REMARK SMILES IDX 1 15
REMARK H PARENT 8 12
REMARK Flexibility Score: inf
ROOT
ATOM      1  C   UNL     1      15.923 -37.005 -16.196  1.00  0.00     0.076 C 
ENDROOT
BRANCH   1   2
ATOM      2  C   UNL     1      14.861 -37.874 -15.594  1.00  0.00     0.116 A 
ATOM      3  C   UNL     1      13.697 -38.893 -14.109  1.00  0.00     0.290 A 
ATOM      4  O   UNL     1      14.700 -38.055 -14.295  1.00  0.00    -0.430 OA
ATOM      5  C   UNL     1      13.183 -39.280 -15.326  1.00  0.00     0.066 A 
ATOM      6  C   UNL     1      13.926 -38.633 -16.276  1.00  0.00     0.027 A 
ATOM      7  C   UNL     1      12.143 -40.143 -15.661  1.00  0.00     0.016 A 
ATOM      8  C   UNL     1      13.682 -38.804 -17.639  1.00  0.00     0.012 A 
ATOM      9  C   UNL     1      11.870 -40.335 -17.028  1.00  0.00     0.001 A 
ATOM     10  C   UNL     1      12.636 -39.669 -18.013  1.00  0.00     0.001 A 
BRANCH   3  11
ATOM     11  O   UNL     1      13.245 -39.314 -12.865  1.00  0.00    -0.480 OA
ATOM     12  H   UNL     1      13.800 -39.148 -12.034  1.00  0.00     0.297 HD
ENDBRANCH   3  11
ENDBRANCH   1   2
BRANCH   1  13
ATOM     13  C   UNL     1      17.090 -37.862 -16.704  1.00  0.00     0.008 C 
BRANCH  13  14
ATOM     14  C   UNL     1      18.036 -38.296 -15.574  1.00  0.00    -0.003 C 
ATOM     15  C   UNL     1      19.509 -38.113 -15.936  1.00  0.00     0.004 C 
ENDBRANCH  13  14
ENDBRANCH   1  13
TORSDOF 4
ENDMDL
MODEL 5
REMARK VINA RESULT:    -6.959      2.466      5.360
REMARK INTER + INTRA:          -8.823
REMARK INTER:                  -8.463
REMARK INTRA:                  -0.360
REMARK UNBOUND:                -0.440
REMARK SMILES CCCCc1oc(O)c2ccccc12
REMARK SMILES IDX 4 1 5 2 7 3 6 4 9 5 14 6 10 7 13 8 11 9 12 10 8 11 3 13 2 14
REMARK SMILES IDX 1 15
REMARK H PARENT 8 12
REMARK Flexibility Score: inf
ROOT
ATOM      1  C   UNL     1      12.123 -40.376 -17.049  1.00  0.00     0.076 C 
ENDROOT
BRANCH   1   2
ATOM      2  C   UNL     1      13.277 -39.478 -17.375  1.00  0.00     0.116 A 
ATOM      3  C   UNL     1      14.773 -38.462 -18.527  1.00  0.00     0.290 A 
ATOM      4  O   UNL     1      13.744 -39.286 -18.596  1.00  0.00    -0.430 OA
ATOM      5  C   UNL     1      14.993 -38.102 -17.218  1.00  0.00     0.066 A 
ATOM      6  C   UNL     1      14.041 -38.751 -16.479  1.00  0.00     0.027 A 
ATOM      7  C   UNL     1      15.947 -37.274 -16.631  1.00  0.00     0.016 A 
ATOM      8  C   UNL     1      13.974 -38.619 -15.092  1.00  0.00     0.012 A 
ATOM      9  C   UNL     1      15.904 -37.119 -15.233  1.00  0.00     0.001 A 
ATOM     10  C   UNL     1      14.923 -37.789 -14.467  1.00  0.00     0.001 A 
BRANCH   3  11
ATOM     11  O   UNL     1      15.514 -38.036 -19.623  1.00  0.00    -0.480 OA
ATOM     12  H   UNL     1      16.229 -38.632 -20.022  1.00  0.00     0.297 HD
ENDBRANCH   3  11
ENDBRANCH   1   2
BRANCH   1  13
ATOM     13  C   UNL     1      10.803 -39.598 -17.122  1.00  0.00     0.008 C 
BRANCH  13  14
ATOM     14  C   UNL     1      10.395 -39.002 -15.767  1.00  0.00    -0.003 C 
ATOM     15  C   UNL     1       8.910 -38.646 -15.702  1.00  0.00     0.004 C 
ENDBRANCH  13  14
ENDBRANCH   1  13
TORSDOF 4
ENDMDL
MODEL 6
REMARK VINA RESULT:    -6.817      1.397      4.423
REMARK INTER + INTRA:          -8.652
REMARK INTER:                  -8.212
REMARK INTRA:                  -0.440
REMARK UNBOUND:                -0.440
REMARK SMILES CCCCc1oc(O)c2ccccc12
REMARK SMILES IDX 4 1 5 2 7 3 6 4 9 5 14 6 10 7 13 8 11 9 12 10 8 11 3 13 2 14
REMARK SMILES IDX 1 15
REMARK H PARENT 8 12
REMARK Flexibility Score: inf
ROOT
ATOM      1  C   UNL     1      12.714 -39.901 -15.986  1.00  0.00     0.076 C 
ENDROOT
BRANCH   1   2
ATOM      2  C   UNL     1      13.851 -38.928 -15.932  1.00  0.00     0.116 A 
ATOM      3  C   UNL     1      15.258 -37.517 -15.139  1.00  0.00     0.290 A 
ATOM      4  O   UNL     1      14.259 -38.323 -14.830  1.00  0.00    -0.430 OA
ATOM      5  C   UNL     1      15.514 -37.589 -16.489  1.00  0.00     0.066 A 
ATOM      6  C   UNL     1      14.616 -38.487 -16.999  1.00  0.00     0.027 A 
ATOM      7  C   UNL     1      16.447 -36.938 -17.292  1.00  0.00     0.016 A 
ATOM      8  C   UNL     1      14.585 -38.801 -18.358  1.00  0.00     0.012 A 
ATOM      9  C   UNL     1      16.443 -37.235 -18.667  1.00  0.00     0.001 A 
ATOM     10  C   UNL     1      15.515 -38.161 -19.198  1.00  0.00     0.001 A 
BRANCH   3  11
ATOM     11  O   UNL     1      15.934 -36.719 -14.224  1.00  0.00    -0.480 OA
ATOM     12  H   UNL     1      16.205 -37.090 -13.322  1.00  0.00     0.297 HD
ENDBRANCH   3  11
ENDBRANCH   1   2
BRANCH   1  13
ATOM     13  C   UNL     1      11.383 -39.182 -15.734  1.00  0.00     0.008 C 
BRANCH  13  14
ATOM     14  C   UNL     1      10.395 -39.348 -16.898  1.00  0.00    -0.003 C 
ATOM     15  C   UNL     1      11.026 -40.026 -18.114  1.00  0.00     0.004 C 
ENDBRANCH  13  14
ENDBRANCH   1  13
TORSDOF 4
ENDMDL
MODEL 7
REMARK VINA RESULT:    -6.574      2.256      3.178
REMARK INTER + INTRA:          -8.360
REMARK INTER:                  -7.910
REMARK INTRA:                  -0.449
REMARK UNBOUND:                -0.440
REMARK SMILES CCCCc1oc(O)c2ccccc12
REMARK SMILES IDX 4 1 5 2 7 3 6 4 9 5 14 6 10 7 13 8 11 9 12 10 8 11 3 13 2 14
REMARK SMILES IDX 1 15
REMARK H PARENT 8 12
REMARK Flexibility Score: inf
ROOT
ATOM      1  C   UNL     1      16.247 -36.430 -17.327  1.00  0.00     0.076 C 
ENDROOT
BRANCH   1   2
ATOM      2  C   UNL     1      15.043 -37.310 -17.194  1.00  0.00     0.116 A 
ATOM      3  C   UNL     1      13.268 -38.387 -17.730  1.00  0.00     0.290 A 
ATOM      4  O   UNL     1      14.236 -37.619 -18.194  1.00  0.00    -0.430 OA
ATOM      5  C   UNL     1      13.440 -38.587 -16.379  1.00  0.00     0.066 A 
ATOM      6  C   UNL     1      14.571 -37.899 -16.033  1.00  0.00     0.027 A 
ATOM      7  C   UNL     1      12.694 -39.303 -15.446  1.00  0.00     0.016 A 
ATOM      8  C   UNL     1      15.041 -37.875 -14.721  1.00  0.00     0.012 A 
ATOM      9  C   UNL     1      13.145 -39.301 -14.112  1.00  0.00     0.001 A 
ATOM     10  C   UNL     1      14.312 -38.589 -13.751  1.00  0.00     0.001 A 
BRANCH   3  11
ATOM     11  O   UNL     1      12.235 -38.903 -18.503  1.00  0.00    -0.480 OA
ATOM     12  H   UNL     1      12.284 -39.851 -18.857  1.00  0.00     0.297 HD
ENDBRANCH   3  11
ENDBRANCH   1   2
BRANCH   1  13
ATOM     13  C   UNL     1      17.380 -37.178 -18.042  1.00  0.00     0.008 C 
BRANCH  13  14
ATOM     14  C   UNL     1      18.642 -37.301 -17.175  1.00  0.00    -0.003 C 
ATOM     15  C   UNL     1      18.449 -38.233 -15.980  1.00  0.00     0.004 C 
ENDBRANCH  13  14
ENDBRANCH   1  13
TORSDOF 4
ENDMDL
MODEL 8
REMARK VINA RESULT:    -6.569      2.266      3.285
REMARK INTER + INTRA:          -8.353
REMARK INTER:                  -8.159
REMARK INTRA:                  -0.194
REMARK UNBOUND:                -0.440
REMARK SMILES CCCCc1oc(O)c2ccccc12
REMARK SMILES IDX 4 1 5 2 7 3 6 4 9 5 14 6 10 7 13 8 11 9 12 10 8 11 3 13 2 14
REMARK SMILES IDX 1 15
REMARK H PARENT 8 12
REMARK Flexibility Score: inf
ROOT
ATOM      1  C   UNL     1      15.878 -37.524 -15.324  1.00  0.00     0.076 C 
ENDROOT
BRANCH   1   2
ATOM      2  C   UNL     1      15.191 -38.229 -16.453  1.00  0.00     0.116 A 
ATOM      3  C   UNL     1      14.816 -38.979 -18.426  1.00  0.00     0.290 A 
ATOM      4  O   UNL     1      15.679 -38.319 -17.677  1.00  0.00    -0.430 OA
ATOM      5  C   UNL     1      13.720 -39.332 -17.672  1.00  0.00     0.066 A 
ATOM      6  C   UNL     1      13.956 -38.852 -16.412  1.00  0.00     0.027 A 
ATOM      7  C   UNL     1      12.553 -40.019 -17.996  1.00  0.00     0.016 A 
ATOM      8  C   UNL     1      13.035 -39.024 -15.378  1.00  0.00     0.012 A 
ATOM      9  C   UNL     1      11.605 -40.211 -16.974  1.00  0.00     0.001 A 
ATOM     10  C   UNL     1      11.844 -39.715 -15.671  1.00  0.00     0.001 A 
BRANCH   3  11
ATOM     11  O   UNL     1      15.000 -39.262 -19.774  1.00  0.00    -0.480 OA
ATOM     12  H   UNL     1      14.404 -38.834 -20.474  1.00  0.00     0.297 HD
ENDBRANCH   3  11
ENDBRANCH   1   2
BRANCH   1  13
ATOM     13  C   UNL     1      17.355 -37.285 -15.663  1.00  0.00     0.008 C 
BRANCH  13  14
ATOM     14  C   UNL     1      18.209 -38.551 -15.499  1.00  0.00    -0.003 C 
ATOM     15  C   UNL     1      19.705 -38.276 -15.645  1.00  0.00     0.004 C 
ENDBRANCH  13  14
ENDBRANCH   1  13
TORSDOF 4
ENDMDL
MODEL 9
REMARK VINA RESULT:    -6.324      2.378      5.715
REMARK INTER + INTRA:          -8.058
REMARK INTER:                  -7.848
REMARK INTRA:                  -0.210
REMARK UNBOUND:                -0.440
REMARK SMILES CCCCc1oc(O)c2ccccc12
REMARK SMILES IDX 4 1 5 2 7 3 6 4 9 5 14 6 10 7 13 8 11 9 12 10 8 11 3 13 2 14
REMARK SMILES IDX 1 15
REMARK H PARENT 8 12
REMARK Flexibility Score: inf
ROOT
ATOM      1  C   UNL     1      13.964 -38.563 -16.345  1.00  0.00     0.076 C 
ENDROOT
BRANCH   1   2
ATOM      2  C   UNL     1      15.077 -37.993 -17.170  1.00  0.00     0.116 A 
ATOM      3  C   UNL     1      16.100 -37.119 -18.840  1.00  0.00     0.290 A 
ATOM      4  O   UNL     1      14.923 -37.516 -18.393  1.00  0.00    -0.430 OA
ATOM      5  C   UNL     1      17.062 -37.346 -17.882  1.00  0.00     0.066 A 
ATOM      6  C   UNL     1      16.412 -37.907 -16.816  1.00  0.00     0.027 A 
ATOM      7  C   UNL     1      18.435 -37.114 -17.872  1.00  0.00     0.016 A 
ATOM      8  C   UNL     1      17.092 -38.279 -15.656  1.00  0.00     0.012 A 
ATOM      9  C   UNL     1      19.149 -37.477 -16.716  1.00  0.00     0.001 A 
ATOM     10  C   UNL     1      18.481 -38.057 -15.613  1.00  0.00     0.001 A 
BRANCH   3  11
ATOM     11  O   UNL     1      16.318 -36.562 -20.093  1.00  0.00    -0.480 OA
ATOM     12  H   UNL     1      16.687 -35.622 -20.180  1.00  0.00     0.297 HD
ENDBRANCH   3  11
ENDBRANCH   1   2
BRANCH   1  13
ATOM     13  C   UNL     1      13.023 -39.400 -17.221  1.00  0.00     0.008 C 
BRANCH  13  14
ATOM     14  C   UNL     1      12.312 -40.507 -16.429  1.00  0.00    -0.003 C 
ATOM     15  C   UNL     1      12.089 -40.134 -14.964  1.00  0.00     0.004 C 
ENDBRANCH  13  14
ENDBRANCH   1  13
TORSDOF 4
ENDMDL
