MODEL 1
REMARK VINA RESULT:    -3.983      0.000      0.000
REMARK INTER + INTRA:          -6.738
REMARK INTER:                  -6.079
REMARK INTRA:                  -0.658
REMARK UNBOUND:                -0.658
REMARK SMILES O=C([O-])CCCCCCCCC(=O)[O-]
REMARK SMILES IDX 7 1 6 2 5 3 4 4 2 5 1 6 3 7 8 8 9 9 10 10 11 11 12 12 13 13
REMARK SMILES IDX 14 14
REMARK H PARENT
REMARK Flexibility Score: inf
ROOT
ATOM      1  C   UNL     1      14.295  47.065  16.974  1.00  0.00     0.000 C 
ENDROOT
BRANCH   1   2
ATOM      2  C   UNL     1      13.093  46.118  17.100  1.00  0.00     0.000 C 
BRANCH   2   3
ATOM      3  C   UNL     1      11.962  46.707  17.960  1.00  0.00     0.006 C 
BRANCH   3   4
ATOM      4  C   UNL     1      11.764  45.946  19.277  1.00  0.00     0.053 C 
BRANCH   4   5
ATOM      5  C   UNL     1      10.307  45.825  19.595  1.00  0.00     0.041 C 
ATOM      6  O   UNL     1       9.898  44.910  20.358  1.00  0.00    -0.550 OA
ATOM      7  O   UNL     1       9.405  46.753  19.089  1.00  0.00    -0.550 OA
ENDBRANCH   4   5
ENDBRANCH   3   4
ENDBRANCH   2   3
ENDBRANCH   1   2
BRANCH   1   8
ATOM      8  C   UNL     1      15.416  46.660  17.938  1.00  0.00     0.000 C 
BRANCH   8   9
ATOM      9  C   UNL     1      15.383  45.152  18.220  1.00  0.00     0.000 C 
BRANCH   9  10
ATOM     10  C   UNL     1      16.032  44.831  19.575  1.00  0.00     0.006 C 
BRANCH  10  11
ATOM     11  C   UNL     1      16.272  46.091  20.417  1.00  0.00     0.053 C 
BRANCH  11  12
ATOM     12  C   UNL     1      17.681  46.165  20.920  1.00  0.00     0.041 C 
ATOM     13  O   UNL     1      18.270  47.275  20.991  1.00  0.00    -0.550 OA
ATOM     14  O   UNL     1      18.332  45.012  21.340  1.00  0.00    -0.550 OA
ENDBRANCH  11  12
ENDBRANCH  10  11
ENDBRANCH   9  10
ENDBRANCH   8   9
ENDBRANCH   1   8
TORSDOF 9
ENDMDL
MODEL 2
REMARK VINA RESULT:    -3.835      1.886      5.769
REMARK INTER + INTRA:          -6.511
REMARK INTER:                  -5.759
REMARK INTRA:                  -0.752
REMARK UNBOUND:                -0.658
REMARK SMILES O=C([O-])CCCCCCCCC(=O)[O-]
REMARK SMILES IDX 7 1 6 2 5 3 4 4 2 5 1 6 3 7 8 8 9 9 10 10 11 11 12 12 13 13
REMARK SMILES IDX 14 14
REMARK H PARENT
REMARK Flexibility Score: inf
ROOT
ATOM      1  C   UNL     1      15.165  45.844  18.082  1.00  0.00     0.000 C 
ENDROOT
BRANCH   1   2
ATOM      2  C   UNL     1      15.777  46.190  19.447  1.00  0.00     0.000 C 
BRANCH   2   3
ATOM      3  C   UNL     1      15.466  45.135  20.520  1.00  0.00     0.006 C 
BRANCH   3   4
ATOM      4  C   UNL     1      15.132  43.763  19.921  1.00  0.00     0.053 C 
BRANCH   4   5
ATOM      5  C   UNL     1      16.314  42.851  20.013  1.00  0.00     0.041 C 
ATOM      6  O   UNL     1      17.230  42.910  19.151  1.00  0.00    -0.550 OA
ATOM      7  O   UNL     1      16.430  41.968  21.080  1.00  0.00    -0.550 OA
ENDBRANCH   4   5
ENDBRANCH   3   4
ENDBRANCH   2   3
ENDBRANCH   1   2
BRANCH   1   8
ATOM      8  C   UNL     1      14.823  47.114  17.295  1.00  0.00     0.000 C 
BRANCH   8   9
ATOM      9  C   UNL     1      13.343  47.132  16.890  1.00  0.00     0.000 C 
BRANCH   9  10
ATOM     10  C   UNL     1      12.584  45.959  17.528  1.00  0.00     0.006 C 
BRANCH  10  11
ATOM     11  C   UNL     1      11.596  46.425  18.606  1.00  0.00     0.053 C 
BRANCH  11  12
ATOM     12  C   UNL     1      11.021  45.272  19.369  1.00  0.00     0.041 C 
ATOM     13  O   UNL     1      11.738  44.273  19.643  1.00  0.00    -0.550 OA
ATOM     14  O   UNL     1       9.703  45.313  19.807  1.00  0.00    -0.550 OA
ENDBRANCH  11  12
ENDBRANCH  10  11
ENDBRANCH   9  10
ENDBRANCH   8   9
ENDBRANCH   1   8
TORSDOF 9
ENDMDL
MODEL 3
REMARK VINA RESULT:    -3.820      2.576      5.165
REMARK INTER + INTRA:          -6.488
REMARK INTER:                  -5.663
REMARK INTRA:                  -0.825
REMARK UNBOUND:                -0.658
REMARK SMILES O=C([O-])CCCCCCCCC(=O)[O-]
REMARK SMILES IDX 7 1 6 2 5 3 4 4 2 5 1 6 3 7 8 8 9 9 10 10 11 11 12 12 13 13
REMARK SMILES IDX 14 14
REMARK H PARENT
REMARK Flexibility Score: inf
ROOT
ATOM      1  C   UNL     1      15.454  46.596  18.238  1.00  0.00     0.000 C 
ENDROOT
BRANCH   1   2
ATOM      2  C   UNL     1      15.712  45.083  18.266  1.00  0.00     0.000 C 
BRANCH   2   3
ATOM      3  C   UNL     1      15.675  44.502  19.689  1.00  0.00     0.006 C 
BRANCH   3   4
ATOM      4  C   UNL     1      14.249  44.396  20.247  1.00  0.00     0.053 C 
BRANCH   4   5
ATOM      5  C   UNL     1      13.518  43.264  19.597  1.00  0.00     0.041 C 
ATOM      6  O   UNL     1      14.113  42.183  19.350  1.00  0.00    -0.550 OA
ATOM      7  O   UNL     1      12.164  43.386  19.309  1.00  0.00    -0.550 OA
ENDBRANCH   4   5
ENDBRANCH   3   4
ENDBRANCH   2   3
ENDBRANCH   1   2
BRANCH   1   8
ATOM      8  C   UNL     1      14.594  46.983  17.029  1.00  0.00     0.000 C 
BRANCH   8   9
ATOM      9  C   UNL     1      13.299  46.163  16.988  1.00  0.00     0.000 C 
BRANCH   9  10
ATOM     10  C   UNL     1      12.110  46.982  17.511  1.00  0.00     0.006 C 
BRANCH  10  11
ATOM     11  C   UNL     1      11.796  46.676  18.981  1.00  0.00     0.053 C 
BRANCH  11  12
ATOM     12  C   UNL     1      10.346  46.878  19.294  1.00  0.00     0.041 C 
ATOM     13  O   UNL     1       9.872  48.043  19.377  1.00  0.00    -0.550 OA
ATOM     14  O   UNL     1       9.509  45.783  19.462  1.00  0.00    -0.550 OA
ENDBRANCH  11  12
ENDBRANCH  10  11
ENDBRANCH   9  10
ENDBRANCH   8   9
ENDBRANCH   1   8
TORSDOF 9
ENDMDL
MODEL 4
REMARK VINA RESULT:    -3.771      2.451      6.788
REMARK INTER + INTRA:          -6.414
REMARK INTER:                  -5.876
REMARK INTRA:                  -0.538
REMARK UNBOUND:                -0.658
REMARK SMILES O=C([O-])CCCCCCCCC(=O)[O-]
REMARK SMILES IDX 7 1 6 2 5 3 4 4 2 5 1 6 3 7 8 8 9 9 10 10 11 11 12 12 13 13
REMARK SMILES IDX 14 14
REMARK H PARENT
REMARK Flexibility Score: inf
ROOT
ATOM      1  C   UNL     1      17.439  45.097  20.641  1.00  0.00     0.000 C 
ENDROOT
BRANCH   1   2
ATOM      2  C   UNL     1      18.783  45.840  20.619  1.00  0.00     0.000 C 
BRANCH   2   3
ATOM      3  C   UNL     1      18.614  47.368  20.577  1.00  0.00     0.006 C 
BRANCH   3   4
ATOM      4  C   UNL     1      19.890  48.114  20.986  1.00  0.00     0.053 C 
BRANCH   4   5
ATOM      5  C   UNL     1      19.570  49.195  21.969  1.00  0.00     0.041 C 
ATOM      6  O   UNL     1      20.411  50.101  22.213  1.00  0.00    -0.550 OA
ATOM      7  O   UNL     1      18.323  49.231  22.581  1.00  0.00    -0.550 OA
ENDBRANCH   4   5
ENDBRANCH   3   4
ENDBRANCH   2   3
ENDBRANCH   1   2
BRANCH   1   8
ATOM      8  C   UNL     1      17.359  44.075  19.500  1.00  0.00     0.000 C 
BRANCH   8   9
ATOM      9  C   UNL     1      16.227  44.423  18.526  1.00  0.00     0.000 C 
BRANCH   9  10
ATOM     10  C   UNL     1      15.656  45.819  18.820  1.00  0.00     0.006 C 
BRANCH  10  11
ATOM     11  C   UNL     1      14.136  45.878  18.625  1.00  0.00     0.053 C 
BRANCH  11  12
ATOM     12  C   UNL     1      13.416  46.099  19.919  1.00  0.00     0.041 C 
ATOM     13  O   UNL     1      13.994  45.862  21.013  1.00  0.00    -0.550 OA
ATOM     14  O   UNL     1      12.121  46.600  19.920  1.00  0.00    -0.550 OA
ENDBRANCH  11  12
ENDBRANCH  10  11
ENDBRANCH   9  10
ENDBRANCH   8   9
ENDBRANCH   1   8
TORSDOF 9
ENDMDL
MODEL 5
REMARK VINA RESULT:    -3.767      1.312      6.430
REMARK INTER + INTRA:          -6.407
REMARK INTER:                  -5.737
REMARK INTRA:                  -0.670
REMARK UNBOUND:                -0.658
REMARK SMILES O=C([O-])CCCCCCCCC(=O)[O-]
REMARK SMILES IDX 7 1 6 2 5 3 4 4 2 5 1 6 3 7 8 8 9 9 10 10 11 11 12 12 13 13
REMARK SMILES IDX 14 14
REMARK H PARENT
REMARK Flexibility Score: inf
ROOT
ATOM      1  C   UNL     1      13.861  44.518  18.357  1.00  0.00     0.000 C 
ENDROOT
BRANCH   1   2
ATOM      2  C   UNL     1      15.367  44.814  18.386  1.00  0.00     0.000 C 
BRANCH   2   3
ATOM      3  C   UNL     1      15.695  46.157  19.058  1.00  0.00     0.006 C 
BRANCH   3   4
ATOM      4  C   UNL     1      15.968  46.014  20.561  1.00  0.00     0.053 C 
BRANCH   4   5
ATOM      5  C   UNL     1      17.437  45.894  20.815  1.00  0.00     0.041 C 
ATOM      6  O   UNL     1      18.197  46.882  20.628  1.00  0.00    -0.550 OA
ATOM      7  O   UNL     1      17.964  44.706  21.306  1.00  0.00    -0.550 OA
ENDBRANCH   4   5
ENDBRANCH   3   4
ENDBRANCH   2   3
ENDBRANCH   1   2
BRANCH   1   8
ATOM      8  C   UNL     1      13.138  45.450  17.377  1.00  0.00     0.000 C 
BRANCH   8   9
ATOM      9  C   UNL     1      12.148  46.363  18.111  1.00  0.00     0.000 C 
BRANCH   9  10
ATOM     10  C   UNL     1      11.709  45.740  19.445  1.00  0.00     0.006 C 
BRANCH  10  11
ATOM     11  C   UNL     1      10.194  45.509  19.507  1.00  0.00     0.053 C 
BRANCH  11  12
ATOM     12  C   UNL     1       9.857  44.053  19.603  1.00  0.00     0.041 C 
ATOM     13  O   UNL     1      10.775  43.195  19.697  1.00  0.00    -0.550 OA
ATOM     14  O   UNL     1       8.530  43.643  19.624  1.00  0.00    -0.550 OA
ENDBRANCH  11  12
ENDBRANCH  10  11
ENDBRANCH   9  10
ENDBRANCH   8   9
ENDBRANCH   1   8
TORSDOF 9
ENDMDL
MODEL 6
REMARK VINA RESULT:    -3.765      3.002      4.788
REMARK INTER + INTRA:          -6.404
REMARK INTER:                  -5.744
REMARK INTRA:                  -0.660
REMARK UNBOUND:                -0.658
REMARK SMILES O=C([O-])CCCCCCCCC(=O)[O-]
REMARK SMILES IDX 7 1 6 2 5 3 4 4 2 5 1 6 3 7 8 8 9 9 10 10 11 11 12 12 13 13
REMARK SMILES IDX 14 14
REMARK H PARENT
REMARK Flexibility Score: inf
ROOT
ATOM      1  C   UNL     1      17.996  44.613  20.499  1.00  0.00     0.000 C 
ENDROOT
BRANCH   1   2
ATOM      2  C   UNL     1      17.579  43.906  19.201  1.00  0.00     0.000 C 
BRANCH   2   3
ATOM      3  C   UNL     1      16.175  44.316  18.728  1.00  0.00     0.006 C 
BRANCH   3   4
ATOM      4  C   UNL     1      15.833  45.769  19.085  1.00  0.00     0.053 C 
BRANCH   4   5
ATOM      5  C   UNL     1      14.796  46.305  18.150  1.00  0.00     0.041 C 
ATOM      6  O   UNL     1      13.603  45.908  18.229  1.00  0.00    -0.550 OA
ATOM      7  O   UNL     1      15.135  47.282  17.222  1.00  0.00    -0.550 OA
ENDBRANCH   4   5
ENDBRANCH   3   4
ENDBRANCH   2   3
ENDBRANCH   1   2
BRANCH   1   8
ATOM      8  C   UNL     1      19.523  44.684  20.618  1.00  0.00     0.000 C 
BRANCH   8   9
ATOM      9  C   UNL     1      20.034  46.100  20.326  1.00  0.00     0.000 C 
BRANCH   9  10
ATOM     10  C   UNL     1      18.945  47.147  20.603  1.00  0.00     0.006 C 
BRANCH  10  11
ATOM     11  C   UNL     1      19.193  48.458  19.845  1.00  0.00     0.053 C 
BRANCH  11  12
ATOM     12  C   UNL     1      20.191  49.326  20.548  1.00  0.00     0.041 C 
ATOM     13  O   UNL     1      21.060  49.954  19.887  1.00  0.00    -0.550 OA
ATOM     14  O   UNL     1      20.140  49.470  21.928  1.00  0.00    -0.550 OA
ENDBRANCH  11  12
ENDBRANCH  10  11
ENDBRANCH   9  10
ENDBRANCH   8   9
ENDBRANCH   1   8
TORSDOF 9
ENDMDL
MODEL 7
REMARK VINA RESULT:    -3.736      1.279      1.764
REMARK INTER + INTRA:          -6.361
REMARK INTER:                  -5.565
REMARK INTRA:                  -0.796
REMARK UNBOUND:                -0.658
REMARK SMILES O=C([O-])CCCCCCCCC(=O)[O-]
REMARK SMILES IDX 7 1 6 2 5 3 4 4 2 5 1 6 3 7 8 8 9 9 10 10 11 11 12 12 13 13
REMARK SMILES IDX 14 14
REMARK H PARENT
REMARK Flexibility Score: inf
ROOT
ATOM      1  C   UNL     1      13.589  44.672  17.949  1.00  0.00     0.000 C 
ENDROOT
BRANCH   1   2
ATOM      2  C   UNL     1      12.959  43.889  19.111  1.00  0.00     0.000 C 
BRANCH   2   3
ATOM      3  C   UNL     1      12.154  44.787  20.064  1.00  0.00     0.006 C 
BRANCH   3   4
ATOM      4  C   UNL     1      11.883  46.178  19.475  1.00  0.00     0.053 C 
BRANCH   4   5
ATOM      5  C   UNL     1      10.412  46.443  19.417  1.00  0.00     0.041 C 
ATOM      6  O   UNL     1       9.591  45.499  19.565  1.00  0.00    -0.550 OA
ATOM      7  O   UNL     1       9.945  47.740  19.247  1.00  0.00    -0.550 OA
ENDBRANCH   4   5
ENDBRANCH   3   4
ENDBRANCH   2   3
ENDBRANCH   1   2
BRANCH   1   8
ATOM      8  C   UNL     1      15.107  44.785  18.123  1.00  0.00     0.000 C 
BRANCH   8   9
ATOM      9  C   UNL     1      15.510  46.201  18.553  1.00  0.00     0.000 C 
BRANCH   9  10
ATOM     10  C   UNL     1      16.151  46.192  19.949  1.00  0.00     0.006 C 
BRANCH  10  11
ATOM     11  C   UNL     1      16.731  44.818  20.313  1.00  0.00     0.053 C 
BRANCH  11  12
ATOM     12  C   UNL     1      18.224  44.856  20.421  1.00  0.00     0.041 C 
ATOM     13  O   UNL     1      18.818  45.953  20.595  1.00  0.00    -0.550 OA
ATOM     14  O   UNL     1      18.957  43.678  20.363  1.00  0.00    -0.550 OA
ENDBRANCH  11  12
ENDBRANCH  10  11
ENDBRANCH   9  10
ENDBRANCH   8   9
ENDBRANCH   1   8
TORSDOF 9
ENDMDL
MODEL 8
REMARK VINA RESULT:    -3.713      1.358      6.641
REMARK INTER + INTRA:          -6.325
REMARK INTER:                  -5.693
REMARK INTRA:                  -0.632
REMARK UNBOUND:                -0.658
REMARK SMILES O=C([O-])CCCCCCCCC(=O)[O-]
REMARK SMILES IDX 7 1 6 2 5 3 4 4 2 5 1 6 3 7 8 8 9 9 10 10 11 11 12 12 13 13
REMARK SMILES IDX 14 14
REMARK H PARENT
REMARK Flexibility Score: inf
ROOT
ATOM      1  C   UNL     1      14.783  43.858  19.343  1.00  0.00     0.000 C 
ENDROOT
BRANCH   1   2
ATOM      2  C   UNL     1      15.227  44.814  20.459  1.00  0.00     0.000 C 
BRANCH   2   3
ATOM      3  C   UNL     1      16.201  45.894  19.962  1.00  0.00     0.006 C 
BRANCH   3   4
ATOM      4  C   UNL     1      17.337  46.168  20.956  1.00  0.00     0.053 C 
BRANCH   4   5
ATOM      5  C   UNL     1      18.601  45.516  20.496  1.00  0.00     0.041 C 
ATOM      6  O   UNL     1      18.558  44.493  19.761  1.00  0.00    -0.550 OA
ATOM      7  O   UNL     1      19.832  46.065  20.837  1.00  0.00    -0.550 OA
ENDBRANCH   4   5
ENDBRANCH   3   4
ENDBRANCH   2   3
ENDBRANCH   1   2
BRANCH   1   8
ATOM      8  C   UNL     1      13.311  44.086  18.978  1.00  0.00     0.000 C 
BRANCH   8   9
ATOM      9  C   UNL     1      13.184  44.889  17.676  1.00  0.00     0.000 C 
BRANCH   9  10
ATOM     10  C   UNL     1      12.480  46.232  17.924  1.00  0.00     0.006 C 
BRANCH  10  11
ATOM     11  C   UNL     1      11.964  46.360  19.364  1.00  0.00     0.053 C 
BRANCH  11  12
ATOM     12  C   UNL     1      10.471  46.461  19.412  1.00  0.00     0.041 C 
ATOM     13  O   UNL     1       9.781  45.477  19.790  1.00  0.00    -0.550 OA
ATOM     14  O   UNL     1       9.841  47.651  19.071  1.00  0.00    -0.550 OA
ENDBRANCH  11  12
ENDBRANCH  10  11
ENDBRANCH   9  10
ENDBRANCH   8   9
ENDBRANCH   1   8
TORSDOF 9
ENDMDL
MODEL 9
REMARK VINA RESULT:    -3.707      1.602      2.425
REMARK INTER + INTRA:          -6.315
REMARK INTER:                  -5.699
REMARK INTRA:                  -0.616
REMARK UNBOUND:                -0.658
REMARK SMILES O=C([O-])CCCCCCCCC(=O)[O-]
REMARK SMILES IDX 7 1 6 2 5 3 4 4 2 5 1 6 3 7 8 8 9 9 10 10 11 11 12 12 13 13
REMARK SMILES IDX 14 14
REMARK H PARENT
REMARK Flexibility Score: inf
ROOT
ATOM      1  C   UNL     1      14.629  44.358  20.242  1.00  0.00     0.000 C 
ENDROOT
BRANCH   1   2
ATOM      2  C   UNL     1      13.556  45.329  20.756  1.00  0.00     0.000 C 
BRANCH   2   3
ATOM      3  C   UNL     1      12.915  46.154  19.629  1.00  0.00     0.006 C 
BRANCH   3   4
ATOM      4  C   UNL     1      11.816  45.383  18.885  1.00  0.00     0.053 C 
BRANCH   4   5
ATOM      5  C   UNL     1      10.485  45.629  19.521  1.00  0.00     0.041 C 
ATOM      6  O   UNL     1       9.978  46.781  19.507  1.00  0.00    -0.550 OA
ATOM      7  O   UNL     1       9.779  44.574  20.087  1.00  0.00    -0.550 OA
ENDBRANCH   4   5
ENDBRANCH   3   4
ENDBRANCH   2   3
ENDBRANCH   1   2
BRANCH   1   8
ATOM      8  C   UNL     1      15.562  45.050  19.242  1.00  0.00     0.000 C 
BRANCH   8   9
ATOM      9  C   UNL     1      17.033  44.767  19.573  1.00  0.00     0.000 C 
BRANCH   9  10
ATOM     10  C   UNL     1      17.405  45.326  20.954  1.00  0.00     0.006 C 
BRANCH  10  11
ATOM     11  C   UNL     1      17.296  46.856  21.010  1.00  0.00     0.053 C 
BRANCH  11  12
ATOM     12  C   UNL     1      18.538  47.520  20.500  1.00  0.00     0.041 C 
ATOM     13  O   UNL     1      19.669  47.152  20.914  1.00  0.00    -0.550 OA
ATOM     14  O   UNL     1      18.449  48.523  19.543  1.00  0.00    -0.550 OA
ENDBRANCH  11  12
ENDBRANCH  10  11
ENDBRANCH   9  10
ENDBRANCH   8   9
ENDBRANCH   1   8
TORSDOF 9
ENDMDL
