MODEL 1
REMARK VINA RESULT:    39.695      0.000      0.000
REMARK INTER + INTRA:          43.555
REMARK INTER:                  43.175
REMARK INTRA:                   0.380
REMARK UNBOUND:                 0.380
REMARK SMILES CC(=O)[C@H]1CC[C@@H]2[C@H]3CC=C4C[C@H](O)CC[C@@]4(C)[C@H]3CC[C@@]12C
REMARK SMILES IDX 4 1 5 2 6 3 7 4 22 5 21 6 20 7 19 8 8 9 9 10 10 11 11 12
REMARK SMILES IDX 17 13 16 14 15 15 13 16 12 17 18 18 23 19 2 20 1 21 3 22
REMARK SMILES IDX 14 23
REMARK H PARENT 14 24
REMARK Flexibility Score: inf
ROOT
ATOM      1  C   UNL     1      19.209  21.797 -12.585  1.00  0.00     0.062 C 
ATOM      2  C   UNL     1      19.102  21.969 -11.054  1.00  0.00     0.012 C 
ATOM      3  C   UNL     1      18.795  20.583 -10.466  1.00  0.00     0.005 C 
ATOM      4  C   UNL     1      18.592  19.659 -11.671  1.00  0.00    -0.001 C 
ATOM      5  C   UNL     1      19.439  20.269 -12.791  1.00  0.00    -0.020 C 
ATOM      6  C   UNL     1      18.989  19.660 -14.152  1.00  0.00     0.008 C 
ATOM      7  C   UNL     1      18.388  18.232 -14.035  1.00  0.00     0.005 C 
ATOM      8  C   UNL     1      18.926  17.361 -12.847  1.00  0.00     0.003 C 
ATOM      9  C   UNL     1      18.863  18.145 -11.464  1.00  0.00     0.000 C 
ATOM     10  C   UNL     1      17.851  17.565 -10.439  1.00  0.00     0.031 C 
ATOM     11  C   UNL     1      16.726  16.797 -11.058  1.00  0.00    -0.027 C 
ATOM     12  C   UNL     1      16.926  15.955 -12.085  1.00  0.00    -0.065 C 
ATOM     13  C   UNL     1      18.295  15.904 -12.771  1.00  0.00    -0.008 C 
ATOM     14  C   UNL     1      18.148  15.259 -14.190  1.00  0.00     0.014 C 
ATOM     15  C   UNL     1      17.334  13.963 -14.185  1.00  0.00     0.033 C 
ATOM     16  C   UNL     1      15.906  14.264 -13.712  1.00  0.00     0.118 C 
ATOM     17  C   UNL     1      15.897  14.854 -12.294  1.00  0.00     0.063 C 
ATOM     18  C   UNL     1      19.242  14.994 -11.937  1.00  0.00     0.016 C 
ATOM     19  C   UNL     1      20.967  20.003 -12.600  1.00  0.00     0.012 C 
ENDROOT
BRANCH   1  20
ATOM     20  C   UNL     1      18.010  22.386 -13.322  1.00  0.00     0.133 C 
ATOM     21  C   UNL     1      17.910  23.829 -13.740  1.00  0.00     0.088 C 
ATOM     22  O   UNL     1      17.056  21.658 -13.556  1.00  0.00    -0.300 OA
ENDBRANCH   1  20
BRANCH  16  23
ATOM     23  O   UNL     1      15.107  13.109 -13.773  1.00  0.00    -0.393 OA
ATOM     24  H   UNL     1      15.070  12.817 -14.721  1.00  0.00     0.210 HD
ENDBRANCH  16  23
TORSDOF 2
ENDMDL
