MODEL 1
REMARK VINA RESULT:    -4.385      0.000      0.000
REMARK INTER + INTRA:          -9.119
REMARK INTER:                  -7.589
REMARK INTRA:                  -1.530
REMARK UNBOUND:                -1.530
REMARK SMILES CCCCCCCCCCCCCCO
REMARK SMILES IDX 8 1 7 2 6 3 5 4 4 5 3 6 2 7 1 8 9 9 10 10 11 11 12 12 13 13
REMARK SMILES IDX 14 14 15 15
REMARK H PARENT 15 16
REMARK Flexibility Score: inf
ROOT
ATOM      1  C   UNL     1     -16.111  44.178  30.283  1.00  0.00     0.000 C 
ENDROOT
BRANCH   1   2
ATOM      2  C   UNL     1     -14.746  44.878  30.405  1.00  0.00    -0.000 C 
BRANCH   2   3
ATOM      3  C   UNL     1     -13.602  43.895  30.702  1.00  0.00    -0.000 C 
BRANCH   3   4
ATOM      4  C   UNL     1     -12.540  44.491  31.638  1.00  0.00    -0.000 C 
BRANCH   4   5
ATOM      5  C   UNL     1     -12.877  44.198  33.107  1.00  0.00    -0.000 C 
BRANCH   5   6
ATOM      6  C   UNL     1     -13.680  45.328  33.777  1.00  0.00    -0.000 C 
BRANCH   6   7
ATOM      7  C   UNL     1     -15.095  44.933  34.235  1.00  0.00    -0.003 C 
ATOM      8  C   UNL     1     -15.370  43.435  34.104  1.00  0.00     0.004 C 
ENDBRANCH   6   7
ENDBRANCH   5   6
ENDBRANCH   4   5
ENDBRANCH   3   4
ENDBRANCH   2   3
ENDBRANCH   1   2
BRANCH   1   9
ATOM      9  C   UNL     1     -17.166  44.780  31.224  1.00  0.00     0.000 C 
BRANCH   9  10
ATOM     10  C   UNL     1     -18.389  43.863  31.401  1.00  0.00     0.000 C 
BRANCH  10  11
ATOM     11  C   UNL     1     -18.861  43.769  32.863  1.00  0.00     0.000 C 
BRANCH  11  12
ATOM     12  C   UNL     1     -18.703  42.379  33.506  1.00  0.00     0.002 C 
BRANCH  12  13
ATOM     13  C   UNL     1     -18.280  41.297  32.498  1.00  0.00     0.028 C 
BRANCH  13  14
ATOM     14  C   UNL     1     -17.196  40.379  33.074  1.00  0.00     0.156 C 
BRANCH  14  15
ATOM     15  O   UNL     1     -17.455  40.078  34.418  1.00  0.00    -0.396 OA
ATOM     16  H   UNL     1     -17.229  40.892  34.940  1.00  0.00     0.210 HD
ENDBRANCH  14  15
ENDBRANCH  13  14
ENDBRANCH  12  13
ENDBRANCH  11  12
ENDBRANCH  10  11
ENDBRANCH   9  10
ENDBRANCH   1   9
TORSDOF 13
ENDMDL
MODEL 2
REMARK VINA RESULT:    -4.326      2.138      4.654
REMARK INTER + INTRA:          -9.017
REMARK INTER:                  -7.346
REMARK INTRA:                  -1.672
REMARK UNBOUND:                -1.530
REMARK SMILES CCCCCCCCCCCCCCO
REMARK SMILES IDX 8 1 7 2 6 3 5 4 4 5 3 6 2 7 1 8 9 9 10 10 11 11 12 12 13 13
REMARK SMILES IDX 14 14 15 15
REMARK H PARENT 15 16
REMARK Flexibility Score: inf
ROOT
ATOM      1  C   UNL     1     -13.931  43.623  30.178  1.00  0.00     0.000 C 
ENDROOT
BRANCH   1   2
ATOM      2  C   UNL     1     -14.808  44.873  30.368  1.00  0.00    -0.000 C 
BRANCH   2   3
ATOM      3  C   UNL     1     -16.276  44.630  29.981  1.00  0.00    -0.000 C 
BRANCH   3   4
ATOM      4  C   UNL     1     -17.240  44.847  31.156  1.00  0.00    -0.000 C 
BRANCH   4   5
ATOM      5  C   UNL     1     -18.065  43.581  31.430  1.00  0.00    -0.000 C 
BRANCH   5   6
ATOM      6  C   UNL     1     -18.299  43.330  32.931  1.00  0.00    -0.000 C 
BRANCH   6   7
ATOM      7  C   UNL     1     -18.447  41.849  33.324  1.00  0.00    -0.003 C 
ATOM      8  C   UNL     1     -17.483  41.423  34.430  1.00  0.00     0.004 C 
ENDBRANCH   6   7
ENDBRANCH   5   6
ENDBRANCH   4   5
ENDBRANCH   3   4
ENDBRANCH   2   3
ENDBRANCH   1   2
BRANCH   1   9
ATOM      9  C   UNL     1     -14.639  42.335  30.625  1.00  0.00     0.000 C 
BRANCH   9  10
ATOM     10  C   UNL     1     -14.671  42.181  32.156  1.00  0.00     0.000 C 
BRANCH  10  11
ATOM     11  C   UNL     1     -13.315  42.488  32.816  1.00  0.00     0.000 C 
BRANCH  11  12
ATOM     12  C   UNL     1     -13.291  43.760  33.684  1.00  0.00     0.002 C 
BRANCH  12  13
ATOM     13  C   UNL     1     -14.688  44.180  34.169  1.00  0.00     0.028 C 
BRANCH  13  14
ATOM     14  C   UNL     1     -14.681  45.595  34.760  1.00  0.00     0.156 C 
BRANCH  14  15
ATOM     15  O   UNL     1     -13.593  45.772  35.627  1.00  0.00    -0.396 OA
ATOM     16  H   UNL     1     -13.941  46.249  36.425  1.00  0.00     0.210 HD
ENDBRANCH  14  15
ENDBRANCH  13  14
ENDBRANCH  12  13
ENDBRANCH  11  12
ENDBRANCH  10  11
ENDBRANCH   9  10
ENDBRANCH   1   9
TORSDOF 13
ENDMDL
MODEL 3
REMARK VINA RESULT:    -4.296      1.947      4.936
REMARK INTER + INTRA:          -8.965
REMARK INTER:                  -7.317
REMARK INTRA:                  -1.648
REMARK UNBOUND:                -1.530
REMARK SMILES CCCCCCCCCCCCCCO
REMARK SMILES IDX 8 1 7 2 6 3 5 4 4 5 3 6 2 7 1 8 9 9 10 10 11 11 12 12 13 13
REMARK SMILES IDX 14 14 15 15
REMARK H PARENT 15 16
REMARK Flexibility Score: inf
ROOT
ATOM      1  C   UNL     1     -16.647  43.918  30.256  1.00  0.00     0.000 C 
ENDROOT
BRANCH   1   2
ATOM      2  C   UNL     1     -17.554  44.639  31.268  1.00  0.00    -0.000 C 
BRANCH   2   3
ATOM      3  C   UNL     1     -18.669  43.732  31.814  1.00  0.00    -0.000 C 
BRANCH   3   4
ATOM      4  C   UNL     1     -18.745  43.748  33.348  1.00  0.00    -0.000 C 
BRANCH   4   5
ATOM      5  C   UNL     1     -18.578  42.333  33.920  1.00  0.00    -0.000 C 
BRANCH   5   6
ATOM      6  C   UNL     1     -17.244  41.675  33.520  1.00  0.00    -0.000 C 
BRANCH   6   7
ATOM      7  C   UNL     1     -17.380  40.319  32.806  1.00  0.00    -0.003 C 
ATOM      8  C   UNL     1     -17.023  40.384  31.322  1.00  0.00     0.004 C 
ENDBRANCH   6   7
ENDBRANCH   5   6
ENDBRANCH   4   5
ENDBRANCH   3   4
ENDBRANCH   2   3
ENDBRANCH   1   2
BRANCH   1   9
ATOM      9  C   UNL     1     -15.421  44.758  29.864  1.00  0.00     0.000 C 
BRANCH   9  10
ATOM     10  C   UNL     1     -14.117  44.217  30.475  1.00  0.00     0.000 C 
BRANCH  10  11
ATOM     11  C   UNL     1     -14.354  43.065  31.468  1.00  0.00     0.000 C 
BRANCH  11  12
ATOM     12  C   UNL     1     -14.100  43.420  32.945  1.00  0.00     0.002 C 
BRANCH  12  13
ATOM     13  C   UNL     1     -14.471  44.873  33.283  1.00  0.00     0.028 C 
BRANCH  13  14
ATOM     14  C   UNL     1     -13.897  45.303  34.638  1.00  0.00     0.156 C 
BRANCH  14  15
ATOM     15  O   UNL     1     -12.812  44.494  35.003  1.00  0.00    -0.396 OA
ATOM     16  H   UNL     1     -12.959  43.611  34.574  1.00  0.00     0.210 HD
ENDBRANCH  14  15
ENDBRANCH  13  14
ENDBRANCH  12  13
ENDBRANCH  11  12
ENDBRANCH  10  11
ENDBRANCH   9  10
ENDBRANCH   1   9
TORSDOF 13
ENDMDL
MODEL 4
REMARK VINA RESULT:    -4.224      1.775      2.702
REMARK INTER + INTRA:          -8.842
REMARK INTER:                  -7.251
REMARK INTRA:                  -1.591
REMARK UNBOUND:                -1.530
REMARK SMILES CCCCCCCCCCCCCCO
REMARK SMILES IDX 8 1 7 2 6 3 5 4 4 5 3 6 2 7 1 8 9 9 10 10 11 11 12 12 13 13
REMARK SMILES IDX 14 14 15 15
REMARK H PARENT 15 16
REMARK Flexibility Score: inf
ROOT
ATOM      1  C   UNL     1     -16.010  42.406  30.187  1.00  0.00     0.000 C 
ENDROOT
BRANCH   1   2
ATOM      2  C   UNL     1     -16.404  43.868  30.462  1.00  0.00    -0.000 C 
BRANCH   2   3
ATOM      3  C   UNL     1     -15.249  44.850  30.204  1.00  0.00    -0.000 C 
BRANCH   3   4
ATOM      4  C   UNL     1     -13.883  44.273  30.603  1.00  0.00    -0.000 C 
BRANCH   4   5
ATOM      5  C   UNL     1     -13.472  44.753  32.003  1.00  0.00    -0.000 C 
BRANCH   5   6
ATOM      6  C   UNL     1     -13.553  43.642  33.066  1.00  0.00    -0.000 C 
BRANCH   6   7
ATOM      7  C   UNL     1     -14.438  43.973  34.281  1.00  0.00    -0.003 C 
ATOM      8  C   UNL     1     -15.684  44.778  33.913  1.00  0.00     0.004 C 
ENDBRANCH   6   7
ENDBRANCH   5   6
ENDBRANCH   4   5
ENDBRANCH   3   4
ENDBRANCH   2   3
ENDBRANCH   1   2
BRANCH   1   9
ATOM      9  C   UNL     1     -15.996  41.551  31.463  1.00  0.00     0.000 C 
BRANCH   9  10
ATOM     10  C   UNL     1     -17.044  40.425  31.430  1.00  0.00     0.000 C 
BRANCH  10  11
ATOM     11  C   UNL     1     -18.141  40.596  32.495  1.00  0.00     0.000 C 
BRANCH  11  12
ATOM     12  C   UNL     1     -17.903  41.747  33.491  1.00  0.00     0.002 C 
BRANCH  12  13
ATOM     13  C   UNL     1     -19.179  42.546  33.800  1.00  0.00     0.028 C 
BRANCH  13  14
ATOM     14  C   UNL     1     -19.217  43.872  33.033  1.00  0.00     0.156 C 
BRANCH  14  15
ATOM     15  O   UNL     1     -20.091  44.782  33.645  1.00  0.00    -0.396 OA
ATOM     16  H   UNL     1     -20.787  45.003  32.973  1.00  0.00     0.210 HD
ENDBRANCH  14  15
ENDBRANCH  13  14
ENDBRANCH  12  13
ENDBRANCH  11  12
ENDBRANCH  10  11
ENDBRANCH   9  10
ENDBRANCH   1   9
TORSDOF 13
ENDMDL
MODEL 5
REMARK VINA RESULT:    -4.139      1.950      3.847
REMARK INTER + INTRA:          -8.694
REMARK INTER:                  -6.863
REMARK INTRA:                  -1.831
REMARK UNBOUND:                -1.530
REMARK SMILES CCCCCCCCCCCCCCO
REMARK SMILES IDX 8 1 7 2 6 3 5 4 4 5 3 6 2 7 1 8 9 9 10 10 11 11 12 12 13 13
REMARK SMILES IDX 14 14 15 15
REMARK H PARENT 15 16
REMARK Flexibility Score: inf
ROOT
ATOM      1  C   UNL     1     -12.632  43.918  32.748  1.00  0.00     0.000 C 
ENDROOT
BRANCH   1   2
ATOM      2  C   UNL     1     -13.010  42.438  32.931  1.00  0.00    -0.000 C 
BRANCH   2   3
ATOM      3  C   UNL     1     -12.747  41.599  31.670  1.00  0.00    -0.000 C 
BRANCH   3   4
ATOM      4  C   UNL     1     -14.028  41.318  30.871  1.00  0.00    -0.000 C 
BRANCH   4   5
ATOM      5  C   UNL     1     -14.335  42.470  29.903  1.00  0.00    -0.000 C 
BRANCH   5   6
ATOM      6  C   UNL     1     -15.740  43.066  30.105  1.00  0.00    -0.000 C 
BRANCH   6   7
ATOM      7  C   UNL     1     -15.904  44.516  29.618  1.00  0.00    -0.003 C 
ATOM      8  C   UNL     1     -17.115  45.221  30.229  1.00  0.00     0.004 C 
ENDBRANCH   6   7
ENDBRANCH   5   6
ENDBRANCH   4   5
ENDBRANCH   3   4
ENDBRANCH   2   3
ENDBRANCH   1   2
BRANCH   1   9
ATOM      9  C   UNL     1     -13.858  44.843  32.764  1.00  0.00     0.000 C 
BRANCH   9  10
ATOM     10  C   UNL     1     -14.747  44.622  33.999  1.00  0.00     0.000 C 
BRANCH  10  11
ATOM     11  C   UNL     1     -16.240  44.491  33.647  1.00  0.00     0.000 C 
BRANCH  11  12
ATOM     12  C   UNL     1     -16.788  43.052  33.675  1.00  0.00     0.002 C 
BRANCH  12  13
ATOM     13  C   UNL     1     -18.076  42.886  32.853  1.00  0.00     0.028 C 
BRANCH  13  14
ATOM     14  C   UNL     1     -19.327  43.151  33.699  1.00  0.00     0.156 C 
BRANCH  14  15
ATOM     15  O   UNL     1     -19.847  44.427  33.441  1.00  0.00    -0.396 OA
ATOM     16  H   UNL     1     -19.586  45.001  34.208  1.00  0.00     0.210 HD
ENDBRANCH  14  15
ENDBRANCH  13  14
ENDBRANCH  12  13
ENDBRANCH  11  12
ENDBRANCH  10  11
ENDBRANCH   9  10
ENDBRANCH   1   9
TORSDOF 13
ENDMDL
MODEL 6
REMARK VINA RESULT:    -4.130      2.287      4.998
REMARK INTER + INTRA:          -8.679
REMARK INTER:                  -6.914
REMARK INTRA:                  -1.765
REMARK UNBOUND:                -1.530
REMARK SMILES CCCCCCCCCCCCCCO
REMARK SMILES IDX 8 1 7 2 6 3 5 4 4 5 3 6 2 7 1 8 9 9 10 10 11 11 12 12 13 13
REMARK SMILES IDX 14 14 15 15
REMARK H PARENT 15 16
REMARK Flexibility Score: inf
ROOT
ATOM      1  C   UNL     1     -19.071  42.196  33.528  1.00  0.00     0.000 C 
ENDROOT
BRANCH   1   2
ATOM      2  C   UNL     1     -17.888  41.580  34.295  1.00  0.00    -0.000 C 
BRANCH   2   3
ATOM      3  C   UNL     1     -16.870  40.898  33.367  1.00  0.00    -0.000 C 
BRANCH   3   4
ATOM      4  C   UNL     1     -17.538  40.177  32.186  1.00  0.00    -0.000 C 
BRANCH   4   5
ATOM      5  C   UNL     1     -16.511  39.843  31.095  1.00  0.00    -0.000 C 
BRANCH   5   6
ATOM      6  C   UNL     1     -16.179  41.046  30.193  1.00  0.00    -0.000 C 
BRANCH   6   7
ATOM      7  C   UNL     1     -14.681  41.244  29.904  1.00  0.00    -0.003 C 
ATOM      8  C   UNL     1     -13.813  41.168  31.159  1.00  0.00     0.004 C 
ENDBRANCH   6   7
ENDBRANCH   5   6
ENDBRANCH   4   5
ENDBRANCH   3   4
ENDBRANCH   2   3
ENDBRANCH   1   2
BRANCH   1   9
ATOM      9  C   UNL     1     -18.832  43.669  33.163  1.00  0.00     0.000 C 
BRANCH   9  10
ATOM     10  C   UNL     1     -18.181  43.835  31.779  1.00  0.00     0.000 C 
BRANCH  10  11
ATOM     11  C   UNL     1     -17.033  44.861  31.777  1.00  0.00     0.000 C 
BRANCH  11  12
ATOM     12  C   UNL     1     -15.644  44.278  32.097  1.00  0.00     0.002 C 
BRANCH  12  13
ATOM     13  C   UNL     1     -15.193  44.562  33.539  1.00  0.00     0.028 C 
BRANCH  13  14
ATOM     14  C   UNL     1     -13.717  44.970  33.601  1.00  0.00     0.156 C 
BRANCH  14  15
ATOM     15  O   UNL     1     -13.145  44.602  34.827  1.00  0.00    -0.396 OA
ATOM     16  H   UNL     1     -12.431  45.266  35.018  1.00  0.00     0.210 HD
ENDBRANCH  14  15
ENDBRANCH  13  14
ENDBRANCH  12  13
ENDBRANCH  11  12
ENDBRANCH  10  11
ENDBRANCH   9  10
ENDBRANCH   1   9
TORSDOF 13
ENDMDL
MODEL 7
REMARK VINA RESULT:    -4.116      2.533      4.973
REMARK INTER + INTRA:          -8.654
REMARK INTER:                  -6.475
REMARK INTRA:                  -2.179
REMARK UNBOUND:                -1.530
REMARK SMILES CCCCCCCCCCCCCCO
REMARK SMILES IDX 8 1 7 2 6 3 5 4 4 5 3 6 2 7 1 8 9 9 10 10 11 11 12 12 13 13
REMARK SMILES IDX 14 14 15 15
REMARK H PARENT 15 16
REMARK Flexibility Score: inf
ROOT
ATOM      1  C   UNL     1     -17.963  43.801  32.885  1.00  0.00     0.000 C 
ENDROOT
BRANCH   1   2
ATOM      2  C   UNL     1     -17.922  43.810  31.347  1.00  0.00    -0.000 C 
BRANCH   2   3
ATOM      3  C   UNL     1     -17.097  44.978  30.783  1.00  0.00    -0.000 C 
BRANCH   3   4
ATOM      4  C   UNL     1     -15.948  44.508  29.879  1.00  0.00    -0.000 C 
BRANCH   4   5
ATOM      5  C   UNL     1     -16.012  42.990  29.655  1.00  0.00    -0.000 C 
BRANCH   5   6
ATOM      6  C   UNL     1     -14.712  42.268  30.055  1.00  0.00    -0.000 C 
BRANCH   6   7
ATOM      7  C   UNL     1     -14.914  40.961  30.841  1.00  0.00    -0.003 C 
ATOM      8  C   UNL     1     -16.363  40.476  30.835  1.00  0.00     0.004 C 
ENDBRANCH   6   7
ENDBRANCH   5   6
ENDBRANCH   4   5
ENDBRANCH   3   4
ENDBRANCH   2   3
ENDBRANCH   1   2
BRANCH   1   9
ATOM      9  C   UNL     1     -16.771  43.051  33.500  1.00  0.00     0.000 C 
BRANCH   9  10
ATOM     10  C   UNL     1     -15.666  44.002  33.991  1.00  0.00     0.000 C 
BRANCH  10  11
ATOM     11  C   UNL     1     -14.289  43.686  33.382  1.00  0.00     0.000 C 
BRANCH  11  12
ATOM     12  C   UNL     1     -13.538  44.903  32.812  1.00  0.00     0.002 C 
BRANCH  12  13
ATOM     13  C   UNL     1     -12.400  44.512  31.856  1.00  0.00     0.028 C 
BRANCH  13  14
ATOM     14  C   UNL     1     -11.709  43.216  32.298  1.00  0.00     0.156 C 
BRANCH  14  15
ATOM     15  O   UNL     1     -10.406  43.470  32.749  1.00  0.00    -0.396 OA
ATOM     16  H   UNL     1      -9.887  42.637  32.602  1.00  0.00     0.210 HD
ENDBRANCH  14  15
ENDBRANCH  13  14
ENDBRANCH  12  13
ENDBRANCH  11  12
ENDBRANCH  10  11
ENDBRANCH   9  10
ENDBRANCH   1   9
TORSDOF 13
ENDMDL
MODEL 8
REMARK VINA RESULT:    -4.052      2.342      4.161
REMARK INTER + INTRA:          -8.544
REMARK INTER:                  -6.661
REMARK INTRA:                  -1.883
REMARK UNBOUND:                -1.530
REMARK SMILES CCCCCCCCCCCCCCO
REMARK SMILES IDX 8 1 7 2 6 3 5 4 4 5 3 6 2 7 1 8 9 9 10 10 11 11 12 12 13 13
REMARK SMILES IDX 14 14 15 15
REMARK H PARENT 15 16
REMARK Flexibility Score: inf
ROOT
ATOM      1  C   UNL     1     -13.528  44.773  32.790  1.00  0.00     0.000 C 
ENDROOT
BRANCH   1   2
ATOM      2  C   UNL     1     -12.892  44.444  31.428  1.00  0.00    -0.000 C 
BRANCH   2   3
ATOM      3  C   UNL     1     -13.228  43.023  30.946  1.00  0.00    -0.000 C 
BRANCH   3   4
ATOM      4  C   UNL     1     -14.034  43.018  29.638  1.00  0.00    -0.000 C 
BRANCH   4   5
ATOM      5  C   UNL     1     -15.015  41.837  29.603  1.00  0.00    -0.000 C 
BRANCH   5   6
ATOM      6  C   UNL     1     -15.367  41.307  31.005  1.00  0.00    -0.000 C 
BRANCH   6   7
ATOM      7  C   UNL     1     -16.525  40.294  31.041  1.00  0.00    -0.003 C 
ATOM      8  C   UNL     1     -17.285  40.299  32.366  1.00  0.00     0.004 C 
ENDBRANCH   6   7
ENDBRANCH   5   6
ENDBRANCH   4   5
ENDBRANCH   3   4
ENDBRANCH   2   3
ENDBRANCH   1   2
BRANCH   1   9
ATOM      9  C   UNL     1     -13.835  43.514  33.614  1.00  0.00     0.000 C 
BRANCH   9  10
ATOM     10  C   UNL     1     -15.260  43.523  34.194  1.00  0.00     0.000 C 
BRANCH  10  11
ATOM     11  C   UNL     1     -16.180  44.548  33.506  1.00  0.00     0.000 C 
BRANCH  11  12
ATOM     12  C   UNL     1     -17.562  44.005  33.096  1.00  0.00     0.002 C 
BRANCH  12  13
ATOM     13  C   UNL     1     -17.739  43.908  31.572  1.00  0.00     0.028 C 
BRANCH  13  14
ATOM     14  C   UNL     1     -16.786  44.852  30.830  1.00  0.00     0.156 C 
BRANCH  14  15
ATOM     15  O   UNL     1     -17.484  45.649  29.911  1.00  0.00    -0.396 OA
ATOM     16  H   UNL     1     -16.816  46.256  29.497  1.00  0.00     0.210 HD
ENDBRANCH  14  15
ENDBRANCH  13  14
ENDBRANCH  12  13
ENDBRANCH  11  12
ENDBRANCH  10  11
ENDBRANCH   9  10
ENDBRANCH   1   9
TORSDOF 13
ENDMDL
MODEL 9
REMARK VINA RESULT:    -3.984      2.262      3.548
REMARK INTER + INTRA:          -8.426
REMARK INTER:                  -7.120
REMARK INTRA:                  -1.306
REMARK UNBOUND:                -1.530
REMARK SMILES CCCCCCCCCCCCCCO
REMARK SMILES IDX 8 1 7 2 6 3 5 4 4 5 3 6 2 7 1 8 9 9 10 10 11 11 12 12 13 13
REMARK SMILES IDX 14 14 15 15
REMARK H PARENT 15 16
REMARK Flexibility Score: inf
ROOT
ATOM      1  C   UNL     1     -16.090  44.626  29.732  1.00  0.00     0.000 C 
ENDROOT
BRANCH   1   2
ATOM      2  C   UNL     1     -14.937  43.714  30.187  1.00  0.00    -0.000 C 
BRANCH   2   3
ATOM      3  C   UNL     1     -13.643  44.494  30.474  1.00  0.00    -0.000 C 
BRANCH   3   4
ATOM      4  C   UNL     1     -12.409  43.851  29.824  1.00  0.00    -0.000 C 
BRANCH   4   5
ATOM      5  C   UNL     1     -11.138  44.172  30.624  1.00  0.00    -0.000 C 
BRANCH   5   6
ATOM      6  C   UNL     1     -11.244  43.773  32.107  1.00  0.00    -0.000 C 
BRANCH   6   7
ATOM      7  C   UNL     1     -11.500  42.277  32.358  1.00  0.00    -0.003 C 
ATOM      8  C   UNL     1     -10.401  41.378  31.793  1.00  0.00     0.004 C 
ENDBRANCH   6   7
ENDBRANCH   5   6
ENDBRANCH   4   5
ENDBRANCH   3   4
ENDBRANCH   2   3
ENDBRANCH   1   2
BRANCH   1   9
ATOM      9  C   UNL     1     -17.131  44.853  30.839  1.00  0.00     0.000 C 
BRANCH   9  10
ATOM     10  C   UNL     1     -17.627  43.536  31.460  1.00  0.00     0.000 C 
BRANCH  10  11
ATOM     11  C   UNL     1     -17.435  43.484  32.987  1.00  0.00     0.000 C 
BRANCH  11  12
ATOM     12  C   UNL     1     -16.460  44.534  33.552  1.00  0.00     0.002 C 
BRANCH  12  13
ATOM     13  C   UNL     1     -15.096  43.939  33.939  1.00  0.00     0.028 C 
BRANCH  13  14
ATOM     14  C   UNL     1     -14.055  45.032  34.200  1.00  0.00     0.156 C 
BRANCH  14  15
ATOM     15  O   UNL     1     -13.041  44.568  35.050  1.00  0.00    -0.396 OA
ATOM     16  H   UNL     1     -12.342  44.171  34.468  1.00  0.00     0.210 HD
ENDBRANCH  14  15
ENDBRANCH  13  14
ENDBRANCH  12  13
ENDBRANCH  11  12
ENDBRANCH  10  11
ENDBRANCH   9  10
ENDBRANCH   1   9
TORSDOF 13
ENDMDL
