MODEL 1
REMARK VINA RESULT:    39.774      0.000      0.000
REMARK INTER + INTRA:          54.967
REMARK INTER:                  54.888
REMARK INTRA:                   0.079
REMARK UNBOUND:                 0.079
REMARK SMILES CC[C@H](CC[C@@H](C)[C@H]1CC[C@@H]2[C@@H]3CC=C4C[C@H](O)CC[C@]4(C)[C@@H]3CC[C@@]21C)C(C)C
REMARK SMILES IDX 5 1 4 2 3 3 2 4 1 5 28 6 29 7 30 8 6 9 7 10 8 11 9 12 26 13
REMARK SMILES IDX 10 14 11 15 25 16 27 17 12 18 24 19 23 20 13 21 21 22 14 23
REMARK SMILES IDX 15 24 20 25 22 26 16 27 19 28 17 29 18 30
REMARK H PARENT 18 31
REMARK Flexibility Score: inf
ROOT
ATOM      1  C   UNL     1     -29.575  25.082   6.209  1.00  0.00     0.004 C 
ENDROOT
BRANCH   1   2
ATOM      2  C   UNL     1     -29.566  23.842   7.136  1.00  0.00     0.004 C 
BRANCH   2   3
ATOM      3  C   UNL     1     -28.225  23.536   7.875  1.00  0.00    -0.009 C 
BRANCH   3   4
ATOM      4  C   UNL     1     -27.617  22.195   7.374  1.00  0.00     0.000 C 
ATOM      5  C   UNL     1     -27.987  20.996   8.247  1.00  0.00     0.004 C 
ENDBRANCH   3   4
BRANCH   3   6
ATOM      6  C   UNL     1     -27.163  24.706   7.781  1.00  0.00    -0.014 C 
ATOM      7  C   UNL     1     -26.446  25.075   9.094  1.00  0.00     0.007 C 
ATOM      8  C   UNL     1     -26.096  24.396   6.714  1.00  0.00     0.007 C 
ENDBRANCH   3   6
ENDBRANCH   2   3
ENDBRANCH   1   2
BRANCH   1   9
ATOM      9  C   UNL     1     -30.967  25.741   5.961  1.00  0.00    -0.011 C 
ATOM     10  C   UNL     1     -30.896  26.623   4.694  1.00  0.00     0.008 C 
BRANCH   9  11
ATOM     11  C   UNL     1     -32.107  24.670   5.807  1.00  0.00    -0.002 C 
ATOM     12  C   UNL     1     -31.665  23.371   5.133  1.00  0.00     0.005 C 
ATOM     13  C   UNL     1     -32.894  24.206   7.107  1.00  0.00    -0.026 C 
ATOM     14  C   UNL     1     -32.719  22.359   5.518  1.00  0.00     0.005 C 
ATOM     15  C   UNL     1     -32.981  22.657   6.991  1.00  0.00    -0.001 C 
ATOM     16  C   UNL     1     -34.310  24.826   7.059  1.00  0.00     0.007 C 
ATOM     17  C   UNL     1     -32.174  24.547   8.445  1.00  0.00     0.012 C 
ATOM     18  C   UNL     1     -34.195  21.931   7.696  1.00  0.00     0.000 C 
ATOM     19  C   UNL     1     -35.251  24.279   8.121  1.00  0.00     0.005 C 
ATOM     20  C   UNL     1     -35.499  22.753   8.004  1.00  0.00     0.003 C 
ATOM     21  C   UNL     1     -34.476  20.535   7.092  1.00  0.00     0.031 C 
ATOM     22  C   UNL     1     -36.813  22.310   7.234  1.00  0.00    -0.008 C 
ATOM     23  C   UNL     1     -35.840  19.999   7.380  1.00  0.00    -0.027 C 
ATOM     24  C   UNL     1     -36.925  20.781   7.221  1.00  0.00    -0.065 C 
ATOM     25  C   UNL     1     -36.842  22.787   5.758  1.00  0.00     0.014 C 
ATOM     26  C   UNL     1     -38.053  22.880   7.995  1.00  0.00     0.016 C 
ATOM     27  C   UNL     1     -38.118  20.175   6.511  1.00  0.00     0.063 C 
ATOM     28  C   UNL     1     -38.023  22.193   4.952  1.00  0.00     0.033 C 
ATOM     29  C   UNL     1     -38.110  20.652   5.047  1.00  0.00     0.118 C 
BRANCH  29  30
ATOM     30  O   UNL     1     -37.018  20.078   4.376  1.00  0.00    -0.393 OA
ATOM     31  H   UNL     1     -37.366  19.679   3.538  1.00  0.00     0.210 HD
ENDBRANCH  29  30
ENDBRANCH   9  11
ENDBRANCH   1   9
TORSDOF 7
ENDMDL
