MODEL 1
REMARK VINA RESULT:    -6.124      0.000      0.000
REMARK INTER + INTRA:          -6.303
REMARK INTER:                  -6.303
REMARK INTRA:                   0.000
REMARK UNBOUND:                 0.000
REMARK SMILES C=C1[C@H]2C[C@@]3(C[C@@H]1O)[C@H](CC[C@@H]3C)C2(C)C
REMARK SMILES IDX 13 1 12 2 11 3 10 4 9 5 5 6 4 7 3 8 14 9 15 10 16 11 2 12
REMARK SMILES IDX 1 13 7 14 6 15 8 16
REMARK H PARENT 8 17
REMARK Flexibility Score: inf
ROOT
ATOM      1  C   UNL     1     112.563 117.004 130.520  1.00  0.00     0.008 C 
ATOM      2  C   UNL     1     111.747 116.452 129.341  1.00  0.00    -0.008 C 
ATOM      3  C   UNL     1     110.327 116.082 129.760  1.00  0.00     0.004 C 
ATOM      4  C   UNL     1     109.541 116.046 128.463  1.00  0.00     0.005 C 
ATOM      5  C   UNL     1     110.113 117.209 127.638  1.00  0.00     0.002 C 
ATOM      6  C   UNL     1     111.578 117.395 128.110  1.00  0.00    -0.020 C 
ATOM      7  C   UNL     1     112.429 116.974 126.909  1.00  0.00     0.016 C 
ATOM      8  C   UNL     1     111.620 117.537 125.751  1.00  0.00     0.023 C 
ATOM      9  C   UNL     1     110.165 117.084 126.076  1.00  0.00    -0.025 C 
ATOM     10  C   UNL     1     109.090 117.974 125.404  1.00  0.00     0.012 C 
ATOM     11  C   UNL     1     109.947 115.643 125.541  1.00  0.00     0.012 C 
ATOM     12  C   UNL     1     111.782 119.057 125.789  1.00  0.00    -0.045 C 
ATOM     13  C   UNL     1     111.930 119.740 124.643  1.00  0.00     0.011 C 
ATOM     14  C   UNL     1     111.721 119.814 127.120  1.00  0.00     0.140 C 
ATOM     15  C   UNL     1     111.877 118.903 128.376  1.00  0.00     0.044 C 
ENDROOT
BRANCH  14  16
ATOM     16  O   UNL     1     110.511 120.522 127.213  1.00  0.00    -0.389 OA
ATOM     17  H   UNL     1     110.307 120.873 126.307  1.00  0.00     0.211 HD
ENDBRANCH  14  16
TORSDOF 1
ENDMDL
MODEL 2
REMARK VINA RESULT:    -5.861      1.873      3.457
REMARK INTER + INTRA:          -6.032
REMARK INTER:                  -6.032
REMARK INTRA:                   0.000
REMARK UNBOUND:                 0.000
REMARK SMILES C=C1[C@H]2C[C@@]3(C[C@@H]1O)[C@H](CC[C@@H]3C)C2(C)C
REMARK SMILES IDX 13 1 12 2 11 3 10 4 9 5 5 6 4 7 3 8 14 9 15 10 16 11 2 12
REMARK SMILES IDX 1 13 7 14 6 15 8 16
REMARK H PARENT 8 17
REMARK Flexibility Score: inf
ROOT
ATOM      1  C   UNL     1     109.980 116.378 129.891  1.00  0.00     0.008 C 
ATOM      2  C   UNL     1     110.406 117.540 128.981  1.00  0.00    -0.008 C 
ATOM      3  C   UNL     1     111.864 117.930 129.207  1.00  0.00     0.004 C 
ATOM      4  C   UNL     1     112.257 118.690 127.954  1.00  0.00     0.005 C 
ATOM      5  C   UNL     1     111.544 117.943 126.816  1.00  0.00     0.002 C 
ATOM      6  C   UNL     1     110.281 117.302 127.444  1.00  0.00    -0.020 C 
ATOM      7  C   UNL     1     109.108 118.059 126.813  1.00  0.00     0.016 C 
ATOM      8  C   UNL     1     109.596 118.236 125.384  1.00  0.00     0.023 C 
ATOM      9  C   UNL     1     111.056 118.748 125.563  1.00  0.00    -0.025 C 
ATOM     10  C   UNL     1     111.951 118.468 124.330  1.00  0.00     0.012 C 
ATOM     11  C   UNL     1     111.037 120.288 125.758  1.00  0.00     0.012 C 
ATOM     12  C   UNL     1     109.535 116.861 124.716  1.00  0.00    -0.045 C 
ATOM     13  C   UNL     1     109.115 116.755 123.446  1.00  0.00     0.011 C 
ATOM     14  C   UNL     1     110.004 115.609 125.467  1.00  0.00     0.140 C 
ATOM     15  C   UNL     1     110.151 115.810 127.006  1.00  0.00     0.044 C 
ENDROOT
BRANCH  14  16
ATOM     16  O   UNL     1     111.230 115.168 124.941  1.00  0.00    -0.389 OA
ATOM     17  H   UNL     1     111.791 114.881 125.708  1.00  0.00     0.211 HD
ENDBRANCH  14  16
TORSDOF 1
ENDMDL
MODEL 3
REMARK VINA RESULT:    -5.765      1.612      4.556
REMARK INTER + INTRA:          -5.933
REMARK INTER:                  -5.933
REMARK INTRA:                   0.000
REMARK UNBOUND:                 0.000
REMARK SMILES C=C1[C@H]2C[C@@]3(C[C@@H]1O)[C@H](CC[C@@H]3C)C2(C)C
REMARK SMILES IDX 13 1 12 2 11 3 10 4 9 5 5 6 4 7 3 8 14 9 15 10 16 11 2 12
REMARK SMILES IDX 1 13 7 14 6 15 8 16
REMARK H PARENT 8 17
REMARK Flexibility Score: inf
ROOT
ATOM      1  C   UNL     1     108.875 119.895 123.543  1.00  0.00     0.008 C 
ATOM      2  C   UNL     1     110.025 118.903 123.774  1.00  0.00    -0.008 C 
ATOM      3  C   UNL     1     111.387 119.582 123.665  1.00  0.00     0.004 C 
ATOM      4  C   UNL     1     112.341 118.647 124.384  1.00  0.00     0.005 C 
ATOM      5  C   UNL     1     111.532 118.123 125.580  1.00  0.00     0.002 C 
ATOM      6  C   UNL     1     110.044 118.167 125.148  1.00  0.00    -0.020 C 
ATOM      7  C   UNL     1     109.626 116.696 125.048  1.00  0.00     0.016 C 
ATOM      8  C   UNL     1     110.357 116.092 126.237  1.00  0.00     0.023 C 
ATOM      9  C   UNL     1     111.798 116.670 126.104  1.00  0.00    -0.025 C 
ATOM     10  C   UNL     1     112.569 116.687 127.448  1.00  0.00     0.012 C 
ATOM     11  C   UNL     1     112.618 115.778 125.133  1.00  0.00     0.012 C 
ATOM     12  C   UNL     1     109.644 116.581 127.497  1.00  0.00    -0.045 C 
ATOM     13  C   UNL     1     109.454 115.739 128.525  1.00  0.00     0.011 C 
ATOM     14  C   UNL     1     109.193 118.041 127.621  1.00  0.00     0.140 C 
ATOM     15  C   UNL     1     109.171 118.815 126.268  1.00  0.00     0.044 C 
ENDROOT
BRANCH  14  16
ATOM     16  O   UNL     1     110.023 118.723 128.527  1.00  0.00    -0.389 OA
ATOM     17  H   UNL     1     110.006 119.683 128.275  1.00  0.00     0.211 HD
ENDBRANCH  14  16
TORSDOF 1
ENDMDL
MODEL 4
REMARK VINA RESULT:    -5.762      1.572      4.029
REMARK INTER + INTRA:          -5.930
REMARK INTER:                  -5.930
REMARK INTRA:                   0.000
REMARK UNBOUND:                 0.000
REMARK SMILES C=C1[C@H]2C[C@@]3(C[C@@H]1O)[C@H](CC[C@@H]3C)C2(C)C
REMARK SMILES IDX 13 1 12 2 11 3 10 4 9 5 5 6 4 7 3 8 14 9 15 10 16 11 2 12
REMARK SMILES IDX 1 13 7 14 6 15 8 16
REMARK H PARENT 8 17
REMARK Flexibility Score: inf
ROOT
ATOM      1  C   UNL     1     112.231 121.654 127.378  1.00  0.00     0.008 C 
ATOM      2  C   UNL     1     111.468 120.776 126.375  1.00  0.00    -0.008 C 
ATOM      3  C   UNL     1     112.288 120.517 125.114  1.00  0.00     0.004 C 
ATOM      4  C   UNL     1     111.651 119.290 124.488  1.00  0.00     0.005 C 
ATOM      5  C   UNL     1     111.274 118.404 125.685  1.00  0.00     0.002 C 
ATOM      6  C   UNL     1     111.031 119.366 126.876  1.00  0.00    -0.020 C 
ATOM      7  C   UNL     1     109.528 119.266 127.155  1.00  0.00     0.016 C 
ATOM      8  C   UNL     1     109.277 117.783 126.935  1.00  0.00     0.023 C 
ATOM      9  C   UNL     1     110.004 117.491 125.588  1.00  0.00    -0.025 C 
ATOM     10  C   UNL     1     110.392 116.000 125.422  1.00  0.00     0.012 C 
ATOM     11  C   UNL     1     109.054 117.836 124.410  1.00  0.00     0.012 C 
ATOM     12  C   UNL     1     109.908 117.042 128.114  1.00  0.00    -0.045 C 
ATOM     13  C   UNL     1     109.271 115.996 128.662  1.00  0.00     0.011 C 
ATOM     14  C   UNL     1     111.290 117.449 128.640  1.00  0.00     0.140 C 
ATOM     15  C   UNL     1     111.767 118.850 128.152  1.00  0.00     0.044 C 
ENDROOT
BRANCH  14  16
ATOM     16  O   UNL     1     112.244 116.484 128.272  1.00  0.00    -0.389 OA
ATOM     17  H   UNL     1     112.803 116.884 127.556  1.00  0.00     0.211 HD
ENDBRANCH  14  16
TORSDOF 1
ENDMDL
MODEL 5
REMARK VINA RESULT:    -5.661      1.448      3.910
REMARK INTER + INTRA:          -5.826
REMARK INTER:                  -5.826
REMARK INTRA:                   0.000
REMARK UNBOUND:                 0.000
REMARK SMILES C=C1[C@H]2C[C@@]3(C[C@@H]1O)[C@H](CC[C@@H]3C)C2(C)C
REMARK SMILES IDX 13 1 12 2 11 3 10 4 9 5 5 6 4 7 3 8 14 9 15 10 16 11 2 12
REMARK SMILES IDX 1 13 7 14 6 15 8 16
REMARK H PARENT 8 17
REMARK Flexibility Score: inf
ROOT
ATOM      1  C   UNL     1     109.232 117.404 122.896  1.00  0.00     0.008 C 
ATOM      2  C   UNL     1     109.324 117.033 124.383  1.00  0.00    -0.008 C 
ATOM      3  C   UNL     1     109.996 115.677 124.587  1.00  0.00     0.004 C 
ATOM      4  C   UNL     1     110.452 115.688 126.033  1.00  0.00     0.005 C 
ATOM      5  C   UNL     1     110.925 117.130 126.273  1.00  0.00     0.002 C 
ATOM      6  C   UNL     1     110.110 118.020 125.300  1.00  0.00    -0.020 C 
ATOM      7  C   UNL     1     109.199 118.854 126.206  1.00  0.00     0.016 C 
ATOM      8  C   UNL     1     110.125 119.151 127.375  1.00  0.00     0.023 C 
ATOM      9  C   UNL     1     110.754 117.762 127.698  1.00  0.00    -0.025 C 
ATOM     10  C   UNL     1     112.113 117.871 128.433  1.00  0.00     0.012 C 
ATOM     11  C   UNL     1     109.802 116.976 128.638  1.00  0.00     0.012 C 
ATOM     12  C   UNL     1     111.159 120.162 126.881  1.00  0.00    -0.045 C 
ATOM     13  C   UNL     1     111.543 121.168 127.683  1.00  0.00     0.011 C 
ATOM     14  C   UNL     1     111.804 120.006 125.499  1.00  0.00     0.140 C 
ATOM     15  C   UNL     1     111.052 119.018 124.557  1.00  0.00     0.044 C 
ENDROOT
BRANCH  14  16
ATOM     16  O   UNL     1     113.137 119.584 125.639  1.00  0.00    -0.389 OA
ATOM     17  H   UNL     1     113.538 119.573 124.731  1.00  0.00     0.211 HD
ENDBRANCH  14  16
TORSDOF 1
ENDMDL
MODEL 6
REMARK VINA RESULT:    -5.635      5.296      7.225
REMARK INTER + INTRA:          -5.800
REMARK INTER:                  -5.800
REMARK INTRA:                   0.000
REMARK UNBOUND:                 0.000
REMARK SMILES C=C1[C@H]2C[C@@]3(C[C@@H]1O)[C@H](CC[C@@H]3C)C2(C)C
REMARK SMILES IDX 13 1 12 2 11 3 10 4 9 5 5 6 4 7 3 8 14 9 15 10 16 11 2 12
REMARK SMILES IDX 1 13 7 14 6 15 8 16
REMARK H PARENT 8 17
REMARK Flexibility Score: inf
ROOT
ATOM      1  C   UNL     1     115.562 120.810 122.736  1.00  0.00     0.008 C 
ATOM      2  C   UNL     1     114.283 121.476 123.268  1.00  0.00    -0.008 C 
ATOM      3  C   UNL     1     113.280 120.445 123.778  1.00  0.00     0.004 C 
ATOM      4  C   UNL     1     112.352 121.229 124.687  1.00  0.00     0.005 C 
ATOM      5  C   UNL     1     113.275 122.227 125.404  1.00  0.00     0.002 C 
ATOM      6  C   UNL     1     114.461 122.488 124.441  1.00  0.00    -0.020 C 
ATOM      7  C   UNL     1     114.293 123.947 124.006  1.00  0.00     0.016 C 
ATOM      8  C   UNL     1     113.828 124.597 125.299  1.00  0.00     0.023 C 
ATOM      9  C   UNL     1     112.713 123.634 125.805  1.00  0.00    -0.025 C 
ATOM     10  C   UNL     1     112.476 123.732 127.333  1.00  0.00     0.012 C 
ATOM     11  C   UNL     1     111.369 124.006 125.123  1.00  0.00     0.012 C 
ATOM     12  C   UNL     1     115.034 124.641 126.237  1.00  0.00    -0.045 C 
ATOM     13  C   UNL     1     115.247 125.725 126.999  1.00  0.00     0.011 C 
ATOM     14  C   UNL     1     115.972 123.434 126.357  1.00  0.00     0.140 C 
ATOM     15  C   UNL     1     115.817 122.393 125.207  1.00  0.00     0.044 C 
ENDROOT
BRANCH  14  16
ATOM     16  O   UNL     1     115.768 122.791 127.590  1.00  0.00    -0.389 OA
ATOM     17  H   UNL     1     114.929 122.267 127.512  1.00  0.00     0.211 HD
ENDBRANCH  14  16
TORSDOF 1
ENDMDL
MODEL 7
REMARK VINA RESULT:    -5.605      2.017      4.357
REMARK INTER + INTRA:          -5.769
REMARK INTER:                  -5.769
REMARK INTRA:                   0.000
REMARK UNBOUND:                 0.000
REMARK SMILES C=C1[C@H]2C[C@@]3(C[C@@H]1O)[C@H](CC[C@@H]3C)C2(C)C
REMARK SMILES IDX 13 1 12 2 11 3 10 4 9 5 5 6 4 7 3 8 14 9 15 10 16 11 2 12
REMARK SMILES IDX 1 13 7 14 6 15 8 16
REMARK H PARENT 8 17
REMARK Flexibility Score: inf
ROOT
ATOM      1  C   UNL     1     111.091 118.105 125.183  1.00  0.00     0.008 C 
ATOM      2  C   UNL     1     110.562 117.748 126.581  1.00  0.00    -0.008 C 
ATOM      3  C   UNL     1     109.646 116.528 126.544  1.00  0.00     0.004 C 
ATOM      4  C   UNL     1     109.624 116.022 127.974  1.00  0.00     0.005 C 
ATOM      5  C   UNL     1     111.062 116.230 128.475  1.00  0.00     0.002 C 
ATOM      6  C   UNL     1     111.632 117.424 127.668  1.00  0.00    -0.020 C 
ATOM      7  C   UNL     1     111.800 118.544 128.700  1.00  0.00     0.016 C 
ATOM      8  C   UNL     1     112.287 117.768 129.913  1.00  0.00     0.023 C 
ATOM      9  C   UNL     1     111.303 116.562 129.987  1.00  0.00    -0.025 C 
ATOM     10  C   UNL     1     111.893 115.346 130.744  1.00  0.00     0.012 C 
ATOM     11  C   UNL     1     110.028 116.991 130.761  1.00  0.00     0.012 C 
ATOM     12  C   UNL     1     113.724 117.335 129.620  1.00  0.00    -0.045 C 
ATOM     13  C   UNL     1     114.646 117.385 130.593  1.00  0.00     0.011 C 
ATOM     14  C   UNL     1     114.107 116.790 128.239  1.00  0.00     0.140 C 
ATOM     15  C   UNL     1     113.056 117.085 127.127  1.00  0.00     0.044 C 
ENDROOT
BRANCH  14  16
ATOM     16  O   UNL     1     114.319 115.403 128.315  1.00  0.00    -0.389 OA
ATOM     17  H   UNL     1     113.518 115.007 128.747  1.00  0.00     0.211 HD
ENDBRANCH  14  16
TORSDOF 1
ENDMDL
MODEL 8
REMARK VINA RESULT:    -5.552      1.607      3.311
REMARK INTER + INTRA:          -5.715
REMARK INTER:                  -5.715
REMARK INTRA:                   0.000
REMARK UNBOUND:                 0.000
REMARK SMILES C=C1[C@H]2C[C@@]3(C[C@@H]1O)[C@H](CC[C@@H]3C)C2(C)C
REMARK SMILES IDX 13 1 12 2 11 3 10 4 9 5 5 6 4 7 3 8 14 9 15 10 16 11 2 12
REMARK SMILES IDX 1 13 7 14 6 15 8 16
REMARK H PARENT 8 17
REMARK Flexibility Score: inf
ROOT
ATOM      1  C   UNL     1     110.394 116.013 129.872  1.00  0.00     0.008 C 
ATOM      2  C   UNL     1     110.888 117.363 129.331  1.00  0.00    -0.008 C 
ATOM      3  C   UNL     1     112.405 117.493 129.438  1.00  0.00     0.004 C 
ATOM      4  C   UNL     1     112.767 118.588 128.453  1.00  0.00     0.005 C 
ATOM      5  C   UNL     1     111.823 118.356 127.262  1.00  0.00     0.002 C 
ATOM      6  C   UNL     1     110.555 117.679 127.840  1.00  0.00    -0.020 C 
ATOM      7  C   UNL     1     109.449 118.727 127.681  1.00  0.00     0.016 C 
ATOM      8  C   UNL     1     109.794 119.329 126.328  1.00  0.00     0.023 C 
ATOM      9  C   UNL     1     111.327 119.589 126.430  1.00  0.00    -0.025 C 
ATOM     10  C   UNL     1     112.023 119.653 125.048  1.00  0.00     0.012 C 
ATOM     11  C   UNL     1     111.567 120.962 127.112  1.00  0.00     0.012 C 
ATOM     12  C   UNL     1     109.447 118.280 125.271  1.00  0.00    -0.045 C 
ATOM     13  C   UNL     1     108.875 118.660 124.118  1.00  0.00     0.011 C 
ATOM     14  C   UNL     1     109.799 116.804 125.492  1.00  0.00     0.140 C 
ATOM     15  C   UNL     1     110.148 116.450 126.969  1.00  0.00     0.044 C 
ENDROOT
BRANCH  14  16
ATOM     16  O   UNL     1     110.875 116.440 124.665  1.00  0.00    -0.389 OA
ATOM     17  H   UNL     1     110.498 115.932 123.900  1.00  0.00     0.211 HD
ENDBRANCH  14  16
TORSDOF 1
ENDMDL
MODEL 9
REMARK VINA RESULT:    -5.479      1.727      3.643
REMARK INTER + INTRA:          -5.639
REMARK INTER:                  -5.639
REMARK INTRA:                   0.000
REMARK UNBOUND:                 0.000
REMARK SMILES C=C1[C@H]2C[C@@]3(C[C@@H]1O)[C@H](CC[C@@H]3C)C2(C)C
REMARK SMILES IDX 13 1 12 2 11 3 10 4 9 5 5 6 4 7 3 8 14 9 15 10 16 11 2 12
REMARK SMILES IDX 1 13 7 14 6 15 8 16
REMARK H PARENT 8 17
REMARK Flexibility Score: inf
ROOT
ATOM      1  C   UNL     1     115.604 118.566 127.796  1.00  0.00     0.008 C 
ATOM      2  C   UNL     1     114.779 117.666 128.728  1.00  0.00    -0.008 C 
ATOM      3  C   UNL     1     114.977 118.040 130.195  1.00  0.00     0.004 C 
ATOM      4  C   UNL     1     113.778 117.444 130.908  1.00  0.00     0.005 C 
ATOM      5  C   UNL     1     112.611 117.651 129.930  1.00  0.00     0.002 C 
ATOM      6  C   UNL     1     113.235 117.669 128.511  1.00  0.00    -0.020 C 
ATOM      7  C   UNL     1     112.719 116.390 127.845  1.00  0.00     0.016 C 
ATOM      8  C   UNL     1     111.291 116.332 128.364  1.00  0.00     0.023 C 
ATOM      9  C   UNL     1     111.453 116.596 129.891  1.00  0.00    -0.025 C 
ATOM     10  C   UNL     1     110.164 117.150 130.548  1.00  0.00     0.012 C 
ATOM     11  C   UNL     1     111.778 115.259 130.608  1.00  0.00     0.012 C 
ATOM     12  C   UNL     1     110.512 117.442 127.657  1.00  0.00    -0.045 C 
ATOM     13  C   UNL     1     109.256 117.214 127.242  1.00  0.00     0.011 C 
ATOM     14  C   UNL     1     111.134 118.831 127.467  1.00  0.00     0.140 C 
ATOM     15  C   UNL     1     112.677 118.871 127.686  1.00  0.00     0.044 C 
ENDROOT
BRANCH  14  16
ATOM     16  O   UNL     1     110.522 119.750 128.336  1.00  0.00    -0.389 OA
ATOM     17  H   UNL     1     111.175 120.479 128.499  1.00  0.00     0.211 HD
ENDBRANCH  14  16
TORSDOF 1
ENDMDL
