MODEL 1
REMARK VINA RESULT:    -4.306      0.000      0.000
REMARK INTER + INTRA:          -5.976
REMARK INTER:                  -5.439
REMARK INTRA:                  -0.537
REMARK UNBOUND:                -0.537
REMARK SMILES Oc1cc(O)cc(CCc2ccccc2O)c1
REMARK SMILES IDX 9 1 10 2 12 3 13 4 11 5 14 6 15 7 16 8 8 10 7 11 6 12 17 13
REMARK SMILES IDX 4 14 2 15 3 16 5 17 1 19
REMARK H PARENT 16 9 5 18 1 20
REMARK Flexibility Score: inf
ROOT
ATOM      1  C   UNL     1      78.262   2.618  65.549  1.00  0.00     0.044 C 
ENDROOT
BRANCH   1   2
ATOM      2  C   UNL     1      79.200   2.732  66.724  1.00  0.00    -0.006 A 
ATOM      3  C   UNL     1      81.462   2.982  67.579  1.00  0.00     0.001 A 
ATOM      4  C   UNL     1      80.986   2.879  68.887  1.00  0.00     0.004 A 
ATOM      5  C   UNL     1      80.577   2.903  66.501  1.00  0.00     0.007 A 
ATOM      6  C   UNL     1      79.621   2.694  69.121  1.00  0.00     0.046 A 
ATOM      7  C   UNL     1      78.723   2.613  68.046  1.00  0.00     0.118 A 
BRANCH   7   8
ATOM      8  O   UNL     1      77.364   2.413  68.287  1.00  0.00    -0.508 OA
ATOM      9  H   UNL     1      76.654   2.810  67.682  1.00  0.00     0.293 HD
ENDBRANCH   7   8
ENDBRANCH   1   2
BRANCH   1  10
ATOM     10  C   UNL     1      78.687   3.567  64.425  1.00  0.00     0.040 C 
BRANCH  10  11
ATOM     11  C   UNL     1      77.717   4.711  64.303  1.00  0.00    -0.040 A 
ATOM     12  C   UNL     1      76.344   4.501  64.517  1.00  0.00     0.050 A 
ATOM     13  C   UNL     1      78.167   5.984  63.920  1.00  0.00     0.050 A 
ATOM     14  C   UNL     1      75.436   5.555  64.371  1.00  0.00     0.119 A 
ATOM     15  C   UNL     1      77.263   7.041  63.774  1.00  0.00     0.119 A 
ATOM     16  C   UNL     1      75.897   6.827  64.003  1.00  0.00     0.092 A 
BRANCH  14  17
ATOM     17  O   UNL     1      74.080   5.329  64.594  1.00  0.00    -0.508 OA
ATOM     18  H   UNL     1      73.567   5.840  65.302  1.00  0.00     0.293 HD
ENDBRANCH  14  17
BRANCH  15  19
ATOM     19  O   UNL     1      77.730   8.299  63.400  1.00  0.00    -0.508 OA
ATOM     20  H   UNL     1      77.108   9.004  63.022  1.00  0.00     0.293 HD
ENDBRANCH  15  19
ENDBRANCH  10  11
ENDBRANCH   1  10
TORSDOF 6
ENDMDL
MODEL 2
REMARK VINA RESULT:    -4.278      1.910      2.730
REMARK INTER + INTRA:          -5.940
REMARK INTER:                  -5.388
REMARK INTRA:                  -0.552
REMARK UNBOUND:                -0.537
REMARK SMILES Oc1cc(O)cc(CCc2ccccc2O)c1
REMARK SMILES IDX 9 1 10 2 12 3 13 4 11 5 14 6 15 7 16 8 8 10 7 11 6 12 17 13
REMARK SMILES IDX 4 14 2 15 3 16 5 17 1 19
REMARK H PARENT 16 9 5 18 1 20
REMARK Flexibility Score: inf
ROOT
ATOM      1  C   UNL     1      80.000   3.083  64.883  1.00  0.00     0.044 C 
ENDROOT
BRANCH   1   2
ATOM      2  C   UNL     1      79.842   2.831  66.362  1.00  0.00    -0.006 A 
ATOM      3  C   UNL     1      78.411   2.284  68.250  1.00  0.00     0.001 A 
ATOM      4  C   UNL     1      79.494   2.425  69.119  1.00  0.00     0.004 A 
ATOM      5  C   UNL     1      78.580   2.491  66.879  1.00  0.00     0.007 A 
ATOM      6  C   UNL     1      80.750   2.778  68.619  1.00  0.00     0.046 A 
ATOM      7  C   UNL     1      80.931   2.989  67.244  1.00  0.00     0.118 A 
BRANCH   7   8
ATOM      8  O   UNL     1      82.184   3.356  66.754  1.00  0.00    -0.508 OA
ATOM      9  H   UNL     1      82.642   4.210  67.051  1.00  0.00     0.293 HD
ENDBRANCH   7   8
ENDBRANCH   1   2
BRANCH   1  10
ATOM     10  C   UNL     1      78.689   2.799  64.145  1.00  0.00     0.040 C 
BRANCH  10  11
ATOM     11  C   UNL     1      78.090   4.077  63.621  1.00  0.00    -0.040 A 
ATOM     12  C   UNL     1      78.424   4.541  62.337  1.00  0.00     0.050 A 
ATOM     13  C   UNL     1      77.238   4.844  64.431  1.00  0.00     0.050 A 
ATOM     14  C   UNL     1      77.895   5.745  61.861  1.00  0.00     0.119 A 
ATOM     15  C   UNL     1      76.707   6.048  63.958  1.00  0.00     0.119 A 
ATOM     16  C   UNL     1      77.033   6.497  62.671  1.00  0.00     0.092 A 
BRANCH  14  17
ATOM     17  O   UNL     1      78.232   6.186  60.583  1.00  0.00    -0.508 OA
ATOM     18  H   UNL     1      77.537   6.270  59.852  1.00  0.00     0.293 HD
ENDBRANCH  14  17
BRANCH  15  19
ATOM     19  O   UNL     1      75.858   6.792  64.775  1.00  0.00    -0.508 OA
ATOM     20  H   UNL     1      75.673   6.521  65.734  1.00  0.00     0.293 HD
ENDBRANCH  15  19
ENDBRANCH  10  11
ENDBRANCH   1  10
TORSDOF 6
ENDMDL
MODEL 3
REMARK VINA RESULT:    -4.270      0.246      2.054
REMARK INTER + INTRA:          -5.931
REMARK INTER:                  -5.348
REMARK INTRA:                  -0.583
REMARK UNBOUND:                -0.537
REMARK SMILES Oc1cc(O)cc(CCc2ccccc2O)c1
REMARK SMILES IDX 9 1 10 2 12 3 13 4 11 5 14 6 15 7 16 8 8 10 7 11 6 12 17 13
REMARK SMILES IDX 4 14 2 15 3 16 5 17 1 19
REMARK H PARENT 16 9 5 18 1 20
REMARK Flexibility Score: inf
ROOT
ATOM      1  C   UNL     1      78.311   2.344  65.567  1.00  0.00     0.044 C 
ENDROOT
BRANCH   1   2
ATOM      2  C   UNL     1      79.243   2.605  66.724  1.00  0.00    -0.006 A 
ATOM      3  C   UNL     1      81.491   3.039  67.543  1.00  0.00     0.001 A 
ATOM      4  C   UNL     1      81.021   3.023  68.857  1.00  0.00     0.004 A 
ATOM      5  C   UNL     1      80.610   2.826  66.480  1.00  0.00     0.007 A 
ATOM      6  C   UNL     1      79.668   2.789  69.113  1.00  0.00     0.046 A 
ATOM      7  C   UNL     1      78.775   2.573  68.053  1.00  0.00     0.118 A 
BRANCH   7   8
ATOM      8  O   UNL     1      77.427   2.326  68.317  1.00  0.00    -0.508 OA
ATOM      9  H   UNL     1      76.835   1.844  67.651  1.00  0.00     0.293 HD
ENDBRANCH   7   8
ENDBRANCH   1   2
BRANCH   1  10
ATOM     10  C   UNL     1      78.678   3.227  64.370  1.00  0.00     0.040 C 
BRANCH  10  11
ATOM     11  C   UNL     1      77.725   4.386  64.256  1.00  0.00    -0.040 A 
ATOM     12  C   UNL     1      78.207   5.673  63.964  1.00  0.00     0.050 A 
ATOM     13  C   UNL     1      76.354   4.202  64.496  1.00  0.00     0.050 A 
ATOM     14  C   UNL     1      77.327   6.758  63.891  1.00  0.00     0.119 A 
ATOM     15  C   UNL     1      75.471   5.284  64.424  1.00  0.00     0.119 A 
ATOM     16  C   UNL     1      75.957   6.562  64.117  1.00  0.00     0.092 A 
BRANCH  14  17
ATOM     17  O   UNL     1      77.822   8.025  63.593  1.00  0.00    -0.508 OA
ATOM     18  H   UNL     1      77.542   8.520  62.755  1.00  0.00     0.293 HD
ENDBRANCH  14  17
BRANCH  15  19
ATOM     19  O   UNL     1      74.113   5.079  64.659  1.00  0.00    -0.508 OA
ATOM     20  H   UNL     1      73.789   4.486  65.414  1.00  0.00     0.293 HD
ENDBRANCH  15  19
ENDBRANCH  10  11
ENDBRANCH   1  10
TORSDOF 6
ENDMDL
MODEL 4
REMARK VINA RESULT:    -4.231      1.922      2.336
REMARK INTER + INTRA:          -5.881
REMARK INTER:                  -5.315
REMARK INTRA:                  -0.567
REMARK UNBOUND:                -0.537
REMARK SMILES Oc1cc(O)cc(CCc2ccccc2O)c1
REMARK SMILES IDX 9 1 10 2 12 3 13 4 11 5 14 6 15 7 16 8 8 10 7 11 6 12 17 13
REMARK SMILES IDX 4 14 2 15 3 16 5 17 1 19
REMARK H PARENT 16 9 5 18 1 20
REMARK Flexibility Score: inf
ROOT
ATOM      1  C   UNL     1      80.069   3.118  64.921  1.00  0.00     0.044 C 
ENDROOT
BRANCH   1   2
ATOM      2  C   UNL     1      79.886   2.822  66.388  1.00  0.00    -0.006 A 
ATOM      3  C   UNL     1      78.435   2.169  68.226  1.00  0.00     0.001 A 
ATOM      4  C   UNL     1      79.490   2.331  69.125  1.00  0.00     0.004 A 
ATOM      5  C   UNL     1      78.627   2.418  66.865  1.00  0.00     0.007 A 
ATOM      6  C   UNL     1      80.742   2.746  68.665  1.00  0.00     0.046 A 
ATOM      7  C   UNL     1      80.947   3.000  67.301  1.00  0.00     0.118 A 
BRANCH   7   8
ATOM      8  O   UNL     1      82.196   3.428  66.851  1.00  0.00    -0.508 OA
ATOM      9  H   UNL     1      83.034   3.293  67.404  1.00  0.00     0.293 HD
ENDBRANCH   7   8
ENDBRANCH   1   2
BRANCH   1  10
ATOM     10  C   UNL     1      78.766   2.873  64.155  1.00  0.00     0.040 C 
BRANCH  10  11
ATOM     11  C   UNL     1      78.205   4.171  63.637  1.00  0.00    -0.040 A 
ATOM     12  C   UNL     1      77.344   4.940  64.438  1.00  0.00     0.050 A 
ATOM     13  C   UNL     1      78.492   4.594  62.330  1.00  0.00     0.050 A 
ATOM     14  C   UNL     1      76.796   6.129  63.946  1.00  0.00     0.119 A 
ATOM     15  C   UNL     1      77.946   5.783  61.835  1.00  0.00     0.119 A 
ATOM     16  C   UNL     1      77.100   6.552  62.645  1.00  0.00     0.092 A 
BRANCH  14  17
ATOM     17  O   UNL     1      75.950   6.882  64.757  1.00  0.00    -0.508 OA
ATOM     18  H   UNL     1      75.467   6.470  65.546  1.00  0.00     0.293 HD
ENDBRANCH  14  17
BRANCH  15  19
ATOM     19  O   UNL     1      78.249   6.190  60.538  1.00  0.00    -0.508 OA
ATOM     20  H   UNL     1      79.057   6.769  60.339  1.00  0.00     0.293 HD
ENDBRANCH  15  19
ENDBRANCH  10  11
ENDBRANCH   1  10
TORSDOF 6
ENDMDL
MODEL 5
REMARK VINA RESULT:    -4.185      1.868      5.584
REMARK INTER + INTRA:          -5.823
REMARK INTER:                  -5.049
REMARK INTRA:                  -0.774
REMARK UNBOUND:                -0.537
REMARK SMILES Oc1cc(O)cc(CCc2ccccc2O)c1
REMARK SMILES IDX 9 1 10 2 12 3 13 4 11 5 14 6 15 7 16 8 8 10 7 11 6 12 17 13
REMARK SMILES IDX 4 14 2 15 3 16 5 17 1 19
REMARK H PARENT 16 9 5 18 1 20
REMARK Flexibility Score: inf
ROOT
ATOM      1  C   UNL     1      78.539   3.124  63.054  1.00  0.00     0.044 C 
ENDROOT
BRANCH   1   2
ATOM      2  C   UNL     1      77.784   4.374  63.431  1.00  0.00    -0.006 A 
ATOM      3  C   UNL     1      75.666   5.508  63.803  1.00  0.00     0.001 A 
ATOM      4  C   UNL     1      76.343   6.701  64.061  1.00  0.00     0.004 A 
ATOM      5  C   UNL     1      76.380   4.350  63.484  1.00  0.00     0.007 A 
ATOM      6  C   UNL     1      77.738   6.741  63.997  1.00  0.00     0.046 A 
ATOM      7  C   UNL     1      78.465   5.585  63.677  1.00  0.00     0.118 A 
BRANCH   7   8
ATOM      8  O   UNL     1      79.857   5.635  63.600  1.00  0.00    -0.508 OA
ATOM      9  H   UNL     1      80.334   6.365  63.083  1.00  0.00     0.293 HD
ENDBRANCH   7   8
ENDBRANCH   1   2
BRANCH   1  10
ATOM     10  C   UNL     1      78.200   1.980  64.015  1.00  0.00     0.040 C 
BRANCH  10  11
ATOM     11  C   UNL     1      78.780   2.246  65.379  1.00  0.00    -0.040 A 
ATOM     12  C   UNL     1      77.957   2.211  66.517  1.00  0.00     0.050 A 
ATOM     13  C   UNL     1      80.134   2.588  65.518  1.00  0.00     0.050 A 
ATOM     14  C   UNL     1      78.487   2.490  67.781  1.00  0.00     0.119 A 
ATOM     15  C   UNL     1      80.668   2.868  66.780  1.00  0.00     0.119 A 
ATOM     16  C   UNL     1      79.844   2.816  67.912  1.00  0.00     0.092 A 
BRANCH  14  17
ATOM     17  O   UNL     1      77.657   2.444  68.899  1.00  0.00    -0.508 OA
ATOM     18  H   UNL     1      77.983   2.734  69.813  1.00  0.00     0.293 HD
ENDBRANCH  14  17
BRANCH  15  19
ATOM     19  O   UNL     1      82.016   3.198  66.898  1.00  0.00    -0.508 OA
ATOM     20  H   UNL     1      82.631   3.209  66.093  1.00  0.00     0.293 HD
ENDBRANCH  15  19
ENDBRANCH  10  11
ENDBRANCH   1  10
TORSDOF 6
ENDMDL
MODEL 6
REMARK VINA RESULT:    -4.117      1.796      5.944
REMARK INTER + INTRA:          -5.737
REMARK INTER:                  -4.976
REMARK INTRA:                  -0.762
REMARK UNBOUND:                -0.537
REMARK SMILES Oc1cc(O)cc(CCc2ccccc2O)c1
REMARK SMILES IDX 9 1 10 2 12 3 13 4 11 5 14 6 15 7 16 8 8 10 7 11 6 12 17 13
REMARK SMILES IDX 4 14 2 15 3 16 5 17 1 19
REMARK H PARENT 16 9 5 18 1 20
REMARK Flexibility Score: inf
ROOT
ATOM      1  C   UNL     1      78.205   3.227  62.987  1.00  0.00     0.044 C 
ENDROOT
BRANCH   1   2
ATOM      2  C   UNL     1      77.460   4.479  63.378  1.00  0.00    -0.006 A 
ATOM      3  C   UNL     1      75.349   5.623  63.762  1.00  0.00     0.001 A 
ATOM      4  C   UNL     1      76.035   6.809  64.032  1.00  0.00     0.004 A 
ATOM      5  C   UNL     1      76.055   4.464  63.431  1.00  0.00     0.007 A 
ATOM      6  C   UNL     1      77.430   6.840  63.968  1.00  0.00     0.046 A 
ATOM      7  C   UNL     1      78.149   5.682  63.635  1.00  0.00     0.118 A 
BRANCH   7   8
ATOM      8  O   UNL     1      79.541   5.724  63.559  1.00  0.00    -0.508 OA
ATOM      9  H   UNL     1      80.029   6.541  63.212  1.00  0.00     0.293 HD
ENDBRANCH   7   8
ENDBRANCH   1   2
BRANCH   1  10
ATOM     10  C   UNL     1      77.924   2.099  63.985  1.00  0.00     0.040 C 
BRANCH  10  11
ATOM     11  C   UNL     1      78.598   2.378  65.302  1.00  0.00    -0.040 A 
ATOM     12  C   UNL     1      79.963   2.708  65.343  1.00  0.00     0.050 A 
ATOM     13  C   UNL     1      77.882   2.256  66.503  1.00  0.00     0.050 A 
ATOM     14  C   UNL     1      80.599   2.935  66.568  1.00  0.00     0.119 A 
ATOM     15  C   UNL     1      78.514   2.483  67.730  1.00  0.00     0.119 A 
ATOM     16  C   UNL     1      79.872   2.826  67.762  1.00  0.00     0.092 A 
BRANCH  14  17
ATOM     17  O   UNL     1      81.951   3.268  66.589  1.00  0.00    -0.508 OA
ATOM     18  H   UNL     1      82.301   4.091  66.114  1.00  0.00     0.293 HD
ENDBRANCH  14  17
BRANCH  15  19
ATOM     19  O   UNL     1      77.784   2.363  68.911  1.00  0.00    -0.508 OA
ATOM     20  H   UNL     1      76.799   2.596  68.951  1.00  0.00     0.293 HD
ENDBRANCH  15  19
ENDBRANCH  10  11
ENDBRANCH   1  10
TORSDOF 6
ENDMDL
MODEL 7
REMARK VINA RESULT:    -3.984      3.665      6.404
REMARK INTER + INTRA:          -5.569
REMARK INTER:                  -5.028
REMARK INTRA:                  -0.542
REMARK UNBOUND:                -0.537
REMARK SMILES Oc1cc(O)cc(CCc2ccccc2O)c1
REMARK SMILES IDX 9 1 10 2 12 3 13 4 11 5 14 6 15 7 16 8 8 10 7 11 6 12 17 13
REMARK SMILES IDX 4 14 2 15 3 16 5 17 1 19
REMARK H PARENT 16 9 5 18 1 20
REMARK Flexibility Score: inf
ROOT
ATOM      1  C   UNL     1      80.084   4.621  62.485  1.00  0.00     0.044 C 
ENDROOT
BRANCH   1   2
ATOM      2  C   UNL     1      80.676   4.006  61.242  1.00  0.00    -0.006 A 
ATOM      3  C   UNL     1      80.944   2.078  59.785  1.00  0.00     0.001 A 
ATOM      4  C   UNL     1      81.817   2.806  58.974  1.00  0.00     0.004 A 
ATOM      5  C   UNL     1      80.380   2.671  60.918  1.00  0.00     0.007 A 
ATOM      6  C   UNL     1      82.130   4.128  59.295  1.00  0.00     0.046 A 
ATOM      7  C   UNL     1      81.570   4.733  60.430  1.00  0.00     0.118 A 
BRANCH   7   8
ATOM      8  O   UNL     1      81.899   6.050  60.752  1.00  0.00    -0.508 OA
ATOM      9  H   UNL     1      81.351   6.588  61.412  1.00  0.00     0.293 HD
ENDBRANCH   7   8
ENDBRANCH   1   2
BRANCH   1  10
ATOM     10  C   UNL     1      78.827   3.859  62.917  1.00  0.00     0.040 C 
BRANCH  10  11
ATOM     11  C   UNL     1      78.926   3.453  64.364  1.00  0.00    -0.040 A 
ATOM     12  C   UNL     1      77.784   3.465  65.182  1.00  0.00     0.050 A 
ATOM     13  C   UNL     1      80.169   3.115  64.920  1.00  0.00     0.050 A 
ATOM     14  C   UNL     1      77.880   3.120  66.534  1.00  0.00     0.119 A 
ATOM     15  C   UNL     1      80.269   2.769  66.272  1.00  0.00     0.119 A 
ATOM     16  C   UNL     1      79.123   2.769  67.078  1.00  0.00     0.092 A 
BRANCH  14  17
ATOM     17  O   UNL     1      76.736   3.131  67.328  1.00  0.00    -0.508 OA
ATOM     18  H   UNL     1      75.938   2.543  67.116  1.00  0.00     0.293 HD
ENDBRANCH  14  17
BRANCH  15  19
ATOM     19  O   UNL     1      81.511   2.429  66.804  1.00  0.00    -0.508 OA
ATOM     20  H   UNL     1      82.008   3.053  67.430  1.00  0.00     0.293 HD
ENDBRANCH  15  19
ENDBRANCH  10  11
ENDBRANCH   1  10
TORSDOF 6
ENDMDL
MODEL 8
REMARK VINA RESULT:    -3.974      3.652      6.615
REMARK INTER + INTRA:          -5.557
REMARK INTER:                  -5.024
REMARK INTRA:                  -0.533
REMARK UNBOUND:                -0.537
REMARK SMILES Oc1cc(O)cc(CCc2ccccc2O)c1
REMARK SMILES IDX 9 1 10 2 12 3 13 4 11 5 14 6 15 7 16 8 8 10 7 11 6 12 17 13
REMARK SMILES IDX 4 14 2 15 3 16 5 17 1 19
REMARK H PARENT 16 9 5 18 1 20
REMARK Flexibility Score: inf
ROOT
ATOM      1  C   UNL     1      80.039   4.615  62.488  1.00  0.00     0.044 C 
ENDROOT
BRANCH   1   2
ATOM      2  C   UNL     1      80.647   4.010  61.248  1.00  0.00    -0.006 A 
ATOM      3  C   UNL     1      80.914   2.102  59.765  1.00  0.00     0.001 A 
ATOM      4  C   UNL     1      81.815   2.827  58.984  1.00  0.00     0.004 A 
ATOM      5  C   UNL     1      80.336   2.685  60.895  1.00  0.00     0.007 A 
ATOM      6  C   UNL     1      82.143   4.140  59.332  1.00  0.00     0.046 A 
ATOM      7  C   UNL     1      81.569   4.736  60.465  1.00  0.00     0.118 A 
BRANCH   7   8
ATOM      8  O   UNL     1      81.912   6.042  60.815  1.00  0.00    -0.508 OA
ATOM      9  H   UNL     1      81.277   6.816  60.664  1.00  0.00     0.293 HD
ENDBRANCH   7   8
ENDBRANCH   1   2
BRANCH   1  10
ATOM     10  C   UNL     1      78.817   3.808  62.938  1.00  0.00     0.040 C 
BRANCH  10  11
ATOM     11  C   UNL     1      78.922   3.462  64.399  1.00  0.00    -0.040 A 
ATOM     12  C   UNL     1      80.156   3.080  64.950  1.00  0.00     0.050 A 
ATOM     13  C   UNL     1      77.776   3.463  65.211  1.00  0.00     0.050 A 
ATOM     14  C   UNL     1      80.249   2.726  66.300  1.00  0.00     0.119 A 
ATOM     15  C   UNL     1      77.865   3.111  66.561  1.00  0.00     0.119 A 
ATOM     16  C   UNL     1      79.103   2.745  67.107  1.00  0.00     0.092 A 
BRANCH  14  17
ATOM     17  O   UNL     1      81.483   2.356  66.830  1.00  0.00    -0.508 OA
ATOM     18  H   UNL     1      82.162   3.048  67.124  1.00  0.00     0.293 HD
ENDBRANCH  14  17
BRANCH  15  19
ATOM     19  O   UNL     1      76.717   3.125  67.352  1.00  0.00    -0.508 OA
ATOM     20  H   UNL     1      75.793   3.036  66.946  1.00  0.00     0.293 HD
ENDBRANCH  15  19
ENDBRANCH  10  11
ENDBRANCH   1  10
TORSDOF 6
ENDMDL
MODEL 9
REMARK VINA RESULT:    -3.933      1.671      6.016
REMARK INTER + INTRA:          -5.505
REMARK INTER:                  -4.944
REMARK INTRA:                  -0.561
REMARK UNBOUND:                -0.537
REMARK SMILES Oc1cc(O)cc(CCc2ccccc2O)c1
REMARK SMILES IDX 9 1 10 2 12 3 13 4 11 5 14 6 15 7 16 8 8 10 7 11 6 12 17 13
REMARK SMILES IDX 4 14 2 15 3 16 5 17 1 19
REMARK H PARENT 16 9 5 18 1 20
REMARK Flexibility Score: inf
ROOT
ATOM      1  C   UNL     1      79.100   4.990  63.463  1.00  0.00     0.044 C 
ENDROOT
BRANCH   1   2
ATOM      2  C   UNL     1      77.706   5.483  63.162  1.00  0.00    -0.006 A 
ATOM      3  C   UNL     1      75.531   5.113  62.141  1.00  0.00     0.001 A 
ATOM      4  C   UNL     1      75.127   6.393  62.523  1.00  0.00     0.004 A 
ATOM      5  C   UNL     1      76.815   4.659  62.452  1.00  0.00     0.007 A 
ATOM      6  C   UNL     1      76.009   7.226  63.217  1.00  0.00     0.046 A 
ATOM      7  C   UNL     1      77.301   6.781  63.534  1.00  0.00     0.118 A 
BRANCH   7   8
ATOM      8  O   UNL     1      78.181   7.624  64.213  1.00  0.00    -0.508 OA
ATOM      9  H   UNL     1      78.901   8.144  63.726  1.00  0.00     0.293 HD
ENDBRANCH   7   8
ENDBRANCH   1   2
BRANCH   1  10
ATOM     10  C   UNL     1      79.113   3.465  63.604  1.00  0.00     0.040 C 
BRANCH  10  11
ATOM     11  C   UNL     1      79.180   3.069  65.055  1.00  0.00    -0.040 A 
ATOM     12  C   UNL     1      78.014   3.052  65.838  1.00  0.00     0.050 A 
ATOM     13  C   UNL     1      80.415   2.768  65.650  1.00  0.00     0.050 A 
ATOM     14  C   UNL     1      78.079   2.717  67.195  1.00  0.00     0.119 A 
ATOM     15  C   UNL     1      80.484   2.432  67.006  1.00  0.00     0.119 A 
ATOM     16  C   UNL     1      79.314   2.403  67.778  1.00  0.00     0.092 A 
BRANCH  14  17
ATOM     17  O   UNL     1      76.911   2.699  67.954  1.00  0.00    -0.508 OA
ATOM     18  H   UNL     1      76.543   1.838  68.340  1.00  0.00     0.293 HD
ENDBRANCH  14  17
BRANCH  15  19
ATOM     19  O   UNL     1      81.718   2.129  67.578  1.00  0.00    -0.508 OA
ATOM     20  H   UNL     1      82.226   1.289  67.327  1.00  0.00     0.293 HD
ENDBRANCH  15  19
ENDBRANCH  10  11
ENDBRANCH   1  10
TORSDOF 6
ENDMDL
