MODEL 1
REMARK VINA RESULT:    -4.238      0.000      0.000
REMARK INTER + INTRA:          -9.767
REMARK INTER:                  -7.707
REMARK INTRA:                  -2.060
REMARK UNBOUND:                -2.060
REMARK SMILES CCCCCCCCCCCCCCCC(=O)[O-]
REMARK SMILES IDX 9 1 10 2 11 3 12 4 13 5 14 6 15 7 16 8 17 9 18 10 8 11 7 12
REMARK SMILES IDX 6 13 5 14 4 15 3 16 2 17 1 18
REMARK H PARENT
REMARK Flexibility Score: inf
ROOT
ATOM      1  C   UNL     1      21.564  22.759  18.805  1.00  0.00     0.000 C 
ENDROOT
BRANCH   1   2
ATOM      2  C   UNL     1      22.575  22.365  19.897  1.00  0.00     0.000 C 
BRANCH   2   3
ATOM      3  C   UNL     1      22.013  21.482  21.030  1.00  0.00     0.000 C 
BRANCH   3   4
ATOM      4  C   UNL     1      22.901  20.292  21.433  1.00  0.00     0.000 C 
BRANCH   4   5
ATOM      5  C   UNL     1      22.175  18.943  21.327  1.00  0.00     0.000 C 
BRANCH   5   6
ATOM      6  C   UNL     1      23.177  17.780  21.310  1.00  0.00     0.006 C 
BRANCH   6   7
ATOM      7  C   UNL     1      24.632  18.267  21.287  1.00  0.00     0.053 C 
BRANCH   7   8
ATOM      8  C   UNL     1      25.368  17.767  20.082  1.00  0.00     0.041 C 
ATOM      9  O   UNL     1      26.604  17.977  19.963  1.00  0.00    -0.550 OA
ATOM     10  O   UNL     1      24.683  17.099  19.076  1.00  0.00    -0.550 OA
ENDBRANCH   7   8
ENDBRANCH   6   7
ENDBRANCH   5   6
ENDBRANCH   4   5
ENDBRANCH   3   4
ENDBRANCH   2   3
ENDBRANCH   1   2
BRANCH   1  11
ATOM     11  C   UNL     1      21.043  24.197  18.963  1.00  0.00     0.000 C 
BRANCH  11  12
ATOM     12  C   UNL     1      19.639  24.258  19.590  1.00  0.00    -0.000 C 
BRANCH  12  13
ATOM     13  C   UNL     1      19.604  24.264  21.133  1.00  0.00    -0.000 C 
BRANCH  13  14
ATOM     14  C   UNL     1      18.855  23.083  21.775  1.00  0.00    -0.000 C 
BRANCH  14  15
ATOM     15  C   UNL     1      18.116  22.215  20.746  1.00  0.00    -0.000 C 
BRANCH  15  16
ATOM     16  C   UNL     1      18.465  20.733  20.927  1.00  0.00    -0.000 C 
BRANCH  16  17
ATOM     17  C   UNL     1      18.847  20.091  19.588  1.00  0.00    -0.003 C 
ATOM     18  C   UNL     1      18.382  20.947  18.414  1.00  0.00     0.004 C 
ENDBRANCH  16  17
ENDBRANCH  15  16
ENDBRANCH  14  15
ENDBRANCH  13  14
ENDBRANCH  12  13
ENDBRANCH  11  12
ENDBRANCH   1  11
TORSDOF 14
ENDMDL
MODEL 2
REMARK VINA RESULT:    -4.130     16.282     18.318
REMARK INTER + INTRA:          -9.570
REMARK INTER:                  -8.912
REMARK INTRA:                  -0.658
REMARK UNBOUND:                -2.060
REMARK SMILES CCCCCCCCCCCCCCCC(=O)[O-]
REMARK SMILES IDX 9 1 10 2 11 3 12 4 13 5 14 6 15 7 16 8 17 9 18 10 8 11 7 12
REMARK SMILES IDX 6 13 5 14 4 15 3 16 2 17 1 18
REMARK H PARENT
REMARK Flexibility Score: inf
ROOT
ATOM      1  C   UNL     1      20.678  30.650  36.462  1.00  0.00     0.000 C 
ENDROOT
BRANCH   1   2
ATOM      2  C   UNL     1      21.015  29.211  36.892  1.00  0.00     0.000 C 
BRANCH   2   3
ATOM      3  C   UNL     1      20.069  28.120  36.346  1.00  0.00     0.000 C 
BRANCH   3   4
ATOM      4  C   UNL     1      18.677  28.075  37.001  1.00  0.00     0.000 C 
BRANCH   4   5
ATOM      5  C   UNL     1      17.658  27.271  36.180  1.00  0.00     0.000 C 
BRANCH   5   6
ATOM      6  C   UNL     1      17.578  25.820  36.673  1.00  0.00     0.006 C 
BRANCH   6   7
ATOM      7  C   UNL     1      18.921  25.087  36.545  1.00  0.00     0.053 C 
BRANCH   7   8
ATOM      8  C   UNL     1      19.165  24.614  35.145  1.00  0.00     0.041 C 
ATOM      9  O   UNL     1      18.194  24.338  34.392  1.00  0.00    -0.550 OA
ATOM     10  O   UNL     1      20.464  24.446  34.684  1.00  0.00    -0.550 OA
ENDBRANCH   7   8
ENDBRANCH   6   7
ENDBRANCH   5   6
ENDBRANCH   4   5
ENDBRANCH   3   4
ENDBRANCH   2   3
ENDBRANCH   1   2
BRANCH   1  11
ATOM     11  C   UNL     1      21.929  31.521  36.259  1.00  0.00     0.000 C 
BRANCH  11  12
ATOM     12  C   UNL     1      21.594  32.951  35.799  1.00  0.00    -0.000 C 
BRANCH  12  13
ATOM     13  C   UNL     1      20.233  33.497  36.281  1.00  0.00    -0.000 C 
BRANCH  13  14
ATOM     14  C   UNL     1      19.800  34.829  35.643  1.00  0.00    -0.000 C 
BRANCH  14  15
ATOM     15  C   UNL     1      18.633  34.667  34.658  1.00  0.00    -0.000 C 
BRANCH  15  16
ATOM     16  C   UNL     1      19.035  35.125  33.251  1.00  0.00    -0.000 C 
BRANCH  16  17
ATOM     17  C   UNL     1      20.555  35.061  33.065  1.00  0.00    -0.003 C 
ATOM     18  C   UNL     1      20.954  33.874  32.194  1.00  0.00     0.004 C 
ENDBRANCH  16  17
ENDBRANCH  15  16
ENDBRANCH  14  15
ENDBRANCH  13  14
ENDBRANCH  12  13
ENDBRANCH  11  12
ENDBRANCH   1  11
TORSDOF 14
ENDMDL
MODEL 3
REMARK VINA RESULT:    -4.091      0.791      1.944
REMARK INTER + INTRA:          -9.499
REMARK INTER:                  -7.873
REMARK INTRA:                  -1.625
REMARK UNBOUND:                -2.060
REMARK SMILES CCCCCCCCCCCCCCCC(=O)[O-]
REMARK SMILES IDX 9 1 10 2 11 3 12 4 13 5 14 6 15 7 16 8 17 9 18 10 8 11 7 12
REMARK SMILES IDX 6 13 5 14 4 15 3 16 2 17 1 18
REMARK H PARENT
REMARK Flexibility Score: inf
ROOT
ATOM      1  C   UNL     1      22.538  22.661  20.159  1.00  0.00     0.000 C 
ENDROOT
BRANCH   1   2
ATOM      2  C   UNL     1      22.035  21.719  21.268  1.00  0.00     0.000 C 
BRANCH   2   3
ATOM      3  C   UNL     1      22.903  20.468  21.515  1.00  0.00     0.000 C 
BRANCH   3   4
ATOM      4  C   UNL     1      22.157  19.125  21.416  1.00  0.00     0.000 C 
BRANCH   4   5
ATOM      5  C   UNL     1      23.105  17.918  21.365  1.00  0.00     0.000 C 
BRANCH   5   6
ATOM      6  C   UNL     1      24.555  18.370  21.134  1.00  0.00     0.006 C 
BRANCH   6   7
ATOM      7  C   UNL     1      24.931  18.378  19.645  1.00  0.00     0.053 C 
BRANCH   7   8
ATOM      8  C   UNL     1      25.329  17.017  19.164  1.00  0.00     0.041 C 
ATOM      9  O   UNL     1      24.449  16.153  18.910  1.00  0.00    -0.550 OA
ATOM     10  O   UNL     1      26.672  16.691  19.030  1.00  0.00    -0.550 OA
ENDBRANCH   7   8
ENDBRANCH   6   7
ENDBRANCH   5   6
ENDBRANCH   4   5
ENDBRANCH   3   4
ENDBRANCH   2   3
ENDBRANCH   1   2
BRANCH   1  11
ATOM     11  C   UNL     1      21.831  22.430  18.813  1.00  0.00     0.000 C 
BRANCH  11  12
ATOM     12  C   UNL     1      21.396  23.740  18.133  1.00  0.00    -0.000 C 
BRANCH  12  13
ATOM     13  C   UNL     1      20.657  24.743  19.045  1.00  0.00    -0.000 C 
BRANCH  13  14
ATOM     14  C   UNL     1      19.239  24.320  19.467  1.00  0.00    -0.000 C 
BRANCH  14  15
ATOM     15  C   UNL     1      19.149  23.933  20.951  1.00  0.00    -0.000 C 
BRANCH  15  16
ATOM     16  C   UNL     1      18.316  22.660  21.136  1.00  0.00    -0.000 C 
BRANCH  16  17
ATOM     17  C   UNL     1      18.443  21.737  19.919  1.00  0.00    -0.003 C 
ATOM     18  C   UNL     1      18.830  20.322  20.338  1.00  0.00     0.004 C 
ENDBRANCH  16  17
ENDBRANCH  15  16
ENDBRANCH  14  15
ENDBRANCH  13  14
ENDBRANCH  12  13
ENDBRANCH  11  12
ENDBRANCH   1  11
TORSDOF 14
ENDMDL
MODEL 4
REMARK VINA RESULT:    -4.062     16.646     18.985
REMARK INTER + INTRA:          -9.447
REMARK INTER:                  -8.408
REMARK INTRA:                  -1.038
REMARK UNBOUND:                -2.060
REMARK SMILES CCCCCCCCCCCCCCCC(=O)[O-]
REMARK SMILES IDX 9 1 10 2 11 3 12 4 13 5 14 6 15 7 16 8 17 9 18 10 8 11 7 12
REMARK SMILES IDX 6 13 5 14 4 15 3 16 2 17 1 18
REMARK H PARENT
REMARK Flexibility Score: inf
ROOT
ATOM      1  C   UNL     1      20.932  30.118  36.011  1.00  0.00     0.000 C 
ENDROOT
BRANCH   1   2
ATOM      2  C   UNL     1      20.918  31.450  36.781  1.00  0.00     0.000 C 
BRANCH   2   3
ATOM      3  C   UNL     1      19.528  32.098  36.956  1.00  0.00     0.000 C 
BRANCH   3   4
ATOM      4  C   UNL     1      19.509  33.635  36.873  1.00  0.00     0.000 C 
BRANCH   4   5
ATOM      5  C   UNL     1      18.645  34.158  35.716  1.00  0.00     0.000 C 
BRANCH   5   6
ATOM      6  C   UNL     1      19.442  35.125  34.829  1.00  0.00     0.006 C 
BRANCH   6   7
ATOM      7  C   UNL     1      19.401  34.724  33.348  1.00  0.00     0.053 C 
BRANCH   7   8
ATOM      8  C   UNL     1      20.697  34.123  32.898  1.00  0.00     0.041 C 
ATOM      9  O   UNL     1      21.404  33.465  33.707  1.00  0.00    -0.550 OA
ATOM     10  O   UNL     1      21.139  34.317  31.596  1.00  0.00    -0.550 OA
ENDBRANCH   7   8
ENDBRANCH   6   7
ENDBRANCH   5   6
ENDBRANCH   4   5
ENDBRANCH   3   4
ENDBRANCH   2   3
ENDBRANCH   1   2
BRANCH   1  11
ATOM     11  C   UNL     1      20.880  28.892  36.938  1.00  0.00     0.000 C 
BRANCH  11  12
ATOM     12  C   UNL     1      19.810  27.868  36.515  1.00  0.00    -0.000 C 
BRANCH  12  13
ATOM     13  C   UNL     1      18.361  28.232  36.900  1.00  0.00    -0.000 C 
BRANCH  13  14
ATOM     14  C   UNL     1      17.289  27.233  36.430  1.00  0.00    -0.000 C 
BRANCH  14  15
ATOM     15  C   UNL     1      17.767  25.774  36.489  1.00  0.00    -0.000 C 
BRANCH  15  16
ATOM     16  C   UNL     1      17.725  25.127  35.100  1.00  0.00    -0.000 C 
BRANCH  16  17
ATOM     17  C   UNL     1      18.756  23.998  34.988  1.00  0.00    -0.003 C 
ATOM     18  C   UNL     1      19.932  24.230  35.931  1.00  0.00     0.004 C 
ENDBRANCH  16  17
ENDBRANCH  15  16
ENDBRANCH  14  15
ENDBRANCH  13  14
ENDBRANCH  12  13
ENDBRANCH  11  12
ENDBRANCH   1  11
TORSDOF 14
ENDMDL
MODEL 5
REMARK VINA RESULT:    -4.057      1.051      2.432
REMARK INTER + INTRA:          -9.438
REMARK INTER:                  -7.497
REMARK INTRA:                  -1.941
REMARK UNBOUND:                -2.060
REMARK SMILES CCCCCCCCCCCCCCCC(=O)[O-]
REMARK SMILES IDX 9 1 10 2 11 3 12 4 13 5 14 6 15 7 16 8 17 9 18 10 8 11 7 12
REMARK SMILES IDX 6 13 5 14 4 15 3 16 2 17 1 18
REMARK H PARENT
REMARK Flexibility Score: inf
ROOT
ATOM      1  C   UNL     1      21.003  24.084  18.860  1.00  0.00     0.000 C 
ENDROOT
BRANCH   1   2
ATOM      2  C   UNL     1      21.748  22.738  18.801  1.00  0.00     0.000 C 
BRANCH   2   3
ATOM      3  C   UNL     1      22.556  22.374  20.063  1.00  0.00     0.000 C 
BRANCH   3   4
ATOM      4  C   UNL     1      21.913  21.306  20.966  1.00  0.00     0.000 C 
BRANCH   4   5
ATOM      5  C   UNL     1      22.950  20.434  21.689  1.00  0.00     0.000 C 
BRANCH   5   6
ATOM      6  C   UNL     1      22.807  18.961  21.283  1.00  0.00     0.006 C 
BRANCH   6   7
ATOM      7  C   UNL     1      24.153  18.224  21.285  1.00  0.00     0.053 C 
BRANCH   7   8
ATOM      8  C   UNL     1      24.364  17.446  20.022  1.00  0.00     0.041 C 
ATOM      9  O   UNL     1      23.471  16.662  19.605  1.00  0.00    -0.550 OA
ATOM     10  O   UNL     1      25.558  17.563  19.324  1.00  0.00    -0.550 OA
ENDBRANCH   7   8
ENDBRANCH   6   7
ENDBRANCH   5   6
ENDBRANCH   4   5
ENDBRANCH   3   4
ENDBRANCH   2   3
ENDBRANCH   1   2
BRANCH   1  11
ATOM     11  C   UNL     1      19.746  24.111  17.975  1.00  0.00     0.000 C 
BRANCH  11  12
ATOM     12  C   UNL     1      19.738  22.996  16.914  1.00  0.00    -0.000 C 
BRANCH  12  13
ATOM     13  C   UNL     1      18.511  22.060  16.950  1.00  0.00    -0.000 C 
BRANCH  13  14
ATOM     14  C   UNL     1      17.905  21.830  18.345  1.00  0.00    -0.000 C 
BRANCH  14  15
ATOM     15  C   UNL     1      18.636  20.740  19.141  1.00  0.00    -0.000 C 
BRANCH  15  16
ATOM     16  C   UNL     1      18.526  20.994  20.649  1.00  0.00    -0.000 C 
BRANCH  16  17
ATOM     17  C   UNL     1      18.033  22.417  20.933  1.00  0.00    -0.003 C 
ATOM     18  C   UNL     1      18.969  23.144  21.893  1.00  0.00     0.004 C 
ENDBRANCH  16  17
ENDBRANCH  15  16
ENDBRANCH  14  15
ENDBRANCH  13  14
ENDBRANCH  12  13
ENDBRANCH  11  12
ENDBRANCH   1  11
TORSDOF 14
ENDMDL
MODEL 6
REMARK VINA RESULT:    -3.973      3.317      6.148
REMARK INTER + INTRA:          -9.286
REMARK INTER:                  -7.786
REMARK INTRA:                  -1.500
REMARK UNBOUND:                -2.060
REMARK SMILES CCCCCCCCCCCCCCCC(=O)[O-]
REMARK SMILES IDX 9 1 10 2 11 3 12 4 13 5 14 6 15 7 16 8 17 9 18 10 8 11 7 12
REMARK SMILES IDX 6 13 5 14 4 15 3 16 2 17 1 18
REMARK H PARENT
REMARK Flexibility Score: inf
ROOT
ATOM      1  C   UNL     1      21.309  24.190  18.243  1.00  0.00     0.000 C 
ENDROOT
BRANCH   1   2
ATOM      2  C   UNL     1      19.942  24.187  17.535  1.00  0.00     0.000 C 
BRANCH   2   3
ATOM      3  C   UNL     1      18.834  23.377  18.241  1.00  0.00     0.000 C 
BRANCH   3   4
ATOM      4  C   UNL     1      18.719  21.907  17.800  1.00  0.00     0.000 C 
BRANCH   4   5
ATOM      5  C   UNL     1      18.678  20.931  18.985  1.00  0.00     0.000 C 
BRANCH   5   6
ATOM      6  C   UNL     1      17.526  21.276  19.940  1.00  0.00     0.006 C 
BRANCH   6   7
ATOM      7  C   UNL     1      17.880  20.988  21.406  1.00  0.00     0.053 C 
BRANCH   7   8
ATOM      8  C   UNL     1      17.973  22.246  22.213  1.00  0.00     0.041 C 
ATOM      9  O   UNL     1      18.708  23.193  21.827  1.00  0.00    -0.550 OA
ATOM     10  O   UNL     1      17.274  22.359  23.408  1.00  0.00    -0.550 OA
ENDBRANCH   7   8
ENDBRANCH   6   7
ENDBRANCH   5   6
ENDBRANCH   4   5
ENDBRANCH   3   4
ENDBRANCH   2   3
ENDBRANCH   1   2
BRANCH   1  11
ATOM     11  C   UNL     1      21.245  23.615  19.668  1.00  0.00     0.000 C 
BRANCH  11  12
ATOM     12  C   UNL     1      22.129  22.368  19.850  1.00  0.00    -0.000 C 
BRANCH  12  13
ATOM     13  C   UNL     1      21.745  21.454  21.033  1.00  0.00    -0.000 C 
BRANCH  13  14
ATOM     14  C   UNL     1      22.862  20.516  21.524  1.00  0.00    -0.000 C 
BRANCH  14  15
ATOM     15  C   UNL     1      22.481  19.032  21.423  1.00  0.00    -0.000 C 
BRANCH  15  16
ATOM     16  C   UNL     1      23.731  18.153  21.288  1.00  0.00    -0.000 C 
BRANCH  16  17
ATOM     17  C   UNL     1      24.730  18.766  20.300  1.00  0.00    -0.003 C 
ATOM     18  C   UNL     1      25.714  17.718  19.790  1.00  0.00     0.004 C 
ENDBRANCH  16  17
ENDBRANCH  15  16
ENDBRANCH  14  15
ENDBRANCH  13  14
ENDBRANCH  12  13
ENDBRANCH  11  12
ENDBRANCH   1  11
TORSDOF 14
ENDMDL
MODEL 7
REMARK VINA RESULT:    -3.910      1.085      2.931
REMARK INTER + INTRA:          -9.171
REMARK INTER:                  -7.275
REMARK INTRA:                  -1.895
REMARK UNBOUND:                -2.060
REMARK SMILES CCCCCCCCCCCCCCCC(=O)[O-]
REMARK SMILES IDX 9 1 10 2 11 3 12 4 13 5 14 6 15 7 16 8 17 9 18 10 8 11 7 12
REMARK SMILES IDX 6 13 5 14 4 15 3 16 2 17 1 18
REMARK H PARENT
REMARK Flexibility Score: inf
ROOT
ATOM      1  C   UNL     1      20.652  22.882  21.721  1.00  0.00     0.000 C 
ENDROOT
BRANCH   1   2
ATOM      2  C   UNL     1      22.099  22.648  21.249  1.00  0.00     0.000 C 
BRANCH   2   3
ATOM      3  C   UNL     1      22.370  21.269  20.611  1.00  0.00     0.000 C 
BRANCH   3   4
ATOM      4  C   UNL     1      22.897  20.194  21.577  1.00  0.00     0.000 C 
BRANCH   4   5
ATOM      5  C   UNL     1      22.237  18.824  21.361  1.00  0.00     0.000 C 
BRANCH   5   6
ATOM      6  C   UNL     1      23.288  17.704  21.356  1.00  0.00     0.006 C 
BRANCH   6   7
ATOM      7  C   UNL     1      24.722  18.251  21.361  1.00  0.00     0.053 C 
BRANCH   7   8
ATOM      8  C   UNL     1      25.473  17.855  20.128  1.00  0.00     0.041 C 
ATOM      9  O   UNL     1      24.855  17.401  19.129  1.00  0.00    -0.550 OA
ATOM     10  O   UNL     1      26.857  17.956  20.093  1.00  0.00    -0.550 OA
ENDBRANCH   7   8
ENDBRANCH   6   7
ENDBRANCH   5   6
ENDBRANCH   4   5
ENDBRANCH   3   4
ENDBRANCH   2   3
ENDBRANCH   1   2
BRANCH   1  11
ATOM     11  C   UNL     1      19.649  21.913  21.074  1.00  0.00     0.000 C 
BRANCH  11  12
ATOM     12  C   UNL     1      18.426  22.630  20.475  1.00  0.00    -0.000 C 
BRANCH  12  13
ATOM     13  C   UNL     1      17.978  22.124  19.088  1.00  0.00    -0.000 C 
BRANCH  13  14
ATOM     14  C   UNL     1      19.076  21.436  18.257  1.00  0.00    -0.000 C 
BRANCH  14  15
ATOM     15  C   UNL     1      19.629  22.334  17.141  1.00  0.00    -0.000 C 
BRANCH  15  16
ATOM     16  C   UNL     1      20.892  23.069  17.603  1.00  0.00    -0.000 C 
BRANCH  16  17
ATOM     17  C   UNL     1      20.680  24.588  17.592  1.00  0.00    -0.003 C 
ATOM     18  C   UNL     1      20.754  25.165  19.002  1.00  0.00     0.004 C 
ENDBRANCH  16  17
ENDBRANCH  15  16
ENDBRANCH  14  15
ENDBRANCH  13  14
ENDBRANCH  12  13
ENDBRANCH  11  12
ENDBRANCH   1  11
TORSDOF 14
ENDMDL
MODEL 8
REMARK VINA RESULT:    -3.865      3.111      5.807
REMARK INTER + INTRA:          -9.088
REMARK INTER:                  -7.337
REMARK INTRA:                  -1.751
REMARK UNBOUND:                -2.060
REMARK SMILES CCCCCCCCCCCCCCCC(=O)[O-]
REMARK SMILES IDX 9 1 10 2 11 3 12 4 13 5 14 6 15 7 16 8 17 9 18 10 8 11 7 12
REMARK SMILES IDX 6 13 5 14 4 15 3 16 2 17 1 18
REMARK H PARENT
REMARK Flexibility Score: inf
ROOT
ATOM      1  C   UNL     1      20.591  25.080  19.787  1.00  0.00     0.000 C 
ENDROOT
BRANCH   1   2
ATOM      2  C   UNL     1      20.744  24.613  18.329  1.00  0.00     0.000 C 
BRANCH   2   3
ATOM      3  C   UNL     1      19.525  23.873  17.740  1.00  0.00     0.000 C 
BRANCH   3   4
ATOM      4  C   UNL     1      19.703  22.353  17.571  1.00  0.00     0.000 C 
BRANCH   4   5
ATOM      5  C   UNL     1      18.413  21.567  17.850  1.00  0.00     0.000 C 
BRANCH   5   6
ATOM      6  C   UNL     1      18.452  20.926  19.245  1.00  0.00     0.006 C 
BRANCH   6   7
ATOM      7  C   UNL     1      17.275  21.371  20.123  1.00  0.00     0.053 C 
BRANCH   7   8
ATOM      8  C   UNL     1      17.477  20.995  21.558  1.00  0.00     0.041 C 
ATOM      9  O   UNL     1      17.792  19.815  21.865  1.00  0.00    -0.550 OA
ATOM     10  O   UNL     1      17.287  21.939  22.559  1.00  0.00    -0.550 OA
ENDBRANCH   7   8
ENDBRANCH   6   7
ENDBRANCH   5   6
ENDBRANCH   4   5
ENDBRANCH   3   4
ENDBRANCH   2   3
ENDBRANCH   1   2
BRANCH   1  11
ATOM     11  C   UNL     1      19.631  24.195  20.600  1.00  0.00     0.000 C 
BRANCH  11  12
ATOM     12  C   UNL     1      20.328  23.470  21.765  1.00  0.00    -0.000 C 
BRANCH  12  13
ATOM     13  C   UNL     1      21.679  22.810  21.418  1.00  0.00    -0.000 C 
BRANCH  13  14
ATOM     14  C   UNL     1      21.580  21.399  20.810  1.00  0.00    -0.000 C 
BRANCH  14  15
ATOM     15  C   UNL     1      22.860  20.574  21.007  1.00  0.00    -0.000 C 
BRANCH  15  16
ATOM     16  C   UNL     1      22.534  19.172  21.534  1.00  0.00    -0.000 C 
BRANCH  16  17
ATOM     17  C   UNL     1      23.755  18.251  21.439  1.00  0.00    -0.003 C 
ATOM     18  C   UNL     1      24.680  18.676  20.303  1.00  0.00     0.004 C 
ENDBRANCH  16  17
ENDBRANCH  15  16
ENDBRANCH  14  15
ENDBRANCH  13  14
ENDBRANCH  12  13
ENDBRANCH  11  12
ENDBRANCH   1  11
TORSDOF 14
ENDMDL
MODEL 9
REMARK VINA RESULT:    -3.789      2.805      4.508
REMARK INTER + INTRA:          -8.951
REMARK INTER:                  -6.571
REMARK INTRA:                  -2.380
REMARK UNBOUND:                -2.060
REMARK SMILES CCCCCCCCCCCCCCCC(=O)[O-]
REMARK SMILES IDX 9 1 10 2 11 3 12 4 13 5 14 6 15 7 16 8 17 9 18 10 8 11 7 12
REMARK SMILES IDX 6 13 5 14 4 15 3 16 2 17 1 18
REMARK H PARENT
REMARK Flexibility Score: inf
ROOT
ATOM      1  C   UNL     1      20.196  23.186  16.875  1.00  0.00     0.000 C 
ENDROOT
BRANCH   1   2
ATOM      2  C   UNL     1      19.610  22.003  17.667  1.00  0.00     0.000 C 
BRANCH   2   3
ATOM      3  C   UNL     1      18.074  22.005  17.817  1.00  0.00     0.000 C 
BRANCH   3   4
ATOM      4  C   UNL     1      17.492  20.812  18.596  1.00  0.00     0.000 C 
BRANCH   4   5
ATOM      5  C   UNL     1      17.189  21.149  20.063  1.00  0.00     0.000 C 
BRANCH   5   6
ATOM      6  C   UNL     1      18.181  20.450  21.003  1.00  0.00     0.006 C 
BRANCH   6   7
ATOM      7  C   UNL     1      18.977  19.347  20.292  1.00  0.00     0.053 C 
BRANCH   7   8
ATOM      8  C   UNL     1      19.509  18.333  21.258  1.00  0.00     0.041 C 
ATOM      9  O   UNL     1      20.748  18.118  21.331  1.00  0.00    -0.550 OA
ATOM     10  O   UNL     1      18.635  17.604  22.053  1.00  0.00    -0.550 OA
ENDBRANCH   7   8
ENDBRANCH   6   7
ENDBRANCH   5   6
ENDBRANCH   4   5
ENDBRANCH   3   4
ENDBRANCH   2   3
ENDBRANCH   1   2
BRANCH   1  11
ATOM     11  C   UNL     1      19.857  24.549  17.499  1.00  0.00     0.000 C 
BRANCH  11  12
ATOM     12  C   UNL     1      20.873  24.986  18.571  1.00  0.00    -0.000 C 
BRANCH  12  13
ATOM     13  C   UNL     1      20.282  25.244  19.973  1.00  0.00    -0.000 C 
BRANCH  13  14
ATOM     14  C   UNL     1      19.359  24.135  20.508  1.00  0.00    -0.000 C 
BRANCH  14  15
ATOM     15  C   UNL     1      19.865  23.520  21.821  1.00  0.00    -0.000 C 
BRANCH  15  16
ATOM     16  C   UNL     1      21.357  23.179  21.729  1.00  0.00    -0.000 C 
BRANCH  16  17
ATOM     17  C   UNL     1      21.577  21.877  20.950  1.00  0.00    -0.003 C 
ATOM     18  C   UNL     1      22.587  22.073  19.824  1.00  0.00     0.004 C 
ENDBRANCH  16  17
ENDBRANCH  15  16
ENDBRANCH  14  15
ENDBRANCH  13  14
ENDBRANCH  12  13
ENDBRANCH  11  12
ENDBRANCH   1  11
TORSDOF 14
ENDMDL
