MODEL 1
REMARK VINA RESULT:    -2.848      0.000      0.000
REMARK INTER + INTRA:          -4.322
REMARK INTER:                  -4.014
REMARK INTRA:                  -0.309
REMARK UNBOUND:                -0.309
REMARK SMILES CCCCCCCCC=O
REMARK SMILES IDX 5 1 4 2 3 3 2 4 1 5 6 6 7 7 8 8 9 9 10 10
REMARK H PARENT
REMARK Flexibility Score: inf
ROOT
ATOM      1  C   UNL     1      -6.972  22.190  10.059  1.00  0.00     0.000 C 
ENDROOT
BRANCH   1   2
ATOM      2  C   UNL     1      -6.447  22.462  11.477  1.00  0.00    -0.000 C 
BRANCH   2   3
ATOM      3  C   UNL     1      -6.889  21.363  12.449  1.00  0.00    -0.000 C 
BRANCH   3   4
ATOM      4  C   UNL     1      -8.411  21.182  12.419  1.00  0.00    -0.003 C 
ATOM      5  C   UNL     1      -8.885  20.299  13.569  1.00  0.00     0.004 C 
ENDBRANCH   3   4
ENDBRANCH   2   3
ENDBRANCH   1   2
BRANCH   1   6
ATOM      6  C   UNL     1      -6.103  22.863   8.976  1.00  0.00     0.000 C 
BRANCH   6   7
ATOM      7  C   UNL     1      -5.306  24.079   9.490  1.00  0.00     0.008 C 
BRANCH   7   8
ATOM      8  C   UNL     1      -3.790  23.992   9.251  1.00  0.00     0.072 C 
BRANCH   8   9
ATOM      9  C   UNL     1      -2.999  24.086  10.525  1.00  0.00     0.224 C 
ATOM     10  O   UNL     1      -3.224  23.309  11.438  1.00  0.00    -0.303 OA
ENDBRANCH   8   9
ENDBRANCH   7   8
ENDBRANCH   6   7
ENDBRANCH   1   6
TORSDOF 7
ENDMDL
MODEL 2
REMARK VINA RESULT:    -2.833      1.696      1.937
REMARK INTER + INTRA:          -4.301
REMARK INTER:                  -3.913
REMARK INTRA:                  -0.388
REMARK UNBOUND:                -0.309
REMARK SMILES CCCCCCCCC=O
REMARK SMILES IDX 5 1 4 2 3 3 2 4 1 5 6 6 7 7 8 8 9 9 10 10
REMARK H PARENT
REMARK Flexibility Score: inf
ROOT
ATOM      1  C   UNL     1      -6.593  21.968  10.781  1.00  0.00     0.000 C 
ENDROOT
BRANCH   1   2
ATOM      2  C   UNL     1      -6.549  21.796  12.308  1.00  0.00    -0.000 C 
BRANCH   2   3
ATOM      3  C   UNL     1      -7.793  21.059  12.816  1.00  0.00    -0.000 C 
BRANCH   3   4
ATOM      4  C   UNL     1      -8.467  21.836  13.952  1.00  0.00    -0.003 C 
ATOM      5  C   UNL     1      -7.917  23.255  14.054  1.00  0.00     0.004 C 
ENDBRANCH   3   4
ENDBRANCH   2   3
ENDBRANCH   1   2
BRANCH   1   6
ATOM      6  C   UNL     1      -5.849  23.236  10.316  1.00  0.00     0.000 C 
BRANCH   6   7
ATOM      7  C   UNL     1      -4.640  23.604  11.200  1.00  0.00     0.008 C 
BRANCH   7   8
ATOM      8  C   UNL     1      -3.352  23.913  10.420  1.00  0.00     0.072 C 
BRANCH   8   9
ATOM      9  C   UNL     1      -3.592  24.054   8.944  1.00  0.00     0.224 C 
ATOM     10  O   UNL     1      -2.684  24.420   8.215  1.00  0.00    -0.303 OA
ENDBRANCH   8   9
ENDBRANCH   7   8
ENDBRANCH   6   7
ENDBRANCH   1   6
TORSDOF 7
ENDMDL
MODEL 3
REMARK VINA RESULT:    -2.828      1.720      3.590
REMARK INTER + INTRA:          -4.294
REMARK INTER:                  -3.664
REMARK INTRA:                  -0.630
REMARK UNBOUND:                -0.309
REMARK SMILES CCCCCCCCC=O
REMARK SMILES IDX 5 1 4 2 3 3 2 4 1 5 6 6 7 7 8 8 9 9 10 10
REMARK H PARENT
REMARK Flexibility Score: inf
ROOT
ATOM      1  C   UNL     1      -8.759  21.721  14.035  1.00  0.00     0.000 C 
ENDROOT
BRANCH   1   2
ATOM      2  C   UNL     1      -9.029  20.271  13.606  1.00  0.00    -0.000 C 
BRANCH   2   3
ATOM      3  C   UNL     1     -10.431  20.127  13.003  1.00  0.00    -0.000 C 
BRANCH   3   4
ATOM      4  C   UNL     1     -10.358  19.878  11.492  1.00  0.00    -0.003 C 
ATOM      5  C   UNL     1     -10.396  21.189  10.714  1.00  0.00     0.004 C 
ENDBRANCH   3   4
ENDBRANCH   2   3
ENDBRANCH   1   2
BRANCH   1   6
ATOM      6  C   UNL     1      -7.508  22.308  13.347  1.00  0.00     0.000 C 
BRANCH   6   7
ATOM      7  C   UNL     1      -6.904  21.387  12.269  1.00  0.00     0.008 C 
BRANCH   7   8
ATOM      8  C   UNL     1      -6.440  22.115  10.998  1.00  0.00     0.072 C 
BRANCH   8   9
ATOM      9  C   UNL     1      -5.523  23.267  11.295  1.00  0.00     0.224 C 
ATOM     10  O   UNL     1      -4.368  23.241  10.900  1.00  0.00    -0.303 OA
ENDBRANCH   8   9
ENDBRANCH   7   8
ENDBRANCH   6   7
ENDBRANCH   1   6
TORSDOF 7
ENDMDL
MODEL 4
REMARK VINA RESULT:    -2.827      1.887      5.145
REMARK INTER + INTRA:          -4.292
REMARK INTER:                  -3.785
REMARK INTRA:                  -0.508
REMARK UNBOUND:                -0.309
REMARK SMILES CCCCCCCCC=O
REMARK SMILES IDX 5 1 4 2 3 3 2 4 1 5 6 6 7 7 8 8 9 9 10 10
REMARK H PARENT
REMARK Flexibility Score: inf
ROOT
ATOM      1  C   UNL     1      -4.336  23.679  10.851  1.00  0.00     0.000 C 
ENDROOT
BRANCH   1   2
ATOM      2  C   UNL     1      -3.189  24.044   9.895  1.00  0.00    -0.000 C 
BRANCH   2   3
ATOM      3  C   UNL     1      -3.729  24.488   8.531  1.00  0.00    -0.000 C 
BRANCH   3   4
ATOM      4  C   UNL     1      -3.209  23.580   7.411  1.00  0.00    -0.003 C 
ATOM      5  C   UNL     1      -4.359  22.943   6.638  1.00  0.00     0.004 C 
ENDBRANCH   3   4
ENDBRANCH   2   3
ENDBRANCH   1   2
BRANCH   1   6
ATOM      6  C   UNL     1      -5.710  23.717  10.151  1.00  0.00     0.000 C 
BRANCH   6   7
ATOM      7  C   UNL     1      -6.402  22.342  10.067  1.00  0.00     0.008 C 
BRANCH   7   8
ATOM      8  C   UNL     1      -7.524  22.130  11.095  1.00  0.00     0.072 C 
BRANCH   8   9
ATOM      9  C   UNL     1      -7.006  21.658  12.425  1.00  0.00     0.224 C 
ATOM     10  O   UNL     1      -6.308  20.659  12.484  1.00  0.00    -0.303 OA
ENDBRANCH   8   9
ENDBRANCH   7   8
ENDBRANCH   6   7
ENDBRANCH   1   6
TORSDOF 7
ENDMDL
MODEL 5
REMARK VINA RESULT:    -2.822      1.906      5.003
REMARK INTER + INTRA:          -4.285
REMARK INTER:                  -3.840
REMARK INTRA:                  -0.445
REMARK UNBOUND:                -0.309
REMARK SMILES CCCCCCCCC=O
REMARK SMILES IDX 5 1 4 2 3 3 2 4 1 5 6 6 7 7 8 8 9 9 10 10
REMARK H PARENT
REMARK Flexibility Score: inf
ROOT
ATOM      1  C   UNL     1      -5.796  23.487   8.160  1.00  0.00     0.000 C 
ENDROOT
BRANCH   1   2
ATOM      2  C   UNL     1      -4.628  23.195   7.206  1.00  0.00    -0.000 C 
BRANCH   2   3
ATOM      3  C   UNL     1      -3.325  23.813   7.726  1.00  0.00    -0.000 C 
BRANCH   3   4
ATOM      4  C   UNL     1      -3.396  24.056   9.238  1.00  0.00    -0.003 C 
ATOM      5  C   UNL     1      -2.916  25.459   9.595  1.00  0.00     0.004 C 
ENDBRANCH   3   4
ENDBRANCH   2   3
ENDBRANCH   1   2
BRANCH   1   6
ATOM      6  C   UNL     1      -6.595  22.213   8.507  1.00  0.00     0.000 C 
BRANCH   6   7
ATOM      7  C   UNL     1      -7.235  22.246   9.909  1.00  0.00     0.008 C 
BRANCH   7   8
ATOM      8  C   UNL     1      -6.250  22.536  11.052  1.00  0.00     0.072 C 
BRANCH   8   9
ATOM      9  C   UNL     1      -6.636  21.855  12.334  1.00  0.00     0.224 C 
ATOM     10  O   UNL     1      -6.357  20.679  12.504  1.00  0.00    -0.303 OA
ENDBRANCH   8   9
ENDBRANCH   7   8
ENDBRANCH   6   7
ENDBRANCH   1   6
TORSDOF 7
ENDMDL
MODEL 6
REMARK VINA RESULT:    -2.726      1.722      2.453
REMARK INTER + INTRA:          -4.150
REMARK INTER:                  -3.564
REMARK INTRA:                  -0.585
REMARK UNBOUND:                -0.309
REMARK SMILES CCCCCCCCC=O
REMARK SMILES IDX 5 1 4 2 3 3 2 4 1 5 6 6 7 7 8 8 9 9 10 10
REMARK H PARENT
REMARK Flexibility Score: inf
ROOT
ATOM      1  C   UNL     1      -6.775  21.379  12.428  1.00  0.00     0.000 C 
ENDROOT
BRANCH   1   2
ATOM      2  C   UNL     1      -8.173  20.869  12.809  1.00  0.00    -0.000 C 
BRANCH   2   3
ATOM      3  C   UNL     1      -8.618  21.440  14.160  1.00  0.00    -0.000 C 
BRANCH   3   4
ATOM      4  C   UNL     1      -8.787  22.962  14.086  1.00  0.00    -0.003 C 
ATOM      5  C   UNL     1      -7.948  23.663  15.149  1.00  0.00     0.004 C 
ENDBRANCH   3   4
ENDBRANCH   2   3
ENDBRANCH   1   2
BRANCH   1   6
ATOM      6  C   UNL     1      -6.738  21.964  11.001  1.00  0.00     0.000 C 
BRANCH   6   7
ATOM      7  C   UNL     1      -6.819  23.503  10.960  1.00  0.00     0.008 C 
BRANCH   7   8
ATOM      8  C   UNL     1      -5.542  24.220  11.426  1.00  0.00     0.072 C 
BRANCH   8   9
ATOM      9  C   UNL     1      -4.308  23.706  10.739  1.00  0.00     0.224 C 
ATOM     10  O   UNL     1      -3.390  23.251  11.402  1.00  0.00    -0.303 OA
ENDBRANCH   8   9
ENDBRANCH   7   8
ENDBRANCH   6   7
ENDBRANCH   1   6
TORSDOF 7
ENDMDL
MODEL 7
REMARK VINA RESULT:    -2.690      2.400      3.101
REMARK INTER + INTRA:          -4.100
REMARK INTER:                  -3.582
REMARK INTRA:                  -0.518
REMARK UNBOUND:                -0.309
REMARK SMILES CCCCCCCCC=O
REMARK SMILES IDX 5 1 4 2 3 3 2 4 1 5 6 6 7 7 8 8 9 9 10 10
REMARK H PARENT
REMARK Flexibility Score: inf
ROOT
ATOM      1  C   UNL     1      -6.697  21.538  12.453  1.00  0.00     0.000 C 
ENDROOT
BRANCH   1   2
ATOM      2  C   UNL     1      -7.635  22.433  13.278  1.00  0.00    -0.000 C 
BRANCH   2   3
ATOM      3  C   UNL     1      -8.756  21.610  13.922  1.00  0.00    -0.000 C 
BRANCH   3   4
ATOM      4  C   UNL     1      -8.821  20.202  13.319  1.00  0.00    -0.003 C 
ATOM      5  C   UNL     1     -10.081  20.018  12.480  1.00  0.00     0.004 C 
ENDBRANCH   3   4
ENDBRANCH   2   3
ENDBRANCH   1   2
BRANCH   1   6
ATOM      6  C   UNL     1      -6.495  22.073  11.020  1.00  0.00     0.000 C 
BRANCH   6   7
ATOM      7  C   UNL     1      -7.807  22.225  10.224  1.00  0.00     0.008 C 
BRANCH   7   8
ATOM      8  C   UNL     1      -7.619  22.347   8.704  1.00  0.00     0.072 C 
BRANCH   8   9
ATOM      9  C   UNL     1      -6.209  22.699   8.324  1.00  0.00     0.224 C 
ATOM     10  O   UNL     1      -5.766  22.346   7.243  1.00  0.00    -0.303 OA
ENDBRANCH   8   9
ENDBRANCH   7   8
ENDBRANCH   6   7
ENDBRANCH   1   6
TORSDOF 7
ENDMDL
MODEL 8
REMARK VINA RESULT:    -2.678      2.589      4.612
REMARK INTER + INTRA:          -4.082
REMARK INTER:                  -3.613
REMARK INTRA:                  -0.469
REMARK UNBOUND:                -0.309
REMARK SMILES CCCCCCCCC=O
REMARK SMILES IDX 5 1 4 2 3 3 2 4 1 5 6 6 7 7 8 8 9 9 10 10
REMARK H PARENT
REMARK Flexibility Score: inf
ROOT
ATOM      1  C   UNL     1      -9.329  20.788  14.635  1.00  0.00     0.000 C 
ENDROOT
BRANCH   1   2
ATOM      2  C   UNL     1      -9.733  22.270  14.607  1.00  0.00    -0.000 C 
BRANCH   2   3
ATOM      3  C   UNL     1      -9.168  23.018  15.819  1.00  0.00    -0.000 C 
BRANCH   3   4
ATOM      4  C   UNL     1      -7.810  23.651  15.492  1.00  0.00    -0.003 C 
ATOM      5  C   UNL     1      -7.371  24.616  16.589  1.00  0.00     0.004 C 
ENDBRANCH   3   4
ENDBRANCH   2   3
ENDBRANCH   1   2
BRANCH   1   6
ATOM      6  C   UNL     1      -8.838  20.292  13.259  1.00  0.00     0.000 C 
BRANCH   6   7
ATOM      7  C   UNL     1      -8.266  21.411  12.366  1.00  0.00     0.008 C 
BRANCH   7   8
ATOM      8  C   UNL     1      -6.737  21.552  12.425  1.00  0.00     0.072 C 
BRANCH   8   9
ATOM      9  C   UNL     1      -6.240  22.760  11.682  1.00  0.00     0.224 C 
ATOM     10  O   UNL     1      -5.051  22.868  11.426  1.00  0.00    -0.303 OA
ENDBRANCH   8   9
ENDBRANCH   7   8
ENDBRANCH   6   7
ENDBRANCH   1   6
TORSDOF 7
ENDMDL
MODEL 9
REMARK VINA RESULT:    -2.667      2.348      5.274
REMARK INTER + INTRA:          -4.067
REMARK INTER:                  -3.687
REMARK INTRA:                  -0.380
REMARK UNBOUND:                -0.309
REMARK SMILES CCCCCCCCC=O
REMARK SMILES IDX 5 1 4 2 3 3 2 4 1 5 6 6 7 7 8 8 9 9 10 10
REMARK H PARENT
REMARK Flexibility Score: inf
ROOT
ATOM      1  C   UNL     1      -6.760  22.178   9.988  1.00  0.00     0.000 C 
ENDROOT
BRANCH   1   2
ATOM      2  C   UNL     1      -5.845  23.065   9.130  1.00  0.00    -0.000 C 
BRANCH   2   3
ATOM      3  C   UNL     1      -5.134  24.116   9.990  1.00  0.00    -0.000 C 
BRANCH   3   4
ATOM      4  C   UNL     1      -3.613  23.929   9.942  1.00  0.00    -0.003 C 
ATOM      5  C   UNL     1      -3.019  23.874  11.346  1.00  0.00     0.004 C 
ENDBRANCH   3   4
ENDBRANCH   2   3
ENDBRANCH   1   2
BRANCH   1   6
ATOM      6  C   UNL     1      -6.729  22.578  11.478  1.00  0.00     0.000 C 
BRANCH   6   7
ATOM      7  C   UNL     1      -6.726  21.376  12.442  1.00  0.00     0.008 C 
BRANCH   7   8
ATOM      8  C   UNL     1      -8.121  20.927  12.905  1.00  0.00     0.072 C 
BRANCH   8   9
ATOM      9  C   UNL     1      -8.663  21.782  14.015  1.00  0.00     0.224 C 
ATOM     10  O   UNL     1      -8.975  21.270  15.078  1.00  0.00    -0.303 OA
ENDBRANCH   8   9
ENDBRANCH   7   8
ENDBRANCH   6   7
ENDBRANCH   1   6
TORSDOF 7
ENDMDL
