MODEL 1
REMARK VINA RESULT:    -4.693      0.000      0.000
REMARK INTER + INTRA:         -13.749
REMARK INTER:                 -10.728
REMARK INTRA:                  -3.022
REMARK UNBOUND:                -3.022
REMARK SMILES CCCCCCCCCCCCCCCCCCCCCCCC(=O)[O-]
REMARK SMILES IDX 13 1 14 2 15 3 16 4 17 5 18 6 19 7 20 8 21 9 22 10 23 11
REMARK SMILES IDX 24 12 25 13 26 14 12 15 11 16 10 17 9 18 8 19 7 20 6 21 5 22
REMARK SMILES IDX 4 23 3 24 2 25 1 26
REMARK H PARENT
REMARK Flexibility Score: inf
ROOT
ATOM      1  C   UNL     1      63.349 -28.827  -1.348  1.00  0.00     0.000 C 
ENDROOT
BRANCH   1   2
ATOM      2  C   UNL     1      62.233 -29.176  -0.340  1.00  0.00     0.000 C 
BRANCH   2   3
ATOM      3  C   UNL     1      60.797 -28.954  -0.851  1.00  0.00     0.000 C 
BRANCH   3   4
ATOM      4  C   UNL     1      59.731 -29.483   0.121  1.00  0.00     0.000 C 
BRANCH   4   5
ATOM      5  C   UNL     1      60.259 -29.499   1.564  1.00  0.00     0.000 C 
BRANCH   5   6
ATOM      6  C   UNL     1      59.307 -28.810   2.554  1.00  0.00     0.000 C 
BRANCH   6   7
ATOM      7  C   UNL     1      57.987 -28.360   1.904  1.00  0.00     0.000 C 
BRANCH   7   8
ATOM      8  C   UNL     1      56.779 -28.543   2.848  1.00  0.00     0.000 C 
BRANCH   8   9
ATOM      9  C   UNL     1      55.423 -28.567   2.120  1.00  0.00     0.000 C 
BRANCH   9  10
ATOM     10  C   UNL     1      55.334 -29.676   1.059  1.00  0.00     0.006 C 
BRANCH  10  11
ATOM     11  C   UNL     1      53.891 -30.148   0.831  1.00  0.00     0.053 C 
BRANCH  11  12
ATOM     12  C   UNL     1      53.630 -31.477   1.471  1.00  0.00     0.041 C 
ATOM     13  O   UNL     1      52.449 -31.845   1.709  1.00  0.00    -0.550 OA
ATOM     14  O   UNL     1      54.689 -32.322   1.778  1.00  0.00    -0.550 OA
ENDBRANCH  11  12
ENDBRANCH  10  11
ENDBRANCH   9  10
ENDBRANCH   8   9
ENDBRANCH   7   8
ENDBRANCH   6   7
ENDBRANCH   5   6
ENDBRANCH   4   5
ENDBRANCH   3   4
ENDBRANCH   2   3
ENDBRANCH   1   2
BRANCH   1  15
ATOM     15  C   UNL     1      63.575 -27.321  -1.575  1.00  0.00     0.000 C 
BRANCH  15  16
ATOM     16  C   UNL     1      63.694 -26.953  -3.061  1.00  0.00     0.000 C 
BRANCH  16  17
ATOM     17  C   UNL     1      62.761 -25.784  -3.413  1.00  0.00     0.000 C 
BRANCH  17  18
ATOM     18  C   UNL     1      61.390 -25.898  -2.724  1.00  0.00    -0.000 C 
BRANCH  18  19
ATOM     19  C   UNL     1      60.374 -24.876  -3.261  1.00  0.00    -0.000 C 
BRANCH  19  20
ATOM     20  C   UNL     1      60.206 -24.961  -4.788  1.00  0.00    -0.000 C 
BRANCH  20  21
ATOM     21  C   UNL     1      59.119 -25.963  -5.204  1.00  0.00    -0.000 C 
BRANCH  21  22
ATOM     22  C   UNL     1      58.123 -26.203  -4.058  1.00  0.00    -0.000 C 
BRANCH  22  23
ATOM     23  C   UNL     1      58.191 -27.634  -3.500  1.00  0.00    -0.000 C 
BRANCH  23  24
ATOM     24  C   UNL     1      57.486 -27.778  -2.140  1.00  0.00    -0.000 C 
BRANCH  24  25
ATOM     25  C   UNL     1      57.673 -26.539  -1.246  1.00  0.00    -0.003 C 
ATOM     26  C   UNL     1      56.368 -26.075  -0.599  1.00  0.00     0.004 C 
ENDBRANCH  24  25
ENDBRANCH  23  24
ENDBRANCH  22  23
ENDBRANCH  21  22
ENDBRANCH  20  21
ENDBRANCH  19  20
ENDBRANCH  18  19
ENDBRANCH  17  18
ENDBRANCH  16  17
ENDBRANCH  15  16
ENDBRANCH   1  15
TORSDOF 22
ENDMDL
MODEL 2
REMARK VINA RESULT:    -4.658      4.122      7.174
REMARK INTER + INTRA:         -13.670
REMARK INTER:                  -9.997
REMARK INTRA:                  -3.673
REMARK UNBOUND:                -3.022
REMARK SMILES CCCCCCCCCCCCCCCCCCCCCCCC(=O)[O-]
REMARK SMILES IDX 13 1 14 2 15 3 16 4 17 5 18 6 19 7 20 8 21 9 22 10 23 11
REMARK SMILES IDX 24 12 25 13 26 14 12 15 11 16 10 17 9 18 8 19 7 20 6 21 5 22
REMARK SMILES IDX 4 23 3 24 2 25 1 26
REMARK H PARENT
REMARK Flexibility Score: inf
ROOT
ATOM      1  C   UNL     1      59.320 -27.279  -3.132  1.00  0.00     0.000 C 
ENDROOT
BRANCH   1   2
ATOM      2  C   UNL     1      57.945 -27.559  -2.487  1.00  0.00     0.000 C 
BRANCH   2   3
ATOM      3  C   UNL     1      57.677 -26.813  -1.167  1.00  0.00     0.000 C 
BRANCH   3   4
ATOM      4  C   UNL     1      56.278 -26.182  -1.112  1.00  0.00     0.000 C 
BRANCH   4   5
ATOM      5  C   UNL     1      56.364 -24.647  -1.156  1.00  0.00     0.000 C 
BRANCH   5   6
ATOM      6  C   UNL     1      56.200 -24.081  -2.575  1.00  0.00     0.000 C 
BRANCH   6   7
ATOM      7  C   UNL     1      55.478 -25.050  -3.528  1.00  0.00     0.000 C 
BRANCH   7   8
ATOM      8  C   UNL     1      56.314 -25.359  -4.789  1.00  0.00     0.000 C 
BRANCH   8   9
ATOM      9  C   UNL     1      56.971 -24.116  -5.416  1.00  0.00     0.000 C 
BRANCH   9  10
ATOM     10  C   UNL     1      58.474 -24.305  -5.684  1.00  0.00     0.006 C 
BRANCH  10  11
ATOM     11  C   UNL     1      58.751 -25.476  -6.637  1.00  0.00     0.053 C 
BRANCH  11  12
ATOM     12  C   UNL     1      59.977 -25.243  -7.467  1.00  0.00     0.041 C 
ATOM     13  O   UNL     1      61.118 -25.492  -6.995  1.00  0.00    -0.550 OA
ATOM     14  O   UNL     1      59.856 -24.779  -8.771  1.00  0.00    -0.550 OA
ENDBRANCH  11  12
ENDBRANCH  10  11
ENDBRANCH   9  10
ENDBRANCH   8   9
ENDBRANCH   7   8
ENDBRANCH   6   7
ENDBRANCH   5   6
ENDBRANCH   4   5
ENDBRANCH   3   4
ENDBRANCH   2   3
ENDBRANCH   1   2
BRANCH   1  15
ATOM     15  C   UNL     1      60.072 -26.063  -2.561  1.00  0.00     0.000 C 
BRANCH  15  16
ATOM     16  C   UNL     1      61.093 -25.476  -3.548  1.00  0.00     0.000 C 
BRANCH  16  17
ATOM     17  C   UNL     1      62.526 -25.651  -3.022  1.00  0.00     0.000 C 
BRANCH  17  18
ATOM     18  C   UNL     1      62.889 -27.126  -2.783  1.00  0.00    -0.000 C 
BRANCH  18  19
ATOM     19  C   UNL     1      63.727 -27.328  -1.508  1.00  0.00    -0.000 C 
BRANCH  19  20
ATOM     20  C   UNL     1      63.293 -28.568  -0.710  1.00  0.00    -0.000 C 
BRANCH  20  21
ATOM     21  C   UNL     1      61.902 -29.074  -1.121  1.00  0.00    -0.000 C 
BRANCH  21  22
ATOM     22  C   UNL     1      60.944 -29.090   0.081  1.00  0.00    -0.000 C 
BRANCH  22  23
ATOM     23  C   UNL     1      59.603 -29.772  -0.236  1.00  0.00    -0.000 C 
BRANCH  23  24
ATOM     24  C   UNL     1      58.756 -30.035   1.022  1.00  0.00    -0.000 C 
BRANCH  24  25
ATOM     25  C   UNL     1      58.977 -28.973   2.113  1.00  0.00    -0.003 C 
ATOM     26  C   UNL     1      57.751 -28.087   2.331  1.00  0.00     0.004 C 
ENDBRANCH  24  25
ENDBRANCH  23  24
ENDBRANCH  22  23
ENDBRANCH  21  22
ENDBRANCH  20  21
ENDBRANCH  19  20
ENDBRANCH  18  19
ENDBRANCH  17  18
ENDBRANCH  16  17
ENDBRANCH  15  16
ENDBRANCH   1  15
TORSDOF 22
ENDMDL
MODEL 3
REMARK VINA RESULT:    -4.635      2.245      4.220
REMARK INTER + INTRA:         -13.618
REMARK INTER:                  -9.864
REMARK INTRA:                  -3.754
REMARK UNBOUND:                -3.022
REMARK SMILES CCCCCCCCCCCCCCCCCCCCCCCC(=O)[O-]
REMARK SMILES IDX 13 1 14 2 15 3 16 4 17 5 18 6 19 7 20 8 21 9 22 10 23 11
REMARK SMILES IDX 24 12 25 13 26 14 12 15 11 16 10 17 9 18 8 19 7 20 6 21 5 22
REMARK SMILES IDX 4 23 3 24 2 25 1 26
REMARK H PARENT
REMARK Flexibility Score: inf
ROOT
ATOM      1  C   UNL     1      62.802 -25.802  -2.758  1.00  0.00     0.000 C 
ENDROOT
BRANCH   1   2
ATOM      2  C   UNL     1      63.228 -27.284  -2.675  1.00  0.00     0.000 C 
BRANCH   2   3
ATOM      3  C   UNL     1      63.646 -27.767  -1.275  1.00  0.00     0.000 C 
BRANCH   3   4
ATOM      4  C   UNL     1      62.967 -29.084  -0.872  1.00  0.00     0.000 C 
BRANCH   4   5
ATOM      5  C   UNL     1      61.453 -29.028  -1.137  1.00  0.00     0.000 C 
BRANCH   5   6
ATOM      6  C   UNL     1      60.618 -29.273   0.129  1.00  0.00     0.000 C 
BRANCH   6   7
ATOM      7  C   UNL     1      59.212 -28.652   0.050  1.00  0.00     0.000 C 
BRANCH   7   8
ATOM      8  C   UNL     1      58.115 -29.717  -0.166  1.00  0.00     0.000 C 
BRANCH   8   9
ATOM      9  C   UNL     1      56.718 -29.271   0.302  1.00  0.00     0.000 C 
BRANCH   9  10
ATOM     10  C   UNL     1      56.682 -27.802   0.757  1.00  0.00     0.006 C 
BRANCH  10  11
ATOM     11  C   UNL     1      56.288 -27.661   2.234  1.00  0.00     0.053 C 
BRANCH  11  12
ATOM     12  C   UNL     1      57.485 -27.657   3.134  1.00  0.00     0.041 C 
ATOM     13  O   UNL     1      57.966 -26.568   3.544  1.00  0.00    -0.550 OA
ATOM     14  O   UNL     1      58.050 -28.858   3.545  1.00  0.00    -0.550 OA
ENDBRANCH  11  12
ENDBRANCH  10  11
ENDBRANCH   9  10
ENDBRANCH   8   9
ENDBRANCH   7   8
ENDBRANCH   6   7
ENDBRANCH   5   6
ENDBRANCH   4   5
ENDBRANCH   3   4
ENDBRANCH   2   3
ENDBRANCH   1   2
BRANCH   1  15
ATOM     15  C   UNL     1      61.506 -25.539  -3.545  1.00  0.00     0.000 C 
BRANCH  15  16
ATOM     16  C   UNL     1      60.241 -25.890  -2.748  1.00  0.00     0.000 C 
BRANCH  16  17
ATOM     17  C   UNL     1      59.505 -27.079  -3.384  1.00  0.00     0.000 C 
BRANCH  17  18
ATOM     18  C   UNL     1      58.030 -27.155  -2.956  1.00  0.00    -0.000 C 
BRANCH  18  19
ATOM     19  C   UNL     1      57.583 -25.914  -2.163  1.00  0.00    -0.000 C 
BRANCH  19  20
ATOM     20  C   UNL     1      56.301 -25.284  -2.733  1.00  0.00    -0.000 C 
BRANCH  20  21
ATOM     21  C   UNL     1      56.383 -25.055  -4.250  1.00  0.00    -0.000 C 
BRANCH  21  22
ATOM     22  C   UNL     1      57.012 -23.688  -4.567  1.00  0.00    -0.000 C 
BRANCH  22  23
ATOM     23  C   UNL     1      58.412 -23.807  -5.190  1.00  0.00    -0.000 C 
BRANCH  23  24
ATOM     24  C   UNL     1      58.388 -24.440  -6.593  1.00  0.00    -0.000 C 
BRANCH  24  25
ATOM     25  C   UNL     1      59.274 -25.694  -6.687  1.00  0.00    -0.003 C 
ATOM     26  C   UNL     1      60.683 -25.387  -7.194  1.00  0.00     0.004 C 
ENDBRANCH  24  25
ENDBRANCH  23  24
ENDBRANCH  22  23
ENDBRANCH  21  22
ENDBRANCH  20  21
ENDBRANCH  19  20
ENDBRANCH  18  19
ENDBRANCH  17  18
ENDBRANCH  16  17
ENDBRANCH  15  16
ENDBRANCH   1  15
TORSDOF 22
ENDMDL
MODEL 4
REMARK VINA RESULT:    -4.608      4.326      7.120
REMARK INTER + INTRA:         -13.556
REMARK INTER:                 -10.131
REMARK INTRA:                  -3.425
REMARK UNBOUND:                -3.022
REMARK SMILES CCCCCCCCCCCCCCCCCCCCCCCC(=O)[O-]
REMARK SMILES IDX 13 1 14 2 15 3 16 4 17 5 18 6 19 7 20 8 21 9 22 10 23 11
REMARK SMILES IDX 24 12 25 13 26 14 12 15 11 16 10 17 9 18 8 19 7 20 6 21 5 22
REMARK SMILES IDX 4 23 3 24 2 25 1 26
REMARK H PARENT
REMARK Flexibility Score: inf
ROOT
ATOM      1  C   UNL     1      62.849 -28.482  -1.822  1.00  0.00     0.000 C 
ENDROOT
BRANCH   1   2
ATOM      2  C   UNL     1      63.737 -27.229  -1.982  1.00  0.00     0.000 C 
BRANCH   2   3
ATOM      3  C   UNL     1      63.082 -26.055  -2.732  1.00  0.00     0.000 C 
BRANCH   3   4
ATOM      4  C   UNL     1      61.574 -26.252  -2.946  1.00  0.00     0.000 C 
BRANCH   4   5
ATOM      5  C   UNL     1      60.972 -25.085  -3.746  1.00  0.00     0.000 C 
BRANCH   5   6
ATOM      6  C   UNL     1      60.432 -25.519  -5.118  1.00  0.00     0.000 C 
BRANCH   6   7
ATOM      7  C   UNL     1      59.792 -24.362  -5.904  1.00  0.00     0.000 C 
BRANCH   7   8
ATOM      8  C   UNL     1      59.117 -23.329  -4.976  1.00  0.00     0.000 C 
BRANCH   8   9
ATOM      9  C   UNL     1      57.625 -23.607  -4.721  1.00  0.00     0.000 C 
BRANCH   9  10
ATOM     10  C   UNL     1      56.951 -24.360  -5.881  1.00  0.00     0.006 C 
BRANCH  10  11
ATOM     11  C   UNL     1      55.720 -23.617  -6.419  1.00  0.00     0.053 C 
BRANCH  11  12
ATOM     12  C   UNL     1      56.097 -22.525  -7.372  1.00  0.00     0.041 C 
ATOM     13  O   UNL     1      56.093 -21.324  -6.994  1.00  0.00    -0.550 OA
ATOM     14  O   UNL     1      56.481 -22.838  -8.671  1.00  0.00    -0.550 OA
ENDBRANCH  11  12
ENDBRANCH  10  11
ENDBRANCH   9  10
ENDBRANCH   8   9
ENDBRANCH   7   8
ENDBRANCH   6   7
ENDBRANCH   5   6
ENDBRANCH   4   5
ENDBRANCH   3   4
ENDBRANCH   2   3
ENDBRANCH   1   2
BRANCH   1  15
ATOM     15  C   UNL     1      62.619 -28.937  -0.369  1.00  0.00     0.000 C 
BRANCH  15  16
ATOM     16  C   UNL     1      61.136 -28.930   0.031  1.00  0.00     0.000 C 
BRANCH  16  17
ATOM     17  C   UNL     1      60.240 -29.217  -1.183  1.00  0.00     0.000 C 
BRANCH  17  18
ATOM     18  C   UNL     1      59.028 -28.273  -1.256  1.00  0.00    -0.000 C 
BRANCH  18  19
ATOM     19  C   UNL     1      58.561 -28.025  -2.701  1.00  0.00    -0.000 C 
BRANCH  19  20
ATOM     20  C   UNL     1      57.758 -26.721  -2.843  1.00  0.00    -0.000 C 
BRANCH  20  21
ATOM     21  C   UNL     1      57.967 -25.770  -1.655  1.00  0.00    -0.000 C 
BRANCH  21  22
ATOM     22  C   UNL     1      56.634 -25.159  -1.196  1.00  0.00    -0.000 C 
BRANCH  22  23
ATOM     23  C   UNL     1      55.500 -26.195  -1.119  1.00  0.00    -0.000 C 
BRANCH  23  24
ATOM     24  C   UNL     1      55.538 -27.026   0.175  1.00  0.00    -0.000 C 
BRANCH  24  25
ATOM     25  C   UNL     1      56.539 -26.468   1.203  1.00  0.00    -0.003 C 
ATOM     26  C   UNL     1      57.316 -27.567   1.927  1.00  0.00     0.004 C 
ENDBRANCH  24  25
ENDBRANCH  23  24
ENDBRANCH  22  23
ENDBRANCH  21  22
ENDBRANCH  20  21
ENDBRANCH  19  20
ENDBRANCH  18  19
ENDBRANCH  17  18
ENDBRANCH  16  17
ENDBRANCH  15  16
ENDBRANCH   1  15
TORSDOF 22
ENDMDL
MODEL 5
REMARK VINA RESULT:    -4.605      4.121      7.671
REMARK INTER + INTRA:         -13.550
REMARK INTER:                 -10.338
REMARK INTRA:                  -3.213
REMARK UNBOUND:                -3.022
REMARK SMILES CCCCCCCCCCCCCCCCCCCCCCCC(=O)[O-]
REMARK SMILES IDX 13 1 14 2 15 3 16 4 17 5 18 6 19 7 20 8 21 9 22 10 23 11
REMARK SMILES IDX 24 12 25 13 26 14 12 15 11 16 10 17 9 18 8 19 7 20 6 21 5 22
REMARK SMILES IDX 4 23 3 24 2 25 1 26
REMARK H PARENT
REMARK Flexibility Score: inf
ROOT
ATOM      1  C   UNL     1      62.884 -25.907  -2.708  1.00  0.00     0.000 C 
ENDROOT
BRANCH   1   2
ATOM      2  C   UNL     1      61.593 -25.872  -3.556  1.00  0.00     0.000 C 
BRANCH   2   3
ATOM      3  C   UNL     1      60.289 -25.714  -2.754  1.00  0.00     0.000 C 
BRANCH   3   4
ATOM      4  C   UNL     1      59.257 -26.807  -3.073  1.00  0.00     0.000 C 
BRANCH   4   5
ATOM      5  C   UNL     1      58.493 -26.482  -4.367  1.00  0.00     0.000 C 
BRANCH   5   6
ATOM      6  C   UNL     1      58.056 -25.011  -4.448  1.00  0.00     0.000 C 
BRANCH   6   7
ATOM      7  C   UNL     1      58.565 -24.302  -5.714  1.00  0.00     0.000 C 
BRANCH   7   8
ATOM      8  C   UNL     1      59.132 -25.295  -6.752  1.00  0.00     0.000 C 
BRANCH   8   9
ATOM      9  C   UNL     1      60.627 -25.087  -7.055  1.00  0.00     0.000 C 
BRANCH   9  10
ATOM     10  C   UNL     1      61.095 -25.855  -8.303  1.00  0.00     0.006 C 
BRANCH  10  11
ATOM     11  C   UNL     1      59.947 -26.122  -9.286  1.00  0.00     0.053 C 
BRANCH  11  12
ATOM     12  C   UNL     1      59.760 -27.586  -9.543  1.00  0.00     0.041 C 
ATOM     13  O   UNL     1      58.669 -28.146  -9.253  1.00  0.00    -0.550 OA
ATOM     14  O   UNL     1      60.779 -28.325 -10.130  1.00  0.00    -0.550 OA
ENDBRANCH  11  12
ENDBRANCH  10  11
ENDBRANCH   9  10
ENDBRANCH   8   9
ENDBRANCH   7   8
ENDBRANCH   6   7
ENDBRANCH   5   6
ENDBRANCH   4   5
ENDBRANCH   3   4
ENDBRANCH   2   3
ENDBRANCH   1   2
BRANCH   1  15
ATOM     15  C   UNL     1      63.563 -27.285  -2.611  1.00  0.00     0.000 C 
BRANCH  15  16
ATOM     16  C   UNL     1      63.480 -27.893  -1.203  1.00  0.00     0.000 C 
BRANCH  16  17
ATOM     17  C   UNL     1      62.573 -29.133  -1.195  1.00  0.00     0.000 C 
BRANCH  17  18
ATOM     18  C   UNL     1      61.142 -28.811  -0.733  1.00  0.00    -0.000 C 
BRANCH  18  19
ATOM     19  C   UNL     1      60.914 -29.140   0.753  1.00  0.00    -0.000 C 
BRANCH  19  20
ATOM     20  C   UNL     1      59.430 -29.371   1.082  1.00  0.00    -0.000 C 
BRANCH  20  21
ATOM     21  C   UNL     1      58.661 -30.003  -0.087  1.00  0.00    -0.000 C 
BRANCH  21  22
ATOM     22  C   UNL     1      57.534 -29.076  -0.571  1.00  0.00    -0.000 C 
BRANCH  22  23
ATOM     23  C   UNL     1      57.484 -27.747   0.201  1.00  0.00    -0.000 C 
BRANCH  23  24
ATOM     24  C   UNL     1      56.646 -26.673  -0.514  1.00  0.00    -0.000 C 
BRANCH  24  25
ATOM     25  C   UNL     1      55.841 -27.244  -1.694  1.00  0.00    -0.003 C 
ATOM     26  C   UNL     1      55.117 -26.162  -2.494  1.00  0.00     0.004 C 
ENDBRANCH  24  25
ENDBRANCH  23  24
ENDBRANCH  22  23
ENDBRANCH  21  22
ENDBRANCH  20  21
ENDBRANCH  19  20
ENDBRANCH  18  19
ENDBRANCH  17  18
ENDBRANCH  16  17
ENDBRANCH  15  16
ENDBRANCH   1  15
TORSDOF 22
ENDMDL
MODEL 6
REMARK VINA RESULT:    -4.580      4.571      7.810
REMARK INTER + INTRA:         -13.492
REMARK INTER:                 -10.305
REMARK INTRA:                  -3.186
REMARK UNBOUND:                -3.022
REMARK SMILES CCCCCCCCCCCCCCCCCCCCCCCC(=O)[O-]
REMARK SMILES IDX 13 1 14 2 15 3 16 4 17 5 18 6 19 7 20 8 21 9 22 10 23 11
REMARK SMILES IDX 24 12 25 13 26 14 12 15 11 16 10 17 9 18 8 19 7 20 6 21 5 22
REMARK SMILES IDX 4 23 3 24 2 25 1 26
REMARK H PARENT
REMARK Flexibility Score: inf
ROOT
ATOM      1  C   UNL     1      63.253 -27.459  -2.373  1.00  0.00     0.000 C 
ENDROOT
BRANCH   1   2
ATOM      2  C   UNL     1      62.991 -26.041  -2.925  1.00  0.00     0.000 C 
BRANCH   2   3
ATOM      3  C   UNL     1      61.507 -25.681  -3.125  1.00  0.00     0.000 C 
BRANCH   3   4
ATOM      4  C   UNL     1      61.272 -24.789  -4.353  1.00  0.00     0.000 C 
BRANCH   4   5
ATOM      5  C   UNL     1      60.433 -25.520  -5.414  1.00  0.00     0.000 C 
BRANCH   5   6
ATOM      6  C   UNL     1      59.442 -24.592  -6.134  1.00  0.00     0.000 C 
BRANCH   6   7
ATOM      7  C   UNL     1      58.809 -23.548  -5.199  1.00  0.00     0.000 C 
BRANCH   7   8
ATOM      8  C   UNL     1      57.273 -23.486  -5.347  1.00  0.00     0.000 C 
BRANCH   8   9
ATOM      9  C   UNL     1      56.777 -23.782  -6.774  1.00  0.00     0.000 C 
BRANCH   9  10
ATOM     10  C   UNL     1      55.986 -22.614  -7.386  1.00  0.00     0.006 C 
BRANCH  10  11
ATOM     11  C   UNL     1      56.099 -21.333  -6.547  1.00  0.00     0.053 C 
BRANCH  11  12
ATOM     12  C   UNL     1      54.755 -20.750  -6.233  1.00  0.00     0.041 C 
ATOM     13  O   UNL     1      53.706 -21.391  -6.505  1.00  0.00    -0.550 OA
ATOM     14  O   UNL     1      54.663 -19.511  -5.611  1.00  0.00    -0.550 OA
ENDBRANCH  11  12
ENDBRANCH  10  11
ENDBRANCH   9  10
ENDBRANCH   8   9
ENDBRANCH   7   8
ENDBRANCH   6   7
ENDBRANCH   5   6
ENDBRANCH   4   5
ENDBRANCH   3   4
ENDBRANCH   2   3
ENDBRANCH   1   2
BRANCH   1  15
ATOM     15  C   UNL     1      62.011 -28.186  -1.826  1.00  0.00     0.000 C 
BRANCH  15  16
ATOM     16  C   UNL     1      62.323 -29.063  -0.604  1.00  0.00     0.000 C 
BRANCH  16  17
ATOM     17  C   UNL     1      61.093 -29.186   0.309  1.00  0.00     0.000 C 
BRANCH  17  18
ATOM     18  C   UNL     1      59.771 -29.115  -0.473  1.00  0.00    -0.000 C 
BRANCH  18  19
ATOM     19  C   UNL     1      58.618 -29.831   0.253  1.00  0.00    -0.000 C 
BRANCH  19  20
ATOM     20  C   UNL     1      57.249 -29.205  -0.061  1.00  0.00    -0.000 C 
BRANCH  20  21
ATOM     21  C   UNL     1      57.092 -27.802   0.545  1.00  0.00    -0.000 C 
BRANCH  21  22
ATOM     22  C   UNL     1      56.289 -26.885  -0.392  1.00  0.00    -0.000 C 
BRANCH  22  23
ATOM     23  C   UNL     1      57.039 -25.591  -0.745  1.00  0.00    -0.000 C 
BRANCH  23  24
ATOM     24  C   UNL     1      58.126 -25.803  -1.813  1.00  0.00    -0.000 C 
BRANCH  24  25
ATOM     25  C   UNL     1      57.585 -26.508  -3.070  1.00  0.00    -0.003 C 
ATOM     26  C   UNL     1      58.411 -27.732  -3.463  1.00  0.00     0.004 C 
ENDBRANCH  24  25
ENDBRANCH  23  24
ENDBRANCH  22  23
ENDBRANCH  21  22
ENDBRANCH  20  21
ENDBRANCH  19  20
ENDBRANCH  18  19
ENDBRANCH  17  18
ENDBRANCH  16  17
ENDBRANCH  15  16
ENDBRANCH   1  15
TORSDOF 22
ENDMDL
MODEL 7
REMARK VINA RESULT:    -4.572      1.287      2.641
REMARK INTER + INTRA:         -13.473
REMARK INTER:                  -9.996
REMARK INTRA:                  -3.477
REMARK UNBOUND:                -3.022
REMARK SMILES CCCCCCCCCCCCCCCCCCCCCCCC(=O)[O-]
REMARK SMILES IDX 13 1 14 2 15 3 16 4 17 5 18 6 19 7 20 8 21 9 22 10 23 11
REMARK SMILES IDX 24 12 25 13 26 14 12 15 11 16 10 17 9 18 8 19 7 20 6 21 5 22
REMARK SMILES IDX 4 23 3 24 2 25 1 26
REMARK H PARENT
REMARK Flexibility Score: inf
ROOT
ATOM      1  C   UNL     1      63.650 -27.193  -1.643  1.00  0.00     0.000 C 
ENDROOT
BRANCH   1   2
ATOM      2  C   UNL     1      63.474 -28.726  -1.607  1.00  0.00     0.000 C 
BRANCH   2   3
ATOM      3  C   UNL     1      62.403 -29.239  -0.627  1.00  0.00     0.000 C 
BRANCH   3   4
ATOM      4  C   UNL     1      60.977 -28.857  -1.050  1.00  0.00     0.000 C 
BRANCH   4   5
ATOM      5  C   UNL     1      59.932 -29.562  -0.170  1.00  0.00     0.000 C 
BRANCH   5   6
ATOM      6  C   UNL     1      59.719 -28.861   1.180  1.00  0.00     0.000 C 
BRANCH   6   7
ATOM      7  C   UNL     1      58.320 -29.106   1.771  1.00  0.00     0.000 C 
BRANCH   7   8
ATOM      8  C   UNL     1      57.417 -29.915   0.814  1.00  0.00     0.000 C 
BRANCH   8   9
ATOM      9  C   UNL     1      55.934 -29.507   0.870  1.00  0.00     0.000 C 
BRANCH   9  10
ATOM     10  C   UNL     1      55.207 -30.063   2.106  1.00  0.00     0.006 C 
BRANCH  10  11
ATOM     11  C   UNL     1      54.654 -31.474   1.869  1.00  0.00     0.053 C 
BRANCH  11  12
ATOM     12  C   UNL     1      53.193 -31.454   1.537  1.00  0.00     0.041 C 
ATOM     13  O   UNL     1      52.542 -30.379   1.608  1.00  0.00    -0.550 OA
ATOM     14  O   UNL     1      52.558 -32.618   1.121  1.00  0.00    -0.550 OA
ENDBRANCH  11  12
ENDBRANCH  10  11
ENDBRANCH   9  10
ENDBRANCH   8   9
ENDBRANCH   7   8
ENDBRANCH   6   7
ENDBRANCH   5   6
ENDBRANCH   4   5
ENDBRANCH   3   4
ENDBRANCH   2   3
ENDBRANCH   1   2
BRANCH   1  15
ATOM     15  C   UNL     1      63.199 -26.515  -2.950  1.00  0.00     0.000 C 
BRANCH  15  16
ATOM     16  C   UNL     1      61.929 -25.669  -2.775  1.00  0.00     0.000 C 
BRANCH  16  17
ATOM     17  C   UNL     1      60.817 -26.148  -3.721  1.00  0.00     0.000 C 
BRANCH  17  18
ATOM     18  C   UNL     1      59.419 -26.028  -3.092  1.00  0.00    -0.000 C 
BRANCH  18  19
ATOM     19  C   UNL     1      58.514 -27.225  -3.434  1.00  0.00    -0.000 C 
BRANCH  19  20
ATOM     20  C   UNL     1      57.654 -27.671  -2.240  1.00  0.00    -0.000 C 
BRANCH  20  21
ATOM     21  C   UNL     1      57.698 -26.668  -1.077  1.00  0.00    -0.000 C 
BRANCH  21  22
ATOM     22  C   UNL     1      56.289 -26.159  -0.736  1.00  0.00    -0.000 C 
BRANCH  22  23
ATOM     23  C   UNL     1      55.925 -24.868  -1.486  1.00  0.00    -0.000 C 
BRANCH  23  24
ATOM     24  C   UNL     1      54.809 -25.076  -2.525  1.00  0.00    -0.000 C 
BRANCH  24  25
ATOM     25  C   UNL     1      55.318 -24.936  -3.970  1.00  0.00    -0.003 C 
ATOM     26  C   UNL     1      56.564 -24.056  -4.076  1.00  0.00     0.004 C 
ENDBRANCH  24  25
ENDBRANCH  23  24
ENDBRANCH  22  23
ENDBRANCH  21  22
ENDBRANCH  20  21
ENDBRANCH  19  20
ENDBRANCH  18  19
ENDBRANCH  17  18
ENDBRANCH  16  17
ENDBRANCH  15  16
ENDBRANCH   1  15
TORSDOF 22
ENDMDL
MODEL 8
REMARK VINA RESULT:    -4.538      2.528      3.886
REMARK INTER + INTRA:         -13.395
REMARK INTER:                 -10.286
REMARK INTRA:                  -3.109
REMARK UNBOUND:                -3.022
REMARK SMILES CCCCCCCCCCCCCCCCCCCCCCCC(=O)[O-]
REMARK SMILES IDX 13 1 14 2 15 3 16 4 17 5 18 6 19 7 20 8 21 9 22 10 23 11
REMARK SMILES IDX 24 12 25 13 26 14 12 15 11 16 10 17 9 18 8 19 7 20 6 21 5 22
REMARK SMILES IDX 4 23 3 24 2 25 1 26
REMARK H PARENT
REMARK Flexibility Score: inf
ROOT
ATOM      1  C   UNL     1      61.565 -29.140  -0.094  1.00  0.00     0.000 C 
ENDROOT
BRANCH   1   2
ATOM      2  C   UNL     1      60.586 -28.850  -1.253  1.00  0.00     0.000 C 
BRANCH   2   3
ATOM      3  C   UNL     1      59.110 -28.697  -0.840  1.00  0.00     0.000 C 
BRANCH   3   4
ATOM      4  C   UNL     1      58.555 -29.949  -0.143  1.00  0.00     0.000 C 
BRANCH   4   5
ATOM      5  C   UNL     1      57.547 -29.568   0.953  1.00  0.00     0.000 C 
BRANCH   5   6
ATOM      6  C   UNL     1      57.933 -28.280   1.696  1.00  0.00     0.000 C 
BRANCH   6   7
ATOM      7  C   UNL     1      58.165 -28.501   3.201  1.00  0.00     0.000 C 
BRANCH   7   8
ATOM      8  C   UNL     1      59.666 -28.554   3.558  1.00  0.00     0.000 C 
BRANCH   8   9
ATOM      9  C   UNL     1      60.329 -29.908   3.247  1.00  0.00     0.000 C 
BRANCH   9  10
ATOM     10  C   UNL     1      60.352 -30.854   4.460  1.00  0.00     0.006 C 
BRANCH  10  11
ATOM     11  C   UNL     1      60.495 -30.095   5.786  1.00  0.00     0.053 C 
BRANCH  11  12
ATOM     12  C   UNL     1      59.380 -30.413   6.735  1.00  0.00     0.041 C 
ATOM     13  O   UNL     1      59.567 -30.343   7.979  1.00  0.00    -0.550 OA
ATOM     14  O   UNL     1      58.127 -30.759   6.246  1.00  0.00    -0.550 OA
ENDBRANCH  11  12
ENDBRANCH  10  11
ENDBRANCH   9  10
ENDBRANCH   8   9
ENDBRANCH   7   8
ENDBRANCH   6   7
ENDBRANCH   5   6
ENDBRANCH   4   5
ENDBRANCH   3   4
ENDBRANCH   2   3
ENDBRANCH   1   2
BRANCH   1  15
ATOM     15  C   UNL     1      63.047 -28.877  -0.412  1.00  0.00     0.000 C 
BRANCH  15  16
ATOM     16  C   UNL     1      63.280 -28.462  -1.873  1.00  0.00     0.000 C 
BRANCH  16  17
ATOM     17  C   UNL     1      63.768 -27.008  -1.958  1.00  0.00     0.000 C 
BRANCH  17  18
ATOM     18  C   UNL     1      63.101 -26.231  -3.106  1.00  0.00    -0.000 C 
BRANCH  18  19
ATOM     19  C   UNL     1      61.704 -25.707  -2.729  1.00  0.00    -0.000 C 
BRANCH  19  20
ATOM     20  C   UNL     1      60.792 -25.535  -3.955  1.00  0.00    -0.000 C 
BRANCH  20  21
ATOM     21  C   UNL     1      59.596 -26.499  -3.937  1.00  0.00    -0.000 C 
BRANCH  21  22
ATOM     22  C   UNL     1      58.269 -25.732  -4.053  1.00  0.00    -0.000 C 
BRANCH  22  23
ATOM     23  C   UNL     1      57.297 -26.048  -2.904  1.00  0.00    -0.000 C 
BRANCH  23  24
ATOM     24  C   UNL     1      57.713 -25.395  -1.574  1.00  0.00    -0.000 C 
BRANCH  24  25
ATOM     25  C   UNL     1      56.503 -24.982  -0.718  1.00  0.00    -0.003 C 
ATOM     26  C   UNL     1      55.699 -26.180  -0.213  1.00  0.00     0.004 C 
ENDBRANCH  24  25
ENDBRANCH  23  24
ENDBRANCH  22  23
ENDBRANCH  21  22
ENDBRANCH  20  21
ENDBRANCH  19  20
ENDBRANCH  18  19
ENDBRANCH  17  18
ENDBRANCH  16  17
ENDBRANCH  15  16
ENDBRANCH   1  15
TORSDOF 22
ENDMDL
MODEL 9
REMARK VINA RESULT:    -4.526      2.027      3.948
REMARK INTER + INTRA:         -13.370
REMARK INTER:                  -9.714
REMARK INTRA:                  -3.656
REMARK UNBOUND:                -3.022
REMARK SMILES CCCCCCCCCCCCCCCCCCCCCCCC(=O)[O-]
REMARK SMILES IDX 13 1 14 2 15 3 16 4 17 5 18 6 19 7 20 8 21 9 22 10 23 11
REMARK SMILES IDX 24 12 25 13 26 14 12 15 11 16 10 17 9 18 8 19 7 20 6 21 5 22
REMARK SMILES IDX 4 23 3 24 2 25 1 26
REMARK H PARENT
REMARK Flexibility Score: inf
ROOT
ATOM      1  C   UNL     1      62.795 -25.747  -3.096  1.00  0.00     0.000 C 
ENDROOT
BRANCH   1   2
ATOM      2  C   UNL     1      63.695 -26.776  -2.379  1.00  0.00     0.000 C 
BRANCH   2   3
ATOM      3  C   UNL     1      63.028 -28.131  -2.079  1.00  0.00     0.000 C 
BRANCH   3   4
ATOM      4  C   UNL     1      63.205 -28.572  -0.618  1.00  0.00     0.000 C 
BRANCH   4   5
ATOM      5  C   UNL     1      61.930 -29.246  -0.087  1.00  0.00     0.000 C 
BRANCH   5   6
ATOM      6  C   UNL     1      60.661 -28.781  -0.818  1.00  0.00     0.000 C 
BRANCH   6   7
ATOM      7  C   UNL     1      59.428 -29.638  -0.485  1.00  0.00     0.000 C 
BRANCH   7   8
ATOM      8  C   UNL     1      58.685 -29.128   0.769  1.00  0.00     0.000 C 
BRANCH   8   9
ATOM      9  C   UNL     1      57.806 -27.891   0.508  1.00  0.00     0.000 C 
BRANCH   9  10
ATOM     10  C   UNL     1      56.306 -28.225   0.454  1.00  0.00     0.006 C 
BRANCH  10  11
ATOM     11  C   UNL     1      55.905 -28.888  -0.870  1.00  0.00     0.053 C 
BRANCH  11  12
ATOM     12  C   UNL     1      54.422 -28.864  -1.082  1.00  0.00     0.041 C 
ATOM     13  O   UNL     1      53.900 -29.561  -1.992  1.00  0.00    -0.550 OA
ATOM     14  O   UNL     1      53.614 -28.093  -0.256  1.00  0.00    -0.550 OA
ENDBRANCH  11  12
ENDBRANCH  10  11
ENDBRANCH   9  10
ENDBRANCH   8   9
ENDBRANCH   7   8
ENDBRANCH   6   7
ENDBRANCH   5   6
ENDBRANCH   4   5
ENDBRANCH   3   4
ENDBRANCH   2   3
ENDBRANCH   1   2
BRANCH   1  15
ATOM     15  C   UNL     1      61.334 -26.187  -3.299  1.00  0.00     0.000 C 
BRANCH  15  16
ATOM     16  C   UNL     1      60.322 -25.132  -2.828  1.00  0.00     0.000 C 
BRANCH  16  17
ATOM     17  C   UNL     1      59.118 -25.796  -2.142  1.00  0.00     0.000 C 
BRANCH  17  18
ATOM     18  C   UNL     1      58.393 -26.794  -3.062  1.00  0.00    -0.000 C 
BRANCH  18  19
ATOM     19  C   UNL     1      56.918 -26.420  -3.290  1.00  0.00    -0.000 C 
BRANCH  19  20
ATOM     20  C   UNL     1      56.484 -25.205  -2.454  1.00  0.00    -0.000 C 
BRANCH  20  21
ATOM     21  C   UNL     1      56.045 -24.019  -3.326  1.00  0.00    -0.000 C 
BRANCH  21  22
ATOM     22  C   UNL     1      56.342 -24.287  -4.810  1.00  0.00    -0.000 C 
BRANCH  22  23
ATOM     23  C   UNL     1      57.726 -23.775  -5.241  1.00  0.00    -0.000 C 
BRANCH  23  24
ATOM     24  C   UNL     1      58.201 -24.389  -6.570  1.00  0.00    -0.000 C 
BRANCH  24  25
ATOM     25  C   UNL     1      59.341 -25.404  -6.373  1.00  0.00    -0.003 C 
ATOM     26  C   UNL     1      60.717 -24.815  -6.686  1.00  0.00     0.004 C 
ENDBRANCH  24  25
ENDBRANCH  23  24
ENDBRANCH  22  23
ENDBRANCH  21  22
ENDBRANCH  20  21
ENDBRANCH  19  20
ENDBRANCH  18  19
ENDBRANCH  17  18
ENDBRANCH  16  17
ENDBRANCH  15  16
ENDBRANCH   1  15
TORSDOF 22
ENDMDL
