MODEL 1
REMARK VINA RESULT:    -4.196      0.000      0.000
REMARK INTER + INTRA:          -5.535
REMARK INTER:                  -5.054
REMARK INTRA:                  -0.481
REMARK UNBOUND:                -0.481
REMARK SMILES NC(=O)C[C@@H]([NH3+])C(=O)[O-]
REMARK SMILES IDX 4 1 5 2 6 3 7 7 8 8 9 9 2 10 3 11 1 12
REMARK H PARENT 6 4 6 5 6 6 1 13 1 14
REMARK Flexibility Score: inf
ROOT
ATOM      1  C   UNL     1     -34.759  -4.220  -7.564  1.00  0.00     0.171 C 
ENDROOT
BRANCH   1   2
ATOM      2  C   UNL     1     -34.007  -5.025  -8.641  1.00  0.00     0.237 C 
BRANCH   2   3
ATOM      3  N   UNL     1     -33.203  -6.086  -8.021  1.00  0.00    -0.350 N 
ATOM      4  H   UNL     1     -32.905  -6.777  -8.748  1.00  0.00     0.345 HD
ATOM      5  H   UNL     1     -32.344  -5.674  -7.590  1.00  0.00     0.345 HD
ATOM      6  H   UNL     1     -33.753  -6.581  -7.280  1.00  0.00     0.345 HD
ENDBRANCH   2   3
BRANCH   2   7
ATOM      7  C   UNL     1     -34.968  -5.621  -9.638  1.00  0.00     0.100 C 
ATOM      8  O   UNL     1     -34.542  -6.073 -10.733  1.00  0.00    -0.544 OA
ATOM      9  O   UNL     1     -36.329  -5.662  -9.361  1.00  0.00    -0.544 OA
ENDBRANCH   2   7
ENDBRANCH   1   2
BRANCH   1  10
ATOM     10  C   UNL     1     -35.048  -5.055  -6.350  1.00  0.00     0.223 C 
ATOM     11  O   UNL     1     -34.187  -5.147  -5.434  1.00  0.00    -0.275 OA
ATOM     12  N   UNL     1     -36.306  -5.715  -6.207  1.00  0.00    -0.369 N 
ATOM     13  H   UNL     1     -36.509  -6.282  -5.355  1.00  0.00     0.159 HD
ATOM     14  H   UNL     1     -37.038  -5.634  -6.947  1.00  0.00     0.159 HD
ENDBRANCH   1  10
TORSDOF 4
ENDMDL
MODEL 2
REMARK VINA RESULT:    -4.162      1.793      1.940
REMARK INTER + INTRA:          -5.495
REMARK INTER:                  -4.999
REMARK INTRA:                  -0.495
REMARK UNBOUND:                -0.481
REMARK SMILES NC(=O)C[C@@H]([NH3+])C(=O)[O-]
REMARK SMILES IDX 4 1 5 2 6 3 7 7 8 8 9 9 2 10 3 11 1 12
REMARK H PARENT 6 4 6 5 6 6 1 13 1 14
REMARK Flexibility Score: inf
ROOT
ATOM      1  C   UNL     1     -33.709  -5.258  -7.477  1.00  0.00     0.171 C 
ENDROOT
BRANCH   1   2
ATOM      2  C   UNL     1     -34.634  -5.757  -8.604  1.00  0.00     0.237 C 
BRANCH   2   3
ATOM      3  N   UNL     1     -36.035  -5.736  -8.164  1.00  0.00    -0.350 N 
ATOM      4  H   UNL     1     -36.132  -5.133  -7.315  1.00  0.00     0.345 HD
ATOM      5  H   UNL     1     -36.637  -5.337  -8.920  1.00  0.00     0.345 HD
ATOM      6  H   UNL     1     -36.366  -6.704  -7.940  1.00  0.00     0.345 HD
ENDBRANCH   2   3
BRANCH   2   7
ATOM      7  C   UNL     1     -34.471  -4.919  -9.846  1.00  0.00     0.100 C 
ATOM      8  O   UNL     1     -34.090  -5.452 -10.922  1.00  0.00    -0.544 OA
ATOM      9  O   UNL     1     -34.726  -3.554  -9.810  1.00  0.00    -0.544 OA
ENDBRANCH   2   7
ENDBRANCH   1   2
BRANCH   1  10
ATOM     10  C   UNL     1     -34.424  -4.319  -6.548  1.00  0.00     0.223 C 
ATOM     11  O   UNL     1     -35.082  -4.780  -5.577  1.00  0.00    -0.275 OA
ATOM     12  N   UNL     1     -34.334  -2.906  -6.734  1.00  0.00    -0.369 N 
ATOM     13  H   UNL     1     -34.820  -2.257  -6.077  1.00  0.00     0.159 HD
ATOM     14  H   UNL     1     -33.777  -2.507  -7.522  1.00  0.00     0.159 HD
ENDBRANCH   1  10
TORSDOF 4
ENDMDL
MODEL 3
REMARK VINA RESULT:    -4.065      1.751      3.386
REMARK INTER + INTRA:          -5.378
REMARK INTER:                  -4.980
REMARK INTRA:                  -0.397
REMARK UNBOUND:                -0.481
REMARK SMILES NC(=O)C[C@@H]([NH3+])C(=O)[O-]
REMARK SMILES IDX 4 1 5 2 6 3 7 7 8 8 9 9 2 10 3 11 1 12
REMARK H PARENT 6 4 6 5 6 6 1 13 1 14
REMARK Flexibility Score: inf
ROOT
ATOM      1  C   UNL     1     -34.061  -3.899  -8.222  1.00  0.00     0.171 C 
ENDROOT
BRANCH   1   2
ATOM      2  C   UNL     1     -35.563  -3.949  -7.882  1.00  0.00     0.237 C 
BRANCH   2   3
ATOM      3  N   UNL     1     -36.337  -4.405  -9.043  1.00  0.00    -0.350 N 
ATOM      4  H   UNL     1     -37.258  -3.910  -9.072  1.00  0.00     0.345 HD
ATOM      5  H   UNL     1     -35.818  -4.183  -9.923  1.00  0.00     0.345 HD
ATOM      6  H   UNL     1     -36.502  -5.438  -8.995  1.00  0.00     0.345 HD
ENDBRANCH   2   3
BRANCH   2   7
ATOM      7  C   UNL     1     -35.819  -4.855  -6.704  1.00  0.00     0.100 C 
ATOM      8  O   UNL     1     -36.643  -5.802  -6.802  1.00  0.00    -0.544 OA
ATOM      9  O   UNL     1     -35.159  -4.642  -5.500  1.00  0.00    -0.544 OA
ENDBRANCH   2   7
ENDBRANCH   1   2
BRANCH   1  10
ATOM     10  C   UNL     1     -33.466  -5.276  -8.305  1.00  0.00     0.223 C 
ATOM     11  O   UNL     1     -33.691  -5.994  -9.315  1.00  0.00    -0.275 OA
ATOM     12  N   UNL     1     -32.615  -5.761  -7.267  1.00  0.00    -0.369 N 
ATOM     13  H   UNL     1     -32.191  -6.713  -7.336  1.00  0.00     0.159 HD
ATOM     14  H   UNL     1     -32.402  -5.171  -6.432  1.00  0.00     0.159 HD
ENDBRANCH   1  10
TORSDOF 4
ENDMDL
MODEL 4
REMARK VINA RESULT:    -4.052      2.209      3.179
REMARK INTER + INTRA:          -5.363
REMARK INTER:                  -5.110
REMARK INTRA:                  -0.252
REMARK UNBOUND:                -0.481
REMARK SMILES NC(=O)C[C@@H]([NH3+])C(=O)[O-]
REMARK SMILES IDX 4 1 5 2 6 3 7 7 8 8 9 9 2 10 3 11 1 12
REMARK H PARENT 6 4 6 5 6 6 1 13 1 14
REMARK Flexibility Score: inf
ROOT
ATOM      1  C   UNL     1     -34.297  -5.091  -8.994  1.00  0.00     0.171 C 
ENDROOT
BRANCH   1   2
ATOM      2  C   UNL     1     -34.174  -5.707  -7.587  1.00  0.00     0.237 C 
BRANCH   2   3
ATOM      3  N   UNL     1     -32.876  -5.370  -6.991  1.00  0.00    -0.350 N 
ATOM      4  H   UNL     1     -32.272  -6.223  -6.946  1.00  0.00     0.345 HD
ATOM      5  H   UNL     1     -32.389  -4.656  -7.582  1.00  0.00     0.345 HD
ATOM      6  H   UNL     1     -33.001  -4.985  -6.026  1.00  0.00     0.345 HD
ENDBRANCH   2   3
BRANCH   2   7
ATOM      7  C   UNL     1     -35.291  -5.235  -6.692  1.00  0.00     0.100 C 
ATOM      8  O   UNL     1     -35.028  -4.625  -5.622  1.00  0.00    -0.544 OA
ATOM      9  O   UNL     1     -36.615  -5.481  -7.034  1.00  0.00    -0.544 OA
ENDBRANCH   2   7
ENDBRANCH   1   2
BRANCH   1  10
ATOM     10  C   UNL     1     -34.556  -3.612  -8.930  1.00  0.00     0.223 C 
ATOM     11  O   UNL     1     -33.771  -2.868  -8.284  1.00  0.00    -0.275 OA
ATOM     12  N   UNL     1     -35.662  -3.039  -9.627  1.00  0.00    -0.369 N 
ATOM     13  H   UNL     1     -35.830  -2.009  -9.592  1.00  0.00     0.159 HD
ATOM     14  H   UNL     1     -36.311  -3.639 -10.183  1.00  0.00     0.159 HD
ENDBRANCH   1  10
TORSDOF 4
ENDMDL
MODEL 5
REMARK VINA RESULT:    -3.985     12.868     14.106
REMARK INTER + INTRA:          -5.281
REMARK INTER:                  -4.783
REMARK INTRA:                  -0.499
REMARK UNBOUND:                -0.481
REMARK SMILES NC(=O)C[C@@H]([NH3+])C(=O)[O-]
REMARK SMILES IDX 4 1 5 2 6 3 7 7 8 8 9 9 2 10 3 11 1 12
REMARK H PARENT 6 4 6 5 6 6 1 13 1 14
REMARK Flexibility Score: inf
ROOT
ATOM      1  C   UNL     1     -25.890   1.814  -0.974  1.00  0.00     0.171 C 
ENDROOT
BRANCH   1   2
ATOM      2  C   UNL     1     -24.846   2.944  -1.066  1.00  0.00     0.237 C 
BRANCH   2   3
ATOM      3  N   UNL     1     -23.968   2.739  -2.225  1.00  0.00    -0.350 N 
ATOM      4  H   UNL     1     -23.004   3.078  -2.004  1.00  0.00     0.345 HD
ATOM      5  H   UNL     1     -23.912   1.719  -2.450  1.00  0.00     0.345 HD
ATOM      6  H   UNL     1     -24.332   3.254  -3.060  1.00  0.00     0.345 HD
ENDBRANCH   2   3
BRANCH   2   7
ATOM      7  C   UNL     1     -25.517   4.290  -1.159  1.00  0.00     0.100 C 
ATOM      8  O   UNL     1     -26.020   4.672  -2.249  1.00  0.00    -0.544 OA
ATOM      9  O   UNL     1     -25.573   5.124  -0.049  1.00  0.00    -0.544 OA
ENDBRANCH   2   7
ENDBRANCH   1   2
BRANCH   1  10
ATOM     10  C   UNL     1     -26.208   1.243  -2.327  1.00  0.00     0.223 C 
ATOM     11  O   UNL     1     -25.591   0.224  -2.736  1.00  0.00    -0.275 OA
ATOM     12  N   UNL     1     -27.231   1.824  -3.136  1.00  0.00    -0.369 N 
ATOM     13  H   UNL     1     -27.460   1.415  -4.069  1.00  0.00     0.159 HD
ATOM     14  H   UNL     1     -27.765   2.657  -2.803  1.00  0.00     0.159 HD
ENDBRANCH   1  10
TORSDOF 4
ENDMDL
MODEL 6
REMARK VINA RESULT:    -3.946      1.911      2.344
REMARK INTER + INTRA:          -5.235
REMARK INTER:                  -4.791
REMARK INTRA:                  -0.445
REMARK UNBOUND:                -0.481
REMARK SMILES NC(=O)C[C@@H]([NH3+])C(=O)[O-]
REMARK SMILES IDX 4 1 5 2 6 3 7 7 8 8 9 9 2 10 3 11 1 12
REMARK H PARENT 6 4 6 5 6 6 1 13 1 14
REMARK Flexibility Score: inf
ROOT
ATOM      1  C   UNL     1     -35.567  -4.773  -7.766  1.00  0.00     0.171 C 
ENDROOT
BRANCH   1   2
ATOM      2  C   UNL     1     -35.177  -3.430  -8.412  1.00  0.00     0.237 C 
BRANCH   2   3
ATOM      3  N   UNL     1     -34.057  -2.818  -7.687  1.00  0.00    -0.350 N 
ATOM      4  H   UNL     1     -33.490  -3.561  -7.216  1.00  0.00     0.345 HD
ATOM      5  H   UNL     1     -33.436  -2.309  -8.358  1.00  0.00     0.345 HD
ATOM      6  H   UNL     1     -34.407  -2.143  -6.967  1.00  0.00     0.345 HD
ENDBRANCH   2   3
BRANCH   2   7
ATOM      7  C   UNL     1     -34.813  -3.615  -9.863  1.00  0.00     0.100 C 
ATOM      8  O   UNL     1     -34.896  -2.646 -10.663  1.00  0.00    -0.544 OA
ATOM      9  O   UNL     1     -34.398  -4.856 -10.329  1.00  0.00    -0.544 OA
ENDBRANCH   2   7
ENDBRANCH   1   2
BRANCH   1  10
ATOM     10  C   UNL     1     -34.427  -5.363  -6.985  1.00  0.00     0.223 C 
ATOM     11  O   UNL     1     -34.396  -5.234  -5.732  1.00  0.00    -0.275 OA
ATOM     12  N   UNL     1     -33.401  -6.102  -7.646  1.00  0.00    -0.369 N 
ATOM     13  H   UNL     1     -32.619  -6.524  -7.098  1.00  0.00     0.159 HD
ATOM     14  H   UNL     1     -33.422  -6.236  -8.681  1.00  0.00     0.159 HD
ENDBRANCH   1  10
TORSDOF 4
ENDMDL
MODEL 7
REMARK VINA RESULT:    -3.925      2.120      3.966
REMARK INTER + INTRA:          -5.209
REMARK INTER:                  -4.974
REMARK INTRA:                  -0.235
REMARK UNBOUND:                -0.481
REMARK SMILES NC(=O)C[C@@H]([NH3+])C(=O)[O-]
REMARK SMILES IDX 4 1 5 2 6 3 7 7 8 8 9 9 2 10 3 11 1 12
REMARK H PARENT 6 4 6 5 6 6 1 13 1 14
REMARK Flexibility Score: inf
ROOT
ATOM      1  C   UNL     1     -35.989  -5.345  -8.552  1.00  0.00     0.171 C 
ENDROOT
BRANCH   1   2
ATOM      2  C   UNL     1     -35.990  -4.753  -7.130  1.00  0.00     0.237 C 
BRANCH   2   3
ATOM      3  N   UNL     1     -36.198  -5.811  -6.133  1.00  0.00    -0.350 N 
ATOM      4  H   UNL     1     -35.328  -6.382  -6.034  1.00  0.00     0.345 HD
ATOM      5  H   UNL     1     -36.417  -5.384  -5.204  1.00  0.00     0.345 HD
ATOM      6  H   UNL     1     -36.990  -6.435  -6.417  1.00  0.00     0.345 HD
ENDBRANCH   2   3
BRANCH   2   7
ATOM      7  C   UNL     1     -34.700  -4.026  -6.848  1.00  0.00     0.100 C 
ATOM      8  O   UNL     1     -34.581  -2.809  -7.150  1.00  0.00    -0.544 OA
ATOM      9  O   UNL     1     -33.630  -4.695  -6.267  1.00  0.00    -0.544 OA
ENDBRANCH   2   7
ENDBRANCH   1   2
BRANCH   1  10
ATOM     10  C   UNL     1     -36.559  -4.381  -9.554  1.00  0.00     0.223 C 
ATOM     11  O   UNL     1     -37.760  -4.492  -9.916  1.00  0.00    -0.275 OA
ATOM     12  N   UNL     1     -35.760  -3.316 -10.069  1.00  0.00    -0.369 N 
ATOM     13  H   UNL     1     -36.164  -2.638 -10.752  1.00  0.00     0.159 HD
ATOM     14  H   UNL     1     -34.768  -3.197  -9.764  1.00  0.00     0.159 HD
ENDBRANCH   1  10
TORSDOF 4
ENDMDL
MODEL 8
REMARK VINA RESULT:    -3.880     11.653     12.829
REMARK INTER + INTRA:          -5.156
REMARK INTER:                  -4.671
REMARK INTRA:                  -0.484
REMARK UNBOUND:                -0.481
REMARK SMILES NC(=O)C[C@@H]([NH3+])C(=O)[O-]
REMARK SMILES IDX 4 1 5 2 6 3 7 7 8 8 9 9 2 10 3 11 1 12
REMARK H PARENT 6 4 6 5 6 6 1 13 1 14
REMARK Flexibility Score: inf
ROOT
ATOM      1  C   UNL     1     -26.058   1.810  -1.011  1.00  0.00     0.171 C 
ENDROOT
BRANCH   1   2
ATOM      2  C   UNL     1     -26.971   0.934  -1.890  1.00  0.00     0.237 C 
BRANCH   2   3
ATOM      3  N   UNL     1     -27.259   1.608  -3.162  1.00  0.00    -0.350 N 
ATOM      4  H   UNL     1     -27.906   2.414  -2.998  1.00  0.00     0.345 HD
ATOM      5  H   UNL     1     -26.373   1.978  -3.576  1.00  0.00     0.345 HD
ATOM      6  H   UNL     1     -27.701   0.944  -3.841  1.00  0.00     0.345 HD
ENDBRANCH   2   3
BRANCH   2   7
ATOM      7  C   UNL     1     -26.339  -0.410  -2.151  1.00  0.00     0.100 C 
ATOM      8  O   UNL     1     -25.186  -0.479  -2.653  1.00  0.00    -0.544 OA
ATOM      9  O   UNL     1     -27.028  -1.579  -1.852  1.00  0.00    -0.544 OA
ENDBRANCH   2   7
ENDBRANCH   1   2
BRANCH   1  10
ATOM     10  C   UNL     1     -25.295   2.812  -1.830  1.00  0.00     0.223 C 
ATOM     11  O   UNL     1     -25.799   3.943  -2.064  1.00  0.00    -0.275 OA
ATOM     12  N   UNL     1     -23.988   2.506  -2.315  1.00  0.00    -0.369 N 
ATOM     13  H   UNL     1     -23.454   3.210  -2.871  1.00  0.00     0.159 HD
ATOM     14  H   UNL     1     -23.548   1.581  -2.114  1.00  0.00     0.159 HD
ENDBRANCH   1  10
TORSDOF 4
ENDMDL
MODEL 9
REMARK VINA RESULT:    -3.806      2.308      3.659
REMARK INTER + INTRA:          -5.066
REMARK INTER:                  -4.578
REMARK INTRA:                  -0.488
REMARK UNBOUND:                -0.481
REMARK SMILES NC(=O)C[C@@H]([NH3+])C(=O)[O-]
REMARK SMILES IDX 4 1 5 2 6 3 7 7 8 8 9 9 2 10 3 11 1 12
REMARK H PARENT 6 4 6 5 6 6 1 13 1 14
REMARK Flexibility Score: inf
ROOT
ATOM      1  C   UNL     1     -34.314  -4.815  -9.067  1.00  0.00     0.171 C 
ENDROOT
BRANCH   1   2
ATOM      2  C   UNL     1     -33.999  -4.247  -7.670  1.00  0.00     0.237 C 
BRANCH   2   3
ATOM      3  N   UNL     1     -34.135  -2.785  -7.668  1.00  0.00    -0.350 N 
ATOM      4  H   UNL     1     -33.190  -2.341  -7.597  1.00  0.00     0.345 HD
ATOM      5  H   UNL     1     -34.580  -2.470  -8.560  1.00  0.00     0.345 HD
ATOM      6  H   UNL     1     -34.725  -2.470  -6.862  1.00  0.00     0.345 HD
ENDBRANCH   2   3
BRANCH   2   7
ATOM      7  C   UNL     1     -34.903  -4.851  -6.626  1.00  0.00     0.100 C 
ATOM      8  O   UNL     1     -34.421  -5.291  -5.550  1.00  0.00    -0.544 OA
ATOM      9  O   UNL     1     -36.272  -4.939  -6.850  1.00  0.00    -0.544 OA
ENDBRANCH   2   7
ENDBRANCH   1   2
BRANCH   1  10
ATOM     10  C   UNL     1     -35.231  -3.910  -9.839  1.00  0.00     0.223 C 
ATOM     11  O   UNL     1     -34.750  -2.968 -10.524  1.00  0.00    -0.275 OA
ATOM     12  N   UNL     1     -36.641  -4.132  -9.833  1.00  0.00    -0.369 N 
ATOM     13  H   UNL     1     -37.274  -3.509 -10.384  1.00  0.00     0.159 HD
ATOM     14  H   UNL     1     -37.055  -4.919  -9.287  1.00  0.00     0.159 HD
ENDBRANCH   1  10
TORSDOF 4
ENDMDL
