MODEL 1
REMARK VINA RESULT:    -2.445      0.000      0.000
REMARK INTER + INTRA:          -2.445
REMARK INTER:                  -2.445
REMARK INTRA:                   0.000
REMARK UNBOUND:                 0.000
REMARK SMILES CC(=O)[O-]
REMARK SMILES IDX 1 1 2 2 3 3 4 4
REMARK H PARENT
REMARK Flexibility Score: inf
ROOT
ATOM      1  C   UNL     1     -40.352  36.139  48.154  1.00  0.00     0.063 C 
ATOM      2  C   UNL     1     -40.744  35.684  49.518  1.00  0.00     0.038 C 
ATOM      3  O   UNL     1     -40.395  34.547  49.930  1.00  0.00    -0.550 OA
ATOM      4  O   UNL     1     -41.447  36.536  50.360  1.00  0.00    -0.550 OA
ENDROOT
TORSDOF 0
ENDMDL
MODEL 2
REMARK VINA RESULT:    -2.411     16.145     16.582
REMARK INTER + INTRA:          -2.411
REMARK INTER:                  -2.411
REMARK INTRA:                   0.000
REMARK UNBOUND:                 0.000
REMARK SMILES CC(=O)[O-]
REMARK SMILES IDX 1 1 2 2 3 3 4 4
REMARK H PARENT
REMARK Flexibility Score: inf
ROOT
ATOM      1  C   UNL     1     -33.625  46.087  36.688  1.00  0.00     0.063 C 
ATOM      2  C   UNL     1     -34.363  45.271  37.693  1.00  0.00     0.038 C 
ATOM      3  O   UNL     1     -35.082  45.834  38.560  1.00  0.00    -0.550 OA
ATOM      4  O   UNL     1     -34.305  43.884  37.642  1.00  0.00    -0.550 OA
ENDROOT
TORSDOF 0
ENDMDL
MODEL 3
REMARK VINA RESULT:    -2.393      1.850      2.136
REMARK INTER + INTRA:          -2.393
REMARK INTER:                  -2.393
REMARK INTRA:                   0.000
REMARK UNBOUND:                 0.000
REMARK SMILES CC(=O)[O-]
REMARK SMILES IDX 1 1 2 2 3 3 4 4
REMARK H PARENT
REMARK Flexibility Score: inf
ROOT
ATOM      1  C   UNL     1     -40.762  35.563  49.632  1.00  0.00     0.063 C 
ATOM      2  C   UNL     1     -41.355  36.881  49.996  1.00  0.00     0.038 C 
ATOM      3  O   UNL     1     -42.020  37.003  51.058  1.00  0.00    -0.550 OA
ATOM      4  O   UNL     1     -41.130  37.992  49.194  1.00  0.00    -0.550 OA
ENDROOT
TORSDOF 0
ENDMDL
MODEL 4
REMARK VINA RESULT:    -2.358     16.074     16.362
REMARK INTER + INTRA:          -2.358
REMARK INTER:                  -2.358
REMARK INTRA:                   0.000
REMARK UNBOUND:                 0.000
REMARK SMILES CC(=O)[O-]
REMARK SMILES IDX 1 1 2 2 3 3 4 4
REMARK H PARENT
REMARK Flexibility Score: inf
ROOT
ATOM      1  C   UNL     1     -32.853  45.900  37.642  1.00  0.00     0.063 C 
ATOM      2  C   UNL     1     -34.118  45.174  37.948  1.00  0.00     0.038 C 
ATOM      3  O   UNL     1     -34.255  43.969  37.607  1.00  0.00    -0.550 OA
ATOM      4  O   UNL     1     -35.129  45.806  38.661  1.00  0.00    -0.550 OA
ENDROOT
TORSDOF 0
ENDMDL
MODEL 5
REMARK VINA RESULT:    -2.356      1.951      2.091
REMARK INTER + INTRA:          -2.356
REMARK INTER:                  -2.356
REMARK INTRA:                   0.000
REMARK UNBOUND:                 0.000
REMARK SMILES CC(=O)[O-]
REMARK SMILES IDX 1 1 2 2 3 3 4 4
REMARK H PARENT
REMARK Flexibility Score: inf
ROOT
ATOM      1  C   UNL     1     -40.796  35.676  49.620  1.00  0.00     0.063 C 
ATOM      2  C   UNL     1     -40.704  37.113  50.004  1.00  0.00     0.038 C 
ATOM      3  O   UNL     1     -39.677  37.781  49.715  1.00  0.00    -0.550 OA
ATOM      4  O   UNL     1     -41.775  37.735  50.633  1.00  0.00    -0.550 OA
ENDROOT
TORSDOF 0
ENDMDL
MODEL 6
REMARK VINA RESULT:    -2.350     17.354     17.807
REMARK INTER + INTRA:          -2.350
REMARK INTER:                  -2.350
REMARK INTRA:                   0.000
REMARK UNBOUND:                 0.000
REMARK SMILES CC(=O)[O-]
REMARK SMILES IDX 1 1 2 2 3 3 4 4
REMARK H PARENT
REMARK Flexibility Score: inf
ROOT
ATOM      1  C   UNL     1     -32.091  45.471  37.559  1.00  0.00     0.063 C 
ATOM      2  C   UNL     1     -33.363  46.109  37.115  1.00  0.00     0.038 C 
ATOM      3  O   UNL     1     -33.398  46.775  36.047  1.00  0.00    -0.550 OA
ATOM      4  O   UNL     1     -34.528  45.924  37.849  1.00  0.00    -0.550 OA
ENDROOT
TORSDOF 0
ENDMDL
MODEL 7
REMARK VINA RESULT:    -2.309     17.316     17.718
REMARK INTER + INTRA:          -2.309
REMARK INTER:                  -2.309
REMARK INTRA:                   0.000
REMARK UNBOUND:                 0.000
REMARK SMILES CC(=O)[O-]
REMARK SMILES IDX 1 1 2 2 3 3 4 4
REMARK H PARENT
REMARK Flexibility Score: inf
ROOT
ATOM      1  C   UNL     1     -33.978  44.571  37.598  1.00  0.00     0.063 C 
ATOM      2  C   UNL     1     -33.062  45.595  37.019  1.00  0.00     0.038 C 
ATOM      3  O   UNL     1     -31.821  45.516  37.214  1.00  0.00    -0.550 OA
ATOM      4  O   UNL     1     -33.570  46.609  36.216  1.00  0.00    -0.550 OA
ENDROOT
TORSDOF 0
ENDMDL
MODEL 8
REMARK VINA RESULT:    -2.299      2.035      2.293
REMARK INTER + INTRA:          -2.299
REMARK INTER:                  -2.299
REMARK INTRA:                   0.000
REMARK UNBOUND:                 0.000
REMARK SMILES CC(=O)[O-]
REMARK SMILES IDX 1 1 2 2 3 3 4 4
REMARK H PARENT
REMARK Flexibility Score: inf
ROOT
ATOM      1  C   UNL     1     -41.555  37.606  50.750  1.00  0.00     0.063 C 
ATOM      2  C   UNL     1     -40.433  37.059  49.936  1.00  0.00     0.038 C 
ATOM      3  O   UNL     1     -40.432  35.847  49.593  1.00  0.00    -0.550 OA
ATOM      4  O   UNL     1     -39.412  37.897  49.504  1.00  0.00    -0.550 OA
ENDROOT
TORSDOF 0
ENDMDL
