MODEL 1
REMARK VINA RESULT:    -5.174      0.000      0.000
REMARK INTER + INTRA:          -7.196
REMARK INTER:                  -6.989
REMARK INTRA:                  -0.207
REMARK UNBOUND:                -0.207
REMARK SMILES CCCCCCC=CC(=O)[O-]
REMARK SMILES IDX 5 1 6 2 7 3 8 4 9 5 10 6 11 7 4 8 3 9 2 10 1 11
REMARK H PARENT
REMARK Flexibility Score: inf
ROOT
ATOM      1  C   UNL     1    -143.118 102.970  33.126  1.00  0.00     0.004 C 
ENDROOT
BRANCH   1   2
ATOM      2  C   UNL     1    -143.613 101.576  33.541  1.00  0.00     0.027 C 
BRANCH   2   3
ATOM      3  C   UNL     1    -143.215 100.518  32.544  1.00  0.00    -0.025 C 
ATOM      4  C   UNL     1    -142.393  99.475  32.754  1.00  0.00     0.020 C 
BRANCH   4   5
ATOM      5  C   UNL     1    -141.672  99.132  33.998  1.00  0.00     0.064 C 
ATOM      6  O   UNL     1    -142.268  98.907  35.082  1.00  0.00    -0.545 OA
ATOM      7  O   UNL     1    -140.286  99.051  33.966  1.00  0.00    -0.545 OA
ENDBRANCH   4   5
ENDBRANCH   2   3
ENDBRANCH   1   2
BRANCH   1   8
ATOM      8  C   UNL     1    -142.378 103.696  34.257  1.00  0.00     0.000 C 
BRANCH   8   9
ATOM      9  C   UNL     1    -142.399 105.216  34.041  1.00  0.00    -0.000 C 
BRANCH   9  10
ATOM     10  C   UNL     1    -141.845 105.990  35.247  1.00  0.00    -0.003 C 
ATOM     11  C   UNL     1    -142.456 105.538  36.573  1.00  0.00     0.004 C 
ENDBRANCH   9  10
ENDBRANCH   8   9
ENDBRANCH   1   8
TORSDOF 6
ENDMDL
MODEL 2
REMARK VINA RESULT:    -4.686      3.120      5.649
REMARK INTER + INTRA:          -6.537
REMARK INTER:                  -6.052
REMARK INTRA:                  -0.485
REMARK UNBOUND:                -0.207
REMARK SMILES CCCCCCC=CC(=O)[O-]
REMARK SMILES IDX 5 1 6 2 7 3 8 4 9 5 10 6 11 7 4 8 3 9 2 10 1 11
REMARK H PARENT
REMARK Flexibility Score: inf
ROOT
ATOM      1  C   UNL     1    -143.601 101.897  34.905  1.00  0.00     0.004 C 
ENDROOT
BRANCH   1   2
ATOM      2  C   UNL     1    -142.409 102.623  34.264  1.00  0.00     0.027 C 
BRANCH   2   3
ATOM      3  C   UNL     1    -142.843 103.842  33.491  1.00  0.00    -0.025 C 
ATOM      4  C   UNL     1    -142.688 105.128  33.850  1.00  0.00     0.020 C 
BRANCH   4   5
ATOM      5  C   UNL     1    -142.078 105.649  35.092  1.00  0.00     0.064 C 
ATOM      6  O   UNL     1    -141.064 106.391  35.084  1.00  0.00    -0.545 OA
ATOM      7  O   UNL     1    -142.651 105.309  36.311  1.00  0.00    -0.545 OA
ENDBRANCH   4   5
ENDBRANCH   2   3
ENDBRANCH   1   2
BRANCH   1   8
ATOM      8  C   UNL     1    -143.621 100.396  34.586  1.00  0.00     0.000 C 
BRANCH   8   9
ATOM      9  C   UNL     1    -142.249  99.921  34.086  1.00  0.00    -0.000 C 
BRANCH   9  10
ATOM     10  C   UNL     1    -142.324  99.251  32.706  1.00  0.00    -0.003 C 
ATOM     11  C   UNL     1    -143.050 100.109  31.670  1.00  0.00     0.004 C 
ENDBRANCH   9  10
ENDBRANCH   8   9
ENDBRANCH   1   8
TORSDOF 6
ENDMDL
MODEL 3
REMARK VINA RESULT:    -4.526     20.006     22.137
REMARK INTER + INTRA:          -6.321
REMARK INTER:                  -5.831
REMARK INTRA:                  -0.490
REMARK UNBOUND:                -0.207
REMARK SMILES CCCCCCC=CC(=O)[O-]
REMARK SMILES IDX 5 1 6 2 7 3 8 4 9 5 10 6 11 7 4 8 3 9 2 10 1 11
REMARK H PARENT
REMARK Flexibility Score: inf
ROOT
ATOM      1  C   UNL     1    -130.100 116.742  43.118  1.00  0.00     0.004 C 
ENDROOT
BRANCH   1   2
ATOM      2  C   UNL     1    -129.582 117.267  44.465  1.00  0.00     0.027 C 
BRANCH   2   3
ATOM      3  C   UNL     1    -129.991 116.377  45.610  1.00  0.00    -0.025 C 
ATOM      4  C   UNL     1    -130.726 116.721  46.682  1.00  0.00     0.020 C 
BRANCH   4   5
ATOM      5  C   UNL     1    -131.285 118.051  47.002  1.00  0.00     0.064 C 
ATOM      6  O   UNL     1    -130.557 119.043  47.262  1.00  0.00    -0.545 OA
ATOM      7  O   UNL     1    -132.664 118.211  47.012  1.00  0.00    -0.545 OA
ENDBRANCH   4   5
ENDBRANCH   2   3
ENDBRANCH   1   2
BRANCH   1   8
ATOM      8  C   UNL     1    -129.344 115.496  42.637  1.00  0.00     0.000 C 
BRANCH   8   9
ATOM      9  C   UNL     1    -130.311 114.330  42.386  1.00  0.00    -0.000 C 
BRANCH   9  10
ATOM     10  C   UNL     1    -129.692 112.967  42.730  1.00  0.00    -0.003 C 
ATOM     11  C   UNL     1    -128.995 112.960  44.091  1.00  0.00     0.004 C 
ENDBRANCH   9  10
ENDBRANCH   8   9
ENDBRANCH   1   8
TORSDOF 6
ENDMDL
MODEL 4
REMARK VINA RESULT:    -4.517     19.239     21.353
REMARK INTER + INTRA:          -6.308
REMARK INTER:                  -6.067
REMARK INTRA:                  -0.241
REMARK UNBOUND:                -0.207
REMARK SMILES CCCCCCC=CC(=O)[O-]
REMARK SMILES IDX 5 1 6 2 7 3 8 4 9 5 10 6 11 7 4 8 3 9 2 10 1 11
REMARK H PARENT
REMARK Flexibility Score: inf
ROOT
ATOM      1  C   UNL     1    -129.400 116.417  45.267  1.00  0.00     0.004 C 
ENDROOT
BRANCH   1   2
ATOM      2  C   UNL     1    -130.103 115.064  45.457  1.00  0.00     0.027 C 
BRANCH   2   3
ATOM      3  C   UNL     1    -129.282 113.924  44.914  1.00  0.00    -0.025 C 
ATOM      4  C   UNL     1    -129.204 113.518  43.634  1.00  0.00     0.020 C 
BRANCH   4   5
ATOM      5  C   UNL     1    -129.918 114.078  42.467  1.00  0.00     0.064 C 
ATOM      6  O   UNL     1    -130.786 113.427  41.832  1.00  0.00    -0.545 OA
ATOM      7  O   UNL     1    -129.620 115.372  42.059  1.00  0.00    -0.545 OA
ENDBRANCH   4   5
ENDBRANCH   2   3
ENDBRANCH   1   2
BRANCH   1   8
ATOM      8  C   UNL     1    -130.339 117.610  45.496  1.00  0.00     0.000 C 
BRANCH   8   9
ATOM      9  C   UNL     1    -131.007 117.526  46.876  1.00  0.00    -0.000 C 
BRANCH   9  10
ATOM     10  C   UNL     1    -131.598 118.870  47.328  1.00  0.00    -0.003 C 
ATOM     11  C   UNL     1    -133.125 118.852  47.395  1.00  0.00     0.004 C 
ENDBRANCH   9  10
ENDBRANCH   8   9
ENDBRANCH   1   8
TORSDOF 6
ENDMDL
MODEL 5
REMARK VINA RESULT:    -4.505     14.466     15.969
REMARK INTER + INTRA:          -6.292
REMARK INTER:                  -5.677
REMARK INTRA:                  -0.615
REMARK UNBOUND:                -0.207
REMARK SMILES CCCCCCC=CC(=O)[O-]
REMARK SMILES IDX 5 1 6 2 7 3 8 4 9 5 10 6 11 7 4 8 3 9 2 10 1 11
REMARK H PARENT
REMARK Flexibility Score: inf
ROOT
ATOM      1  C   UNL     1    -127.974 107.113  41.769  1.00  0.00     0.004 C 
ENDROOT
BRANCH   1   2
ATOM      2  C   UNL     1    -129.299 106.442  41.375  1.00  0.00     0.027 C 
BRANCH   2   3
ATOM      3  C   UNL     1    -129.336 106.088  39.911  1.00  0.00    -0.025 C 
ATOM      4  C   UNL     1    -129.753 106.869  38.899  1.00  0.00     0.020 C 
BRANCH   4   5
ATOM      5  C   UNL     1    -130.290 108.244  38.983  1.00  0.00     0.064 C 
ATOM      6  O   UNL     1    -129.564 109.236  39.245  1.00  0.00    -0.545 OA
ATOM      7  O   UNL     1    -131.646 108.446  38.761  1.00  0.00    -0.545 OA
ENDBRANCH   4   5
ENDBRANCH   2   3
ENDBRANCH   1   2
BRANCH   1   8
ATOM      8  C   UNL     1    -128.180 108.448  42.498  1.00  0.00     0.000 C 
BRANCH   8   9
ATOM      9  C   UNL     1    -129.674 108.776  42.632  1.00  0.00    -0.000 C 
BRANCH   9  10
ATOM     10  C   UNL     1    -130.113 108.934  44.095  1.00  0.00    -0.003 C 
ATOM     11  C   UNL     1    -131.429 108.216  44.399  1.00  0.00     0.004 C 
ENDBRANCH   9  10
ENDBRANCH   8   9
ENDBRANCH   1   8
TORSDOF 6
ENDMDL
MODEL 6
REMARK VINA RESULT:    -4.469     15.073     16.132
REMARK INTER + INTRA:          -6.243
REMARK INTER:                  -5.981
REMARK INTRA:                  -0.263
REMARK UNBOUND:                -0.207
REMARK SMILES CCCCCCC=CC(=O)[O-]
REMARK SMILES IDX 5 1 6 2 7 3 8 4 9 5 10 6 11 7 4 8 3 9 2 10 1 11
REMARK H PARENT
REMARK Flexibility Score: inf
ROOT
ATOM      1  C   UNL     1    -129.478 109.378  39.312  1.00  0.00     0.004 C 
ENDROOT
BRANCH   1   2
ATOM      2  C   UNL     1    -130.037 108.890  40.657  1.00  0.00     0.027 C 
BRANCH   2   3
ATOM      3  C   UNL     1    -129.011 108.119  41.446  1.00  0.00    -0.025 C 
ATOM      4  C   UNL     1    -128.701 106.817  41.319  1.00  0.00     0.020 C 
BRANCH   4   5
ATOM      5  C   UNL     1    -129.304 105.833  40.395  1.00  0.00     0.064 C 
ATOM      6  O   UNL     1    -130.075 104.923  40.791  1.00  0.00    -0.545 OA
ATOM      7  O   UNL     1    -129.011 105.921  39.040  1.00  0.00    -0.545 OA
ENDBRANCH   4   5
ENDBRANCH   2   3
ENDBRANCH   1   2
BRANCH   1   8
ATOM      8  C   UNL     1    -129.295 110.901  39.263  1.00  0.00     0.000 C 
BRANCH   8   9
ATOM      9  C   UNL     1    -128.182 111.290  38.280  1.00  0.00    -0.000 C 
BRANCH   9  10
ATOM     10  C   UNL     1    -128.173 112.794  37.966  1.00  0.00    -0.003 C 
ATOM     11  C   UNL     1    -128.451 113.092  36.492  1.00  0.00     0.004 C 
ENDBRANCH   9  10
ENDBRANCH   8   9
ENDBRANCH   1   8
TORSDOF 6
ENDMDL
MODEL 7
REMARK VINA RESULT:    -4.457     14.698     16.088
REMARK INTER + INTRA:          -6.227
REMARK INTER:                  -5.915
REMARK INTRA:                  -0.312
REMARK UNBOUND:                -0.207
REMARK SMILES CCCCCCC=CC(=O)[O-]
REMARK SMILES IDX 5 1 6 2 7 3 8 4 9 5 10 6 11 7 4 8 3 9 2 10 1 11
REMARK H PARENT
REMARK Flexibility Score: inf
ROOT
ATOM      1  C   UNL     1    -129.728 109.085  42.184  1.00  0.00     0.004 C 
ENDROOT
BRANCH   1   2
ATOM      2  C   UNL     1    -128.540 108.283  41.630  1.00  0.00     0.027 C 
BRANCH   2   3
ATOM      3  C   UNL     1    -128.843 106.809  41.555  1.00  0.00    -0.025 C 
ATOM      4  C   UNL     1    -129.309 106.130  40.492  1.00  0.00     0.020 C 
BRANCH   4   5
ATOM      5  C   UNL     1    -129.654 106.669  39.160  1.00  0.00     0.064 C 
ATOM      6  O   UNL     1    -130.508 107.577  39.000  1.00  0.00    -0.545 OA
ATOM      7  O   UNL     1    -129.007 106.154  38.043  1.00  0.00    -0.545 OA
ENDBRANCH   4   5
ENDBRANCH   2   3
ENDBRANCH   1   2
BRANCH   1   8
ATOM      8  C   UNL     1    -129.897 108.922  43.701  1.00  0.00     0.000 C 
BRANCH   8   9
ATOM      9  C   UNL     1    -131.169 108.129  44.030  1.00  0.00    -0.000 C 
BRANCH   9  10
ATOM     10  C   UNL     1    -131.857 108.625  45.311  1.00  0.00    -0.003 C 
ATOM     11  C   UNL     1    -130.894 108.745  46.492  1.00  0.00     0.004 C 
ENDBRANCH   9  10
ENDBRANCH   8   9
ENDBRANCH   1   8
TORSDOF 6
ENDMDL
MODEL 8
REMARK VINA RESULT:    -4.397     14.372     15.986
REMARK INTER + INTRA:          -6.146
REMARK INTER:                  -5.876
REMARK INTRA:                  -0.270
REMARK UNBOUND:                -0.207
REMARK SMILES CCCCCCC=CC(=O)[O-]
REMARK SMILES IDX 5 1 6 2 7 3 8 4 9 5 10 6 11 7 4 8 3 9 2 10 1 11
REMARK H PARENT
REMARK Flexibility Score: inf
ROOT
ATOM      1  C   UNL     1    -129.615 107.951  42.390  1.00  0.00     0.004 C 
ENDROOT
BRANCH   1   2
ATOM      2  C   UNL     1    -129.014 108.629  41.149  1.00  0.00     0.027 C 
BRANCH   2   3
ATOM      3  C   UNL     1    -130.015 108.740  40.029  1.00  0.00    -0.025 C 
ATOM      4  C   UNL     1    -130.312 107.804  39.111  1.00  0.00     0.020 C 
BRANCH   4   5
ATOM      5  C   UNL     1    -129.714 106.459  38.969  1.00  0.00     0.064 C 
ATOM      6  O   UNL     1    -128.938 106.163  38.025  1.00  0.00    -0.545 OA
ATOM      7  O   UNL     1    -130.018 105.490  39.916  1.00  0.00    -0.545 OA
ENDBRANCH   4   5
ENDBRANCH   2   3
ENDBRANCH   1   2
BRANCH   1   8
ATOM      8  C   UNL     1    -130.057 108.958  43.460  1.00  0.00     0.000 C 
BRANCH   8   9
ATOM      9  C   UNL     1    -131.009 108.304  44.471  1.00  0.00    -0.000 C 
BRANCH   9  10
ATOM     10  C   UNL     1    -131.119 109.102  45.779  1.00  0.00    -0.003 C 
ATOM     11  C   UNL     1    -130.758 108.271  47.011  1.00  0.00     0.004 C 
ENDBRANCH   9  10
ENDBRANCH   8   9
ENDBRANCH   1   8
TORSDOF 6
ENDMDL
MODEL 9
REMARK VINA RESULT:    -4.325     19.262     21.081
REMARK INTER + INTRA:          -6.050
REMARK INTER:                  -5.691
REMARK INTRA:                  -0.359
REMARK UNBOUND:                -0.207
REMARK SMILES CCCCCCC=CC(=O)[O-]
REMARK SMILES IDX 5 1 6 2 7 3 8 4 9 5 10 6 11 7 4 8 3 9 2 10 1 11
REMARK H PARENT
REMARK Flexibility Score: inf
ROOT
ATOM      1  C   UNL     1    -130.123 116.882  43.462  1.00  0.00     0.004 C 
ENDROOT
BRANCH   1   2
ATOM      2  C   UNL     1    -129.286 116.036  42.491  1.00  0.00     0.027 C 
BRANCH   2   3
ATOM      3  C   UNL     1    -130.035 114.817  42.018  1.00  0.00    -0.025 C 
ATOM      4  C   UNL     1    -130.075 113.610  42.610  1.00  0.00     0.020 C 
BRANCH   4   5
ATOM      5  C   UNL     1    -129.380 113.188  43.844  1.00  0.00     0.064 C 
ATOM      6  O   UNL     1    -128.430 112.366  43.835  1.00  0.00    -0.545 OA
ATOM      7  O   UNL     1    -129.791 113.724  45.058  1.00  0.00    -0.545 OA
ENDBRANCH   4   5
ENDBRANCH   2   3
ENDBRANCH   1   2
BRANCH   1   8
ATOM      8  C   UNL     1    -129.429 117.090  44.816  1.00  0.00     0.000 C 
BRANCH   8   9
ATOM      9  C   UNL     1    -130.038 118.281  45.568  1.00  0.00    -0.000 C 
BRANCH   9  10
ATOM     10  C   UNL     1    -130.944 117.844  46.729  1.00  0.00    -0.003 C 
ATOM     11  C   UNL     1    -130.893 116.338  46.985  1.00  0.00     0.004 C 
ENDBRANCH   9  10
ENDBRANCH   8   9
ENDBRANCH   1   8
TORSDOF 6
ENDMDL
