MODEL 1
REMARK VINA RESULT:    -1.911      0.000      0.000
REMARK INTER + INTRA:          -2.212
REMARK INTER:                  -2.582
REMARK INTRA:                   0.370
REMARK UNBOUND:                 0.370
REMARK SMILES COc1ccc(-c2cc(=O)c3c(OC)c(OC)c(OC)c(OC)c3o2)cc1
REMARK SMILES IDX 7 1 8 2 9 3 10 4 11 5 24 6 25 7 21 8 18 9 15 10 12 11 6 12
REMARK SMILES IDX 3 13 4 14 27 15 5 16 26 17 2 18 1 19 22 20 23 21 13 22 14 23
REMARK SMILES IDX 19 24 20 25 16 26 17 27
REMARK H PARENT
REMARK Flexibility Score: inf
ROOT
ATOM      1  C   UNL     1      -0.809   6.366  34.778  1.00  0.00     0.138 A 
ATOM      2  C   UNL     1      -1.697   7.308  34.249  1.00  0.00     0.100 A 
ATOM      3  C   UNL     1      -1.308   8.642  34.171  1.00  0.00     0.197 A 
ATOM      4  O   UNL     1      -2.125   9.476  33.694  1.00  0.00    -0.289 OA
ATOM      5  C   UNL     1      -0.025   9.033  34.626  1.00  0.00     0.115 A 
ATOM      6  C   UNL     1       0.811   8.024  35.167  1.00  0.00     0.188 A 
ATOM      7  O   UNL     1       0.380   6.764  35.216  1.00  0.00    -0.452 OA
ATOM      8  C   UNL     1       2.099   8.349  35.643  1.00  0.00     0.209 A 
ATOM      9  C   UNL     1       2.537   9.686  35.610  1.00  0.00     0.211 A 
ATOM     10  C   UNL     1       1.727  10.699  35.038  1.00  0.00     0.208 A 
ATOM     11  C   UNL     1       0.436  10.370  34.547  1.00  0.00     0.179 A 
ENDROOT
BRANCH   1  12
ATOM     12  C   UNL     1      -1.169   4.929  34.868  1.00  0.00     0.018 A 
ATOM     13  C   UNL     1      -1.809   2.186  35.071  1.00  0.00     0.118 A 
ATOM     14  C   UNL     1      -2.125   2.906  33.903  1.00  0.00     0.047 A 
ATOM     15  C   UNL     1      -1.169   2.844  36.125  1.00  0.00     0.047 A 
ATOM     16  C   UNL     1      -1.805   4.262  33.803  1.00  0.00     0.016 A 
ATOM     17  C   UNL     1      -0.849   4.201  36.026  1.00  0.00     0.016 A 
BRANCH  13  18
ATOM     18  O   UNL     1      -2.111   0.824  35.220  1.00  0.00    -0.497 OA
ATOM     19  C   UNL     1      -1.909  -0.159  34.211  1.00  0.00     0.278 C 
ENDBRANCH  13  18
ENDBRANCH   1  12
BRANCH   8  20
ATOM     20  O   UNL     1       3.009   7.389  36.125  1.00  0.00    -0.490 OA
ATOM     21  C   UNL     1       2.954   5.981  35.929  1.00  0.00     0.278 C 
ENDBRANCH   8  20
BRANCH  11  22
ATOM     22  O   UNL     1      -0.428  11.328  33.972  1.00  0.00    -0.492 OA
ATOM     23  C   UNL     1      -0.271  12.016  32.735  1.00  0.00     0.278 C 
ENDBRANCH  11  22
BRANCH   9  24
ATOM     24  O   UNL     1       3.798  10.009  36.124  1.00  0.00    -0.490 OA
ATOM     25  C   UNL     1       4.725  10.860  35.453  1.00  0.00     0.279 C 
ENDBRANCH   9  24
BRANCH  10  26
ATOM     26  O   UNL     1       2.154  12.038  34.943  1.00  0.00    -0.490 OA
ATOM     27  C   UNL     1       1.876  13.107  35.841  1.00  0.00     0.278 C 
ENDBRANCH  10  26
TORSDOF 6
ENDMDL
