MODEL 1
REMARK VINA RESULT:    -2.651      0.000      0.000
REMARK INTER + INTRA:          -2.651
REMARK INTER:                  -2.651
REMARK INTRA:                   0.000
REMARK UNBOUND:                 0.000
REMARK SMILES CC(=O)[O-]
REMARK SMILES IDX 1 1 2 2 3 3 4 4
REMARK H PARENT
REMARK Flexibility Score: inf
ROOT
ATOM      1  C   UNL     1      94.667 120.894 119.634  1.00  0.00     0.063 C 
ATOM      2  C   UNL     1      93.820 121.278 120.800  1.00  0.00     0.038 C 
ATOM      3  O   UNL     1      92.700 121.822 120.614  1.00  0.00    -0.550 OA
ATOM      4  O   UNL     1      94.287 121.085 122.094  1.00  0.00    -0.550 OA
ENDROOT
TORSDOF 0
ENDMDL
MODEL 2
REMARK VINA RESULT:    -2.646      3.428      3.759
REMARK INTER + INTRA:          -2.646
REMARK INTER:                  -2.646
REMARK INTRA:                   0.000
REMARK UNBOUND:                 0.000
REMARK SMILES CC(=O)[O-]
REMARK SMILES IDX 1 1 2 2 3 3 4 4
REMARK H PARENT
REMARK Flexibility Score: inf
ROOT
ATOM      1  C   UNL     1      92.718 120.892 115.876  1.00  0.00     0.063 C 
ATOM      2  C   UNL     1      92.658 121.238 117.325  1.00  0.00     0.038 C 
ATOM      3  O   UNL     1      91.578 121.636 117.835  1.00  0.00    -0.550 OA
ATOM      4  O   UNL     1      93.807 121.174 118.104  1.00  0.00    -0.550 OA
ENDROOT
TORSDOF 0
ENDMDL
MODEL 3
REMARK VINA RESULT:    -2.595      2.326      2.934
REMARK INTER + INTRA:          -2.595
REMARK INTER:                  -2.595
REMARK INTRA:                   0.000
REMARK UNBOUND:                 0.000
REMARK SMILES CC(=O)[O-]
REMARK SMILES IDX 1 1 2 2 3 3 4 4
REMARK H PARENT
REMARK Flexibility Score: inf
ROOT
ATOM      1  C   UNL     1      94.729 120.875 118.924  1.00  0.00     0.063 C 
ATOM      2  C   UNL     1      93.455 121.292 118.269  1.00  0.00     0.038 C 
ATOM      3  O   UNL     1      93.235 120.987 117.067  1.00  0.00    -0.550 OA
ATOM      4  O   UNL     1      92.534 122.064 118.965  1.00  0.00    -0.550 OA
ENDROOT
TORSDOF 0
ENDMDL
MODEL 4
REMARK VINA RESULT:    -2.578      2.512      3.247
REMARK INTER + INTRA:          -2.578
REMARK INTER:                  -2.578
REMARK INTRA:                   0.000
REMARK UNBOUND:                 0.000
REMARK SMILES CC(=O)[O-]
REMARK SMILES IDX 1 1 2 2 3 3 4 4
REMARK H PARENT
REMARK Flexibility Score: inf
ROOT
ATOM      1  C   UNL     1      94.596 120.875 118.755  1.00  0.00     0.063 C 
ATOM      2  C   UNL     1      93.345 121.304 118.066  1.00  0.00     0.038 C 
ATOM      3  O   UNL     1      92.492 121.997 118.681  1.00  0.00    -0.550 OA
ATOM      4  O   UNL     1      93.092 120.895 116.763  1.00  0.00    -0.550 OA
ENDROOT
TORSDOF 0
ENDMDL
MODEL 5
REMARK VINA RESULT:    -2.524      3.558      4.097
REMARK INTER + INTRA:          -2.524
REMARK INTER:                  -2.524
REMARK INTRA:                   0.000
REMARK UNBOUND:                 0.000
REMARK SMILES CC(=O)[O-]
REMARK SMILES IDX 1 1 2 2 3 3 4 4
REMARK H PARENT
REMARK Flexibility Score: inf
ROOT
ATOM      1  C   UNL     1      95.214 123.792 124.329  1.00  0.00     0.063 C 
ATOM      2  C   UNL     1      93.901 123.203 123.937  1.00  0.00     0.038 C 
ATOM      3  O   UNL     1      93.026 122.973 124.813  1.00  0.00    -0.550 OA
ATOM      4  O   UNL     1      93.660 122.856 122.614  1.00  0.00    -0.550 OA
ENDROOT
TORSDOF 0
ENDMDL
MODEL 6
REMARK VINA RESULT:    -2.498      3.457      3.754
REMARK INTER + INTRA:          -2.498
REMARK INTER:                  -2.498
REMARK INTRA:                   0.000
REMARK UNBOUND:                 0.000
REMARK SMILES CC(=O)[O-]
REMARK SMILES IDX 1 1 2 2 3 3 4 4
REMARK H PARENT
REMARK Flexibility Score: inf
ROOT
ATOM      1  C   UNL     1      93.848 122.235 122.728  1.00  0.00     0.063 C 
ATOM      2  C   UNL     1      93.834 123.104 123.940  1.00  0.00     0.038 C 
ATOM      3  O   UNL     1      92.804 123.165 124.661  1.00  0.00    -0.550 OA
ATOM      4  O   UNL     1      94.938 123.890 124.247  1.00  0.00    -0.550 OA
ENDROOT
TORSDOF 0
ENDMDL
MODEL 7
REMARK VINA RESULT:    -2.478      1.418      2.165
REMARK INTER + INTRA:          -2.478
REMARK INTER:                  -2.478
REMARK INTRA:                   0.000
REMARK UNBOUND:                 0.000
REMARK SMILES CC(=O)[O-]
REMARK SMILES IDX 1 1 2 2 3 3 4 4
REMARK H PARENT
REMARK Flexibility Score: inf
ROOT
ATOM      1  C   UNL     1      94.638 121.619 122.488  1.00  0.00     0.063 C 
ATOM      2  C   UNL     1      94.134 121.429 121.097  1.00  0.00     0.038 C 
ATOM      3  O   UNL     1      94.934 121.129 120.172  1.00  0.00    -0.550 OA
ATOM      4  O   UNL     1      92.791 121.635 120.808  1.00  0.00    -0.550 OA
ENDROOT
TORSDOF 0
ENDMDL
MODEL 8
REMARK VINA RESULT:    -2.458      2.691      3.277
REMARK INTER + INTRA:          -2.458
REMARK INTER:                  -2.458
REMARK INTRA:                   0.000
REMARK UNBOUND:                 0.000
REMARK SMILES CC(=O)[O-]
REMARK SMILES IDX 1 1 2 2 3 3 4 4
REMARK H PARENT
REMARK Flexibility Score: inf
ROOT
ATOM      1  C   UNL     1      93.180 123.099 124.310  1.00  0.00     0.063 C 
ATOM      2  C   UNL     1      93.816 122.557 123.074  1.00  0.00     0.038 C 
ATOM      3  O   UNL     1      93.149 121.836 122.285  1.00  0.00    -0.550 OA
ATOM      4  O   UNL     1      95.159 122.800 122.817  1.00  0.00    -0.550 OA
ENDROOT
TORSDOF 0
ENDMDL
MODEL 9
REMARK VINA RESULT:    -2.438      1.943      2.135
REMARK INTER + INTRA:          -2.438
REMARK INTER:                  -2.438
REMARK INTRA:                   0.000
REMARK UNBOUND:                 0.000
REMARK SMILES CC(=O)[O-]
REMARK SMILES IDX 1 1 2 2 3 3 4 4
REMARK H PARENT
REMARK Flexibility Score: inf
ROOT
ATOM      1  C   UNL     1      95.300 122.009 122.243  1.00  0.00     0.063 C 
ATOM      2  C   UNL     1      93.825 122.070 122.454  1.00  0.00     0.038 C 
ATOM      3  O   UNL     1      93.041 121.762 121.519  1.00  0.00    -0.550 OA
ATOM      4  O   UNL     1      93.312 122.519 123.665  1.00  0.00    -0.550 OA
ENDROOT
TORSDOF 0
ENDMDL
