MODEL 1
REMARK VINA RESULT:    -3.630      0.000      0.000
REMARK INTER + INTRA:          -6.753
REMARK INTER:                  -5.540
REMARK INTRA:                  -1.214
REMARK UNBOUND:                -1.214
REMARK SMILES CCCCCCCCCCC(=O)[O-]
REMARK SMILES IDX 7 1 8 2 9 3 10 4 11 5 12 6 13 7 6 8 5 9 4 10 3 11 2 12 1 13
REMARK H PARENT
REMARK Flexibility Score: inf
ROOT
ATOM      1  C   UNL     1      28.554  34.182   4.003  1.00  0.00     0.000 C 
ENDROOT
BRANCH   1   2
ATOM      2  C   UNL     1      27.135  33.657   3.713  1.00  0.00     0.000 C 
BRANCH   2   3
ATOM      3  C   UNL     1      26.968  32.947   2.353  1.00  0.00     0.006 C 
BRANCH   3   4
ATOM      4  C   UNL     1      26.455  33.848   1.220  1.00  0.00     0.053 C 
BRANCH   4   5
ATOM      5  C   UNL     1      24.967  33.768   1.070  1.00  0.00     0.041 C 
ATOM      6  O   UNL     1      24.258  34.800   1.205  1.00  0.00    -0.550 OA
ATOM      7  O   UNL     1      24.359  32.546   0.811  1.00  0.00    -0.550 OA
ENDBRANCH   4   5
ENDBRANCH   3   4
ENDBRANCH   2   3
ENDBRANCH   1   2
BRANCH   1   8
ATOM      8  C   UNL     1      29.648  33.098   4.058  1.00  0.00     0.000 C 
BRANCH   8   9
ATOM      9  C   UNL     1      30.812  33.341   3.074  1.00  0.00    -0.000 C 
BRANCH   9  10
ATOM     10  C   UNL     1      30.531  32.757   1.679  1.00  0.00    -0.000 C 
BRANCH  10  11
ATOM     11  C   UNL     1      30.497  33.830   0.575  1.00  0.00    -0.000 C 
BRANCH  11  12
ATOM     12  C   UNL     1      30.633  35.278   1.075  1.00  0.00    -0.003 C 
ATOM     13  C   UNL     1      29.346  36.087   0.923  1.00  0.00     0.004 C 
ENDBRANCH  11  12
ENDBRANCH  10  11
ENDBRANCH   9  10
ENDBRANCH   8   9
ENDBRANCH   1   8
TORSDOF 9
ENDMDL
MODEL 2
REMARK VINA RESULT:    -3.570      3.581      5.540
REMARK INTER + INTRA:          -6.662
REMARK INTER:                  -6.005
REMARK INTRA:                  -0.657
REMARK UNBOUND:                -1.214
REMARK SMILES CCCCCCCCCCC(=O)[O-]
REMARK SMILES IDX 7 1 8 2 9 3 10 4 11 5 12 6 13 7 6 8 5 9 4 10 3 11 2 12 1 13
REMARK H PARENT
REMARK Flexibility Score: inf
ROOT
ATOM      1  C   UNL     1      28.619  34.032   4.191  1.00  0.00     0.000 C 
ENDROOT
BRANCH   1   2
ATOM      2  C   UNL     1      29.712  33.017   3.806  1.00  0.00     0.000 C 
BRANCH   2   3
ATOM      3  C   UNL     1      30.879  33.596   2.980  1.00  0.00     0.006 C 
BRANCH   3   4
ATOM      4  C   UNL     1      30.983  33.048   1.548  1.00  0.00     0.053 C 
BRANCH   4   5
ATOM      5  C   UNL     1      32.401  32.763   1.159  1.00  0.00     0.041 C 
ATOM      6  O   UNL     1      32.749  32.808  -0.050  1.00  0.00    -0.550 OA
ATOM      7  O   UNL     1      33.332  32.415   2.130  1.00  0.00    -0.550 OA
ENDBRANCH   4   5
ENDBRANCH   3   4
ENDBRANCH   2   3
ENDBRANCH   1   2
BRANCH   1   8
ATOM      8  C   UNL     1      27.190  33.638   3.767  1.00  0.00     0.000 C 
BRANCH   8   9
ATOM      9  C   UNL     1      27.124  32.935   2.395  1.00  0.00    -0.000 C 
BRANCH   9  10
ATOM     10  C   UNL     1      27.182  33.930   1.224  1.00  0.00    -0.000 C 
BRANCH  10  11
ATOM     11  C   UNL     1      25.806  34.179   0.578  1.00  0.00    -0.000 C 
BRANCH  11  12
ATOM     12  C   UNL     1      24.637  33.427   1.238  1.00  0.00    -0.003 C 
ATOM     13  C   UNL     1      23.705  32.764   0.225  1.00  0.00     0.004 C 
ENDBRANCH  11  12
ENDBRANCH  10  11
ENDBRANCH   9  10
ENDBRANCH   8   9
ENDBRANCH   1   8
TORSDOF 9
ENDMDL
MODEL 3
REMARK VINA RESULT:    -3.551      1.283      2.604
REMARK INTER + INTRA:          -6.634
REMARK INTER:                  -5.920
REMARK INTRA:                  -0.713
REMARK UNBOUND:                -1.214
REMARK SMILES CCCCCCCCCCC(=O)[O-]
REMARK SMILES IDX 7 1 8 2 9 3 10 4 11 5 12 6 13 7 6 8 5 9 4 10 3 11 2 12 1 13
REMARK H PARENT
REMARK Flexibility Score: inf
ROOT
ATOM      1  C   UNL     1      27.236  32.912   2.379  1.00  0.00     0.000 C 
ENDROOT
BRANCH   1   2
ATOM      2  C   UNL     1      26.523  33.625   1.214  1.00  0.00     0.000 C 
BRANCH   2   3
ATOM      3  C   UNL     1      25.004  33.820   1.401  1.00  0.00     0.006 C 
BRANCH   3   4
ATOM      4  C   UNL     1      24.133  32.762   0.706  1.00  0.00     0.053 C 
BRANCH   4   5
ATOM      5  C   UNL     1      23.223  33.369  -0.317  1.00  0.00     0.041 C 
ATOM      6  O   UNL     1      22.211  32.738  -0.721  1.00  0.00    -0.550 OA
ATOM      7  O   UNL     1      23.510  34.621  -0.847  1.00  0.00    -0.550 OA
ENDBRANCH   4   5
ENDBRANCH   3   4
ENDBRANCH   2   3
ENDBRANCH   1   2
BRANCH   1   8
ATOM      8  C   UNL     1      27.202  33.670   3.721  1.00  0.00     0.000 C 
BRANCH   8   9
ATOM      9  C   UNL     1      28.594  34.119   4.214  1.00  0.00    -0.000 C 
BRANCH   9  10
ATOM     10  C   UNL     1      29.678  33.060   3.952  1.00  0.00    -0.000 C 
BRANCH  10  11
ATOM     11  C   UNL     1      30.799  33.566   3.025  1.00  0.00    -0.000 C 
BRANCH  11  12
ATOM     12  C   UNL     1      30.859  32.883   1.648  1.00  0.00    -0.003 C 
ATOM     13  C   UNL     1      30.472  33.814   0.501  1.00  0.00     0.004 C 
ENDBRANCH  11  12
ENDBRANCH  10  11
ENDBRANCH   9  10
ENDBRANCH   8   9
ENDBRANCH   1   8
TORSDOF 9
ENDMDL
MODEL 4
REMARK VINA RESULT:    -3.550      1.252      1.974
REMARK INTER + INTRA:          -6.632
REMARK INTER:                  -5.994
REMARK INTRA:                  -0.638
REMARK UNBOUND:                -1.214
REMARK SMILES CCCCCCCCCCC(=O)[O-]
REMARK SMILES IDX 7 1 8 2 9 3 10 4 11 5 12 6 13 7 6 8 5 9 4 10 3 11 2 12 1 13
REMARK H PARENT
REMARK Flexibility Score: inf
ROOT
ATOM      1  C   UNL     1      28.270  34.010   4.065  1.00  0.00     0.000 C 
ENDROOT
BRANCH   1   2
ATOM      2  C   UNL     1      27.052  33.397   3.350  1.00  0.00     0.000 C 
BRANCH   2   3
ATOM      3  C   UNL     1      26.392  34.303   2.290  1.00  0.00     0.006 C 
BRANCH   3   4
ATOM      4  C   UNL     1      26.054  33.599   0.966  1.00  0.00     0.053 C 
BRANCH   4   5
ATOM      5  C   UNL     1      24.582  33.600   0.690  1.00  0.00     0.041 C 
ATOM      6  O   UNL     1      23.973  34.685   0.498  1.00  0.00    -0.550 OA
ATOM      7  O   UNL     1      23.877  32.403   0.677  1.00  0.00    -0.550 OA
ENDBRANCH   4   5
ENDBRANCH   3   4
ENDBRANCH   2   3
ENDBRANCH   1   2
BRANCH   1   8
ATOM      8  C   UNL     1      29.607  33.288   3.802  1.00  0.00     0.000 C 
BRANCH   8   9
ATOM      9  C   UNL     1      29.792  32.842   2.336  1.00  0.00    -0.000 C 
BRANCH   9  10
ATOM     10  C   UNL     1      30.619  33.848   1.518  1.00  0.00    -0.000 C 
BRANCH  10  11
ATOM     11  C   UNL     1      31.938  33.253   0.991  1.00  0.00    -0.000 C 
BRANCH  11  12
ATOM     12  C   UNL     1      32.812  32.572   2.058  1.00  0.00    -0.003 C 
ATOM     13  C   UNL     1      33.499  33.566   2.993  1.00  0.00     0.004 C 
ENDBRANCH  11  12
ENDBRANCH  10  11
ENDBRANCH   9  10
ENDBRANCH   8   9
ENDBRANCH   1   8
TORSDOF 9
ENDMDL
MODEL 5
REMARK VINA RESULT:    -3.537      3.466      4.911
REMARK INTER + INTRA:          -6.612
REMARK INTER:                  -5.393
REMARK INTRA:                  -1.218
REMARK UNBOUND:                -1.214
REMARK SMILES CCCCCCCCCCC(=O)[O-]
REMARK SMILES IDX 7 1 8 2 9 3 10 4 11 5 12 6 13 7 6 8 5 9 4 10 3 11 2 12 1 13
REMARK H PARENT
REMARK Flexibility Score: inf
ROOT
ATOM      1  C   UNL     1      28.631  34.034   4.194  1.00  0.00     0.000 C 
ENDROOT
BRANCH   1   2
ATOM      2  C   UNL     1      29.724  32.996   3.874  1.00  0.00     0.000 C 
BRANCH   2   3
ATOM      3  C   UNL     1      30.933  33.544   3.088  1.00  0.00     0.006 C 
BRANCH   3   4
ATOM      4  C   UNL     1      30.924  33.213   1.588  1.00  0.00     0.053 C 
BRANCH   4   5
ATOM      5  C   UNL     1      32.273  32.779   1.101  1.00  0.00     0.041 C 
ATOM      6  O   UNL     1      32.544  32.810  -0.128  1.00  0.00    -0.550 OA
ATOM      7  O   UNL     1      33.220  32.311   2.003  1.00  0.00    -0.550 OA
ENDBRANCH   4   5
ENDBRANCH   3   4
ENDBRANCH   2   3
ENDBRANCH   1   2
BRANCH   1   8
ATOM      8  C   UNL     1      27.219  33.662   3.698  1.00  0.00     0.000 C 
BRANCH   8   9
ATOM      9  C   UNL     1      27.216  32.883   2.366  1.00  0.00    -0.000 C 
BRANCH   9  10
ATOM     10  C   UNL     1      26.469  33.634   1.250  1.00  0.00    -0.000 C 
BRANCH  10  11
ATOM     11  C   UNL     1      26.790  35.140   1.223  1.00  0.00    -0.000 C 
BRANCH  11  12
ATOM     12  C   UNL     1      28.125  35.505   0.553  1.00  0.00    -0.003 C 
ATOM     13  C   UNL     1      28.981  36.447   1.398  1.00  0.00     0.004 C 
ENDBRANCH  11  12
ENDBRANCH  10  11
ENDBRANCH   9  10
ENDBRANCH   8   9
ENDBRANCH   1   8
TORSDOF 9
ENDMDL
MODEL 6
REMARK VINA RESULT:    -3.518      1.593      2.567
REMARK INTER + INTRA:          -6.583
REMARK INTER:                  -5.635
REMARK INTRA:                  -0.948
REMARK UNBOUND:                -1.214
REMARK SMILES CCCCCCCCCCC(=O)[O-]
REMARK SMILES IDX 7 1 8 2 9 3 10 4 11 5 12 6 13 7 6 8 5 9 4 10 3 11 2 12 1 13
REMARK H PARENT
REMARK Flexibility Score: inf
ROOT
ATOM      1  C   UNL     1      29.845  33.593   3.191  1.00  0.00     0.000 C 
ENDROOT
BRANCH   1   2
ATOM      2  C   UNL     1      28.728  33.836   4.223  1.00  0.00     0.000 C 
BRANCH   2   3
ATOM      3  C   UNL     1      27.308  33.960   3.631  1.00  0.00     0.006 C 
BRANCH   3   4
ATOM      4  C   UNL     1      26.925  32.841   2.650  1.00  0.00     0.053 C 
BRANCH   4   5
ATOM      5  C   UNL     1      26.240  33.376   1.430  1.00  0.00     0.041 C 
ATOM      6  O   UNL     1      26.719  34.364   0.814  1.00  0.00    -0.550 OA
ATOM      7  O   UNL     1      25.053  32.802   0.991  1.00  0.00    -0.550 OA
ENDBRANCH   4   5
ENDBRANCH   3   4
ENDBRANCH   2   3
ENDBRANCH   1   2
BRANCH   1   8
ATOM      8  C   UNL     1      30.094  34.762   2.217  1.00  0.00     0.000 C 
BRANCH   8   9
ATOM      9  C   UNL     1      30.420  34.310   0.778  1.00  0.00    -0.000 C 
BRANCH   9  10
ATOM     10  C   UNL     1      31.092  32.927   0.737  1.00  0.00    -0.000 C 
BRANCH  10  11
ATOM     11  C   UNL     1      32.627  33.003   0.835  1.00  0.00    -0.000 C 
BRANCH  11  12
ATOM     12  C   UNL     1      33.221  32.437   2.136  1.00  0.00    -0.003 C 
ATOM     13  C   UNL     1      33.677  33.524   3.108  1.00  0.00     0.004 C 
ENDBRANCH  11  12
ENDBRANCH  10  11
ENDBRANCH   9  10
ENDBRANCH   8   9
ENDBRANCH   1   8
TORSDOF 9
ENDMDL
MODEL 7
REMARK VINA RESULT:    -3.488      3.600      5.645
REMARK INTER + INTRA:          -6.537
REMARK INTER:                  -6.164
REMARK INTRA:                  -0.373
REMARK UNBOUND:                -1.214
REMARK SMILES CCCCCCCCCCC(=O)[O-]
REMARK SMILES IDX 7 1 8 2 9 3 10 4 11 5 12 6 13 7 6 8 5 9 4 10 3 11 2 12 1 13
REMARK H PARENT
REMARK Flexibility Score: inf
ROOT
ATOM      1  C   UNL     1      30.681  33.452   2.714  1.00  0.00     0.000 C 
ENDROOT
BRANCH   1   2
ATOM      2  C   UNL     1      32.165  33.246   3.075  1.00  0.00     0.000 C 
BRANCH   2   3
ATOM      3  C   UNL     1      32.999  32.509   2.007  1.00  0.00     0.006 C 
BRANCH   3   4
ATOM      4  C   UNL     1      33.378  33.366   0.788  1.00  0.00     0.053 C 
BRANCH   4   5
ATOM      5  C   UNL     1      32.736  32.867  -0.469  1.00  0.00     0.041 C 
ATOM      6  O   UNL     1      31.482  32.852  -0.579  1.00  0.00    -0.550 OA
ATOM      7  O   UNL     1      33.523  32.389  -1.510  1.00  0.00    -0.550 OA
ENDBRANCH   4   5
ENDBRANCH   3   4
ENDBRANCH   2   3
ENDBRANCH   1   2
BRANCH   1   8
ATOM      8  C   UNL     1      29.693  33.209   3.872  1.00  0.00     0.000 C 
BRANCH   8   9
ATOM      9  C   UNL     1      28.535  34.229   3.922  1.00  0.00    -0.000 C 
BRANCH   9  10
ATOM     10  C   UNL     1      27.171  33.580   3.630  1.00  0.00    -0.000 C 
BRANCH  10  11
ATOM     11  C   UNL     1      27.025  33.124   2.166  1.00  0.00    -0.000 C 
BRANCH  11  12
ATOM     12  C   UNL     1      25.649  33.401   1.536  1.00  0.00    -0.003 C 
ATOM     13  C   UNL     1      25.740  33.919   0.102  1.00  0.00     0.004 C 
ENDBRANCH  11  12
ENDBRANCH  10  11
ENDBRANCH   9  10
ENDBRANCH   8   9
ENDBRANCH   1   8
TORSDOF 9
ENDMDL
MODEL 8
REMARK VINA RESULT:    -3.433      3.926      5.618
REMARK INTER + INTRA:          -6.453
REMARK INTER:                  -5.566
REMARK INTRA:                  -0.887
REMARK UNBOUND:                -1.214
REMARK SMILES CCCCCCCCCCC(=O)[O-]
REMARK SMILES IDX 7 1 8 2 9 3 10 4 11 5 12 6 13 7 6 8 5 9 4 10 3 11 2 12 1 13
REMARK H PARENT
REMARK Flexibility Score: inf
ROOT
ATOM      1  C   UNL     1      28.948  35.157   3.178  1.00  0.00     0.000 C 
ENDROOT
BRANCH   1   2
ATOM      2  C   UNL     1      30.121  34.731   2.275  1.00  0.00     0.000 C 
BRANCH   2   3
ATOM      3  C   UNL     1      30.625  33.290   2.497  1.00  0.00     0.006 C 
BRANCH   3   4
ATOM      4  C   UNL     1      31.812  33.169   3.465  1.00  0.00     0.053 C 
BRANCH   4   5
ATOM      5  C   UNL     1      33.126  33.197   2.747  1.00  0.00     0.041 C 
ATOM      6  O   UNL     1      33.299  32.502   1.712  1.00  0.00    -0.550 OA
ATOM      7  O   UNL     1      34.172  33.967   3.241  1.00  0.00    -0.550 OA
ENDBRANCH   4   5
ENDBRANCH   3   4
ENDBRANCH   2   3
ENDBRANCH   1   2
BRANCH   1   8
ATOM      8  C   UNL     1      28.313  34.016   3.997  1.00  0.00     0.000 C 
BRANCH   8   9
ATOM      9  C   UNL     1      26.896  33.629   3.523  1.00  0.00    -0.000 C 
BRANCH   9  10
ATOM     10  C   UNL     1      26.906  32.950   2.143  1.00  0.00    -0.000 C 
BRANCH  10  11
ATOM     11  C   UNL     1      25.664  33.293   1.298  1.00  0.00    -0.000 C 
BRANCH  11  12
ATOM     12  C   UNL     1      25.801  34.555   0.429  1.00  0.00    -0.003 C 
ATOM     13  C   UNL     1      27.217  34.766  -0.101  1.00  0.00     0.004 C 
ENDBRANCH  11  12
ENDBRANCH  10  11
ENDBRANCH   9  10
ENDBRANCH   8   9
ENDBRANCH   1   8
TORSDOF 9
ENDMDL
MODEL 9
REMARK VINA RESULT:    -3.368      1.928      2.494
REMARK INTER + INTRA:          -6.353
REMARK INTER:                  -5.873
REMARK INTRA:                  -0.480
REMARK UNBOUND:                -1.214
REMARK SMILES CCCCCCCCCCC(=O)[O-]
REMARK SMILES IDX 7 1 8 2 9 3 10 4 11 5 12 6 13 7 6 8 5 9 4 10 3 11 2 12 1 13
REMARK H PARENT
REMARK Flexibility Score: inf
ROOT
ATOM      1  C   UNL     1      28.603  34.295   3.807  1.00  0.00     0.000 C 
ENDROOT
BRANCH   1   2
ATOM      2  C   UNL     1      27.202  33.662   3.712  1.00  0.00     0.000 C 
BRANCH   2   3
ATOM      3  C   UNL     1      26.913  32.912   2.395  1.00  0.00     0.006 C 
BRANCH   3   4
ATOM      4  C   UNL     1      25.869  33.587   1.491  1.00  0.00     0.053 C 
BRANCH   4   5
ATOM      5  C   UNL     1      26.491  34.192   0.270  1.00  0.00     0.041 C 
ATOM      6  O   UNL     1      25.851  34.238  -0.812  1.00  0.00    -0.550 OA
ATOM      7  O   UNL     1      27.793  34.676   0.321  1.00  0.00    -0.550 OA
ENDBRANCH   4   5
ENDBRANCH   3   4
ENDBRANCH   2   3
ENDBRANCH   1   2
BRANCH   1   8
ATOM      8  C   UNL     1      29.763  33.287   3.925  1.00  0.00     0.000 C 
BRANCH   8   9
ATOM      9  C   UNL     1      30.685  33.256   2.686  1.00  0.00    -0.000 C 
BRANCH   9  10
ATOM     10  C   UNL     1      32.175  33.245   3.066  1.00  0.00    -0.000 C 
BRANCH  10  11
ATOM     11  C   UNL     1      33.047  32.483   2.051  1.00  0.00    -0.000 C 
BRANCH  11  12
ATOM     12  C   UNL     1      33.540  33.324   0.861  1.00  0.00    -0.003 C 
ATOM     13  C   UNL     1      32.987  32.844  -0.480  1.00  0.00     0.004 C 
ENDBRANCH  11  12
ENDBRANCH  10  11
ENDBRANCH   9  10
ENDBRANCH   8   9
ENDBRANCH   1   8
TORSDOF 9
ENDMDL
