MODEL 1
REMARK VINA RESULT:    -3.481      0.000      0.000
REMARK INTER + INTRA:          -7.620
REMARK INTER:                  -5.922
REMARK INTRA:                  -1.698
REMARK UNBOUND:                -1.698
REMARK SMILES CCCCCCCCCCCCCC(=O)[O-]
REMARK SMILES IDX 8 1 9 2 10 3 11 4 12 5 13 6 14 7 15 8 16 9 7 10 6 11 5 12
REMARK SMILES IDX 4 13 3 14 2 15 1 16
REMARK H PARENT
REMARK Flexibility Score: inf
ROOT
ATOM      1  C   UNL     1      15.271 128.781  54.954  1.00  0.00     0.000 C 
ENDROOT
BRANCH   1   2
ATOM      2  C   UNL     1      15.171 128.504  53.442  1.00  0.00     0.000 C 
BRANCH   2   3
ATOM      3  C   UNL     1      16.379 127.724  52.894  1.00  0.00     0.000 C 
BRANCH   3   4
ATOM      4  C   UNL     1      17.344 128.618  52.099  1.00  0.00     0.000 C 
BRANCH   4   5
ATOM      5  C   UNL     1      16.653 129.357  50.939  1.00  0.00     0.006 C 
BRANCH   5   6
ATOM      6  C   UNL     1      17.370 129.134  49.602  1.00  0.00     0.053 C 
BRANCH   6   7
ATOM      7  C   UNL     1      16.504 129.504  48.438  1.00  0.00     0.041 C 
ATOM      8  O   UNL     1      15.714 128.657  47.942  1.00  0.00    -0.550 OA
ATOM      9  O   UNL     1      16.594 130.771  47.876  1.00  0.00    -0.550 OA
ENDBRANCH   6   7
ENDBRANCH   5   6
ENDBRANCH   4   5
ENDBRANCH   3   4
ENDBRANCH   2   3
ENDBRANCH   1   2
BRANCH   1  10
ATOM     10  C   UNL     1      16.332 127.955  55.705  1.00  0.00     0.000 C 
BRANCH  10  11
ATOM     11  C   UNL     1      16.780 128.611  57.022  1.00  0.00    -0.000 C 
BRANCH  11  12
ATOM     12  C   UNL     1      18.060 129.447  56.859  1.00  0.00    -0.000 C 
BRANCH  12  13
ATOM     13  C   UNL     1      18.822 129.119  55.565  1.00  0.00    -0.000 C 
BRANCH  13  14
ATOM     14  C   UNL     1      19.112 130.392  54.762  1.00  0.00    -0.000 C 
BRANCH  14  15
ATOM     15  C   UNL     1      17.873 131.295  54.696  1.00  0.00    -0.003 C 
ATOM     16  C   UNL     1      17.771 131.993  53.343  1.00  0.00     0.004 C 
ENDBRANCH  14  15
ENDBRANCH  13  14
ENDBRANCH  12  13
ENDBRANCH  11  12
ENDBRANCH  10  11
ENDBRANCH   1  10
TORSDOF 12
ENDMDL
MODEL 2
REMARK VINA RESULT:    -3.447      4.340      6.651
REMARK INTER + INTRA:          -7.563
REMARK INTER:                  -6.699
REMARK INTRA:                  -0.864
REMARK UNBOUND:                -1.698
REMARK SMILES CCCCCCCCCCCCCC(=O)[O-]
REMARK SMILES IDX 8 1 9 2 10 3 11 4 12 5 13 6 14 7 15 8 16 9 7 10 6 11 5 12
REMARK SMILES IDX 4 13 3 14 2 15 1 16
REMARK H PARENT
REMARK Flexibility Score: inf
ROOT
ATOM      1  C   UNL     1      17.766 130.523  59.365  1.00  0.00     0.000 C 
ENDROOT
BRANCH   1   2
ATOM      2  C   UNL     1      17.654 130.641  57.833  1.00  0.00     0.000 C 
BRANCH   2   3
ATOM      3  C   UNL     1      18.732 129.834  57.090  1.00  0.00     0.000 C 
BRANCH   3   4
ATOM      4  C   UNL     1      18.151 128.996  55.939  1.00  0.00     0.000 C 
BRANCH   4   5
ATOM      5  C   UNL     1      16.781 128.382  56.283  1.00  0.00     0.006 C 
BRANCH   5   6
ATOM      6  C   UNL     1      16.337 127.343  55.246  1.00  0.00     0.053 C 
BRANCH   6   7
ATOM      7  C   UNL     1      15.923 127.984  53.957  1.00  0.00     0.041 C 
ATOM      8  O   UNL     1      16.462 127.636  52.874  1.00  0.00    -0.550 OA
ATOM      9  O   UNL     1      14.966 128.991  53.956  1.00  0.00    -0.550 OA
ENDBRANCH   6   7
ENDBRANCH   5   6
ENDBRANCH   4   5
ENDBRANCH   3   4
ENDBRANCH   2   3
ENDBRANCH   1   2
BRANCH   1  10
ATOM     10  C   UNL     1      16.878 129.441  60.008  1.00  0.00     0.000 C 
BRANCH  10  11
ATOM     11  C   UNL     1      17.121 129.287  61.519  1.00  0.00    -0.000 C 
BRANCH  11  12
ATOM     12  C   UNL     1      18.602 129.044  61.856  1.00  0.00    -0.000 C 
BRANCH  12  13
ATOM     13  C   UNL     1      18.819 127.774  62.692  1.00  0.00    -0.000 C 
BRANCH  13  14
ATOM     14  C   UNL     1      17.479 127.146  63.092  1.00  0.00    -0.000 C 
BRANCH  14  15
ATOM     15  C   UNL     1      17.456 125.646  62.771  1.00  0.00    -0.003 C 
ATOM     16  C   UNL     1      18.863 125.055  62.799  1.00  0.00     0.004 C 
ENDBRANCH  14  15
ENDBRANCH  13  14
ENDBRANCH  12  13
ENDBRANCH  11  12
ENDBRANCH  10  11
ENDBRANCH   1  10
TORSDOF 12
ENDMDL
MODEL 3
REMARK VINA RESULT:    -3.402      5.658      8.090
REMARK INTER + INTRA:          -7.487
REMARK INTER:                  -6.694
REMARK INTRA:                  -0.793
REMARK UNBOUND:                -1.698
REMARK SMILES CCCCCCCCCCCCCC(=O)[O-]
REMARK SMILES IDX 8 1 9 2 10 3 11 4 12 5 13 6 14 7 15 8 16 9 7 10 6 11 5 12
REMARK SMILES IDX 4 13 3 14 2 15 1 16
REMARK H PARENT
REMARK Flexibility Score: inf
ROOT
ATOM      1  C   UNL     1      18.843 129.700  60.790  1.00  0.00     0.000 C 
ENDROOT
BRANCH   1   2
ATOM      2  C   UNL     1      17.366 129.649  60.357  1.00  0.00     0.000 C 
BRANCH   2   3
ATOM      3  C   UNL     1      17.144 130.161  58.923  1.00  0.00     0.000 C 
BRANCH   3   4
ATOM      4  C   UNL     1      16.839 129.025  57.933  1.00  0.00     0.000 C 
BRANCH   4   5
ATOM      5  C   UNL     1      17.490 129.246  56.556  1.00  0.00     0.006 C 
BRANCH   5   6
ATOM      6  C   UNL     1      18.397 130.483  56.537  1.00  0.00     0.053 C 
BRANCH   6   7
ATOM      7  C   UNL     1      19.752 130.171  55.980  1.00  0.00     0.041 C 
ATOM      8  O   UNL     1      20.313 129.077  56.253  1.00  0.00    -0.550 OA
ATOM      9  O   UNL     1      20.412 131.102  55.188  1.00  0.00    -0.550 OA
ENDBRANCH   6   7
ENDBRANCH   5   6
ENDBRANCH   4   5
ENDBRANCH   3   4
ENDBRANCH   2   3
ENDBRANCH   1   2
BRANCH   1  10
ATOM     10  C   UNL     1      19.251 128.666  61.857  1.00  0.00     0.000 C 
BRANCH  10  11
ATOM     11  C   UNL     1      18.506 128.852  63.189  1.00  0.00    -0.000 C 
BRANCH  11  12
ATOM     12  C   UNL     1      18.166 127.514  63.866  1.00  0.00    -0.000 C 
BRANCH  12  13
ATOM     13  C   UNL     1      17.205 126.654  63.030  1.00  0.00    -0.000 C 
BRANCH  13  14
ATOM     14  C   UNL     1      17.812 125.274  62.747  1.00  0.00    -0.000 C 
BRANCH  14  15
ATOM     15  C   UNL     1      19.336 125.362  62.601  1.00  0.00    -0.003 C 
ATOM     16  C   UNL     1      20.008 124.067  63.048  1.00  0.00     0.004 C 
ENDBRANCH  14  15
ENDBRANCH  13  14
ENDBRANCH  12  13
ENDBRANCH  11  12
ENDBRANCH  10  11
ENDBRANCH   1  10
TORSDOF 12
ENDMDL
MODEL 4
REMARK VINA RESULT:    -3.393      4.978      7.071
REMARK INTER + INTRA:          -7.470
REMARK INTER:                  -5.272
REMARK INTRA:                  -2.198
REMARK UNBOUND:                -1.698
REMARK SMILES CCCCCCCCCCCCCC(=O)[O-]
REMARK SMILES IDX 8 1 9 2 10 3 11 4 12 5 13 6 14 7 15 8 16 9 7 10 6 11 5 12
REMARK SMILES IDX 4 13 3 14 2 15 1 16
REMARK H PARENT
REMARK Flexibility Score: inf
ROOT
ATOM      1  C   UNL     1      17.797 130.586  53.563  1.00  0.00     0.000 C 
ENDROOT
BRANCH   1   2
ATOM      2  C   UNL     1      18.397 131.123  54.875  1.00  0.00     0.000 C 
BRANCH   2   3
ATOM      3  C   UNL     1      19.582 130.283  55.380  1.00  0.00     0.000 C 
BRANCH   3   4
ATOM      4  C   UNL     1      19.313 129.651  56.756  1.00  0.00     0.000 C 
BRANCH   4   5
ATOM      5  C   UNL     1      18.498 130.570  57.683  1.00  0.00     0.006 C 
BRANCH   5   6
ATOM      6  C   UNL     1      17.893 129.806  58.868  1.00  0.00     0.053 C 
BRANCH   6   7
ATOM      7  C   UNL     1      18.423 130.301  60.178  1.00  0.00     0.041 C 
ATOM      8  O   UNL     1      18.417 131.533  60.439  1.00  0.00    -0.550 OA
ATOM      9  O   UNL     1      18.957 129.406  61.096  1.00  0.00    -0.550 OA
ENDBRANCH   6   7
ENDBRANCH   5   6
ENDBRANCH   4   5
ENDBRANCH   3   4
ENDBRANCH   2   3
ENDBRANCH   1   2
BRANCH   1  10
ATOM     10  C   UNL     1      17.894 129.061  53.369  1.00  0.00     0.000 C 
BRANCH  10  11
ATOM     11  C   UNL     1      16.565 128.336  53.637  1.00  0.00    -0.000 C 
BRANCH  11  12
ATOM     12  C   UNL     1      16.624 127.435  54.881  1.00  0.00    -0.000 C 
BRANCH  12  13
ATOM     13  C   UNL     1      15.989 128.089  56.118  1.00  0.00    -0.000 C 
BRANCH  13  14
ATOM     14  C   UNL     1      14.899 129.087  55.709  1.00  0.00    -0.000 C 
BRANCH  14  15
ATOM     15  C   UNL     1      15.065 130.419  56.452  1.00  0.00    -0.003 C 
ATOM     16  C   UNL     1      14.744 131.601  55.543  1.00  0.00     0.004 C 
ENDBRANCH  14  15
ENDBRANCH  13  14
ENDBRANCH  12  13
ENDBRANCH  11  12
ENDBRANCH  10  11
ENDBRANCH   1  10
TORSDOF 12
ENDMDL
MODEL 5
REMARK VINA RESULT:    -3.383      1.548      2.817
REMARK INTER + INTRA:          -7.453
REMARK INTER:                  -5.849
REMARK INTRA:                  -1.605
REMARK UNBOUND:                -1.698
REMARK SMILES CCCCCCCCCCCCCC(=O)[O-]
REMARK SMILES IDX 8 1 9 2 10 3 11 4 12 5 13 6 14 7 15 8 16 9 7 10 6 11 5 12
REMARK SMILES IDX 4 13 3 14 2 15 1 16
REMARK H PARENT
REMARK Flexibility Score: inf
ROOT
ATOM      1  C   UNL     1      14.322 130.289  53.724  1.00  0.00     0.000 C 
ENDROOT
BRANCH   1   2
ATOM      2  C   UNL     1      15.613 131.076  53.432  1.00  0.00     0.000 C 
BRANCH   2   3
ATOM      3  C   UNL     1      15.628 131.702  52.027  1.00  0.00     0.000 C 
BRANCH   3   4
ATOM      4  C   UNL     1      16.836 131.245  51.192  1.00  0.00     0.000 C 
BRANCH   4   5
ATOM      5  C   UNL     1      16.440 130.309  50.036  1.00  0.00     0.006 C 
BRANCH   5   6
ATOM      6  C   UNL     1      17.286 129.030  50.012  1.00  0.00     0.053 C 
BRANCH   6   7
ATOM      7  C   UNL     1      17.972 128.841  48.694  1.00  0.00     0.041 C 
ATOM      8  O   UNL     1      18.779 129.710  48.269  1.00  0.00    -0.550 OA
ATOM      9  O   UNL     1      17.693 127.724  47.917  1.00  0.00    -0.550 OA
ENDBRANCH   6   7
ENDBRANCH   5   6
ENDBRANCH   4   5
ENDBRANCH   3   4
ENDBRANCH   2   3
ENDBRANCH   1   2
BRANCH   1  10
ATOM     10  C   UNL     1      14.507 128.774  53.929  1.00  0.00     0.000 C 
BRANCH  10  11
ATOM     11  C   UNL     1      15.714 128.208  53.163  1.00  0.00    -0.000 C 
BRANCH  11  12
ATOM     12  C   UNL     1      16.670 127.416  54.070  1.00  0.00    -0.000 C 
BRANCH  12  13
ATOM     13  C   UNL     1      16.464 127.725  55.561  1.00  0.00    -0.000 C 
BRANCH  13  14
ATOM     14  C   UNL     1      17.487 128.757  56.052  1.00  0.00    -0.000 C 
BRANCH  14  15
ATOM     15  C   UNL     1      18.700 128.818  55.115  1.00  0.00    -0.003 C 
ATOM     16  C   UNL     1      18.928 130.236  54.599  1.00  0.00     0.004 C 
ENDBRANCH  14  15
ENDBRANCH  13  14
ENDBRANCH  12  13
ENDBRANCH  11  12
ENDBRANCH  10  11
ENDBRANCH   1  10
TORSDOF 12
ENDMDL
MODEL 6
REMARK VINA RESULT:    -3.355      2.732      4.883
REMARK INTER + INTRA:          -7.406
REMARK INTER:                  -5.606
REMARK INTRA:                  -1.799
REMARK UNBOUND:                -1.698
REMARK SMILES CCCCCCCCCCCCCC(=O)[O-]
REMARK SMILES IDX 8 1 9 2 10 3 11 4 12 5 13 6 14 7 15 8 16 9 7 10 6 11 5 12
REMARK SMILES IDX 4 13 3 14 2 15 1 16
REMARK H PARENT
REMARK Flexibility Score: inf
ROOT
ATOM      1  C   UNL     1      15.533 129.138  57.448  1.00  0.00     0.000 C 
ENDROOT
BRANCH   1   2
ATOM      2  C   UNL     1      16.959 129.199  58.027  1.00  0.00     0.000 C 
BRANCH   2   3
ATOM      3  C   UNL     1      17.834 130.271  57.354  1.00  0.00     0.000 C 
BRANCH   3   4
ATOM      4  C   UNL     1      19.240 129.753  57.013  1.00  0.00     0.000 C 
BRANCH   4   5
ATOM      5  C   UNL     1      19.507 129.709  55.497  1.00  0.00     0.006 C 
BRANCH   5   6
ATOM      6  C   UNL     1      18.581 130.654  54.720  1.00  0.00     0.053 C 
BRANCH   6   7
ATOM      7  C   UNL     1      19.311 131.864  54.224  1.00  0.00     0.041 C 
ATOM      8  O   UNL     1      20.435 132.168  54.705  1.00  0.00    -0.550 OA
ATOM      9  O   UNL     1      18.735 132.677  53.256  1.00  0.00    -0.550 OA
ENDBRANCH   6   7
ENDBRANCH   5   6
ENDBRANCH   4   5
ENDBRANCH   3   4
ENDBRANCH   2   3
ENDBRANCH   1   2
BRANCH   1  10
ATOM     10  C   UNL     1      15.449 128.906  55.928  1.00  0.00     0.000 C 
BRANCH  10  11
ATOM     11  C   UNL     1      15.866 127.485  55.514  1.00  0.00    -0.000 C 
BRANCH  11  12
ATOM     12  C   UNL     1      16.860 127.480  54.341  1.00  0.00    -0.000 C 
BRANCH  12  13
ATOM     13  C   UNL     1      16.191 127.802  52.996  1.00  0.00    -0.000 C 
BRANCH  13  14
ATOM     14  C   UNL     1      17.154 128.558  52.073  1.00  0.00    -0.000 C 
BRANCH  14  15
ATOM     15  C   UNL     1      16.494 129.820  51.503  1.00  0.00    -0.003 C 
ATOM     16  C   UNL     1      15.581 130.477  52.533  1.00  0.00     0.004 C 
ENDBRANCH  14  15
ENDBRANCH  13  14
ENDBRANCH  12  13
ENDBRANCH  11  12
ENDBRANCH  10  11
ENDBRANCH   1  10
TORSDOF 12
ENDMDL
MODEL 7
REMARK VINA RESULT:    -3.354      3.431      5.366
REMARK INTER + INTRA:          -7.405
REMARK INTER:                  -5.611
REMARK INTRA:                  -1.793
REMARK UNBOUND:                -1.698
REMARK SMILES CCCCCCCCCCCCCC(=O)[O-]
REMARK SMILES IDX 8 1 9 2 10 3 11 4 12 5 13 6 14 7 15 8 16 9 7 10 6 11 5 12
REMARK SMILES IDX 4 13 3 14 2 15 1 16
REMARK H PARENT
REMARK Flexibility Score: inf
ROOT
ATOM      1  C   UNL     1      16.423 129.757  51.676  1.00  0.00     0.000 C 
ENDROOT
BRANCH   1   2
ATOM      2  C   UNL     1      15.373 130.492  52.529  1.00  0.00     0.000 C 
BRANCH   2   3
ATOM      3  C   UNL     1      15.950 131.709  53.272  1.00  0.00     0.000 C 
BRANCH   3   4
ATOM      4  C   UNL     1      16.206 131.422  54.761  1.00  0.00     0.000 C 
BRANCH   4   5
ATOM      5  C   UNL     1      17.645 131.760  55.192  1.00  0.00     0.006 C 
BRANCH   5   6
ATOM      6  C   UNL     1      18.686 130.921  54.441  1.00  0.00     0.053 C 
BRANCH   6   7
ATOM      7  C   UNL     1      19.950 130.766  55.229  1.00  0.00     0.041 C 
ATOM      8  O   UNL     1      20.905 131.569  55.059  1.00  0.00    -0.550 OA
ATOM      9  O   UNL     1      20.088 129.714  56.126  1.00  0.00    -0.550 OA
ENDBRANCH   6   7
ENDBRANCH   5   6
ENDBRANCH   4   5
ENDBRANCH   3   4
ENDBRANCH   2   3
ENDBRANCH   1   2
BRANCH   1  10
ATOM     10  C   UNL     1      16.972 128.454  52.286  1.00  0.00     0.000 C 
BRANCH  10  11
ATOM     11  C   UNL     1      16.021 127.829  53.320  1.00  0.00    -0.000 C 
BRANCH  11  12
ATOM     12  C   UNL     1      16.728 127.492  54.643  1.00  0.00    -0.000 C 
BRANCH  12  13
ATOM     13  C   UNL     1      15.933 127.954  55.875  1.00  0.00    -0.000 C 
BRANCH  13  14
ATOM     14  C   UNL     1      16.868 128.530  56.944  1.00  0.00    -0.000 C 
BRANCH  14  15
ATOM     15  C   UNL     1      16.073 129.047  58.150  1.00  0.00    -0.003 C 
ATOM     16  C   UNL     1      14.866 128.158  58.436  1.00  0.00     0.004 C 
ENDBRANCH  14  15
ENDBRANCH  13  14
ENDBRANCH  12  13
ENDBRANCH  11  12
ENDBRANCH  10  11
ENDBRANCH   1  10
TORSDOF 12
ENDMDL
MODEL 8
REMARK VINA RESULT:    -3.351      1.466      2.310
REMARK INTER + INTRA:          -7.399
REMARK INTER:                  -5.222
REMARK INTRA:                  -2.177
REMARK UNBOUND:                -1.698
REMARK SMILES CCCCCCCCCCCCCC(=O)[O-]
REMARK SMILES IDX 8 1 9 2 10 3 11 4 12 5 13 6 14 7 15 8 16 9 7 10 6 11 5 12
REMARK SMILES IDX 4 13 3 14 2 15 1 16
REMARK H PARENT
REMARK Flexibility Score: inf
ROOT
ATOM      1  C   UNL     1      15.507 130.143  56.807  1.00  0.00     0.000 C 
ENDROOT
BRANCH   1   2
ATOM      2  C   UNL     1      15.172 129.123  55.703  1.00  0.00     0.000 C 
BRANCH   2   3
ATOM      3  C   UNL     1      15.980 127.820  55.827  1.00  0.00     0.000 C 
BRANCH   3   4
ATOM      4  C   UNL     1      16.542 127.346  54.477  1.00  0.00     0.000 C 
BRANCH   4   5
ATOM      5  C   UNL     1      16.080 128.223  53.299  1.00  0.00     0.006 C 
BRANCH   5   6
ATOM      6  C   UNL     1      17.180 128.401  52.245  1.00  0.00     0.053 C 
BRANCH   6   7
ATOM      7  C   UNL     1      16.705 129.209  51.077  1.00  0.00     0.041 C 
ATOM      8  O   UNL     1      17.006 128.865  49.903  1.00  0.00    -0.550 OA
ATOM      9  O   UNL     1      15.960 130.364  51.284  1.00  0.00    -0.550 OA
ENDBRANCH   6   7
ENDBRANCH   5   6
ENDBRANCH   4   5
ENDBRANCH   3   4
ENDBRANCH   2   3
ENDBRANCH   1   2
BRANCH   1  10
ATOM     10  C   UNL     1      16.537 129.671  57.850  1.00  0.00     0.000 C 
BRANCH  10  11
ATOM     11  C   UNL     1      17.853 130.464  57.795  1.00  0.00    -0.000 C 
BRANCH  11  12
ATOM     12  C   UNL     1      19.010 129.647  57.196  1.00  0.00    -0.000 C 
BRANCH  12  13
ATOM     13  C   UNL     1      19.227 129.934  55.702  1.00  0.00    -0.000 C 
BRANCH  13  14
ATOM     14  C   UNL     1      18.807 131.367  55.354  1.00  0.00    -0.000 C 
BRANCH  14  15
ATOM     15  C   UNL     1      17.957 131.397  54.077  1.00  0.00    -0.003 C 
ATOM     16  C   UNL     1      16.829 132.418  54.190  1.00  0.00     0.004 C 
ENDBRANCH  14  15
ENDBRANCH  13  14
ENDBRANCH  12  13
ENDBRANCH  11  12
ENDBRANCH  10  11
ENDBRANCH   1  10
TORSDOF 12
ENDMDL
MODEL 9
REMARK VINA RESULT:    -3.339      6.403      9.231
REMARK INTER + INTRA:          -7.378
REMARK INTER:                  -6.479
REMARK INTRA:                  -0.900
REMARK UNBOUND:                -1.698
REMARK SMILES CCCCCCCCCCCCCC(=O)[O-]
REMARK SMILES IDX 8 1 9 2 10 3 11 4 12 5 13 6 14 7 15 8 16 9 7 10 6 11 5 12
REMARK SMILES IDX 4 13 3 14 2 15 1 16
REMARK H PARENT
REMARK Flexibility Score: inf
ROOT
ATOM      1  C   UNL     1      17.783 130.046  58.315  1.00  0.00     0.000 C 
ENDROOT
BRANCH   1   2
ATOM      2  C   UNL     1      18.283 130.437  59.718  1.00  0.00     0.000 C 
BRANCH   2   3
ATOM      3  C   UNL     1      17.610 129.632  60.842  1.00  0.00     0.000 C 
BRANCH   3   4
ATOM      4  C   UNL     1      18.515 129.469  62.073  1.00  0.00     0.000 C 
BRANCH   4   5
ATOM      5  C   UNL     1      19.019 128.025  62.254  1.00  0.00     0.006 C 
BRANCH   5   6
ATOM      6  C   UNL     1      18.129 127.218  63.208  1.00  0.00     0.053 C 
BRANCH   6   7
ATOM      7  C   UNL     1      18.095 125.766  62.841  1.00  0.00     0.041 C 
ATOM      8  O   UNL     1      17.002 125.140  62.831  1.00  0.00    -0.550 OA
ATOM      9  O   UNL     1      19.275 125.094  62.546  1.00  0.00    -0.550 OA
ENDBRANCH   6   7
ENDBRANCH   5   6
ENDBRANCH   4   5
ENDBRANCH   3   4
ENDBRANCH   2   3
ENDBRANCH   1   2
BRANCH   1  10
ATOM     10  C   UNL     1      18.885 129.751  57.281  1.00  0.00     0.000 C 
BRANCH  10  11
ATOM     11  C   UNL     1      18.903 130.759  56.120  1.00  0.00    -0.000 C 
BRANCH  11  12
ATOM     12  C   UNL     1      18.604 130.100  54.763  1.00  0.00    -0.000 C 
BRANCH  12  13
ATOM     13  C   UNL     1      18.561 128.566  54.845  1.00  0.00    -0.000 C 
BRANCH  13  14
ATOM     14  C   UNL     1      17.228 128.027  54.312  1.00  0.00    -0.000 C 
BRANCH  14  15
ATOM     15  C   UNL     1      16.429 127.338  55.425  1.00  0.00    -0.003 C 
ATOM     16  C   UNL     1      15.440 128.303  56.072  1.00  0.00     0.004 C 
ENDBRANCH  14  15
ENDBRANCH  13  14
ENDBRANCH  12  13
ENDBRANCH  11  12
ENDBRANCH  10  11
ENDBRANCH   1  10
TORSDOF 12
ENDMDL
