MODEL 1
REMARK VINA RESULT:    -3.734      0.000      0.000
REMARK INTER + INTRA:          -4.719
REMARK INTER:                  -4.499
REMARK INTRA:                  -0.220
REMARK UNBOUND:                -0.220
REMARK SMILES OCC(O)CO
REMARK SMILES IDX 3 1 5 2 6 3 2 5 1 6 4 8
REMARK H PARENT 6 4 1 7 4 9
REMARK Flexibility Score: inf
ROOT
ATOM      1  C   UNL     1      -8.678  22.957 -34.094  1.00  0.00     0.165 C 
ENDROOT
BRANCH   1   2
ATOM      2  C   UNL     1      -9.102  21.829 -33.137  1.00  0.00     0.190 C 
BRANCH   2   3
ATOM      3  O   UNL     1      -9.856  22.336 -32.068  1.00  0.00    -0.394 OA
ATOM      4  H   UNL     1     -10.808  22.289 -32.344  1.00  0.00     0.210 HD
ENDBRANCH   2   3
ENDBRANCH   1   2
BRANCH   1   5
ATOM      5  C   UNL     1      -8.347  24.254 -33.335  1.00  0.00     0.190 C 
BRANCH   5   6
ATOM      6  O   UNL     1      -9.483  25.072 -33.247  1.00  0.00    -0.394 OA
ATOM      7  H   UNL     1      -9.263  25.917 -33.719  1.00  0.00     0.210 HD
ENDBRANCH   5   6
ENDBRANCH   1   5
BRANCH   1   8
ATOM      8  O   UNL     1      -7.582  22.545 -34.874  1.00  0.00    -0.388 OA
ATOM      9  H   UNL     1      -6.794  22.485 -34.273  1.00  0.00     0.211 HD
ENDBRANCH   1   8
TORSDOF 5
ENDMDL
MODEL 2
REMARK VINA RESULT:    -3.532      0.627      2.216
REMARK INTER + INTRA:          -4.475
REMARK INTER:                  -4.345
REMARK INTRA:                  -0.130
REMARK UNBOUND:                -0.220
REMARK SMILES OCC(O)CO
REMARK SMILES IDX 3 1 5 2 6 3 2 5 1 6 4 8
REMARK H PARENT 6 4 1 7 4 9
REMARK Flexibility Score: inf
ROOT
ATOM      1  C   UNL     1      -8.585  22.647 -32.867  1.00  0.00     0.165 C 
ENDROOT
BRANCH   1   2
ATOM      2  C   UNL     1      -8.607  21.993 -34.260  1.00  0.00     0.190 C 
BRANCH   2   3
ATOM      3  O   UNL     1      -7.735  22.655 -35.137  1.00  0.00    -0.394 OA
ATOM      4  H   UNL     1      -6.831  22.605 -34.730  1.00  0.00     0.210 HD
ENDBRANCH   2   3
ENDBRANCH   1   2
BRANCH   1   5
ATOM      5  C   UNL     1      -8.239  24.144 -32.945  1.00  0.00     0.190 C 
BRANCH   5   6
ATOM      6  O   UNL     1      -9.352  24.882 -33.374  1.00  0.00    -0.394 OA
ATOM      7  H   UNL     1      -9.309  24.913 -34.365  1.00  0.00     0.210 HD
ENDBRANCH   5   6
ENDBRANCH   1   5
BRANCH   1   8
ATOM      8  O   UNL     1      -9.820  22.455 -32.222  1.00  0.00    -0.388 OA
ATOM      9  H   UNL     1     -10.499  22.276 -32.924  1.00  0.00     0.211 HD
ENDBRANCH   1   8
TORSDOF 5
ENDMDL
MODEL 3
REMARK VINA RESULT:    -3.392      0.861      2.419
REMARK INTER + INTRA:          -4.306
REMARK INTER:                  -4.085
REMARK INTRA:                  -0.222
REMARK UNBOUND:                -0.220
REMARK SMILES OCC(O)CO
REMARK SMILES IDX 3 1 5 2 6 3 2 5 1 6 4 8
REMARK H PARENT 6 4 1 7 4 9
REMARK Flexibility Score: inf
ROOT
ATOM      1  C   UNL     1      -8.597  22.751 -33.769  1.00  0.00     0.165 C 
ENDROOT
BRANCH   1   2
ATOM      2  C   UNL     1      -8.315  24.155 -33.203  1.00  0.00     0.190 C 
BRANCH   2   3
ATOM      3  O   UNL     1      -9.459  24.962 -33.273  1.00  0.00    -0.394 OA
ATOM      4  H   UNL     1     -10.217  24.362 -33.503  1.00  0.00     0.210 HD
ENDBRANCH   2   3
ENDBRANCH   1   2
BRANCH   1   5
ATOM      5  C   UNL     1      -9.062  21.778 -32.672  1.00  0.00     0.190 C 
BRANCH   5   6
ATOM      6  O   UNL     1      -9.976  22.408 -31.815  1.00  0.00    -0.394 OA
ATOM      7  H   UNL     1     -10.245  23.254 -32.257  1.00  0.00     0.210 HD
ENDBRANCH   5   6
ENDBRANCH   1   5
BRANCH   1   8
ATOM      8  O   UNL     1      -9.547  22.827 -34.803  1.00  0.00    -0.388 OA
ATOM      9  H   UNL     1      -9.891  23.758 -34.826  1.00  0.00     0.211 HD
ENDBRANCH   1   8
TORSDOF 5
ENDMDL
MODEL 4
REMARK VINA RESULT:    -3.343      0.675      2.281
REMARK INTER + INTRA:          -4.247
REMARK INTER:                  -4.243
REMARK INTRA:                  -0.004
REMARK UNBOUND:                -0.220
REMARK SMILES OCC(O)CO
REMARK SMILES IDX 3 1 5 2 6 3 2 5 1 6 4 8
REMARK H PARENT 6 4 1 7 4 9
REMARK Flexibility Score: inf
ROOT
ATOM      1  C   UNL     1      -8.459  23.544 -33.421  1.00  0.00     0.165 C 
ENDROOT
BRANCH   1   2
ATOM      2  C   UNL     1      -8.699  22.386 -32.436  1.00  0.00     0.190 C 
BRANCH   2   3
ATOM      3  O   UNL     1      -9.993  22.446 -31.899  1.00  0.00    -0.394 OA
ATOM      4  H   UNL     1     -10.295  21.507 -31.780  1.00  0.00     0.210 HD
ENDBRANCH   2   3
ENDBRANCH   1   2
BRANCH   1   5
ATOM      5  C   UNL     1      -8.724  23.118 -34.876  1.00  0.00     0.190 C 
BRANCH   5   6
ATOM      6  O   UNL     1      -7.619  22.426 -35.392  1.00  0.00    -0.394 OA
ATOM      7  H   UNL     1      -6.985  22.299 -34.639  1.00  0.00     0.210 HD
ENDBRANCH   5   6
ENDBRANCH   1   5
BRANCH   1   8
ATOM      8  O   UNL     1      -9.255  24.650 -33.074  1.00  0.00    -0.388 OA
ATOM      9  H   UNL     1      -8.798  25.465 -33.410  1.00  0.00     0.211 HD
ENDBRANCH   1   8
TORSDOF 5
ENDMDL
MODEL 5
REMARK VINA RESULT:    -3.234      1.083      2.618
REMARK INTER + INTRA:          -4.115
REMARK INTER:                  -3.993
REMARK INTRA:                  -0.122
REMARK UNBOUND:                -0.220
REMARK SMILES OCC(O)CO
REMARK SMILES IDX 3 1 5 2 6 3 2 5 1 6 4 8
REMARK H PARENT 6 4 1 7 4 9
REMARK Flexibility Score: inf
ROOT
ATOM      1  C   UNL     1      -8.659  22.575 -33.061  1.00  0.00     0.165 C 
ENDROOT
BRANCH   1   2
ATOM      2  C   UNL     1      -8.267  24.057 -32.921  1.00  0.00     0.190 C 
BRANCH   2   3
ATOM      3  O   UNL     1      -9.297  24.893 -33.375  1.00  0.00    -0.394 OA
ATOM      4  H   UNL     1     -10.140  24.374 -33.296  1.00  0.00     0.210 HD
ENDBRANCH   2   3
ENDBRANCH   1   2
BRANCH   1   5
ATOM      5  C   UNL     1      -8.761  22.150 -34.536  1.00  0.00     0.190 C 
BRANCH   5   6
ATOM      6  O   UNL     1      -7.731  22.736 -35.286  1.00  0.00    -0.394 OA
ATOM      7  H   UNL     1      -7.227  21.993 -35.709  1.00  0.00     0.210 HD
ENDBRANCH   5   6
ENDBRANCH   1   5
BRANCH   1   8
ATOM      8  O   UNL     1      -7.741  21.763 -32.371  1.00  0.00    -0.388 OA
ATOM      9  H   UNL     1      -8.223  20.944 -32.085  1.00  0.00     0.211 HD
ENDBRANCH   1   8
TORSDOF 5
ENDMDL
MODEL 6
REMARK VINA RESULT:    -3.154     13.967     15.035
REMARK INTER + INTRA:          -4.020
REMARK INTER:                  -3.796
REMARK INTRA:                  -0.224
REMARK UNBOUND:                -0.220
REMARK SMILES OCC(O)CO
REMARK SMILES IDX 3 1 5 2 6 3 2 5 1 6 4 8
REMARK H PARENT 6 4 1 7 4 9
REMARK Flexibility Score: inf
ROOT
ATOM      1  C   UNL     1      -1.522  32.123 -43.092  1.00  0.00     0.165 C 
ENDROOT
BRANCH   1   2
ATOM      2  C   UNL     1      -1.314  31.864 -44.595  1.00  0.00     0.190 C 
BRANCH   2   3
ATOM      3  O   UNL     1      -2.385  31.133 -45.130  1.00  0.00    -0.394 OA
ATOM      4  H   UNL     1      -3.203  31.440 -44.657  1.00  0.00     0.210 HD
ENDBRANCH   2   3
ENDBRANCH   1   2
BRANCH   1   5
ATOM      5  C   UNL     1      -1.520  30.814 -42.282  1.00  0.00     0.190 C 
BRANCH   5   6
ATOM      6  O   UNL     1      -2.756  30.162 -42.403  1.00  0.00    -0.394 OA
ATOM      7  H   UNL     1      -3.452  30.870 -42.407  1.00  0.00     0.210 HD
ENDBRANCH   5   6
ENDBRANCH   1   5
BRANCH   1   8
ATOM      8  O   UNL     1      -0.539  33.006 -42.612  1.00  0.00    -0.388 OA
ATOM      9  H   UNL     1       0.203  33.016 -43.272  1.00  0.00     0.211 HD
ENDBRANCH   1   8
TORSDOF 5
ENDMDL
MODEL 7
REMARK VINA RESULT:    -3.082      1.175      2.550
REMARK INTER + INTRA:          -3.933
REMARK INTER:                  -3.929
REMARK INTRA:                  -0.004
REMARK UNBOUND:                -0.220
REMARK SMILES OCC(O)CO
REMARK SMILES IDX 3 1 5 2 6 3 2 5 1 6 4 8
REMARK H PARENT 6 4 1 7 4 9
REMARK Flexibility Score: inf
ROOT
ATOM      1  C   UNL     1      -8.669  23.046 -33.770  1.00  0.00     0.165 C 
ENDROOT
BRANCH   1   2
ATOM      2  C   UNL     1      -8.378  22.284 -35.075  1.00  0.00     0.190 C 
BRANCH   2   3
ATOM      3  O   UNL     1      -7.256  21.455 -34.931  1.00  0.00    -0.394 OA
ATOM      4  H   UNL     1      -7.595  20.522 -34.890  1.00  0.00     0.210 HD
ENDBRANCH   2   3
ENDBRANCH   1   2
BRANCH   1   5
ATOM      5  C   UNL     1      -8.821  22.090 -32.574  1.00  0.00     0.190 C 
BRANCH   5   6
ATOM      6  O   UNL     1      -9.963  22.419 -31.827  1.00  0.00    -0.394 OA
ATOM      7  H   UNL     1     -10.335  23.248 -32.226  1.00  0.00     0.210 HD
ENDBRANCH   5   6
ENDBRANCH   1   5
BRANCH   1   8
ATOM      8  O   UNL     1      -7.658  23.992 -33.525  1.00  0.00    -0.388 OA
ATOM      9  H   UNL     1      -7.219  24.192 -34.393  1.00  0.00     0.211 HD
ENDBRANCH   1   8
TORSDOF 5
ENDMDL
MODEL 8
REMARK VINA RESULT:    -3.072      3.316      4.548
REMARK INTER + INTRA:          -3.920
REMARK INTER:                  -3.705
REMARK INTRA:                  -0.215
REMARK UNBOUND:                -0.220
REMARK SMILES OCC(O)CO
REMARK SMILES IDX 3 1 5 2 6 3 2 5 1 6 4 8
REMARK H PARENT 6 4 1 7 4 9
REMARK Flexibility Score: inf
ROOT
ATOM      1  C   UNL     1      -9.875  27.161 -35.267  1.00  0.00     0.165 C 
ENDROOT
BRANCH   1   2
ATOM      2  C   UNL     1      -9.337  25.827 -34.719  1.00  0.00     0.190 C 
BRANCH   2   3
ATOM      3  O   UNL     1      -9.869  25.556 -33.451  1.00  0.00    -0.394 OA
ATOM      4  H   UNL     1      -9.477  24.692 -33.157  1.00  0.00     0.210 HD
ENDBRANCH   2   3
ENDBRANCH   1   2
BRANCH   1   5
ATOM      5  C   UNL     1     -11.106  26.952 -36.168  1.00  0.00     0.190 C 
BRANCH   5   6
ATOM      6  O   UNL     1     -11.968  25.999 -35.604  1.00  0.00    -0.394 OA
ATOM      7  H   UNL     1     -12.787  25.989 -36.165  1.00  0.00     0.210 HD
ENDBRANCH   5   6
ENDBRANCH   1   5
BRANCH   1   8
ATOM      8  O   UNL     1     -10.177  28.034 -34.207  1.00  0.00    -0.388 OA
ATOM      9  H   UNL     1      -9.355  28.134 -33.659  1.00  0.00     0.211 HD
ENDBRANCH   1   8
TORSDOF 5
ENDMDL
MODEL 9
REMARK VINA RESULT:    -3.003      3.274      4.368
REMARK INTER + INTRA:          -3.838
REMARK INTER:                  -3.628
REMARK INTRA:                  -0.210
REMARK UNBOUND:                -0.220
REMARK SMILES OCC(O)CO
REMARK SMILES IDX 3 1 5 2 6 3 2 5 1 6 4 8
REMARK H PARENT 6 4 1 7 4 9
REMARK Flexibility Score: inf
ROOT
ATOM      1  C   UNL     1      -9.422  26.119 -34.753  1.00  0.00     0.165 C 
ENDROOT
BRANCH   1   2
ATOM      2  C   UNL     1      -9.672  25.241 -35.993  1.00  0.00     0.190 C 
BRANCH   2   3
ATOM      3  O   UNL     1      -8.936  25.705 -37.092  1.00  0.00    -0.394 OA
ATOM      4  H   UNL     1      -9.589  25.883 -37.818  1.00  0.00     0.210 HD
ENDBRANCH   2   3
ENDBRANCH   1   2
BRANCH   1   5
ATOM      5  C   UNL     1     -10.324  27.366 -34.747  1.00  0.00     0.190 C 
BRANCH   5   6
ATOM      6  O   UNL     1      -9.910  28.274 -35.732  1.00  0.00    -0.394 OA
ATOM      7  H   UNL     1      -9.102  27.884 -36.158  1.00  0.00     0.210 HD
ENDBRANCH   5   6
ENDBRANCH   1   5
BRANCH   1   8
ATOM      8  O   UNL     1      -9.607  25.366 -33.580  1.00  0.00    -0.388 OA
ATOM      9  H   UNL     1      -8.731  24.962 -33.344  1.00  0.00     0.211 HD
ENDBRANCH   1   8
TORSDOF 5
ENDMDL
