MODEL 1
REMARK VINA RESULT:    -3.044      0.000      0.000
REMARK INTER + INTRA:          -4.535
REMARK INTER:                  -4.290
REMARK INTRA:                  -0.245
REMARK UNBOUND:                -0.245
REMARK SMILES CCCCCCCCC(=O)[O-]
REMARK SMILES IDX 6 1 7 2 8 3 9 4 10 5 11 6 5 7 4 8 3 9 2 10 1 11
REMARK H PARENT
REMARK Flexibility Score: inf
ROOT
ATOM      1  C   UNL     1      25.967  35.671  18.025  1.00  0.00     0.000 C 
ENDROOT
BRANCH   1   2
ATOM      2  C   UNL     1      26.197  34.876  19.320  1.00  0.00     0.006 C 
BRANCH   2   3
ATOM      3  C   UNL     1      26.954  35.684  20.383  1.00  0.00     0.053 C 
BRANCH   3   4
ATOM      4  C   UNL     1      28.372  35.218  20.480  1.00  0.00     0.041 C 
ATOM      5  O   UNL     1      28.852  34.875  21.592  1.00  0.00    -0.550 OA
ATOM      6  O   UNL     1      29.150  35.117  19.334  1.00  0.00    -0.550 OA
ENDBRANCH   3   4
ENDBRANCH   2   3
ENDBRANCH   1   2
BRANCH   1   7
ATOM      7  C   UNL     1      24.808  35.113  17.186  1.00  0.00     0.000 C 
BRANCH   7   8
ATOM      8  C   UNL     1      23.455  35.545  17.762  1.00  0.00    -0.000 C 
BRANCH   8   9
ATOM      9  C   UNL     1      22.848  36.693  16.939  1.00  0.00    -0.000 C 
BRANCH   9  10
ATOM     10  C   UNL     1      21.390  36.986  17.321  1.00  0.00    -0.003 C 
ATOM     11  C   UNL     1      21.098  36.716  18.796  1.00  0.00     0.004 C 
ENDBRANCH   9  10
ENDBRANCH   8   9
ENDBRANCH   7   8
ENDBRANCH   1   7
TORSDOF 7
ENDMDL
MODEL 2
REMARK VINA RESULT:    -3.036     12.749     14.195
REMARK INTER + INTRA:          -4.522
REMARK INTER:                  -3.988
REMARK INTRA:                  -0.535
REMARK UNBOUND:                -0.245
REMARK SMILES CCCCCCCCC(=O)[O-]
REMARK SMILES IDX 6 1 7 2 8 3 9 4 10 5 11 6 5 7 4 8 3 9 2 10 1 11
REMARK H PARENT
REMARK Flexibility Score: inf
ROOT
ATOM      1  C   UNL     1      40.055  39.191  17.487  1.00  0.00     0.000 C 
ENDROOT
BRANCH   1   2
ATOM      2  C   UNL     1      39.314  38.712  18.747  1.00  0.00     0.006 C 
BRANCH   2   3
ATOM      3  C   UNL     1      38.317  39.750  19.277  1.00  0.00     0.053 C 
BRANCH   3   4
ATOM      4  C   UNL     1      37.249  39.082  20.084  1.00  0.00     0.041 C 
ATOM      5  O   UNL     1      36.206  39.713  20.399  1.00  0.00    -0.550 OA
ATOM      6  O   UNL     1      37.385  37.749  20.448  1.00  0.00    -0.550 OA
ENDBRANCH   3   4
ENDBRANCH   2   3
ENDBRANCH   1   2
BRANCH   1   7
ATOM      7  C   UNL     1      40.359  38.048  16.508  1.00  0.00     0.000 C 
BRANCH   7   8
ATOM      8  C   UNL     1      40.337  36.692  17.225  1.00  0.00    -0.000 C 
BRANCH   8   9
ATOM      9  C   UNL     1      39.302  35.751  16.589  1.00  0.00    -0.000 C 
BRANCH   9  10
ATOM     10  C   UNL     1      38.332  35.157  17.621  1.00  0.00    -0.003 C 
ATOM     11  C   UNL     1      38.977  34.954  18.992  1.00  0.00     0.004 C 
ENDBRANCH   9  10
ENDBRANCH   8   9
ENDBRANCH   7   8
ENDBRANCH   1   7
TORSDOF 7
ENDMDL
MODEL 3
REMARK VINA RESULT:    -2.945     12.613     14.028
REMARK INTER + INTRA:          -4.395
REMARK INTER:                  -3.721
REMARK INTRA:                  -0.674
REMARK UNBOUND:                -0.245
REMARK SMILES CCCCCCCCC(=O)[O-]
REMARK SMILES IDX 6 1 7 2 8 3 9 4 10 5 11 6 5 7 4 8 3 9 2 10 1 11
REMARK H PARENT
REMARK Flexibility Score: inf
ROOT
ATOM      1  C   UNL     1      38.143  35.728  20.432  1.00  0.00     0.000 C 
ENDROOT
BRANCH   1   2
ATOM      2  C   UNL     1      37.398  37.070  20.330  1.00  0.00     0.006 C 
BRANCH   2   3
ATOM      3  C   UNL     1      38.351  38.272  20.280  1.00  0.00     0.053 C 
BRANCH   3   4
ATOM      4  C   UNL     1      37.597  39.520  19.943  1.00  0.00     0.041 C 
ATOM      5  O   UNL     1      38.136  40.414  19.240  1.00  0.00    -0.550 OA
ATOM      6  O   UNL     1      36.283  39.674  20.367  1.00  0.00    -0.550 OA
ENDBRANCH   3   4
ENDBRANCH   2   3
ENDBRANCH   1   2
BRANCH   1   7
ATOM      7  C   UNL     1      39.173  35.537  19.309  1.00  0.00     0.000 C 
BRANCH   7   8
ATOM      8  C   UNL     1      38.479  35.340  17.956  1.00  0.00    -0.000 C 
BRANCH   8   9
ATOM      9  C   UNL     1      39.300  35.970  16.820  1.00  0.00    -0.000 C 
BRANCH   9  10
ATOM     10  C   UNL     1      40.454  36.841  17.338  1.00  0.00    -0.003 C 
ATOM     11  C   UNL     1      40.240  38.329  17.066  1.00  0.00     0.004 C 
ENDBRANCH   9  10
ENDBRANCH   8   9
ENDBRANCH   7   8
ENDBRANCH   1   7
TORSDOF 7
ENDMDL
MODEL 4
REMARK VINA RESULT:    -2.912     13.013     14.129
REMARK INTER + INTRA:          -4.348
REMARK INTER:                  -3.646
REMARK INTRA:                  -0.702
REMARK UNBOUND:                -0.245
REMARK SMILES CCCCCCCCC(=O)[O-]
REMARK SMILES IDX 6 1 7 2 8 3 9 4 10 5 11 6 5 7 4 8 3 9 2 10 1 11
REMARK H PARENT
REMARK Flexibility Score: inf
ROOT
ATOM      1  C   UNL     1      37.356  36.921  20.381  1.00  0.00     0.000 C 
ENDROOT
BRANCH   1   2
ATOM      2  C   UNL     1      38.373  35.849  19.956  1.00  0.00     0.006 C 
BRANCH   2   3
ATOM      3  C   UNL     1      38.405  35.634  18.437  1.00  0.00     0.053 C 
BRANCH   3   4
ATOM      4  C   UNL     1      39.756  35.971  17.891  1.00  0.00     0.041 C 
ATOM      5  O   UNL     1      40.722  36.171  18.674  1.00  0.00    -0.550 OA
ATOM      6  O   UNL     1      39.960  36.018  16.518  1.00  0.00    -0.550 OA
ENDBRANCH   3   4
ENDBRANCH   2   3
ENDBRANCH   1   2
BRANCH   1   7
ATOM      7  C   UNL     1      38.016  38.274  20.684  1.00  0.00     0.000 C 
BRANCH   7   8
ATOM      8  C   UNL     1      37.271  39.417  19.982  1.00  0.00    -0.000 C 
BRANCH   8   9
ATOM      9  C   UNL     1      38.235  40.266  19.140  1.00  0.00    -0.000 C 
BRANCH   9  10
ATOM     10  C   UNL     1      39.519  39.508  18.767  1.00  0.00    -0.003 C 
ATOM     11  C   UNL     1      39.847  39.596  17.278  1.00  0.00     0.004 C 
ENDBRANCH   9  10
ENDBRANCH   8   9
ENDBRANCH   7   8
ENDBRANCH   1   7
TORSDOF 7
ENDMDL
MODEL 5
REMARK VINA RESULT:    -2.881     13.279     14.524
REMARK INTER + INTRA:          -4.305
REMARK INTER:                  -3.685
REMARK INTRA:                  -0.620
REMARK UNBOUND:                -0.245
REMARK SMILES CCCCCCCCC(=O)[O-]
REMARK SMILES IDX 6 1 7 2 8 3 9 4 10 5 11 6 5 7 4 8 3 9 2 10 1 11
REMARK H PARENT
REMARK Flexibility Score: inf
ROOT
ATOM      1  C   UNL     1      38.104  38.897  20.447  1.00  0.00     0.000 C 
ENDROOT
BRANCH   1   2
ATOM      2  C   UNL     1      38.464  39.816  19.267  1.00  0.00     0.006 C 
BRANCH   2   3
ATOM      3  C   UNL     1      39.481  39.179  18.311  1.00  0.00     0.053 C 
BRANCH   3   4
ATOM      4  C   UNL     1      40.424  40.216  17.788  1.00  0.00     0.041 C 
ATOM      5  O   UNL     1      40.771  41.181  18.518  1.00  0.00    -0.550 OA
ATOM      6  O   UNL     1      40.956  40.090  16.512  1.00  0.00    -0.550 OA
ENDBRANCH   3   4
ENDBRANCH   2   3
ENDBRANCH   1   2
BRANCH   1   7
ATOM      7  C   UNL     1      37.274  37.679  20.016  1.00  0.00     0.000 C 
BRANCH   7   8
ATOM      8  C   UNL     1      37.745  36.411  20.740  1.00  0.00    -0.000 C 
BRANCH   8   9
ATOM      9  C   UNL     1      38.658  35.570  19.835  1.00  0.00    -0.000 C 
BRANCH   9  10
ATOM     10  C   UNL     1      38.218  35.593  18.364  1.00  0.00    -0.003 C 
ATOM     11  C   UNL     1      39.398  35.627  17.394  1.00  0.00     0.004 C 
ENDBRANCH   9  10
ENDBRANCH   8   9
ENDBRANCH   7   8
ENDBRANCH   1   7
TORSDOF 7
ENDMDL
MODEL 6
REMARK VINA RESULT:    -2.835     13.180     14.459
REMARK INTER + INTRA:          -4.240
REMARK INTER:                  -3.713
REMARK INTRA:                  -0.527
REMARK UNBOUND:                -0.245
REMARK SMILES CCCCCCCCC(=O)[O-]
REMARK SMILES IDX 6 1 7 2 8 3 9 4 10 5 11 6 5 7 4 8 3 9 2 10 1 11
REMARK H PARENT
REMARK Flexibility Score: inf
ROOT
ATOM      1  C   UNL     1      38.057  39.765  19.142  1.00  0.00     0.000 C 
ENDROOT
BRANCH   1   2
ATOM      2  C   UNL     1      39.394  40.433  18.781  1.00  0.00     0.006 C 
BRANCH   2   3
ATOM      3  C   UNL     1      40.454  39.423  18.320  1.00  0.00     0.053 C 
BRANCH   3   4
ATOM      4  C   UNL     1      40.228  39.049  16.889  1.00  0.00     0.041 C 
ATOM      5  O   UNL     1      40.198  37.837  16.549  1.00  0.00    -0.550 OA
ATOM      6  O   UNL     1      40.003  40.037  15.939  1.00  0.00    -0.550 OA
ENDBRANCH   3   4
ENDBRANCH   2   3
ENDBRANCH   1   2
BRANCH   1   7
ATOM      7  C   UNL     1      38.149  38.904  20.411  1.00  0.00     0.000 C 
BRANCH   7   8
ATOM      8  C   UNL     1      37.411  37.573  20.224  1.00  0.00    -0.000 C 
BRANCH   8   9
ATOM      9  C   UNL     1      38.239  36.600  19.371  1.00  0.00    -0.000 C 
BRANCH   9  10
ATOM     10  C   UNL     1      38.560  35.292  20.109  1.00  0.00    -0.003 C 
ATOM     11  C   UNL     1      37.824  35.169  21.442  1.00  0.00     0.004 C 
ENDBRANCH   9  10
ENDBRANCH   8   9
ENDBRANCH   7   8
ENDBRANCH   1   7
TORSDOF 7
ENDMDL
MODEL 7
REMARK VINA RESULT:    -2.817     12.671     14.195
REMARK INTER + INTRA:          -4.214
REMARK INTER:                  -3.669
REMARK INTRA:                  -0.544
REMARK UNBOUND:                -0.245
REMARK SMILES CCCCCCCCC(=O)[O-]
REMARK SMILES IDX 6 1 7 2 8 3 9 4 10 5 11 6 5 7 4 8 3 9 2 10 1 11
REMARK H PARENT
REMARK Flexibility Score: inf
ROOT
ATOM      1  C   UNL     1      40.378  38.094  17.075  1.00  0.00     0.000 C 
ENDROOT
BRANCH   1   2
ATOM      2  C   UNL     1      40.577  37.034  18.171  1.00  0.00     0.006 C 
BRANCH   2   3
ATOM      3  C   UNL     1      40.419  35.602  17.643  1.00  0.00     0.053 C 
BRANCH   3   4
ATOM      4  C   UNL     1      38.983  35.316  17.335  1.00  0.00     0.041 C 
ATOM      5  O   UNL     1      38.152  35.169  18.270  1.00  0.00    -0.550 OA
ATOM      6  O   UNL     1      38.553  35.258  16.016  1.00  0.00    -0.550 OA
ENDBRANCH   3   4
ENDBRANCH   2   3
ENDBRANCH   1   2
BRANCH   1   7
ATOM      7  C   UNL     1      39.767  39.396  17.615  1.00  0.00     0.000 C 
BRANCH   7   8
ATOM      8  C   UNL     1      39.298  39.222  19.065  1.00  0.00    -0.000 C 
BRANCH   8   9
ATOM      9  C   UNL     1      38.018  40.029  19.329  1.00  0.00    -0.000 C 
BRANCH   9  10
ATOM     10  C   UNL     1      36.989  39.250  20.161  1.00  0.00    -0.003 C 
ATOM     11  C   UNL     1      37.389  37.792  20.383  1.00  0.00     0.004 C 
ENDBRANCH   9  10
ENDBRANCH   8   9
ENDBRANCH   7   8
ENDBRANCH   1   7
TORSDOF 7
ENDMDL
MODEL 8
REMARK VINA RESULT:    -2.782     21.874     22.743
REMARK INTER + INTRA:          -4.165
REMARK INTER:                  -3.854
REMARK INTRA:                  -0.310
REMARK UNBOUND:                -0.245
REMARK SMILES CCCCCCCCC(=O)[O-]
REMARK SMILES IDX 6 1 7 2 8 3 9 4 10 5 11 6 5 7 4 8 3 9 2 10 1 11
REMARK H PARENT
REMARK Flexibility Score: inf
ROOT
ATOM      1  C   UNL     1      24.168  54.451  31.216  1.00  0.00     0.000 C 
ENDROOT
BRANCH   1   2
ATOM      2  C   UNL     1      24.671  54.808  32.624  1.00  0.00     0.006 C 
BRANCH   2   3
ATOM      3  C   UNL     1      23.576  54.682  33.692  1.00  0.00     0.053 C 
BRANCH   3   4
ATOM      4  C   UNL     1      24.186  54.457  35.039  1.00  0.00     0.041 C 
ATOM      5  O   UNL     1      25.322  54.929  35.306  1.00  0.00    -0.550 OA
ATOM      6  O   UNL     1      23.480  53.766  36.015  1.00  0.00    -0.550 OA
ENDBRANCH   3   4
ENDBRANCH   2   3
ENDBRANCH   1   2
BRANCH   1   7
ATOM      7  C   UNL     1      22.692  54.820  31.003  1.00  0.00     0.000 C 
BRANCH   7   8
ATOM      8  C   UNL     1      22.248  54.500  29.571  1.00  0.00    -0.000 C 
BRANCH   8   9
ATOM      9  C   UNL     1      23.300  53.648  28.846  1.00  0.00    -0.000 C 
BRANCH   9  10
ATOM     10  C   UNL     1      22.719  52.342  28.283  1.00  0.00    -0.003 C 
ATOM     11  C   UNL     1      23.738  51.542  27.473  1.00  0.00     0.004 C 
ENDBRANCH   9  10
ENDBRANCH   8   9
ENDBRANCH   7   8
ENDBRANCH   1   7
TORSDOF 7
ENDMDL
MODEL 9
REMARK VINA RESULT:    -2.712     12.635     14.219
REMARK INTER + INTRA:          -4.066
REMARK INTER:                  -3.518
REMARK INTRA:                  -0.548
REMARK UNBOUND:                -0.245
REMARK SMILES CCCCCCCCC(=O)[O-]
REMARK SMILES IDX 6 1 7 2 8 3 9 4 10 5 11 6 5 7 4 8 3 9 2 10 1 11
REMARK H PARENT
REMARK Flexibility Score: inf
ROOT
ATOM      1  C   UNL     1      39.992  37.025  16.634  1.00  0.00     0.000 C 
ENDROOT
BRANCH   1   2
ATOM      2  C   UNL     1      39.785  35.600  17.172  1.00  0.00     0.006 C 
BRANCH   2   3
ATOM      3  C   UNL     1      38.536  35.477  18.055  1.00  0.00     0.053 C 
BRANCH   3   4
ATOM      4  C   UNL     1      38.926  35.253  19.481  1.00  0.00     0.041 C 
ATOM      5  O   UNL     1      38.069  35.364  20.397  1.00  0.00    -0.550 OA
ATOM      6  O   UNL     1      40.225  34.875  19.795  1.00  0.00    -0.550 OA
ENDBRANCH   3   4
ENDBRANCH   2   3
ENDBRANCH   1   2
BRANCH   1   7
ATOM      7  C   UNL     1      40.429  38.013  17.726  1.00  0.00     0.000 C 
BRANCH   7   8
ATOM      8  C   UNL     1      39.683  39.346  17.589  1.00  0.00    -0.000 C 
BRANCH   8   9
ATOM      9  C   UNL     1      39.251  39.878  18.964  1.00  0.00    -0.000 C 
BRANCH   9  10
ATOM     10  C   UNL     1      38.382  38.877  19.739  1.00  0.00    -0.003 C 
ATOM     11  C   UNL     1      36.964  39.391  19.985  1.00  0.00     0.004 C 
ENDBRANCH   9  10
ENDBRANCH   8   9
ENDBRANCH   7   8
ENDBRANCH   1   7
TORSDOF 7
ENDMDL
