MODEL 1
REMARK VINA RESULT:    19.294      0.000      0.000
REMARK INTER + INTRA:          40.805
REMARK INTER:                  41.852
REMARK INTRA:                  -1.047
REMARK UNBOUND:                -1.047
REMARK SMILES CCCCCCCCCCCCCCCCCCCCCC(=O)[O-]
REMARK SMILES IDX 12 1 11 2 10 3 9 4 8 5 7 6 6 7 5 8 4 9 3 10 2 11 1 12 13 13
REMARK SMILES IDX 14 14 15 15 16 16 17 17 18 18 19 19 20 20 21 21 22 22 23 23
REMARK SMILES IDX 24 24
REMARK H PARENT
REMARK Flexibility Score: inf
ROOT
ATOM      1  C   UNL     1     -13.400  -1.832 -17.454  1.00  0.00     0.000 C 
ENDROOT
BRANCH   1   2
ATOM      2  C   UNL     1     -13.609  -1.931 -15.939  1.00  0.00     0.000 C 
BRANCH   2   3
ATOM      3  C   UNL     1     -14.722  -2.935 -15.602  1.00  0.00     0.000 C 
BRANCH   3   4
ATOM      4  C   UNL     1     -14.181  -4.238 -14.987  1.00  0.00    -0.000 C 
BRANCH   4   5
ATOM      5  C   UNL     1     -13.921  -4.179 -13.468  1.00  0.00    -0.000 C 
BRANCH   5   6
ATOM      6  C   UNL     1     -15.014  -3.473 -12.641  1.00  0.00    -0.000 C 
BRANCH   6   7
ATOM      7  C   UNL     1     -15.033  -3.822 -11.141  1.00  0.00    -0.000 C 
BRANCH   7   8
ATOM      8  C   UNL     1     -14.081  -2.946 -10.310  1.00  0.00    -0.000 C 
BRANCH   8   9
ATOM      9  C   UNL     1     -14.636  -1.534 -10.053  1.00  0.00    -0.000 C 
BRANCH   9  10
ATOM     10  C   UNL     1     -13.615  -0.517  -9.509  1.00  0.00    -0.000 C 
BRANCH  10  11
ATOM     11  C   UNL     1     -13.456   0.714 -10.411  1.00  0.00    -0.003 C 
ATOM     12  C   UNL     1     -14.668   0.889 -11.323  1.00  0.00     0.004 C 
ENDBRANCH  10  11
ENDBRANCH   9  10
ENDBRANCH   8   9
ENDBRANCH   7   8
ENDBRANCH   6   7
ENDBRANCH   5   6
ENDBRANCH   4   5
ENDBRANCH   3   4
ENDBRANCH   2   3
ENDBRANCH   1   2
BRANCH   1  13
ATOM     13  C   UNL     1     -11.915  -1.631 -17.792  1.00  0.00     0.000 C 
BRANCH  13  14
ATOM     14  C   UNL     1     -11.421  -0.209 -17.482  1.00  0.00     0.000 C 
BRANCH  14  15
ATOM     15  C   UNL     1     -12.526   0.848 -17.625  1.00  0.00     0.000 C 
BRANCH  15  16
ATOM     16  C   UNL     1     -11.982   2.253 -17.339  1.00  0.00     0.000 C 
BRANCH  16  17
ATOM     17  C   UNL     1     -12.773   3.318 -18.112  1.00  0.00     0.000 C 
BRANCH  17  18
ATOM     18  C   UNL     1     -14.246   2.934 -18.325  1.00  0.00     0.000 C 
BRANCH  18  19
ATOM     19  C   UNL     1     -15.182   4.146 -18.514  1.00  0.00     0.000 C 
BRANCH  19  20
ATOM     20  C   UNL     1     -14.419   5.401 -18.970  1.00  0.00     0.006 C 
BRANCH  20  21
ATOM     21  C   UNL     1     -15.169   6.173 -20.064  1.00  0.00     0.053 C 
BRANCH  21  22
ATOM     22  C   UNL     1     -15.085   7.655 -19.857  1.00  0.00     0.041 C 
ATOM     23  O   UNL     1     -16.027   8.270 -19.291  1.00  0.00    -0.550 OA
ATOM     24  O   UNL     1     -13.979   8.361 -20.316  1.00  0.00    -0.550 OA
ENDBRANCH  21  22
ENDBRANCH  20  21
ENDBRANCH  19  20
ENDBRANCH  18  19
ENDBRANCH  17  18
ENDBRANCH  16  17
ENDBRANCH  15  16
ENDBRANCH  14  15
ENDBRANCH  13  14
ENDBRANCH   1  13
TORSDOF 20
ENDMDL
MODEL 2
REMARK VINA RESULT:    19.598      1.926      2.305
REMARK INTER + INTRA:          41.465
REMARK INTER:                  42.629
REMARK INTRA:                  -1.164
REMARK UNBOUND:                -1.047
REMARK SMILES CCCCCCCCCCCCCCCCCCCCCC(=O)[O-]
REMARK SMILES IDX 12 1 11 2 10 3 9 4 8 5 7 6 6 7 5 8 4 9 3 10 2 11 1 12 13 13
REMARK SMILES IDX 14 14 15 15 16 16 17 17 18 18 19 19 20 20 21 21 22 22 23 23
REMARK SMILES IDX 24 24
REMARK H PARENT
REMARK Flexibility Score: inf
ROOT
ATOM      1  C   UNL     1     -13.226  -1.284 -16.675  1.00  0.00     0.000 C 
ENDROOT
BRANCH   1   2
ATOM      2  C   UNL     1     -14.099  -2.544 -16.706  1.00  0.00     0.000 C 
BRANCH   2   3
ATOM      3  C   UNL     1     -14.654  -2.862 -15.309  1.00  0.00     0.000 C 
BRANCH   3   4
ATOM      4  C   UNL     1     -14.204  -4.241 -14.792  1.00  0.00    -0.000 C 
BRANCH   4   5
ATOM      5  C   UNL     1     -14.009  -4.327 -13.265  1.00  0.00    -0.000 C 
BRANCH   5   6
ATOM      6  C   UNL     1     -14.963  -3.450 -12.430  1.00  0.00    -0.000 C 
BRANCH   6   7
ATOM      7  C   UNL     1     -15.050  -3.810 -10.935  1.00  0.00    -0.000 C 
BRANCH   7   8
ATOM      8  C   UNL     1     -14.152  -2.926 -10.052  1.00  0.00    -0.000 C 
BRANCH   8   9
ATOM      9  C   UNL     1     -14.607  -1.456 -10.017  1.00  0.00    -0.000 C 
BRANCH   9  10
ATOM     10  C   UNL     1     -13.531  -0.447  -9.576  1.00  0.00    -0.000 C 
BRANCH  10  11
ATOM     11  C   UNL     1     -13.558   0.854 -10.391  1.00  0.00    -0.003 C 
ATOM     12  C   UNL     1     -14.689   0.837 -11.417  1.00  0.00     0.004 C 
ENDBRANCH  10  11
ENDBRANCH   9  10
ENDBRANCH   8   9
ENDBRANCH   7   8
ENDBRANCH   6   7
ENDBRANCH   5   6
ENDBRANCH   4   5
ENDBRANCH   3   4
ENDBRANCH   2   3
ENDBRANCH   1   2
BRANCH   1  13
ATOM     13  C   UNL     1     -12.203  -1.297 -17.822  1.00  0.00     0.000 C 
BRANCH  13  14
ATOM     14  C   UNL     1     -11.538   0.071 -18.041  1.00  0.00     0.000 C 
BRANCH  14  15
ATOM     15  C   UNL     1     -12.208   1.194 -17.236  1.00  0.00     0.000 C 
BRANCH  15  16
ATOM     16  C   UNL     1     -12.954   2.162 -18.161  1.00  0.00     0.000 C 
BRANCH  16  17
ATOM     17  C   UNL     1     -12.728   3.619 -17.734  1.00  0.00     0.000 C 
BRANCH  17  18
ATOM     18  C   UNL     1     -11.501   3.793 -16.824  1.00  0.00     0.000 C 
BRANCH  18  19
ATOM     19  C   UNL     1     -11.625   4.970 -15.833  1.00  0.00     0.000 C 
BRANCH  19  20
ATOM     20  C   UNL     1     -12.182   6.237 -16.505  1.00  0.00     0.006 C 
BRANCH  20  21
ATOM     21  C   UNL     1     -12.778   7.220 -15.489  1.00  0.00     0.053 C 
BRANCH  21  22
ATOM     22  C   UNL     1     -13.629   8.259 -16.154  1.00  0.00     0.041 C 
ATOM     23  O   UNL     1     -13.343   8.666 -17.311  1.00  0.00    -0.550 OA
ATOM     24  O   UNL     1     -14.720   8.800 -15.483  1.00  0.00    -0.550 OA
ENDBRANCH  21  22
ENDBRANCH  20  21
ENDBRANCH  19  20
ENDBRANCH  18  19
ENDBRANCH  17  18
ENDBRANCH  16  17
ENDBRANCH  15  16
ENDBRANCH  14  15
ENDBRANCH  13  14
ENDBRANCH   1  13
TORSDOF 20
ENDMDL
MODEL 3
REMARK VINA RESULT:    19.619      3.727      8.879
REMARK INTER + INTRA:          41.511
REMARK INTER:                  42.422
REMARK INTRA:                  -0.910
REMARK UNBOUND:                -1.047
REMARK SMILES CCCCCCCCCCCCCCCCCCCCCC(=O)[O-]
REMARK SMILES IDX 12 1 11 2 10 3 9 4 8 5 7 6 6 7 5 8 4 9 3 10 2 11 1 12 13 13
REMARK SMILES IDX 14 14 15 15 16 16 17 17 18 18 19 19 20 20 21 21 22 22 23 23
REMARK SMILES IDX 24 24
REMARK H PARENT
REMARK Flexibility Score: inf
ROOT
ATOM      1  C   UNL     1     -13.641  -1.666 -17.168  1.00  0.00     0.000 C 
ENDROOT
BRANCH   1   2
ATOM      2  C   UNL     1     -12.155  -1.686 -17.543  1.00  0.00     0.000 C 
BRANCH   2   3
ATOM      3  C   UNL     1     -11.676  -0.289 -17.967  1.00  0.00     0.000 C 
BRANCH   3   4
ATOM      4  C   UNL     1     -12.472   0.843 -17.292  1.00  0.00    -0.000 C 
BRANCH   4   5
ATOM      5  C   UNL     1     -13.005   1.924 -18.254  1.00  0.00    -0.000 C 
BRANCH   5   6
ATOM      6  C   UNL     1     -12.721   3.378 -17.829  1.00  0.00    -0.000 C 
BRANCH   6   7
ATOM      7  C   UNL     1     -11.673   3.546 -16.713  1.00  0.00    -0.000 C 
BRANCH   7   8
ATOM      8  C   UNL     1     -11.310   5.016 -16.447  1.00  0.00    -0.000 C 
BRANCH   8   9
ATOM      9  C   UNL     1     -12.516   5.860 -15.997  1.00  0.00    -0.000 C 
BRANCH   9  10
ATOM     10  C   UNL     1     -12.285   7.383 -15.994  1.00  0.00    -0.000 C 
BRANCH  10  11
ATOM     11  C   UNL     1     -13.422   8.163 -16.669  1.00  0.00    -0.003 C 
ATOM     12  C   UNL     1     -14.474   8.595 -15.649  1.00  0.00     0.004 C 
ENDBRANCH  10  11
ENDBRANCH   9  10
ENDBRANCH   8   9
ENDBRANCH   7   8
ENDBRANCH   6   7
ENDBRANCH   5   6
ENDBRANCH   4   5
ENDBRANCH   3   4
ENDBRANCH   2   3
ENDBRANCH   1   2
BRANCH   1  13
ATOM     13  C   UNL     1     -13.846  -2.103 -15.710  1.00  0.00     0.000 C 
BRANCH  13  14
ATOM     14  C   UNL     1     -14.855  -3.254 -15.570  1.00  0.00     0.000 C 
BRANCH  14  15
ATOM     15  C   UNL     1     -14.249  -4.496 -14.900  1.00  0.00     0.000 C 
BRANCH  15  16
ATOM     16  C   UNL     1     -13.875  -4.206 -13.441  1.00  0.00     0.000 C 
BRANCH  16  17
ATOM     17  C   UNL     1     -14.965  -3.376 -12.747  1.00  0.00     0.000 C 
BRANCH  17  18
ATOM     18  C   UNL     1     -15.079  -3.675 -11.243  1.00  0.00     0.000 C 
BRANCH  18  19
ATOM     19  C   UNL     1     -13.910  -3.111 -10.409  1.00  0.00     0.000 C 
BRANCH  19  20
ATOM     20  C   UNL     1     -14.300  -1.827  -9.658  1.00  0.00     0.006 C 
BRANCH  20  21
ATOM     21  C   UNL     1     -15.136  -0.877 -10.525  1.00  0.00     0.053 C 
BRANCH  21  22
ATOM     22  C   UNL     1     -14.405   0.398 -10.819  1.00  0.00     0.041 C 
ATOM     23  O   UNL     1     -14.770   1.130 -11.776  1.00  0.00    -0.550 OA
ATOM     24  O   UNL     1     -13.304   0.762 -10.054  1.00  0.00    -0.550 OA
ENDBRANCH  21  22
ENDBRANCH  20  21
ENDBRANCH  19  20
ENDBRANCH  18  19
ENDBRANCH  17  18
ENDBRANCH  16  17
ENDBRANCH  15  16
ENDBRANCH  14  15
ENDBRANCH  13  14
ENDBRANCH   1  13
TORSDOF 20
ENDMDL
MODEL 4
REMARK VINA RESULT:    19.722      3.250      9.238
REMARK INTER + INTRA:          41.735
REMARK INTER:                  42.802
REMARK INTRA:                  -1.067
REMARK UNBOUND:                -1.047
REMARK SMILES CCCCCCCCCCCCCCCCCCCCCC(=O)[O-]
REMARK SMILES IDX 12 1 11 2 10 3 9 4 8 5 7 6 6 7 5 8 4 9 3 10 2 11 1 12 13 13
REMARK SMILES IDX 14 14 15 15 16 16 17 17 18 18 19 19 20 20 21 21 22 22 23 23
REMARK SMILES IDX 24 24
REMARK H PARENT
REMARK Flexibility Score: inf
ROOT
ATOM      1  C   UNL     1     -13.141  -1.488 -16.553  1.00  0.00     0.000 C 
ENDROOT
BRANCH   1   2
ATOM      2  C   UNL     1     -12.081  -1.817 -17.611  1.00  0.00     0.000 C 
BRANCH   2   3
ATOM      3  C   UNL     1     -11.626  -0.548 -18.346  1.00  0.00     0.000 C 
BRANCH   3   4
ATOM      4  C   UNL     1     -12.539   0.661 -18.067  1.00  0.00    -0.000 C 
BRANCH   4   5
ATOM      5  C   UNL     1     -11.967   1.687 -17.068  1.00  0.00    -0.000 C 
BRANCH   5   6
ATOM      6  C   UNL     1     -12.177   3.165 -17.452  1.00  0.00    -0.000 C 
BRANCH   6   7
ATOM      7  C   UNL     1     -13.294   3.425 -18.481  1.00  0.00    -0.000 C 
BRANCH   7   8
ATOM      8  C   UNL     1     -13.916   4.826 -18.349  1.00  0.00    -0.000 C 
BRANCH   8   9
ATOM      9  C   UNL     1     -15.195   4.996 -19.187  1.00  0.00    -0.000 C 
BRANCH   9  10
ATOM     10  C   UNL     1     -15.138   6.108 -20.252  1.00  0.00    -0.000 C 
BRANCH  10  11
ATOM     11  C   UNL     1     -15.431   7.502 -19.679  1.00  0.00    -0.003 C 
ATOM     12  C   UNL     1     -14.219   8.420 -19.819  1.00  0.00     0.004 C 
ENDBRANCH  10  11
ENDBRANCH   9  10
ENDBRANCH   8   9
ENDBRANCH   7   8
ENDBRANCH   6   7
ENDBRANCH   5   6
ENDBRANCH   4   5
ENDBRANCH   3   4
ENDBRANCH   2   3
ENDBRANCH   1   2
BRANCH   1  13
ATOM     13  C   UNL     1     -14.330  -2.456 -16.647  1.00  0.00     0.000 C 
BRANCH  13  14
ATOM     14  C   UNL     1     -14.788  -2.971 -15.272  1.00  0.00     0.000 C 
BRANCH  14  15
ATOM     15  C   UNL     1     -14.166  -4.327 -14.908  1.00  0.00     0.000 C 
BRANCH  15  16
ATOM     16  C   UNL     1     -13.963  -4.448 -13.393  1.00  0.00     0.000 C 
BRANCH  16  17
ATOM     17  C   UNL     1     -14.705  -3.330 -12.646  1.00  0.00     0.000 C 
BRANCH  17  18
ATOM     18  C   UNL     1     -15.028  -3.696 -11.188  1.00  0.00     0.000 C 
BRANCH  18  19
ATOM     19  C   UNL     1     -14.301  -2.813 -10.151  1.00  0.00     0.000 C 
BRANCH  19  20
ATOM     20  C   UNL     1     -14.869  -1.384 -10.108  1.00  0.00     0.006 C 
BRANCH  20  21
ATOM     21  C   UNL     1     -13.769  -0.325  -9.952  1.00  0.00     0.053 C 
BRANCH  21  22
ATOM     22  C   UNL     1     -13.966   0.824 -10.893  1.00  0.00     0.041 C 
ATOM     23  O   UNL     1     -15.094   1.032 -11.412  1.00  0.00    -0.550 OA
ATOM     24  O   UNL     1     -12.895   1.647 -11.221  1.00  0.00    -0.550 OA
ENDBRANCH  21  22
ENDBRANCH  20  21
ENDBRANCH  19  20
ENDBRANCH  18  19
ENDBRANCH  17  18
ENDBRANCH  16  17
ENDBRANCH  15  16
ENDBRANCH  14  15
ENDBRANCH  13  14
ENDBRANCH   1  13
TORSDOF 20
ENDMDL
MODEL 5
REMARK VINA RESULT:    19.749      3.531      9.549
REMARK INTER + INTRA:          41.792
REMARK INTER:                  42.876
REMARK INTRA:                  -1.084
REMARK UNBOUND:                -1.047
REMARK SMILES CCCCCCCCCCCCCCCCCCCCCC(=O)[O-]
REMARK SMILES IDX 12 1 11 2 10 3 9 4 8 5 7 6 6 7 5 8 4 9 3 10 2 11 1 12 13 13
REMARK SMILES IDX 14 14 15 15 16 16 17 17 18 18 19 19 20 20 21 21 22 22 23 23
REMARK SMILES IDX 24 24
REMARK H PARENT
REMARK Flexibility Score: inf
ROOT
ATOM      1  C   UNL     1     -12.420  -1.245 -17.688  1.00  0.00     0.000 C 
ENDROOT
BRANCH   1   2
ATOM      2  C   UNL     1     -11.699   0.108 -17.655  1.00  0.00     0.000 C 
BRANCH   2   3
ATOM      3  C   UNL     1     -12.623   1.210 -17.114  1.00  0.00     0.000 C 
BRANCH   3   4
ATOM      4  C   UNL     1     -12.441   2.552 -17.847  1.00  0.00    -0.000 C 
BRANCH   4   5
ATOM      5  C   UNL     1     -13.710   3.090 -18.538  1.00  0.00    -0.000 C 
BRANCH   5   6
ATOM      6  C   UNL     1     -13.666   4.583 -18.920  1.00  0.00    -0.000 C 
BRANCH   6   7
ATOM      7  C   UNL     1     -15.040   5.255 -19.106  1.00  0.00    -0.000 C 
BRANCH   7   8
ATOM      8  C   UNL     1     -14.984   6.490 -20.021  1.00  0.00    -0.000 C 
BRANCH   8   9
ATOM      9  C   UNL     1     -15.185   7.812 -19.258  1.00  0.00    -0.000 C 
BRANCH   9  10
ATOM     10  C   UNL     1     -13.961   8.303 -18.463  1.00  0.00    -0.000 C 
BRANCH  10  11
ATOM     11  C   UNL     1     -14.303   8.702 -17.021  1.00  0.00    -0.003 C 
ATOM     12  C   UNL     1     -13.471   7.907 -16.017  1.00  0.00     0.004 C 
ENDBRANCH  10  11
ENDBRANCH   9  10
ENDBRANCH   8   9
ENDBRANCH   7   8
ENDBRANCH   6   7
ENDBRANCH   5   6
ENDBRANCH   4   5
ENDBRANCH   3   4
ENDBRANCH   2   3
ENDBRANCH   1   2
BRANCH   1  13
ATOM     13  C   UNL     1     -13.413  -1.366 -16.522  1.00  0.00     0.000 C 
BRANCH  13  14
ATOM     14  C   UNL     1     -14.070  -2.753 -16.442  1.00  0.00     0.000 C 
BRANCH  14  15
ATOM     15  C   UNL     1     -14.713  -3.028 -15.075  1.00  0.00     0.000 C 
BRANCH  15  16
ATOM     16  C   UNL     1     -14.249  -4.376 -14.512  1.00  0.00     0.000 C 
BRANCH  16  17
ATOM     17  C   UNL     1     -13.948  -4.272 -13.009  1.00  0.00     0.000 C 
BRANCH  17  18
ATOM     18  C   UNL     1     -14.930  -3.353 -12.263  1.00  0.00     0.000 C 
BRANCH  18  19
ATOM     19  C   UNL     1     -14.786  -3.409 -10.728  1.00  0.00     0.000 C 
BRANCH  19  20
ATOM     20  C   UNL     1     -14.299  -2.073 -10.142  1.00  0.00     0.006 C 
BRANCH  20  21
ATOM     21  C   UNL     1     -15.239  -0.910 -10.485  1.00  0.00     0.053 C 
BRANCH  21  22
ATOM     22  C   UNL     1     -14.482   0.350 -10.778  1.00  0.00     0.041 C 
ATOM     23  O   UNL     1     -14.840   1.097 -11.726  1.00  0.00    -0.550 OA
ATOM     24  O   UNL     1     -13.364   0.683 -10.022  1.00  0.00    -0.550 OA
ENDBRANCH  21  22
ENDBRANCH  20  21
ENDBRANCH  19  20
ENDBRANCH  18  19
ENDBRANCH  17  18
ENDBRANCH  16  17
ENDBRANCH  15  16
ENDBRANCH  14  15
ENDBRANCH  13  14
ENDBRANCH   1  13
TORSDOF 20
ENDMDL
MODEL 6
REMARK VINA RESULT:    19.760      5.763     10.056
REMARK INTER + INTRA:          41.817
REMARK INTER:                  43.270
REMARK INTRA:                  -1.453
REMARK UNBOUND:                -1.047
REMARK SMILES CCCCCCCCCCCCCCCCCCCCCC(=O)[O-]
REMARK SMILES IDX 12 1 11 2 10 3 9 4 8 5 7 6 6 7 5 8 4 9 3 10 2 11 1 12 13 13
REMARK SMILES IDX 14 14 15 15 16 16 17 17 18 18 19 19 20 20 21 21 22 22 23 23
REMARK SMILES IDX 24 24
REMARK H PARENT
REMARK Flexibility Score: inf
ROOT
ATOM      1  C   UNL     1     -12.531   3.662 -18.033  1.00  0.00     0.000 C 
ENDROOT
BRANCH   1   2
ATOM      2  C   UNL     1     -11.633   3.773 -16.795  1.00  0.00     0.000 C 
BRANCH   2   3
ATOM      3  C   UNL     1     -11.476   5.237 -16.360  1.00  0.00     0.000 C 
BRANCH   3   4
ATOM      4  C   UNL     1     -12.823   5.910 -16.040  1.00  0.00    -0.000 C 
BRANCH   4   5
ATOM      5  C   UNL     1     -12.714   7.319 -15.423  1.00  0.00    -0.000 C 
BRANCH   5   6
ATOM      6  C   UNL     1     -14.024   8.132 -15.405  1.00  0.00    -0.000 C 
BRANCH   6   7
ATOM      7  C   UNL     1     -14.187   9.145 -16.553  1.00  0.00    -0.000 C 
BRANCH   7   8
ATOM      8  C   UNL     1     -13.164   8.939 -17.684  1.00  0.00    -0.000 C 
BRANCH   8   9
ATOM      9  C   UNL     1     -13.823   8.614 -19.036  1.00  0.00    -0.000 C 
BRANCH   9  10
ATOM     10  C   UNL     1     -15.246   8.031 -18.949  1.00  0.00    -0.000 C 
BRANCH  10  11
ATOM     11  C   UNL     1     -15.421   6.749 -19.775  1.00  0.00    -0.003 C 
ATOM     12  C   UNL     1     -14.435   6.706 -20.940  1.00  0.00     0.004 C 
ENDBRANCH  10  11
ENDBRANCH   9  10
ENDBRANCH   8   9
ENDBRANCH   7   8
ENDBRANCH   6   7
ENDBRANCH   5   6
ENDBRANCH   4   5
ENDBRANCH   3   4
ENDBRANCH   2   3
ENDBRANCH   1   2
BRANCH   1  13
ATOM     13  C   UNL     1     -12.857   2.194 -18.346  1.00  0.00     0.000 C 
BRANCH  13  14
ATOM     14  C   UNL     1     -12.774   1.289 -17.106  1.00  0.00     0.000 C 
BRANCH  14  15
ATOM     15  C   UNL     1     -11.670   0.228 -17.219  1.00  0.00     0.000 C 
BRANCH  15  16
ATOM     16  C   UNL     1     -11.838  -0.605 -18.496  1.00  0.00     0.000 C 
BRANCH  16  17
ATOM     17  C   UNL     1     -10.972  -1.872 -18.447  1.00  0.00     0.000 C 
BRANCH  17  18
ATOM     18  C   UNL     1      -9.688  -1.688 -17.620  1.00  0.00     0.000 C 
BRANCH  18  19
ATOM     19  C   UNL     1      -8.570  -0.933 -18.371  1.00  0.00     0.000 C 
BRANCH  19  20
ATOM     20  C   UNL     1      -7.597  -0.231 -17.408  1.00  0.00     0.006 C 
BRANCH  20  21
ATOM     21  C   UNL     1      -6.883  -1.221 -16.479  1.00  0.00     0.053 C 
BRANCH  21  22
ATOM     22  C   UNL     1      -7.283  -1.028 -15.047  1.00  0.00     0.041 C 
ATOM     23  O   UNL     1      -7.286  -2.007 -14.254  1.00  0.00    -0.550 OA
ATOM     24  O   UNL     1      -7.679   0.225 -14.597  1.00  0.00    -0.550 OA
ENDBRANCH  21  22
ENDBRANCH  20  21
ENDBRANCH  19  20
ENDBRANCH  18  19
ENDBRANCH  17  18
ENDBRANCH  16  17
ENDBRANCH  15  16
ENDBRANCH  14  15
ENDBRANCH  13  14
ENDBRANCH   1  13
TORSDOF 20
ENDMDL
MODEL 7
REMARK VINA RESULT:    20.032      5.412      9.784
REMARK INTER + INTRA:          42.406
REMARK INTER:                  44.244
REMARK INTRA:                  -1.837
REMARK UNBOUND:                -1.047
REMARK SMILES CCCCCCCCCCCCCCCCCCCCCC(=O)[O-]
REMARK SMILES IDX 12 1 11 2 10 3 9 4 8 5 7 6 6 7 5 8 4 9 3 10 2 11 1 12 13 13
REMARK SMILES IDX 14 14 15 15 16 16 17 17 18 18 19 19 20 20 21 21 22 22 23 23
REMARK SMILES IDX 24 24
REMARK H PARENT
REMARK Flexibility Score: inf
ROOT
ATOM      1  C   UNL     1     -14.592   3.749 -17.973  1.00  0.00     0.000 C 
ENDROOT
BRANCH   1   2
ATOM      2  C   UNL     1     -15.320   4.606 -19.015  1.00  0.00     0.000 C 
BRANCH   2   3
ATOM      3  C   UNL     1     -14.362   5.618 -19.660  1.00  0.00     0.000 C 
BRANCH   3   4
ATOM      4  C   UNL     1     -15.094   6.836 -20.253  1.00  0.00    -0.000 C 
BRANCH   4   5
ATOM      5  C   UNL     1     -14.962   8.134 -19.432  1.00  0.00    -0.000 C 
BRANCH   5   6
ATOM      6  C   UNL     1     -16.271   8.649 -18.800  1.00  0.00    -0.000 C 
BRANCH   6   7
ATOM      7  C   UNL     1     -16.443   8.341 -17.300  1.00  0.00    -0.000 C 
BRANCH   7   8
ATOM      8  C   UNL     1     -16.076   9.532 -16.398  1.00  0.00    -0.000 C 
BRANCH   8   9
ATOM      9  C   UNL     1     -14.642   9.445 -15.846  1.00  0.00    -0.000 C 
BRANCH   9  10
ATOM     10  C   UNL     1     -14.120   8.018 -15.598  1.00  0.00    -0.000 C 
BRANCH  10  11
ATOM     11  C   UNL     1     -12.842   7.700 -16.387  1.00  0.00    -0.003 C 
ATOM     12  C   UNL     1     -12.208   6.397 -15.906  1.00  0.00     0.004 C 
ENDBRANCH  10  11
ENDBRANCH   9  10
ENDBRANCH   8   9
ENDBRANCH   7   8
ENDBRANCH   6   7
ENDBRANCH   5   6
ENDBRANCH   4   5
ENDBRANCH   3   4
ENDBRANCH   2   3
ENDBRANCH   1   2
BRANCH   1  13
ATOM     13  C   UNL     1     -13.265   3.214 -18.532  1.00  0.00     0.000 C 
BRANCH  13  14
ATOM     14  C   UNL     1     -12.139   3.204 -17.486  1.00  0.00     0.000 C 
BRANCH  14  15
ATOM     15  C   UNL     1     -11.811   1.792 -16.980  1.00  0.00     0.000 C 
BRANCH  15  16
ATOM     16  C   UNL     1     -12.460   0.726 -17.871  1.00  0.00     0.000 C 
BRANCH  16  17
ATOM     17  C   UNL     1     -12.694  -0.577 -17.092  1.00  0.00     0.000 C 
BRANCH  17  18
ATOM     18  C   UNL     1     -11.708  -1.692 -17.478  1.00  0.00     0.000 C 
BRANCH  18  19
ATOM     19  C   UNL     1     -10.636  -1.247 -18.495  1.00  0.00     0.000 C 
BRANCH  19  20
ATOM     20  C   UNL     1      -9.372  -0.707 -17.806  1.00  0.00     0.006 C 
BRANCH  20  21
ATOM     21  C   UNL     1      -8.538  -1.822 -17.162  1.00  0.00     0.053 C 
BRANCH  21  22
ATOM     22  C   UNL     1      -7.471  -1.272 -16.265  1.00  0.00     0.041 C 
ATOM     23  O   UNL     1      -7.129  -1.900 -15.229  1.00  0.00    -0.550 OA
ATOM     24  O   UNL     1      -6.875  -0.051 -16.558  1.00  0.00    -0.550 OA
ENDBRANCH  21  22
ENDBRANCH  20  21
ENDBRANCH  19  20
ENDBRANCH  18  19
ENDBRANCH  17  18
ENDBRANCH  16  17
ENDBRANCH  15  16
ENDBRANCH  14  15
ENDBRANCH  13  14
ENDBRANCH   1  13
TORSDOF 20
ENDMDL
MODEL 8
REMARK VINA RESULT:    20.094      4.387      6.140
REMARK INTER + INTRA:          42.540
REMARK INTER:                  43.655
REMARK INTRA:                  -1.115
REMARK UNBOUND:                -1.047
REMARK SMILES CCCCCCCCCCCCCCCCCCCCCC(=O)[O-]
REMARK SMILES IDX 12 1 11 2 10 3 9 4 8 5 7 6 6 7 5 8 4 9 3 10 2 11 1 12 13 13
REMARK SMILES IDX 14 14 15 15 16 16 17 17 18 18 19 19 20 20 21 21 22 22 23 23
REMARK SMILES IDX 24 24
REMARK H PARENT
REMARK Flexibility Score: inf
ROOT
ATOM      1  C   UNL     1     -12.600   2.712 -18.111  1.00  0.00     0.000 C 
ENDROOT
BRANCH   1   2
ATOM      2  C   UNL     1     -13.730   1.836 -17.556  1.00  0.00     0.000 C 
BRANCH   2   3
ATOM      3  C   UNL     1     -13.203   0.451 -17.150  1.00  0.00     0.000 C 
BRANCH   3   4
ATOM      4  C   UNL     1     -11.793   0.168 -17.700  1.00  0.00    -0.000 C 
BRANCH   4   5
ATOM      5  C   UNL     1     -11.628  -1.204 -18.384  1.00  0.00    -0.000 C 
BRANCH   5   6
ATOM      6  C   UNL     1     -10.274  -1.900 -18.144  1.00  0.00    -0.000 C 
BRANCH   6   7
ATOM      7  C   UNL     1      -9.044  -0.973 -18.162  1.00  0.00    -0.000 C 
BRANCH   7   8
ATOM      8  C   UNL     1      -7.769  -1.659 -17.644  1.00  0.00    -0.000 C 
BRANCH   8   9
ATOM      9  C   UNL     1      -6.875  -0.717 -16.817  1.00  0.00    -0.000 C 
BRANCH   9  10
ATOM     10  C   UNL     1      -7.202  -0.657 -15.313  1.00  0.00    -0.000 C 
BRANCH  10  11
ATOM     11  C   UNL     1      -7.013  -2.005 -14.604  1.00  0.00    -0.003 C 
ATOM     12  C   UNL     1      -7.590  -1.969 -13.191  1.00  0.00     0.004 C 
ENDBRANCH  10  11
ENDBRANCH   9  10
ENDBRANCH   8   9
ENDBRANCH   7   8
ENDBRANCH   6   7
ENDBRANCH   5   6
ENDBRANCH   4   5
ENDBRANCH   3   4
ENDBRANCH   2   3
ENDBRANCH   1   2
BRANCH   1  13
ATOM     13  C   UNL     1     -11.881   3.462 -16.980  1.00  0.00     0.000 C 
BRANCH  13  14
ATOM     14  C   UNL     1     -12.024   4.988 -17.093  1.00  0.00     0.000 C 
BRANCH  14  15
ATOM     15  C   UNL     1     -12.027   5.688 -15.726  1.00  0.00     0.000 C 
BRANCH  15  16
ATOM     16  C   UNL     1     -12.306   7.188 -15.878  1.00  0.00     0.000 C 
BRANCH  16  17
ATOM     17  C   UNL     1     -13.667   7.560 -15.271  1.00  0.00     0.000 C 
BRANCH  17  18
ATOM     18  C   UNL     1     -14.365   8.707 -16.022  1.00  0.00     0.000 C 
BRANCH  18  19
ATOM     19  C   UNL     1     -14.082   8.717 -17.539  1.00  0.00     0.000 C 
BRANCH  19  20
ATOM     20  C   UNL     1     -15.278   8.197 -18.355  1.00  0.00     0.006 C 
BRANCH  20  21
ATOM     21  C   UNL     1     -14.925   7.982 -19.833  1.00  0.00     0.053 C 
BRANCH  21  22
ATOM     22  C   UNL     1     -15.076   6.547 -20.238  1.00  0.00     0.041 C 
ATOM     23  O   UNL     1     -15.096   5.641 -19.364  1.00  0.00    -0.550 OA
ATOM     24  O   UNL     1     -15.163   6.209 -21.583  1.00  0.00    -0.550 OA
ENDBRANCH  21  22
ENDBRANCH  20  21
ENDBRANCH  19  20
ENDBRANCH  18  19
ENDBRANCH  17  18
ENDBRANCH  16  17
ENDBRANCH  15  16
ENDBRANCH  14  15
ENDBRANCH  13  14
ENDBRANCH   1  13
TORSDOF 20
ENDMDL
MODEL 9
REMARK VINA RESULT:    20.237      1.635      2.687
REMARK INTER + INTRA:          42.851
REMARK INTER:                  43.611
REMARK INTRA:                  -0.761
REMARK UNBOUND:                -1.047
REMARK SMILES CCCCCCCCCCCCCCCCCCCCCC(=O)[O-]
REMARK SMILES IDX 12 1 11 2 10 3 9 4 8 5 7 6 6 7 5 8 4 9 3 10 2 11 1 12 13 13
REMARK SMILES IDX 14 14 15 15 16 16 17 17 18 18 19 19 20 20 21 21 22 22 23 23
REMARK SMILES IDX 24 24
REMARK H PARENT
REMARK Flexibility Score: inf
ROOT
ATOM      1  C   UNL     1     -11.906  -0.088 -17.813  1.00  0.00     0.000 C 
ENDROOT
BRANCH   1   2
ATOM      2  C   UNL     1     -12.399  -1.509 -17.515  1.00  0.00     0.000 C 
BRANCH   2   3
ATOM      3  C   UNL     1     -13.401  -1.511 -16.351  1.00  0.00     0.000 C 
BRANCH   3   4
ATOM      4  C   UNL     1     -14.086  -2.876 -16.158  1.00  0.00    -0.000 C 
BRANCH   4   5
ATOM      5  C   UNL     1     -14.779  -3.066 -14.794  1.00  0.00    -0.000 C 
BRANCH   5   6
ATOM      6  C   UNL     1     -14.019  -3.954 -13.789  1.00  0.00    -0.000 C 
BRANCH   6   7
ATOM      7  C   UNL     1     -14.737  -4.192 -12.447  1.00  0.00    -0.000 C 
BRANCH   7   8
ATOM      8  C   UNL     1     -15.096  -2.885 -11.720  1.00  0.00    -0.000 C 
BRANCH   8   9
ATOM      9  C   UNL     1     -14.339  -2.711 -10.391  1.00  0.00    -0.000 C 
BRANCH   9  10
ATOM     10  C   UNL     1     -14.266  -1.266  -9.862  1.00  0.00    -0.000 C 
BRANCH  10  11
ATOM     11  C   UNL     1     -15.149  -0.292 -10.655  1.00  0.00    -0.003 C 
ATOM     12  C   UNL     1     -14.307   0.792 -11.325  1.00  0.00     0.004 C 
ENDBRANCH  10  11
ENDBRANCH   9  10
ENDBRANCH   8   9
ENDBRANCH   7   8
ENDBRANCH   6   7
ENDBRANCH   5   6
ENDBRANCH   4   5
ENDBRANCH   3   4
ENDBRANCH   2   3
ENDBRANCH   1   2
BRANCH   1  13
ATOM     13  C   UNL     1     -13.002   0.947 -17.517  1.00  0.00     0.000 C 
BRANCH  13  14
ATOM     14  C   UNL     1     -12.497   2.395 -17.620  1.00  0.00     0.000 C 
BRANCH  14  15
ATOM     15  C   UNL     1     -13.082   3.142 -18.827  1.00  0.00     0.000 C 
BRANCH  15  16
ATOM     16  C   UNL     1     -14.416   3.807 -18.468  1.00  0.00     0.000 C 
BRANCH  16  17
ATOM     17  C   UNL     1     -14.327   5.334 -18.605  1.00  0.00     0.000 C 
BRANCH  17  18
ATOM     18  C   UNL     1     -14.877   5.848 -19.946  1.00  0.00     0.000 C 
BRANCH  18  19
ATOM     19  C   UNL     1     -15.035   7.382 -20.004  1.00  0.00     0.000 C 
BRANCH  19  20
ATOM     20  C   UNL     1     -15.136   8.007 -18.602  1.00  0.00     0.006 C 
BRANCH  20  21
ATOM     21  C   UNL     1     -13.781   8.516 -18.093  1.00  0.00     0.053 C 
BRANCH  21  22
ATOM     22  C   UNL     1     -13.602   8.250 -16.628  1.00  0.00     0.041 C 
ATOM     23  O   UNL     1     -12.633   7.554 -16.225  1.00  0.00    -0.550 OA
ATOM     24  O   UNL     1     -14.522   8.747 -15.713  1.00  0.00    -0.550 OA
ENDBRANCH  21  22
ENDBRANCH  20  21
ENDBRANCH  19  20
ENDBRANCH  18  19
ENDBRANCH  17  18
ENDBRANCH  16  17
ENDBRANCH  15  16
ENDBRANCH  14  15
ENDBRANCH  13  14
ENDBRANCH   1  13
TORSDOF 20
ENDMDL
