MODEL 1
REMARK VINA RESULT:    -5.248      0.000      0.000
REMARK INTER + INTRA:         -13.247
REMARK INTER:                 -11.385
REMARK INTRA:                  -1.862
REMARK UNBOUND:                -1.862
REMARK SMILES CCCCCCCCCCCCCCCCCCCCCC(=O)[O-]
REMARK SMILES IDX 12 1 11 2 10 3 9 4 8 5 7 6 6 7 5 8 4 9 3 10 2 11 1 12 13 13
REMARK SMILES IDX 14 14 15 15 16 16 17 17 18 18 19 19 20 20 21 21 22 22 23 23
REMARK SMILES IDX 24 24
REMARK H PARENT
REMARK Flexibility Score: inf
ROOT
ATOM      1  C   UNL     1      43.010  54.506  16.794  1.00  0.00     0.000 C 
ENDROOT
BRANCH   1   2
ATOM      2  C   UNL     1      42.378  54.479  15.393  1.00  0.00     0.000 C 
BRANCH   2   3
ATOM      3  C   UNL     1      43.255  53.758  14.357  1.00  0.00     0.000 C 
BRANCH   3   4
ATOM      4  C   UNL     1      44.412  52.975  14.999  1.00  0.00    -0.000 C 
BRANCH   4   5
ATOM      5  C   UNL     1      45.624  52.822  14.063  1.00  0.00    -0.000 C 
BRANCH   5   6
ATOM      6  C   UNL     1      46.784  51.969  14.618  1.00  0.00    -0.000 C 
BRANCH   6   7
ATOM      7  C   UNL     1      48.132  52.703  14.750  1.00  0.00    -0.000 C 
BRANCH   7   8
ATOM      8  C   UNL     1      48.021  54.220  14.994  1.00  0.00    -0.000 C 
BRANCH   8   9
ATOM      9  C   UNL     1      48.330  54.637  16.448  1.00  0.00    -0.000 C 
BRANCH   9  10
ATOM     10  C   UNL     1      47.320  55.656  16.996  1.00  0.00    -0.000 C 
BRANCH  10  11
ATOM     11  C   UNL     1      46.266  56.009  15.941  1.00  0.00    -0.003 C 
ATOM     12  C   UNL     1      45.661  57.385  16.205  1.00  0.00     0.004 C 
ENDBRANCH  10  11
ENDBRANCH   9  10
ENDBRANCH   8   9
ENDBRANCH   7   8
ENDBRANCH   6   7
ENDBRANCH   5   6
ENDBRANCH   4   5
ENDBRANCH   3   4
ENDBRANCH   2   3
ENDBRANCH   1   2
BRANCH   1  13
ATOM     13  C   UNL     1      42.378  55.607  17.658  1.00  0.00     0.000 C 
BRANCH  13  14
ATOM     14  C   UNL     1      40.952  55.967  17.207  1.00  0.00     0.000 C 
BRANCH  14  15
ATOM     15  C   UNL     1      39.992  56.180  18.391  1.00  0.00     0.000 C 
BRANCH  15  16
ATOM     16  C   UNL     1      38.842  57.151  18.044  1.00  0.00     0.000 C 
BRANCH  16  17
ATOM     17  C   UNL     1      37.965  56.672  16.875  1.00  0.00     0.000 C 
BRANCH  17  18
ATOM     18  C   UNL     1      36.504  57.136  16.997  1.00  0.00     0.000 C 
BRANCH  18  19
ATOM     19  C   UNL     1      35.985  57.801  15.713  1.00  0.00     0.000 C 
BRANCH  19  20
ATOM     20  C   UNL     1      34.811  57.034  15.084  1.00  0.00     0.006 C 
BRANCH  20  21
ATOM     21  C   UNL     1      33.753  56.696  16.139  1.00  0.00     0.053 C 
BRANCH  21  22
ATOM     22  C   UNL     1      33.388  55.246  16.076  1.00  0.00     0.041 C 
ATOM     23  O   UNL     1      33.109  54.712  14.969  1.00  0.00    -0.550 OA
ATOM     24  O   UNL     1      33.377  54.477  17.234  1.00  0.00    -0.550 OA
ENDBRANCH  21  22
ENDBRANCH  20  21
ENDBRANCH  19  20
ENDBRANCH  18  19
ENDBRANCH  17  18
ENDBRANCH  16  17
ENDBRANCH  15  16
ENDBRANCH  14  15
ENDBRANCH  13  14
ENDBRANCH   1  13
TORSDOF 20
ENDMDL
MODEL 2
REMARK VINA RESULT:    -5.236      4.556     11.032
REMARK INTER + INTRA:         -13.220
REMARK INTER:                 -11.511
REMARK INTRA:                  -1.709
REMARK UNBOUND:                -1.862
REMARK SMILES CCCCCCCCCCCCCCCCCCCCCC(=O)[O-]
REMARK SMILES IDX 12 1 11 2 10 3 9 4 8 5 7 6 6 7 5 8 4 9 3 10 2 11 1 12 13 13
REMARK SMILES IDX 14 14 15 15 16 16 17 17 18 18 19 19 20 20 21 21 22 22 23 23
REMARK SMILES IDX 24 24
REMARK H PARENT
REMARK Flexibility Score: inf
ROOT
ATOM      1  C   UNL     1      39.901  56.126  18.347  1.00  0.00     0.000 C 
ENDROOT
BRANCH   1   2
ATOM      2  C   UNL     1      38.788  57.125  17.990  1.00  0.00     0.000 C 
BRANCH   2   3
ATOM      3  C   UNL     1      37.960  56.685  16.773  1.00  0.00     0.000 C 
BRANCH   3   4
ATOM      4  C   UNL     1      36.469  57.035  16.910  1.00  0.00    -0.000 C 
BRANCH   4   5
ATOM      5  C   UNL     1      36.020  58.138  15.934  1.00  0.00    -0.000 C 
BRANCH   5   6
ATOM      6  C   UNL     1      36.125  57.780  14.438  1.00  0.00    -0.000 C 
BRANCH   6   7
ATOM      7  C   UNL     1      35.246  56.598  13.984  1.00  0.00    -0.000 C 
BRANCH   7   8
ATOM      8  C   UNL     1      33.824  56.585  14.576  1.00  0.00    -0.000 C 
BRANCH   8   9
ATOM      9  C   UNL     1      33.423  55.228  15.194  1.00  0.00    -0.000 C 
BRANCH   9  10
ATOM     10  C   UNL     1      32.859  55.372  16.616  1.00  0.00    -0.000 C 
BRANCH  10  11
ATOM     11  C   UNL     1      31.558  56.182  16.612  1.00  0.00    -0.003 C 
ATOM     12  C   UNL     1      30.782  55.985  17.912  1.00  0.00     0.004 C 
ENDBRANCH  10  11
ENDBRANCH   9  10
ENDBRANCH   8   9
ENDBRANCH   7   8
ENDBRANCH   6   7
ENDBRANCH   5   6
ENDBRANCH   4   5
ENDBRANCH   3   4
ENDBRANCH   2   3
ENDBRANCH   1   2
BRANCH   1  13
ATOM     13  C   UNL     1      40.893  55.973  17.184  1.00  0.00     0.000 C 
BRANCH  13  14
ATOM     14  C   UNL     1      42.312  55.622  17.660  1.00  0.00     0.000 C 
BRANCH  14  15
ATOM     15  C   UNL     1      42.772  54.233  17.180  1.00  0.00     0.000 C 
BRANCH  15  16
ATOM     16  C   UNL     1      42.737  54.105  15.642  1.00  0.00     0.000 C 
BRANCH  16  17
ATOM     17  C   UNL     1      43.881  53.249  15.071  1.00  0.00     0.000 C 
BRANCH  17  18
ATOM     18  C   UNL     1      45.225  53.993  15.039  1.00  0.00     0.000 C 
BRANCH  18  19
ATOM     19  C   UNL     1      45.081  55.455  14.588  1.00  0.00     0.000 C 
BRANCH  19  20
ATOM     20  C   UNL     1      45.725  56.443  15.573  1.00  0.00     0.006 C 
BRANCH  20  21
ATOM     21  C   UNL     1      46.145  55.733  16.863  1.00  0.00     0.053 C 
BRANCH  21  22
ATOM     22  C   UNL     1      47.629  55.799  17.045  1.00  0.00     0.041 C 
ATOM     23  O   UNL     1      48.370  54.924  16.523  1.00  0.00    -0.550 OA
ATOM     24  O   UNL     1      48.197  56.839  17.771  1.00  0.00    -0.550 OA
ENDBRANCH  21  22
ENDBRANCH  20  21
ENDBRANCH  19  20
ENDBRANCH  18  19
ENDBRANCH  17  18
ENDBRANCH  16  17
ENDBRANCH  15  16
ENDBRANCH  14  15
ENDBRANCH  13  14
ENDBRANCH   1  13
TORSDOF 20
ENDMDL
MODEL 3
REMARK VINA RESULT:    -5.191      1.486      3.115
REMARK INTER + INTRA:         -13.123
REMARK INTER:                 -11.743
REMARK INTRA:                  -1.380
REMARK UNBOUND:                -1.862
REMARK SMILES CCCCCCCCCCCCCCCCCCCCCC(=O)[O-]
REMARK SMILES IDX 12 1 11 2 10 3 9 4 8 5 7 6 6 7 5 8 4 9 3 10 2 11 1 12 13 13
REMARK SMILES IDX 14 14 15 15 16 16 17 17 18 18 19 19 20 20 21 21 22 22 23 23
REMARK SMILES IDX 24 24
REMARK H PARENT
REMARK Flexibility Score: inf
ROOT
ATOM      1  C   UNL     1      40.003  56.105  18.341  1.00  0.00     0.000 C 
ENDROOT
BRANCH   1   2
ATOM      2  C   UNL     1      40.989  55.992  17.167  1.00  0.00     0.000 C 
BRANCH   2   3
ATOM      3  C   UNL     1      42.402  55.584  17.611  1.00  0.00     0.000 C 
BRANCH   3   4
ATOM      4  C   UNL     1      42.766  54.150  17.192  1.00  0.00    -0.000 C 
BRANCH   4   5
ATOM      5  C   UNL     1      42.734  53.945  15.666  1.00  0.00    -0.000 C 
BRANCH   5   6
ATOM      6  C   UNL     1      43.880  53.088  15.090  1.00  0.00    -0.000 C 
BRANCH   6   7
ATOM      7  C   UNL     1      45.224  53.821  14.919  1.00  0.00    -0.000 C 
BRANCH   7   8
ATOM      8  C   UNL     1      45.124  55.357  14.889  1.00  0.00    -0.000 C 
BRANCH   8   9
ATOM      9  C   UNL     1      45.947  56.053  15.993  1.00  0.00    -0.000 C 
BRANCH   9  10
ATOM     10  C   UNL     1      47.321  55.400  16.205  1.00  0.00    -0.000 C 
BRANCH  10  11
ATOM     11  C   UNL     1      47.986  55.918  17.485  1.00  0.00    -0.003 C 
ATOM     12  C   UNL     1      48.029  57.444  17.504  1.00  0.00     0.004 C 
ENDBRANCH  10  11
ENDBRANCH   9  10
ENDBRANCH   8   9
ENDBRANCH   7   8
ENDBRANCH   6   7
ENDBRANCH   5   6
ENDBRANCH   4   5
ENDBRANCH   3   4
ENDBRANCH   2   3
ENDBRANCH   1   2
BRANCH   1  13
ATOM     13  C   UNL     1      38.894  57.120  18.028  1.00  0.00     0.000 C 
BRANCH  13  14
ATOM     14  C   UNL     1      38.005  56.682  16.852  1.00  0.00     0.000 C 
BRANCH  14  15
ATOM     15  C   UNL     1      36.542  57.131  17.015  1.00  0.00     0.000 C 
BRANCH  15  16
ATOM     16  C   UNL     1      36.106  58.115  15.907  1.00  0.00     0.000 C 
BRANCH  16  17
ATOM     17  C   UNL     1      36.041  57.477  14.509  1.00  0.00     0.000 C 
BRANCH  17  18
ATOM     18  C   UNL     1      34.602  57.290  14.005  1.00  0.00     0.000 C 
BRANCH  18  19
ATOM     19  C   UNL     1      33.895  56.094  14.663  1.00  0.00     0.000 C 
BRANCH  19  20
ATOM     20  C   UNL     1      32.437  56.401  15.035  1.00  0.00     0.006 C 
BRANCH  20  21
ATOM     21  C   UNL     1      32.270  56.496  16.555  1.00  0.00     0.053 C 
BRANCH  21  22
ATOM     22  C   UNL     1      31.085  55.701  17.007  1.00  0.00     0.041 C 
ATOM     23  O   UNL     1      30.744  55.709  18.220  1.00  0.00    -0.550 OA
ATOM     24  O   UNL     1      30.344  54.967  16.088  1.00  0.00    -0.550 OA
ENDBRANCH  21  22
ENDBRANCH  20  21
ENDBRANCH  19  20
ENDBRANCH  18  19
ENDBRANCH  17  18
ENDBRANCH  16  17
ENDBRANCH  15  16
ENDBRANCH  14  15
ENDBRANCH  13  14
ENDBRANCH   1  13
TORSDOF 20
ENDMDL
MODEL 4
REMARK VINA RESULT:    -5.148      1.393      2.093
REMARK INTER + INTRA:         -13.028
REMARK INTER:                 -11.765
REMARK INTRA:                  -1.263
REMARK UNBOUND:                -1.862
REMARK SMILES CCCCCCCCCCCCCCCCCCCCCC(=O)[O-]
REMARK SMILES IDX 12 1 11 2 10 3 9 4 8 5 7 6 6 7 5 8 4 9 3 10 2 11 1 12 13 13
REMARK SMILES IDX 14 14 15 15 16 16 17 17 18 18 19 19 20 20 21 21 22 22 23 23
REMARK SMILES IDX 24 24
REMARK H PARENT
REMARK Flexibility Score: inf
ROOT
ATOM      1  C   UNL     1      41.263  55.634  16.899  1.00  0.00     0.000 C 
ENDROOT
BRANCH   1   2
ATOM      2  C   UNL     1      42.775  55.357  16.893  1.00  0.00     0.000 C 
BRANCH   2   3
ATOM      3  C   UNL     1      43.106  53.858  16.822  1.00  0.00     0.000 C 
BRANCH   3   4
ATOM      4  C   UNL     1      43.433  53.388  15.395  1.00  0.00    -0.000 C 
BRANCH   4   5
ATOM      5  C   UNL     1      44.889  53.679  14.987  1.00  0.00    -0.000 C 
BRANCH   5   6
ATOM      6  C   UNL     1      45.520  52.658  14.017  1.00  0.00    -0.000 C 
BRANCH   6   7
ATOM      7  C   UNL     1      46.752  51.910  14.563  1.00  0.00    -0.000 C 
BRANCH   7   8
ATOM      8  C   UNL     1      48.097  52.619  14.323  1.00  0.00    -0.000 C 
BRANCH   8   9
ATOM      9  C   UNL     1      48.670  53.303  15.583  1.00  0.00    -0.000 C 
BRANCH   9  10
ATOM     10  C   UNL     1      48.449  54.823  15.582  1.00  0.00    -0.000 C 
BRANCH  10  11
ATOM     11  C   UNL     1      48.038  55.321  16.972  1.00  0.00    -0.003 C 
ATOM     12  C   UNL     1      46.730  56.105  16.912  1.00  0.00     0.004 C 
ENDBRANCH  10  11
ENDBRANCH   9  10
ENDBRANCH   8   9
ENDBRANCH   7   8
ENDBRANCH   6   7
ENDBRANCH   5   6
ENDBRANCH   4   5
ENDBRANCH   3   4
ENDBRANCH   2   3
ENDBRANCH   1   2
BRANCH   1  13
ATOM     13  C   UNL     1      40.775  55.973  18.315  1.00  0.00     0.000 C 
BRANCH  13  14
ATOM     14  C   UNL     1      39.482  56.804  18.312  1.00  0.00     0.000 C 
BRANCH  14  15
ATOM     15  C   UNL     1      38.529  56.415  17.167  1.00  0.00     0.000 C 
BRANCH  15  16
ATOM     16  C   UNL     1      37.188  57.176  17.238  1.00  0.00     0.000 C 
BRANCH  16  17
ATOM     17  C   UNL     1      36.397  57.152  15.918  1.00  0.00     0.000 C 
BRANCH  17  18
ATOM     18  C   UNL     1      34.881  57.027  16.134  1.00  0.00     0.000 C 
BRANCH  18  19
ATOM     19  C   UNL     1      34.114  56.793  14.823  1.00  0.00     0.000 C 
BRANCH  19  20
ATOM     20  C   UNL     1      32.699  56.243  15.057  1.00  0.00     0.006 C 
BRANCH  20  21
ATOM     21  C   UNL     1      32.541  55.736  16.493  1.00  0.00     0.053 C 
BRANCH  21  22
ATOM     22  C   UNL     1      31.319  56.320  17.130  1.00  0.00     0.041 C 
ATOM     23  O   UNL     1      30.813  57.380  16.673  1.00  0.00    -0.550 OA
ATOM     24  O   UNL     1      30.724  55.684  18.213  1.00  0.00    -0.550 OA
ENDBRANCH  21  22
ENDBRANCH  20  21
ENDBRANCH  19  20
ENDBRANCH  18  19
ENDBRANCH  17  18
ENDBRANCH  16  17
ENDBRANCH  15  16
ENDBRANCH  14  15
ENDBRANCH  13  14
ENDBRANCH   1  13
TORSDOF 20
ENDMDL
MODEL 5
REMARK VINA RESULT:    -5.105      4.462     11.526
REMARK INTER + INTRA:         -12.935
REMARK INTER:                 -12.112
REMARK INTRA:                  -0.823
REMARK UNBOUND:                -1.862
REMARK SMILES CCCCCCCCCCCCCCCCCCCCCC(=O)[O-]
REMARK SMILES IDX 12 1 11 2 10 3 9 4 8 5 7 6 6 7 5 8 4 9 3 10 2 11 1 12 13 13
REMARK SMILES IDX 14 14 15 15 16 16 17 17 18 18 19 19 20 20 21 21 22 22 23 23
REMARK SMILES IDX 24 24
REMARK H PARENT
REMARK Flexibility Score: inf
ROOT
ATOM      1  C   UNL     1      41.101  55.941  17.139  1.00  0.00     0.000 C 
ENDROOT
BRANCH   1   2
ATOM      2  C   UNL     1      40.124  56.066  18.319  1.00  0.00     0.000 C 
BRANCH   2   3
ATOM      3  C   UNL     1      38.992  57.070  18.053  1.00  0.00     0.000 C 
BRANCH   3   4
ATOM      4  C   UNL     1      38.056  56.623  16.917  1.00  0.00    -0.000 C 
BRANCH   4   5
ATOM      5  C   UNL     1      36.605  57.098  17.115  1.00  0.00    -0.000 C 
BRANCH   5   6
ATOM      6  C   UNL     1      36.025  57.948  15.965  1.00  0.00    -0.000 C 
BRANCH   6   7
ATOM      7  C   UNL     1      35.603  57.155  14.713  1.00  0.00    -0.000 C 
BRANCH   7   8
ATOM      8  C   UNL     1      34.116  56.756  14.671  1.00  0.00    -0.000 C 
BRANCH   8   9
ATOM      9  C   UNL     1      33.567  56.272  16.030  1.00  0.00    -0.000 C 
BRANCH   9  10
ATOM     10  C   UNL     1      32.090  55.854  15.953  1.00  0.00    -0.000 C 
BRANCH  10  11
ATOM     11  C   UNL     1      31.248  56.615  16.983  1.00  0.00    -0.003 C 
ATOM     12  C   UNL     1      30.644  55.664  18.012  1.00  0.00     0.004 C 
ENDBRANCH  10  11
ENDBRANCH   9  10
ENDBRANCH   8   9
ENDBRANCH   7   8
ENDBRANCH   6   7
ENDBRANCH   5   6
ENDBRANCH   4   5
ENDBRANCH   3   4
ENDBRANCH   2   3
ENDBRANCH   1   2
BRANCH   1  13
ATOM     13  C   UNL     1      42.504  55.552  17.629  1.00  0.00     0.000 C 
BRANCH  13  14
ATOM     14  C   UNL     1      42.995  54.226  17.025  1.00  0.00     0.000 C 
BRANCH  14  15
ATOM     15  C   UNL     1      43.889  54.433  15.789  1.00  0.00     0.000 C 
BRANCH  15  16
ATOM     16  C   UNL     1      43.901  53.197  14.863  1.00  0.00     0.000 C 
BRANCH  16  17
ATOM     17  C   UNL     1      45.315  52.679  14.549  1.00  0.00     0.000 C 
BRANCH  17  18
ATOM     18  C   UNL     1      46.385  53.779  14.631  1.00  0.00     0.000 C 
BRANCH  18  19
ATOM     19  C   UNL     1      47.778  53.226  14.973  1.00  0.00     0.000 C 
BRANCH  19  20
ATOM     20  C   UNL     1      48.707  54.294  15.570  1.00  0.00     0.006 C 
BRANCH  20  21
ATOM     21  C   UNL     1      47.928  55.571  15.903  1.00  0.00     0.053 C 
BRANCH  21  22
ATOM     22  C   UNL     1      48.046  55.898  17.358  1.00  0.00     0.041 C 
ATOM     23  O   UNL     1      48.115  54.973  18.211  1.00  0.00    -0.550 OA
ATOM     24  O   UNL     1      48.100  57.223  17.774  1.00  0.00    -0.550 OA
ENDBRANCH  21  22
ENDBRANCH  20  21
ENDBRANCH  19  20
ENDBRANCH  18  19
ENDBRANCH  17  18
ENDBRANCH  16  17
ENDBRANCH  15  16
ENDBRANCH  14  15
ENDBRANCH  13  14
ENDBRANCH   1  13
TORSDOF 20
ENDMDL
MODEL 6
REMARK VINA RESULT:    -5.073      1.557      3.908
REMARK INTER + INTRA:         -12.866
REMARK INTER:                 -11.305
REMARK INTRA:                  -1.561
REMARK UNBOUND:                -1.862
REMARK SMILES CCCCCCCCCCCCCCCCCCCCCC(=O)[O-]
REMARK SMILES IDX 12 1 11 2 10 3 9 4 8 5 7 6 6 7 5 8 4 9 3 10 2 11 1 12 13 13
REMARK SMILES IDX 14 14 15 15 16 16 17 17 18 18 19 19 20 20 21 21 22 22 23 23
REMARK SMILES IDX 24 24
REMARK H PARENT
REMARK Flexibility Score: inf
ROOT
ATOM      1  C   UNL     1      38.993  57.125  18.009  1.00  0.00     0.000 C 
ENDROOT
BRANCH   1   2
ATOM      2  C   UNL     1      40.050  56.043  18.285  1.00  0.00     0.000 C 
BRANCH   2   3
ATOM      3  C   UNL     1      41.077  55.910  17.151  1.00  0.00     0.000 C 
BRANCH   3   4
ATOM      4  C   UNL     1      42.474  55.514  17.657  1.00  0.00    -0.000 C 
BRANCH   4   5
ATOM      5  C   UNL     1      42.913  54.119  17.175  1.00  0.00    -0.000 C 
BRANCH   5   6
ATOM      6  C   UNL     1      42.663  53.828  15.681  1.00  0.00    -0.000 C 
BRANCH   6   7
ATOM      7  C   UNL     1      43.859  53.219  14.923  1.00  0.00    -0.000 C 
BRANCH   7   8
ATOM      8  C   UNL     1      45.174  54.011  15.048  1.00  0.00    -0.000 C 
BRANCH   8   9
ATOM      9  C   UNL     1      45.053  55.486  14.608  1.00  0.00    -0.000 C 
BRANCH   9  10
ATOM     10  C   UNL     1      45.675  56.457  15.623  1.00  0.00    -0.000 C 
BRANCH  10  11
ATOM     11  C   UNL     1      46.197  55.706  16.853  1.00  0.00    -0.003 C 
ATOM     12  C   UNL     1      47.662  56.041  17.121  1.00  0.00     0.004 C 
ENDBRANCH  10  11
ENDBRANCH   9  10
ENDBRANCH   8   9
ENDBRANCH   7   8
ENDBRANCH   6   7
ENDBRANCH   5   6
ENDBRANCH   4   5
ENDBRANCH   3   4
ENDBRANCH   2   3
ENDBRANCH   1   2
BRANCH   1  13
ATOM     13  C   UNL     1      37.968  56.637  16.974  1.00  0.00     0.000 C 
BRANCH  13  14
ATOM     14  C   UNL     1      36.606  57.334  17.116  1.00  0.00     0.000 C 
BRANCH  14  15
ATOM     15  C   UNL     1      36.076  57.880  15.778  1.00  0.00     0.000 C 
BRANCH  15  16
ATOM     16  C   UNL     1      35.687  56.752  14.799  1.00  0.00     0.000 C 
BRANCH  16  17
ATOM     17  C   UNL     1      34.177  56.682  14.512  1.00  0.00     0.000 C 
BRANCH  17  18
ATOM     18  C   UNL     1      33.363  56.189  15.719  1.00  0.00     0.000 C 
BRANCH  18  19
ATOM     19  C   UNL     1      31.891  56.628  15.659  1.00  0.00     0.000 C 
BRANCH  19  20
ATOM     20  C   UNL     1      31.138  56.349  16.968  1.00  0.00     0.006 C 
BRANCH  20  21
ATOM     21  C   UNL     1      31.639  55.058  17.622  1.00  0.00     0.053 C 
BRANCH  21  22
ATOM     22  C   UNL     1      30.881  53.875  17.107  1.00  0.00     0.041 C 
ATOM     23  O   UNL     1      31.443  53.049  16.339  1.00  0.00    -0.550 OA
ATOM     24  O   UNL     1      29.561  53.670  17.491  1.00  0.00    -0.550 OA
ENDBRANCH  21  22
ENDBRANCH  20  21
ENDBRANCH  19  20
ENDBRANCH  18  19
ENDBRANCH  17  18
ENDBRANCH  16  17
ENDBRANCH  15  16
ENDBRANCH  14  15
ENDBRANCH  13  14
ENDBRANCH   1  13
TORSDOF 20
ENDMDL
MODEL 7
REMARK VINA RESULT:    -4.946      4.157     11.484
REMARK INTER + INTRA:         -12.591
REMARK INTER:                 -10.852
REMARK INTRA:                  -1.739
REMARK UNBOUND:                -1.862
REMARK SMILES CCCCCCCCCCCCCCCCCCCCCC(=O)[O-]
REMARK SMILES IDX 12 1 11 2 10 3 9 4 8 5 7 6 6 7 5 8 4 9 3 10 2 11 1 12 13 13
REMARK SMILES IDX 14 14 15 15 16 16 17 17 18 18 19 19 20 20 21 21 22 22 23 23
REMARK SMILES IDX 24 24
REMARK H PARENT
REMARK Flexibility Score: inf
ROOT
ATOM      1  C   UNL     1      36.611  57.352  16.856  1.00  0.00     0.000 C 
ENDROOT
BRANCH   1   2
ATOM      2  C   UNL     1      36.447  58.057  15.499  1.00  0.00     0.000 C 
BRANCH   2   3
ATOM      3  C   UNL     1      35.127  57.701  14.798  1.00  0.00     0.000 C 
BRANCH   3   4
ATOM      4  C   UNL     1      34.509  56.394  15.322  1.00  0.00    -0.000 C 
BRANCH   4   5
ATOM      5  C   UNL     1      33.999  55.479  14.194  1.00  0.00    -0.000 C 
BRANCH   5   6
ATOM      6  C   UNL     1      32.464  55.390  14.059  1.00  0.00    -0.000 C 
BRANCH   6   7
ATOM      7  C   UNL     1      31.722  56.739  14.126  1.00  0.00    -0.000 C 
BRANCH   7   8
ATOM      8  C   UNL     1      30.601  56.808  15.180  1.00  0.00    -0.000 C 
BRANCH   8   9
ATOM      9  C   UNL     1      31.109  57.111  16.606  1.00  0.00    -0.000 C 
BRANCH   9  10
ATOM     10  C   UNL     1      30.721  56.019  17.614  1.00  0.00    -0.000 C 
BRANCH  10  11
ATOM     11  C   UNL     1      31.751  54.884  17.621  1.00  0.00    -0.003 C 
ATOM     12  C   UNL     1      31.194  53.630  16.954  1.00  0.00     0.004 C 
ENDBRANCH  10  11
ENDBRANCH   9  10
ENDBRANCH   8   9
ENDBRANCH   7   8
ENDBRANCH   6   7
ENDBRANCH   5   6
ENDBRANCH   4   5
ENDBRANCH   3   4
ENDBRANCH   2   3
ENDBRANCH   1   2
BRANCH   1  13
ATOM     13  C   UNL     1      37.924  56.556  16.903  1.00  0.00     0.000 C 
BRANCH  13  14
ATOM     14  C   UNL     1      38.901  57.089  17.964  1.00  0.00     0.000 C 
BRANCH  14  15
ATOM     15  C   UNL     1      40.023  56.088  18.293  1.00  0.00     0.000 C 
BRANCH  15  16
ATOM     16  C   UNL     1      41.011  55.912  17.119  1.00  0.00     0.000 C 
BRANCH  16  17
ATOM     17  C   UNL     1      42.433  55.530  17.565  1.00  0.00     0.000 C 
BRANCH  17  18
ATOM     18  C   UNL     1      42.806  54.086  17.194  1.00  0.00     0.000 C 
BRANCH  18  19
ATOM     19  C   UNL     1      42.682  53.811  15.687  1.00  0.00     0.000 C 
BRANCH  19  20
ATOM     20  C   UNL     1      44.007  53.351  15.060  1.00  0.00     0.006 C 
BRANCH  20  21
ATOM     21  C   UNL     1      44.790  54.543  14.502  1.00  0.00     0.053 C 
BRANCH  21  22
ATOM     22  C   UNL     1      45.949  54.876  15.388  1.00  0.00     0.041 C 
ATOM     23  O   UNL     1      47.064  54.319  15.206  1.00  0.00    -0.550 OA
ATOM     24  O   UNL     1      45.807  55.817  16.400  1.00  0.00    -0.550 OA
ENDBRANCH  21  22
ENDBRANCH  20  21
ENDBRANCH  19  20
ENDBRANCH  18  19
ENDBRANCH  17  18
ENDBRANCH  16  17
ENDBRANCH  15  16
ENDBRANCH  14  15
ENDBRANCH  13  14
ENDBRANCH   1  13
TORSDOF 20
ENDMDL
MODEL 8
REMARK VINA RESULT:    -4.918      1.317      2.979
REMARK INTER + INTRA:         -12.530
REMARK INTER:                 -10.933
REMARK INTRA:                  -1.597
REMARK UNBOUND:                -1.862
REMARK SMILES CCCCCCCCCCCCCCCCCCCCCC(=O)[O-]
REMARK SMILES IDX 12 1 11 2 10 3 9 4 8 5 7 6 6 7 5 8 4 9 3 10 2 11 1 12 13 13
REMARK SMILES IDX 14 14 15 15 16 16 17 17 18 18 19 19 20 20 21 21 22 22 23 23
REMARK SMILES IDX 24 24
REMARK H PARENT
REMARK Flexibility Score: inf
ROOT
ATOM      1  C   UNL     1      40.843  56.014  17.189  1.00  0.00     0.000 C 
ENDROOT
BRANCH   1   2
ATOM      2  C   UNL     1      42.124  55.287  17.628  1.00  0.00     0.000 C 
BRANCH   2   3
ATOM      3  C   UNL     1      42.472  54.094  16.724  1.00  0.00     0.000 C 
BRANCH   3   4
ATOM      4  C   UNL     1      43.949  54.085  16.294  1.00  0.00    -0.000 C 
BRANCH   4   5
ATOM      5  C   UNL     1      44.221  54.975  15.068  1.00  0.00    -0.000 C 
BRANCH   5   6
ATOM      6  C   UNL     1      45.504  55.828  15.143  1.00  0.00    -0.000 C 
BRANCH   6   7
ATOM      7  C   UNL     1      46.114  55.970  16.551  1.00  0.00    -0.000 C 
BRANCH   7   8
ATOM      8  C   UNL     1      47.645  56.135  16.579  1.00  0.00    -0.000 C 
BRANCH   8   9
ATOM      9  C   UNL     1      48.409  54.803  16.732  1.00  0.00    -0.000 C 
BRANCH   9  10
ATOM     10  C   UNL     1      48.770  54.171  15.379  1.00  0.00    -0.000 C 
BRANCH  10  11
ATOM     11  C   UNL     1      48.352  52.697  15.330  1.00  0.00    -0.003 C 
ATOM     12  C   UNL     1      47.181  52.488  14.374  1.00  0.00     0.004 C 
ENDBRANCH  10  11
ENDBRANCH   9  10
ENDBRANCH   8   9
ENDBRANCH   7   8
ENDBRANCH   6   7
ENDBRANCH   5   6
ENDBRANCH   4   5
ENDBRANCH   3   4
ENDBRANCH   2   3
ENDBRANCH   1   2
BRANCH   1  13
ATOM     13  C   UNL     1      39.872  56.172  18.369  1.00  0.00     0.000 C 
BRANCH  13  14
ATOM     14  C   UNL     1      38.703  57.118  18.050  1.00  0.00     0.000 C 
BRANCH  14  15
ATOM     15  C   UNL     1      37.933  56.703  16.783  1.00  0.00     0.000 C 
BRANCH  15  16
ATOM     16  C   UNL     1      36.449  57.125  16.835  1.00  0.00     0.000 C 
BRANCH  16  17
ATOM     17  C   UNL     1      36.088  58.231  15.828  1.00  0.00     0.000 C 
BRANCH  17  18
ATOM     18  C   UNL     1      35.401  57.686  14.566  1.00  0.00     0.000 C 
BRANCH  18  19
ATOM     19  C   UNL     1      34.753  56.311  14.792  1.00  0.00     0.000 C 
BRANCH  19  20
ATOM     20  C   UNL     1      33.222  56.389  14.890  1.00  0.00     0.006 C 
BRANCH  20  21
ATOM     21  C   UNL     1      32.765  56.334  16.351  1.00  0.00     0.053 C 
BRANCH  21  22
ATOM     22  C   UNL     1      31.277  56.471  16.446  1.00  0.00     0.041 C 
ATOM     23  O   UNL     1      30.737  56.741  17.551  1.00  0.00    -0.550 OA
ATOM     24  O   UNL     1      30.489  56.321  15.312  1.00  0.00    -0.550 OA
ENDBRANCH  21  22
ENDBRANCH  20  21
ENDBRANCH  19  20
ENDBRANCH  18  19
ENDBRANCH  17  18
ENDBRANCH  16  17
ENDBRANCH  15  16
ENDBRANCH  14  15
ENDBRANCH  13  14
ENDBRANCH   1  13
TORSDOF 20
ENDMDL
MODEL 9
REMARK VINA RESULT:    -4.819      4.585     11.503
REMARK INTER + INTRA:         -12.315
REMARK INTER:                 -10.994
REMARK INTRA:                  -1.321
REMARK UNBOUND:                -1.862
REMARK SMILES CCCCCCCCCCCCCCCCCCCCCC(=O)[O-]
REMARK SMILES IDX 12 1 11 2 10 3 9 4 8 5 7 6 6 7 5 8 4 9 3 10 2 11 1 12 13 13
REMARK SMILES IDX 14 14 15 15 16 16 17 17 18 18 19 19 20 20 21 21 22 22 23 23
REMARK SMILES IDX 24 24
REMARK H PARENT
REMARK Flexibility Score: inf
ROOT
ATOM      1  C   UNL     1      38.504  56.408  17.062  1.00  0.00     0.000 C 
ENDROOT
BRANCH   1   2
ATOM      2  C   UNL     1      37.452  57.389  17.605  1.00  0.00     0.000 C 
BRANCH   2   3
ATOM      3  C   UNL     1      36.111  57.296  16.862  1.00  0.00     0.000 C 
BRANCH   3   4
ATOM      4  C   UNL     1      35.998  58.307  15.709  1.00  0.00    -0.000 C 
BRANCH   4   5
ATOM      5  C   UNL     1      35.817  57.634  14.336  1.00  0.00    -0.000 C 
BRANCH   5   6
ATOM      6  C   UNL     1      34.383  57.164  14.015  1.00  0.00    -0.000 C 
BRANCH   6   7
ATOM      7  C   UNL     1      34.099  55.679  14.315  1.00  0.00    -0.000 C 
BRANCH   7   8
ATOM      8  C   UNL     1      32.770  55.410  15.046  1.00  0.00    -0.000 C 
BRANCH   8   9
ATOM      9  C   UNL     1      32.665  56.113  16.416  1.00  0.00    -0.000 C 
BRANCH   9  10
ATOM     10  C   UNL     1      31.218  56.475  16.783  1.00  0.00    -0.000 C 
BRANCH  10  11
ATOM     11  C   UNL     1      30.753  55.699  18.020  1.00  0.00    -0.003 C 
ATOM     12  C   UNL     1      30.054  54.400  17.625  1.00  0.00     0.004 C 
ENDBRANCH  10  11
ENDBRANCH   9  10
ENDBRANCH   8   9
ENDBRANCH   7   8
ENDBRANCH   6   7
ENDBRANCH   5   6
ENDBRANCH   4   5
ENDBRANCH   3   4
ENDBRANCH   2   3
ENDBRANCH   1   2
BRANCH   1  13
ATOM     13  C   UNL     1      39.768  56.423  17.935  1.00  0.00     0.000 C 
BRANCH  13  14
ATOM     14  C   UNL     1      41.034  56.043  17.150  1.00  0.00     0.000 C 
BRANCH  14  15
ATOM     15  C   UNL     1      42.074  55.313  18.018  1.00  0.00     0.000 C 
BRANCH  15  16
ATOM     16  C   UNL     1      42.937  54.332  17.196  1.00  0.00     0.000 C 
BRANCH  16  17
ATOM     17  C   UNL     1      42.510  54.223  15.723  1.00  0.00     0.000 C 
BRANCH  17  18
ATOM     18  C   UNL     1      43.691  54.356  14.748  1.00  0.00     0.000 C 
BRANCH  18  19
ATOM     19  C   UNL     1      44.595  53.114  14.741  1.00  0.00     0.000 C 
BRANCH  19  20
ATOM     20  C   UNL     1      46.089  53.470  14.706  1.00  0.00     0.006 C 
BRANCH  20  21
ATOM     21  C   UNL     1      46.343  54.824  15.375  1.00  0.00     0.053 C 
BRANCH  21  22
ATOM     22  C   UNL     1      47.765  54.932  15.829  1.00  0.00     0.041 C 
ATOM     23  O   UNL     1      48.705  54.690  15.027  1.00  0.00    -0.550 OA
ATOM     24  O   UNL     1      48.054  55.319  17.132  1.00  0.00    -0.550 OA
ENDBRANCH  21  22
ENDBRANCH  20  21
ENDBRANCH  19  20
ENDBRANCH  18  19
ENDBRANCH  17  18
ENDBRANCH  16  17
ENDBRANCH  15  16
ENDBRANCH  14  15
ENDBRANCH  13  14
ENDBRANCH   1  13
TORSDOF 20
ENDMDL
