MODEL 1
REMARK VINA RESULT:    -3.603      0.000      0.000
REMARK INTER + INTRA:          -4.235
REMARK INTER:                  -4.024
REMARK INTRA:                  -0.211
REMARK UNBOUND:                -0.211
REMARK SMILES CC(C)c1ccc(C(=O)[O-])cc1
REMARK SMILES IDX 7 1 6 2 11 3 5 4 12 5 4 6 8 7 9 8 10 9 2 10 1 11 3 12
REMARK H PARENT
REMARK Flexibility Score: inf
ROOT
ATOM      1  C   UNL     1      44.965  20.879   7.712  1.00  0.00    -0.003 A 
ATOM      2  C   UNL     1      45.418  19.569   7.931  1.00  0.00     0.010 A 
ATOM      3  C   UNL     1      45.887  21.860   7.308  1.00  0.00     0.010 A 
ATOM      4  C   UNL     1      46.766  19.245   7.751  1.00  0.00     0.004 A 
ATOM      5  C   UNL     1      47.235  21.537   7.129  1.00  0.00     0.004 A 
ATOM      6  C   UNL     1      47.690  20.226   7.348  1.00  0.00    -0.045 A 
ENDROOT
BRANCH   1   7
ATOM      7  C   UNL     1      43.537  21.218   7.902  1.00  0.00     0.071 C 
ATOM      8  O   UNL     1      42.684  20.312   8.100  1.00  0.00    -0.545 OA
ATOM      9  O   UNL     1      43.117  22.542   7.864  1.00  0.00    -0.545 OA
ENDBRANCH   1   7
BRANCH   6  10
ATOM     10  C   UNL     1      49.156  19.888   7.149  1.00  0.00     0.013 C 
ATOM     11  C   UNL     1      49.545  19.968   5.668  1.00  0.00     0.012 C 
ATOM     12  C   UNL     1      50.052  20.791   8.005  1.00  0.00     0.012 C 
ENDBRANCH   6  10
TORSDOF 2
ENDMDL
MODEL 2
REMARK VINA RESULT:    -3.599      0.059      1.398
REMARK INTER + INTRA:          -4.231
REMARK INTER:                  -4.023
REMARK INTRA:                  -0.208
REMARK UNBOUND:                -0.211
REMARK SMILES CC(C)c1ccc(C(=O)[O-])cc1
REMARK SMILES IDX 7 1 6 2 11 3 5 4 12 5 4 6 8 7 9 8 10 9 2 10 1 11 3 12
REMARK H PARENT
REMARK Flexibility Score: inf
ROOT
ATOM      1  C   UNL     1      44.981  20.897   7.734  1.00  0.00    -0.003 A 
ATOM      2  C   UNL     1      45.895  21.895   7.361  1.00  0.00     0.010 A 
ATOM      3  C   UNL     1      45.442  19.581   7.909  1.00  0.00     0.010 A 
ATOM      4  C   UNL     1      47.243  21.584   7.165  1.00  0.00     0.004 A 
ATOM      5  C   UNL     1      46.790  19.270   7.713  1.00  0.00     0.004 A 
ATOM      6  C   UNL     1      47.707  20.267   7.338  1.00  0.00    -0.045 A 
ENDROOT
BRANCH   1   7
ATOM      7  C   UNL     1      43.554  21.230   7.941  1.00  0.00     0.071 C 
ATOM      8  O   UNL     1      42.694  20.317   8.068  1.00  0.00    -0.545 OA
ATOM      9  O   UNL     1      43.141  22.556   7.998  1.00  0.00    -0.545 OA
ENDBRANCH   1   7
BRANCH   6  10
ATOM     10  C   UNL     1      49.168  19.915   7.129  1.00  0.00     0.013 C 
ATOM     11  C   UNL     1      49.543  19.974   5.643  1.00  0.00     0.012 C 
ATOM     12  C   UNL     1      50.079  20.823   7.964  1.00  0.00     0.012 C 
ENDBRANCH   6  10
TORSDOF 2
ENDMDL
MODEL 3
REMARK VINA RESULT:    -3.539      7.575      9.466
REMARK INTER + INTRA:          -4.164
REMARK INTER:                  -3.954
REMARK INTRA:                  -0.210
REMARK UNBOUND:                -0.211
REMARK SMILES CC(C)c1ccc(C(=O)[O-])cc1
REMARK SMILES IDX 7 1 6 2 11 3 5 4 12 5 4 6 8 7 9 8 10 9 2 10 1 11 3 12
REMARK H PARENT
REMARK Flexibility Score: inf
ROOT
ATOM      1  C   UNL     1      36.483  17.477   5.603  1.00  0.00    -0.003 A 
ATOM      2  C   UNL     1      37.098  17.659   4.354  1.00  0.00     0.010 A 
ATOM      3  C   UNL     1      37.259  17.031   6.687  1.00  0.00     0.010 A 
ATOM      4  C   UNL     1      38.462  17.399   4.191  1.00  0.00     0.004 A 
ATOM      5  C   UNL     1      38.622  16.771   6.524  1.00  0.00     0.004 A 
ATOM      6  C   UNL     1      39.240  16.952   5.275  1.00  0.00    -0.045 A 
ENDROOT
BRANCH   1   7
ATOM      7  C   UNL     1      35.039  17.753   5.772  1.00  0.00     0.071 C 
ATOM      8  O   UNL     1      34.623  18.937   5.899  1.00  0.00    -0.545 OA
ATOM      9  O   UNL     1      34.120  16.711   5.795  1.00  0.00    -0.545 OA
ENDBRANCH   1   7
BRANCH   6  10
ATOM     10  C   UNL     1      40.721  16.667   5.112  1.00  0.00     0.013 C 
ATOM     11  C   UNL     1      41.197  17.008   3.694  1.00  0.00     0.012 C 
ATOM     12  C   UNL     1      41.547  17.415   6.165  1.00  0.00     0.012 C 
ENDBRANCH   6  10
TORSDOF 2
ENDMDL
MODEL 4
REMARK VINA RESULT:    -3.520      2.918      5.004
REMARK INTER + INTRA:          -4.142
REMARK INTER:                  -3.925
REMARK INTRA:                  -0.217
REMARK UNBOUND:                -0.211
REMARK SMILES CC(C)c1ccc(C(=O)[O-])cc1
REMARK SMILES IDX 7 1 6 2 11 3 5 4 12 5 4 6 8 7 9 8 10 9 2 10 1 11 3 12
REMARK H PARENT
REMARK Flexibility Score: inf
ROOT
ATOM      1  C   UNL     1      47.420  20.141   7.375  1.00  0.00    -0.003 A 
ATOM      2  C   UNL     1      46.419  19.243   7.776  1.00  0.00     0.010 A 
ATOM      3  C   UNL     1      47.088  21.494   7.191  1.00  0.00     0.010 A 
ATOM      4  C   UNL     1      45.111  19.688   7.988  1.00  0.00     0.004 A 
ATOM      5  C   UNL     1      45.780  21.939   7.404  1.00  0.00     0.004 A 
ATOM      6  C   UNL     1      44.776  21.041   7.804  1.00  0.00    -0.045 A 
ENDROOT
BRANCH   1   7
ATOM      7  C   UNL     1      48.804  19.666   7.151  1.00  0.00     0.071 C 
ATOM      8  O   UNL     1      49.059  18.433   7.104  1.00  0.00    -0.545 OA
ATOM      9  O   UNL     1      49.843  20.575   6.992  1.00  0.00    -0.545 OA
ENDBRANCH   1   7
BRANCH   6  10
ATOM     10  C   UNL     1      43.361  21.538   8.032  1.00  0.00     0.013 C 
ATOM     11  C   UNL     1      43.270  23.056   7.836  1.00  0.00     0.012 C 
ATOM     12  C   UNL     1      42.366  20.804   7.126  1.00  0.00     0.012 C 
ENDBRANCH   6  10
TORSDOF 2
ENDMDL
MODEL 5
REMARK VINA RESULT:    -3.470      6.657      9.386
REMARK INTER + INTRA:          -4.087
REMARK INTER:                  -3.877
REMARK INTRA:                  -0.210
REMARK UNBOUND:                -0.211
REMARK SMILES CC(C)c1ccc(C(=O)[O-])cc1
REMARK SMILES IDX 7 1 6 2 11 3 5 4 12 5 4 6 8 7 9 8 10 9 2 10 1 11 3 12
REMARK H PARENT
REMARK Flexibility Score: inf
ROOT
ATOM      1  C   UNL     1      41.062  17.223   4.932  1.00  0.00    -0.003 A 
ATOM      2  C   UNL     1      40.202  17.002   3.844  1.00  0.00     0.010 A 
ATOM      3  C   UNL     1      40.512  17.352   6.220  1.00  0.00     0.010 A 
ATOM      4  C   UNL     1      38.821  16.914   4.038  1.00  0.00     0.004 A 
ATOM      5  C   UNL     1      39.130  17.263   6.413  1.00  0.00     0.004 A 
ATOM      6  C   UNL     1      38.269  17.044   5.325  1.00  0.00    -0.045 A 
ENDROOT
BRANCH   1   7
ATOM      7  C   UNL     1      42.524  17.315   4.724  1.00  0.00     0.071 C 
ATOM      8  O   UNL     1      43.226  18.081   5.437  1.00  0.00    -0.545 OA
ATOM      9  O   UNL     1      43.143  16.559   3.736  1.00  0.00    -0.545 OA
ENDBRANCH   1   7
BRANCH   6  10
ATOM     10  C   UNL     1      36.771  16.950   5.550  1.00  0.00     0.013 C 
ATOM     11  C   UNL     1      36.455  16.414   6.952  1.00  0.00     0.012 C 
ATOM     12  C   UNL     1      36.091  18.302   5.309  1.00  0.00     0.012 C 
ENDBRANCH   6  10
TORSDOF 2
ENDMDL
MODEL 6
REMARK VINA RESULT:    -3.431      6.460      8.070
REMARK INTER + INTRA:          -4.043
REMARK INTER:                  -3.832
REMARK INTRA:                  -0.211
REMARK UNBOUND:                -0.211
REMARK SMILES CC(C)c1ccc(C(=O)[O-])cc1
REMARK SMILES IDX 7 1 6 2 11 3 5 4 12 5 4 6 8 7 9 8 10 9 2 10 1 11 3 12
REMARK H PARENT
REMARK Flexibility Score: inf
ROOT
ATOM      1  C   UNL     1      38.105  17.248   5.669  1.00  0.00    -0.003 A 
ATOM      2  C   UNL     1      38.650  17.009   4.397  1.00  0.00     0.010 A 
ATOM      3  C   UNL     1      38.970  17.345   6.773  1.00  0.00     0.010 A 
ATOM      4  C   UNL     1      40.030  16.869   4.232  1.00  0.00     0.004 A 
ATOM      5  C   UNL     1      40.350  17.204   6.608  1.00  0.00     0.004 A 
ATOM      6  C   UNL     1      40.897  16.964   5.336  1.00  0.00    -0.045 A 
ENDROOT
BRANCH   1   7
ATOM      7  C   UNL     1      36.643  17.397   5.840  1.00  0.00     0.071 C 
ATOM      8  O   UNL     1      36.026  18.348   5.289  1.00  0.00    -0.545 OA
ATOM      9  O   UNL     1      35.928  16.489   6.613  1.00  0.00    -0.545 OA
ENDBRANCH   1   7
BRANCH   6  10
ATOM     10  C   UNL     1      42.398  16.814   5.170  1.00  0.00     0.013 C 
ATOM     11  C   UNL     1      42.773  16.605   3.698  1.00  0.00     0.012 C 
ATOM     12  C   UNL     1      43.142  18.017   5.764  1.00  0.00     0.012 C 
ENDBRANCH   6  10
TORSDOF 2
ENDMDL
MODEL 7
REMARK VINA RESULT:    -3.229      4.956      6.970
REMARK INTER + INTRA:          -3.817
REMARK INTER:                  -3.600
REMARK INTRA:                  -0.217
REMARK UNBOUND:                -0.211
REMARK SMILES CC(C)c1ccc(C(=O)[O-])cc1
REMARK SMILES IDX 7 1 6 2 11 3 5 4 12 5 4 6 8 7 9 8 10 9 2 10 1 11 3 12
REMARK H PARENT
REMARK Flexibility Score: inf
ROOT
ATOM      1  C   UNL     1      42.137  19.160   6.608  1.00  0.00    -0.003 A 
ATOM      2  C   UNL     1      42.742  18.875   5.373  1.00  0.00     0.010 A 
ATOM      3  C   UNL     1      41.023  18.403   7.012  1.00  0.00     0.010 A 
ATOM      4  C   UNL     1      42.244  17.855   4.559  1.00  0.00     0.004 A 
ATOM      5  C   UNL     1      40.525  17.383   6.197  1.00  0.00     0.004 A 
ATOM      6  C   UNL     1      41.129  17.097   4.961  1.00  0.00    -0.045 A 
ENDROOT
BRANCH   1   7
ATOM      7  C   UNL     1      42.667  20.241   7.469  1.00  0.00     0.071 C 
ATOM      8  O   UNL     1      43.909  20.389   7.620  1.00  0.00    -0.545 OA
ATOM      9  O   UNL     1      41.801  21.108   8.124  1.00  0.00    -0.545 OA
ENDBRANCH   1   7
BRANCH   6  10
ATOM     10  C   UNL     1      40.579  15.986   4.086  1.00  0.00     0.013 C 
ATOM     11  C   UNL     1      39.052  15.893   4.206  1.00  0.00     0.012 C 
ATOM     12  C   UNL     1      41.007  16.170   2.625  1.00  0.00     0.012 C 
ENDBRANCH   6  10
TORSDOF 2
ENDMDL
MODEL 8
REMARK VINA RESULT:    -3.137      3.263      5.075
REMARK INTER + INTRA:          -3.714
REMARK INTER:                  -3.505
REMARK INTRA:                  -0.209
REMARK UNBOUND:                -0.211
REMARK SMILES CC(C)c1ccc(C(=O)[O-])cc1
REMARK SMILES IDX 7 1 6 2 11 3 5 4 12 5 4 6 8 7 9 8 10 9 2 10 1 11 3 12
REMARK H PARENT
REMARK Flexibility Score: inf
ROOT
ATOM      1  C   UNL     1      43.536  20.846   7.368  1.00  0.00    -0.003 A 
ATOM      2  C   UNL     1      44.459  19.821   7.634  1.00  0.00     0.010 A 
ATOM      3  C   UNL     1      42.369  20.541   6.646  1.00  0.00     0.010 A 
ATOM      4  C   UNL     1      44.220  18.519   7.186  1.00  0.00     0.004 A 
ATOM      5  C   UNL     1      42.131  19.239   6.198  1.00  0.00     0.004 A 
ATOM      6  C   UNL     1      43.053  18.213   6.463  1.00  0.00    -0.045 A 
ENDROOT
BRANCH   1   7
ATOM      7  C   UNL     1      43.792  22.224   7.843  1.00  0.00     0.071 C 
ATOM      8  O   UNL     1      44.962  22.599   8.125  1.00  0.00    -0.545 OA
ATOM      9  O   UNL     1      42.743  23.124   7.988  1.00  0.00    -0.545 OA
ENDBRANCH   1   7
BRANCH   6  10
ATOM     10  C   UNL     1      42.782  16.803   5.972  1.00  0.00     0.013 C 
ATOM     11  C   UNL     1      41.473  16.257   6.556  1.00  0.00     0.012 C 
ATOM     12  C   UNL     1      42.769  16.745   4.440  1.00  0.00     0.012 C 
ENDBRANCH   6  10
TORSDOF 2
ENDMDL
