MODEL 1
REMARK VINA RESULT:    -3.222      0.000      0.000
REMARK INTER + INTRA:          -4.030
REMARK INTER:                  -3.882
REMARK INTRA:                  -0.148
REMARK UNBOUND:                -0.148
REMARK SMILES CC[C@@H](C)[C@@H]([NH3+])C(=O)[O-]
REMARK SMILES IDX 3 1 4 2 5 3 6 4 7 8 8 9 9 10 2 11 1 12
REMARK H PARENT 6 5 6 6 6 7
REMARK Flexibility Score: inf
ROOT
ATOM      1  C   UNL     1     111.694 100.592  99.395  1.00  0.00     0.050 C 
ATOM      2  C   UNL     1     112.427 100.434  98.045  1.00  0.00     0.014 C 
ENDROOT
BRANCH   1   3
ATOM      3  C   UNL     1     112.708 100.485 100.580  1.00  0.00     0.230 C 
BRANCH   3   4
ATOM      4  N   UNL     1     113.210 101.801 101.004  1.00  0.00    -0.350 N 
ATOM      5  H   UNL     1     113.005 101.960 102.016  1.00  0.00     0.345 HD
ATOM      6  H   UNL     1     112.725 102.563 100.474  1.00  0.00     0.345 HD
ATOM      7  H   UNL     1     114.241 101.876 100.835  1.00  0.00     0.345 HD
ENDBRANCH   3   4
BRANCH   3   8
ATOM      8  C   UNL     1     112.077  99.794 101.765  1.00  0.00     0.099 C 
ATOM      9  O   UNL     1     111.091  99.028 101.602  1.00  0.00    -0.544 OA
ATOM     10  O   UNL     1     112.584  99.996 103.044  1.00  0.00    -0.544 OA
ENDBRANCH   3   8
ENDBRANCH   1   3
BRANCH   1  11
ATOM     11  C   UNL     1     110.907 101.929  99.435  1.00  0.00     0.006 C 
ATOM     12  C   UNL     1     109.396 101.746  99.596  1.00  0.00     0.004 C 
ENDBRANCH   1  11
TORSDOF 4
ENDMDL
MODEL 2
REMARK VINA RESULT:    -3.204      1.244      1.489
REMARK INTER + INTRA:          -4.007
REMARK INTER:                  -3.920
REMARK INTRA:                  -0.088
REMARK UNBOUND:                -0.148
REMARK SMILES CC[C@@H](C)[C@@H]([NH3+])C(=O)[O-]
REMARK SMILES IDX 3 1 4 2 5 3 6 4 7 8 8 9 9 10 2 11 1 12
REMARK H PARENT 6 5 6 6 6 7
REMARK Flexibility Score: inf
ROOT
ATOM      1  C   UNL     1     110.995 100.537 100.502  1.00  0.00     0.050 C 
ATOM      2  C   UNL     1     110.542  99.189  99.900  1.00  0.00     0.014 C 
ENDROOT
BRANCH   1   3
ATOM      3  C   UNL     1     112.543 100.541 100.722  1.00  0.00     0.230 C 
BRANCH   3   4
ATOM      4  N   UNL     1     113.061 101.889 101.005  1.00  0.00    -0.350 N 
ATOM      5  H   UNL     1     113.895 101.833 101.632  1.00  0.00     0.345 HD
ATOM      6  H   UNL     1     112.342 102.457 101.509  1.00  0.00     0.345 HD
ATOM      7  H   UNL     1     113.318 102.382 100.117  1.00  0.00     0.345 HD
ENDBRANCH   3   4
BRANCH   3   8
ATOM      8  C   UNL     1     112.927  99.619 101.853  1.00  0.00     0.099 C 
ATOM      9  O   UNL     1     113.938  98.875 101.749  1.00  0.00    -0.544 OA
ATOM     10  O   UNL     1     112.171  99.588 103.018  1.00  0.00    -0.544 OA
ENDBRANCH   3   8
ENDBRANCH   1   3
BRANCH   1  11
ATOM     11  C   UNL     1     110.543 101.716  99.600  1.00  0.00     0.006 C 
ATOM     12  C   UNL     1     109.022 101.868  99.506  1.00  0.00     0.004 C 
ENDBRANCH   1  11
TORSDOF 4
ENDMDL
MODEL 3
REMARK VINA RESULT:    -3.202     17.006     18.020
REMARK INTER + INTRA:          -4.006
REMARK INTER:                  -3.857
REMARK INTRA:                  -0.149
REMARK UNBOUND:                -0.148
REMARK SMILES CC[C@@H](C)[C@@H]([NH3+])C(=O)[O-]
REMARK SMILES IDX 3 1 4 2 5 3 6 4 7 8 8 9 9 10 2 11 1 12
REMARK H PARENT 6 5 6 6 6 7
REMARK Flexibility Score: inf
ROOT
ATOM      1  C   UNL     1     106.343 117.609  99.523  1.00  0.00     0.050 C 
ATOM      2  C   UNL     1     105.518 117.706  98.221  1.00  0.00     0.014 C 
ENDROOT
BRANCH   1   3
ATOM      3  C   UNL     1     105.414 117.776 100.769  1.00  0.00     0.230 C 
BRANCH   3   4
ATOM      4  N   UNL     1     104.866 116.492 101.232  1.00  0.00    -0.350 N 
ATOM      5  H   UNL     1     105.637 115.803 101.387  1.00  0.00     0.345 HD
ATOM      6  H   UNL     1     104.236 116.082 100.503  1.00  0.00     0.345 HD
ATOM      7  H   UNL     1     104.320 116.618 102.117  1.00  0.00     0.345 HD
ENDBRANCH   3   4
BRANCH   3   8
ATOM      8  C   UNL     1     106.155 118.434 101.907  1.00  0.00     0.099 C 
ATOM      9  O   UNL     1     107.184 119.125 101.680  1.00  0.00    -0.544 OA
ATOM     10  O   UNL     1     105.705 118.285 103.214  1.00  0.00    -0.544 OA
ENDBRANCH   3   8
ENDBRANCH   1   3
BRANCH   1  11
ATOM     11  C   UNL     1     107.129 116.271  99.572  1.00  0.00     0.006 C 
ATOM     12  C   UNL     1     108.646 116.455  99.669  1.00  0.00     0.004 C 
ENDBRANCH   1  11
TORSDOF 4
ENDMDL
MODEL 4
REMARK VINA RESULT:    -3.154      2.212      2.866
REMARK INTER + INTRA:          -3.948
REMARK INTER:                  -3.827
REMARK INTRA:                  -0.121
REMARK UNBOUND:                -0.148
REMARK SMILES CC[C@@H](C)[C@@H]([NH3+])C(=O)[O-]
REMARK SMILES IDX 3 1 4 2 5 3 6 4 7 8 8 9 9 10 2 11 1 12
REMARK H PARENT 6 5 6 6 6 7
REMARK Flexibility Score: inf
ROOT
ATOM      1  C   UNL     1     110.440 101.413  99.078  1.00  0.00     0.050 C 
ATOM      2  C   UNL     1     109.105 101.950  99.640  1.00  0.00     0.014 C 
ENDROOT
BRANCH   1   3
ATOM      3  C   UNL     1     111.181 100.562 100.160  1.00  0.00     0.230 C 
BRANCH   3   4
ATOM      4  N   UNL     1     111.059  99.117  99.913  1.00  0.00    -0.350 N 
ATOM      5  H   UNL     1     110.058  98.859  99.759  1.00  0.00     0.345 HD
ATOM      6  H   UNL     1     111.385  98.577 100.748  1.00  0.00     0.345 HD
ATOM      7  H   UNL     1     111.630  98.833  99.083  1.00  0.00     0.345 HD
ENDBRANCH   3   4
BRANCH   3   8
ATOM      8  C   UNL     1     112.644 100.928 100.221  1.00  0.00     0.099 C 
ATOM      9  O   UNL     1     113.337 100.949  99.170  1.00  0.00    -0.544 OA
ATOM     10  O   UNL     1     113.235 101.249 101.438  1.00  0.00    -0.544 OA
ENDBRANCH   3   8
ENDBRANCH   1   3
BRANCH   1  11
ATOM     11  C   UNL     1     110.197 100.598  97.780  1.00  0.00     0.006 C 
ATOM     12  C   UNL     1     110.925 101.163  96.557  1.00  0.00     0.004 C 
ENDBRANCH   1  11
TORSDOF 4
ENDMDL
MODEL 5
REMARK VINA RESULT:    -3.144     16.758     17.601
REMARK INTER + INTRA:          -3.936
REMARK INTER:                  -3.791
REMARK INTRA:                  -0.145
REMARK UNBOUND:                -0.148
REMARK SMILES CC[C@@H](C)[C@@H]([NH3+])C(=O)[O-]
REMARK SMILES IDX 3 1 4 2 5 3 6 4 7 8 8 9 9 10 2 11 1 12
REMARK H PARENT 6 5 6 6 6 7
REMARK Flexibility Score: inf
ROOT
ATOM      1  C   UNL     1     107.748 116.785  99.028  1.00  0.00     0.050 C 
ATOM      2  C   UNL     1     109.071 116.273  99.641  1.00  0.00     0.014 C 
ENDROOT
BRANCH   1   3
ATOM      3  C   UNL     1     106.990 117.690 100.052  1.00  0.00     0.230 C 
BRANCH   3   4
ATOM      4  N   UNL     1     107.059 119.115  99.693  1.00  0.00    -0.350 N 
ATOM      5  H   UNL     1     108.055 119.427  99.634  1.00  0.00     0.345 HD
ATOM      6  H   UNL     1     106.604 119.699 100.433  1.00  0.00     0.345 HD
ATOM      7  H   UNL     1     106.578 119.292  98.780  1.00  0.00     0.345 HD
ENDBRANCH   3   4
BRANCH   3   8
ATOM      8  C   UNL     1     105.541 117.281 100.161  1.00  0.00     0.099 C 
ATOM      9  O   UNL     1     104.803 117.281  99.140  1.00  0.00    -0.544 OA
ATOM     10  O   UNL     1     105.014 116.895 101.388  1.00  0.00    -0.544 OA
ENDBRANCH   3   8
ENDBRANCH   1   3
BRANCH   1  11
ATOM     11  C   UNL     1     108.018 117.532  97.695  1.00  0.00     0.006 C 
ATOM     12  C   UNL     1     107.201 116.996  96.516  1.00  0.00     0.004 C 
ENDBRANCH   1  11
TORSDOF 4
ENDMDL
MODEL 6
REMARK VINA RESULT:    -3.139     17.264     18.069
REMARK INTER + INTRA:          -3.930
REMARK INTER:                  -3.954
REMARK INTRA:                   0.024
REMARK UNBOUND:                -0.148
REMARK SMILES CC[C@@H](C)[C@@H]([NH3+])C(=O)[O-]
REMARK SMILES IDX 3 1 4 2 5 3 6 4 7 8 8 9 9 10 2 11 1 12
REMARK H PARENT 6 5 6 6 6 7
REMARK Flexibility Score: inf
ROOT
ATOM      1  C   UNL     1     107.374 117.257 100.462  1.00  0.00     0.050 C 
ATOM      2  C   UNL     1     107.262 118.783 100.674  1.00  0.00     0.014 C 
ENDROOT
BRANCH   1   3
ATOM      3  C   UNL     1     106.025 116.684  99.918  1.00  0.00     0.230 C 
BRANCH   3   4
ATOM      4  N   UNL     1     105.046 116.451 100.991  1.00  0.00    -0.350 N 
ATOM      5  H   UNL     1     105.046 117.252 101.663  1.00  0.00     0.345 HD
ATOM      6  H   UNL     1     105.303 115.597 101.539  1.00  0.00     0.345 HD
ATOM      7  H   UNL     1     104.085 116.321 100.595  1.00  0.00     0.345 HD
ENDBRANCH   3   4
BRANCH   3   8
ATOM      8  C   UNL     1     105.420 117.615  98.895  1.00  0.00     0.099 C 
ATOM      9  O   UNL     1     105.890 117.665  97.727  1.00  0.00    -0.544 OA
ATOM     10  O   UNL     1     104.338 118.419  99.233  1.00  0.00    -0.544 OA
ENDBRANCH   3   8
ENDBRANCH   1   3
BRANCH   1  11
ATOM     11  C   UNL     1     108.558 116.923  99.516  1.00  0.00     0.006 C 
ATOM     12  C   UNL     1     109.224 118.160  98.908  1.00  0.00     0.004 C 
ENDBRANCH   1  11
TORSDOF 4
ENDMDL
MODEL 7
REMARK VINA RESULT:    -3.138     17.130     18.101
REMARK INTER + INTRA:          -3.929
REMARK INTER:                  -3.844
REMARK INTRA:                  -0.085
REMARK UNBOUND:                -0.148
REMARK SMILES CC[C@@H](C)[C@@H]([NH3+])C(=O)[O-]
REMARK SMILES IDX 3 1 4 2 5 3 6 4 7 8 8 9 9 10 2 11 1 12
REMARK H PARENT 6 5 6 6 6 7
REMARK Flexibility Score: inf
ROOT
ATOM      1  C   UNL     1     107.144 117.902 100.232  1.00  0.00     0.050 C 
ATOM      2  C   UNL     1     108.111 118.916  99.583  1.00  0.00     0.014 C 
ENDROOT
BRANCH   1   3
ATOM      3  C   UNL     1     105.670 118.211  99.811  1.00  0.00     0.230 C 
BRANCH   3   4
ATOM      4  N   UNL     1     105.294 117.532  98.561  1.00  0.00    -0.350 N 
ATOM      5  H   UNL     1     105.945 116.737  98.369  1.00  0.00     0.345 HD
ATOM      6  H   UNL     1     105.374 118.191  97.752  1.00  0.00     0.345 HD
ATOM      7  H   UNL     1     104.309 117.180  98.612  1.00  0.00     0.345 HD
ENDBRANCH   3   4
BRANCH   3   8
ATOM      8  C   UNL     1     104.705 117.808 100.899  1.00  0.00     0.099 C 
ATOM      9  O   UNL     1     103.489 117.617 100.630  1.00  0.00    -0.544 OA
ATOM     10  O   UNL     1     105.153 117.639 102.204  1.00  0.00    -0.544 OA
ENDBRANCH   3   8
ENDBRANCH   1   3
BRANCH   1  11
ATOM     11  C   UNL     1     107.549 116.449  99.865  1.00  0.00     0.006 C 
ATOM     12  C   UNL     1     109.048 116.280  99.601  1.00  0.00     0.004 C 
ENDBRANCH   1  11
TORSDOF 4
ENDMDL
MODEL 8
REMARK VINA RESULT:    -3.121      2.068      2.088
REMARK INTER + INTRA:          -3.908
REMARK INTER:                  -3.803
REMARK INTRA:                  -0.105
REMARK UNBOUND:                -0.148
REMARK SMILES CC[C@@H](C)[C@@H]([NH3+])C(=O)[O-]
REMARK SMILES IDX 3 1 4 2 5 3 6 4 7 8 8 9 9 10 2 11 1 12
REMARK H PARENT 6 5 6 6 6 7
REMARK Flexibility Score: inf
ROOT
ATOM      1  C   UNL     1     111.347 100.590  99.016  1.00  0.00     0.050 C 
ATOM      2  C   UNL     1     110.930 101.098  97.619  1.00  0.00     0.014 C 
ENDROOT
BRANCH   1   3
ATOM      3  C   UNL     1     112.764 101.133  99.392  1.00  0.00     0.230 C 
BRANCH   3   4
ATOM      4  N   UNL     1     112.736 101.975 100.598  1.00  0.00    -0.350 N 
ATOM      5  H   UNL     1     113.316 101.546 101.354  1.00  0.00     0.345 HD
ATOM      6  H   UNL     1     111.760 102.046 100.969  1.00  0.00     0.345 HD
ATOM      7  H   UNL     1     113.087 102.939 100.386  1.00  0.00     0.345 HD
ENDBRANCH   3   4
BRANCH   3   8
ATOM      8  C   UNL     1     113.735  99.998  99.607  1.00  0.00     0.099 C 
ATOM      9  O   UNL     1     113.531  98.878  99.067  1.00  0.00    -0.544 OA
ATOM     10  O   UNL     1     114.862 100.182 100.399  1.00  0.00    -0.544 OA
ENDBRANCH   3   8
ENDBRANCH   1   3
BRANCH   1  11
ATOM     11  C   UNL     1     110.285 100.982 100.078  1.00  0.00     0.006 C 
ATOM     12  C   UNL     1     109.120 101.796  99.508  1.00  0.00     0.004 C 
ENDBRANCH   1  11
TORSDOF 4
ENDMDL
MODEL 9
REMARK VINA RESULT:    -3.067      3.262      4.136
REMARK INTER + INTRA:          -3.843
REMARK INTER:                  -3.881
REMARK INTRA:                   0.038
REMARK UNBOUND:                -0.148
REMARK SMILES CC[C@@H](C)[C@@H]([NH3+])C(=O)[O-]
REMARK SMILES IDX 3 1 4 2 5 3 6 4 7 8 8 9 9 10 2 11 1 12
REMARK H PARENT 6 5 6 6 6 7
REMARK Flexibility Score: inf
ROOT
ATOM      1  C   UNL     1     110.257 101.065  99.843  1.00  0.00     0.050 C 
ATOM      2  C   UNL     1     109.015 101.946  99.586  1.00  0.00     0.014 C 
ENDROOT
BRANCH   1   3
ATOM      3  C   UNL     1     110.377  99.961  98.743  1.00  0.00     0.230 C 
BRANCH   3   4
ATOM      4  N   UNL     1     109.074  99.370  98.403  1.00  0.00    -0.350 N 
ATOM      5  H   UNL     1     108.736  99.739  97.485  1.00  0.00     0.345 HD
ATOM      6  H   UNL     1     108.357  99.636  99.117  1.00  0.00     0.345 HD
ATOM      7  H   UNL     1     109.139  98.326  98.363  1.00  0.00     0.345 HD
ENDBRANCH   3   4
BRANCH   3   8
ATOM      8  C   UNL     1     111.007 100.518  97.490  1.00  0.00     0.099 C 
ATOM      9  O   UNL     1     110.317 101.190  96.678  1.00  0.00    -0.544 OA
ATOM     10  O   UNL     1     112.354 100.298  97.226  1.00  0.00    -0.544 OA
ENDBRANCH   3   8
ENDBRANCH   1   3
BRANCH   1  11
ATOM     11  C   UNL     1     111.538 101.938  99.919  1.00  0.00     0.006 C 
ATOM     12  C   UNL     1     112.683 101.279 100.694  1.00  0.00     0.004 C 
ENDBRANCH   1  11
TORSDOF 4
ENDMDL
