MODEL 1
REMARK VINA RESULT:    -2.983      0.000      0.000
REMARK INTER + INTRA:          -4.524
REMARK INTER:                  -4.030
REMARK INTRA:                  -0.495
REMARK UNBOUND:                -0.495
REMARK SMILES [NH3+]CCCC[C@@H]([NH3+])C(=O)[O-]
REMARK SMILES IDX 4 1 3 2 2 3 1 4 5 8 6 9 7 10 8 14 9 15 10 16
REMARK H PARENT 1 5 1 6 1 7 7 11 7 12 7 13
REMARK Flexibility Score: inf
ROOT
ATOM      1  C   UNL     1      11.004  -7.771   5.980  1.00  0.00     0.012 C 
ENDROOT
BRANCH   1   2
ATOM      2  C   UNL     1      11.329  -8.358   4.591  1.00  0.00     0.061 C 
BRANCH   2   3
ATOM      3  C   UNL     1      10.518  -7.718   3.449  1.00  0.00     0.258 C 
BRANCH   3   4
ATOM      4  N   UNL     1       9.686  -8.692   2.742  1.00  0.00    -0.358 N 
ATOM      5  H   UNL     1       9.779  -9.637   3.180  1.00  0.00     0.344 HD
ATOM      6  H   UNL     1       9.953  -8.731   1.733  1.00  0.00     0.344 HD
ATOM      7  H   UNL     1       8.687  -8.391   2.805  1.00  0.00     0.344 HD
ENDBRANCH   3   4
ENDBRANCH   2   3
ENDBRANCH   1   2
BRANCH   1   8
ATOM      8  C   UNL     1       9.490  -7.737   6.258  1.00  0.00     0.072 C 
BRANCH   8   9
ATOM      9  C   UNL     1       8.962  -9.069   6.835  1.00  0.00     0.227 C 
BRANCH   9  10
ATOM     10  N   UNL     1       8.681  -8.967   8.274  1.00  0.00    -0.350 N 
ATOM     11  H   UNL     1       8.956  -8.024   8.628  1.00  0.00     0.345 HD
ATOM     12  H   UNL     1       7.665  -9.127   8.466  1.00  0.00     0.345 HD
ATOM     13  H   UNL     1       9.243  -9.677   8.798  1.00  0.00     0.345 HD
ENDBRANCH   9  10
BRANCH   9  14
ATOM     14  C   UNL     1       7.722  -9.487   6.091  1.00  0.00     0.099 C 
ATOM     15  O   UNL     1       7.630  -9.302   4.848  1.00  0.00    -0.544 OA
ATOM     16  O   UNL     1       6.677 -10.100   6.771  1.00  0.00    -0.544 OA
ENDBRANCH   9  14
ENDBRANCH   8   9
ENDBRANCH   1   8
TORSDOF 7
ENDMDL
MODEL 2
REMARK VINA RESULT:    -2.866      2.966      3.937
REMARK INTER + INTRA:          -4.366
REMARK INTER:                  -4.185
REMARK INTRA:                  -0.181
REMARK UNBOUND:                -0.495
REMARK SMILES [NH3+]CCCC[C@@H]([NH3+])C(=O)[O-]
REMARK SMILES IDX 4 1 3 2 2 3 1 4 5 8 6 9 7 10 8 14 9 15 10 16
REMARK H PARENT 1 5 1 6 1 7 7 11 7 12 7 13
REMARK Flexibility Score: inf
ROOT
ATOM      1  C   UNL     1       8.370  -8.437   4.831  1.00  0.00     0.012 C 
ENDROOT
BRANCH   1   2
ATOM      2  C   UNL     1       7.829  -9.872   5.000  1.00  0.00     0.061 C 
BRANCH   2   3
ATOM      3  C   UNL     1       6.674  -9.979   6.012  1.00  0.00     0.258 C 
BRANCH   3   4
ATOM      4  N   UNL     1       5.380  -9.635   5.419  1.00  0.00    -0.358 N 
ATOM      5  H   UNL     1       5.406  -8.668   5.023  1.00  0.00     0.344 HD
ATOM      6  H   UNL     1       4.623  -9.715   6.135  1.00  0.00     0.344 HD
ATOM      7  H   UNL     1       5.173 -10.308   4.646  1.00  0.00     0.344 HD
ENDBRANCH   3   4
ENDBRANCH   2   3
ENDBRANCH   1   2
BRANCH   1   8
ATOM      8  C   UNL     1       9.021  -7.906   6.122  1.00  0.00     0.072 C 
BRANCH   8   9
ATOM      9  C   UNL     1      10.493  -8.352   6.270  1.00  0.00     0.227 C 
BRANCH   9  10
ATOM     10  N   UNL     1      11.426  -7.243   6.026  1.00  0.00    -0.350 N 
ATOM     11  H   UNL     1      12.322  -7.409   6.537  1.00  0.00     0.345 HD
ATOM     12  H   UNL     1      11.624  -7.142   5.003  1.00  0.00     0.345 HD
ATOM     13  H   UNL     1      11.019  -6.349   6.385  1.00  0.00     0.345 HD
ENDBRANCH   9  10
BRANCH   9  14
ATOM     14  C   UNL     1      10.713  -8.923   7.646  1.00  0.00     0.099 C 
ATOM     15  O   UNL     1       9.742  -9.088   8.431  1.00  0.00    -0.544 OA
ATOM     16  O   UNL     1      11.991  -9.291   8.049  1.00  0.00    -0.544 OA
ENDBRANCH   9  14
ENDBRANCH   8   9
ENDBRANCH   1   8
TORSDOF 7
ENDMDL
MODEL 3
REMARK VINA RESULT:    -2.856      2.582      4.046
REMARK INTER + INTRA:          -4.353
REMARK INTER:                  -4.160
REMARK INTRA:                  -0.193
REMARK UNBOUND:                -0.495
REMARK SMILES [NH3+]CCCC[C@@H]([NH3+])C(=O)[O-]
REMARK SMILES IDX 4 1 3 2 2 3 1 4 5 8 6 9 7 10 8 14 9 15 10 16
REMARK H PARENT 1 5 1 6 1 7 7 11 7 12 7 13
REMARK Flexibility Score: inf
ROOT
ATOM      1  C   UNL     1       8.846  -8.785   6.920  1.00  0.00     0.012 C 
ENDROOT
BRANCH   1   2
ATOM      2  C   UNL     1       7.635  -9.693   6.625  1.00  0.00     0.061 C 
BRANCH   2   3
ATOM      3  C   UNL     1       6.892  -9.324   5.328  1.00  0.00     0.258 C 
BRANCH   3   4
ATOM      4  N   UNL     1       5.447  -9.534   5.434  1.00  0.00    -0.358 N 
ATOM      5  H   UNL     1       5.135  -9.425   6.426  1.00  0.00     0.344 HD
ATOM      6  H   UNL     1       5.194 -10.483   5.076  1.00  0.00     0.344 HD
ATOM      7  H   UNL     1       4.957  -8.821   4.848  1.00  0.00     0.344 HD
ENDBRANCH   3   4
ENDBRANCH   2   3
ENDBRANCH   1   2
BRANCH   1   8
ATOM      8  C   UNL     1       9.144  -7.818   5.759  1.00  0.00     0.072 C 
BRANCH   8   9
ATOM      9  C   UNL     1      10.621  -7.870   5.308  1.00  0.00     0.227 C 
BRANCH   9  10
ATOM     10  N   UNL     1      11.305  -9.068   5.812  1.00  0.00    -0.350 N 
ATOM     11  H   UNL     1      12.221  -9.191   5.325  1.00  0.00     0.345 HD
ATOM     12  H   UNL     1      11.466  -8.999   6.843  1.00  0.00     0.345 HD
ATOM     13  H   UNL     1      10.727  -9.918   5.614  1.00  0.00     0.345 HD
ENDBRANCH   9  10
BRANCH   9  14
ATOM     14  C   UNL     1      10.692  -7.825   3.804  1.00  0.00     0.099 C 
ATOM     15  O   UNL     1       9.957  -8.573   3.107  1.00  0.00    -0.544 OA
ATOM     16  O   UNL     1      11.558  -6.938   3.177  1.00  0.00    -0.544 OA
ENDBRANCH   9  14
ENDBRANCH   8   9
ENDBRANCH   1   8
TORSDOF 7
ENDMDL
MODEL 4
REMARK VINA RESULT:    -2.848      1.956      2.197
REMARK INTER + INTRA:          -4.341
REMARK INTER:                  -4.200
REMARK INTRA:                  -0.141
REMARK UNBOUND:                -0.495
REMARK SMILES [NH3+]CCCC[C@@H]([NH3+])C(=O)[O-]
REMARK SMILES IDX 4 1 3 2 2 3 1 4 5 8 6 9 7 10 8 14 9 15 10 16
REMARK H PARENT 1 5 1 6 1 7 7 11 7 12 7 13
REMARK Flexibility Score: inf
ROOT
ATOM      1  C   UNL     1      11.378  -7.568   5.388  1.00  0.00     0.012 C 
ENDROOT
BRANCH   1   2
ATOM      2  C   UNL     1      11.714  -7.849   3.909  1.00  0.00     0.061 C 
BRANCH   2   3
ATOM      3  C   UNL     1      10.964  -6.933   2.924  1.00  0.00     0.258 C 
BRANCH   3   4
ATOM      4  N   UNL     1      11.793  -6.545   1.782  1.00  0.00    -0.358 N 
ATOM      5  H   UNL     1      11.351  -6.857   0.888  1.00  0.00     0.344 HD
ATOM      6  H   UNL     1      12.750  -6.954   1.875  1.00  0.00     0.344 HD
ATOM      7  H   UNL     1      11.882  -5.504   1.766  1.00  0.00     0.344 HD
ENDBRANCH   3   4
ENDBRANCH   2   3
ENDBRANCH   1   2
BRANCH   1   8
ATOM      8  C   UNL     1      10.595  -8.725   6.036  1.00  0.00     0.072 C 
BRANCH   8   9
ATOM      9  C   UNL     1       9.157  -8.321   6.429  1.00  0.00     0.227 C 
BRANCH   9  10
ATOM     10  N   UNL     1       8.198  -8.592   5.349  1.00  0.00    -0.350 N 
ATOM     11  H   UNL     1       8.675  -9.085   4.561  1.00  0.00     0.345 HD
ATOM     12  H   UNL     1       7.403  -9.177   5.694  1.00  0.00     0.345 HD
ATOM     13  H   UNL     1       7.821  -7.690   4.973  1.00  0.00     0.345 HD
ENDBRANCH   9  10
BRANCH   9  14
ATOM     14  C   UNL     1       8.750  -9.054   7.680  1.00  0.00     0.099 C 
ATOM     15  O   UNL     1       9.528  -9.108   8.670  1.00  0.00    -0.544 OA
ATOM     16  O   UNL     1       7.501  -9.659   7.756  1.00  0.00    -0.544 OA
ENDBRANCH   9  14
ENDBRANCH   8   9
ENDBRANCH   1   8
TORSDOF 7
ENDMDL
MODEL 5
REMARK VINA RESULT:    -2.789      1.441      3.632
REMARK INTER + INTRA:          -4.262
REMARK INTER:                  -3.801
REMARK INTRA:                  -0.461
REMARK UNBOUND:                -0.495
REMARK SMILES [NH3+]CCCC[C@@H]([NH3+])C(=O)[O-]
REMARK SMILES IDX 4 1 3 2 2 3 1 4 5 8 6 9 7 10 8 14 9 15 10 16
REMARK H PARENT 1 5 1 6 1 7 7 11 7 12 7 13
REMARK Flexibility Score: inf
ROOT
ATOM      1  C   UNL     1      11.038  -8.024   6.606  1.00  0.00     0.012 C 
ENDROOT
BRANCH   1   2
ATOM      2  C   UNL     1      11.206  -9.290   7.472  1.00  0.00     0.061 C 
BRANCH   2   3
ATOM      3  C   UNL     1      10.217  -9.364   8.649  1.00  0.00     0.258 C 
BRANCH   3   4
ATOM      4  N   UNL     1       8.863  -8.959   8.266  1.00  0.00    -0.358 N 
ATOM      5  H   UNL     1       8.208  -9.067   9.074  1.00  0.00     0.344 HD
ATOM      6  H   UNL     1       8.533  -9.526   7.453  1.00  0.00     0.344 HD
ATOM      7  H   UNL     1       8.879  -7.954   7.981  1.00  0.00     0.344 HD
ENDBRANCH   3   4
ENDBRANCH   2   3
ENDBRANCH   1   2
BRANCH   1   8
ATOM      8  C   UNL     1      11.010  -8.350   5.101  1.00  0.00     0.072 C 
BRANCH   8   9
ATOM      9  C   UNL     1       9.698  -7.897   4.420  1.00  0.00     0.227 C 
BRANCH   9  10
ATOM     10  N   UNL     1       9.912  -7.529   3.014  1.00  0.00    -0.350 N 
ATOM     11  H   UNL     1       9.107  -6.961   2.665  1.00  0.00     0.345 HD
ATOM     12  H   UNL     1      10.797  -6.983   2.902  1.00  0.00     0.345 HD
ATOM     13  H   UNL     1       9.966  -8.393   2.424  1.00  0.00     0.345 HD
ENDBRANCH   9  10
BRANCH   9  14
ATOM     14  C   UNL     1       8.671  -8.993   4.521  1.00  0.00     0.099 C 
ATOM     15  O   UNL     1       7.807  -8.977   5.438  1.00  0.00    -0.544 OA
ATOM     16  O   UNL     1       8.659 -10.021   3.587  1.00  0.00    -0.544 OA
ENDBRANCH   9  14
ENDBRANCH   8   9
ENDBRANCH   1   8
TORSDOF 7
ENDMDL
MODEL 6
REMARK VINA RESULT:    -2.774      2.215      2.598
REMARK INTER + INTRA:          -4.241
REMARK INTER:                  -4.105
REMARK INTRA:                  -0.136
REMARK UNBOUND:                -0.495
REMARK SMILES [NH3+]CCCC[C@@H]([NH3+])C(=O)[O-]
REMARK SMILES IDX 4 1 3 2 2 3 1 4 5 8 6 9 7 10 8 14 9 15 10 16
REMARK H PARENT 1 5 1 6 1 7 7 11 7 12 7 13
REMARK Flexibility Score: inf
ROOT
ATOM      1  C   UNL     1       9.627  -9.527   4.102  1.00  0.00     0.012 C 
ENDROOT
BRANCH   1   2
ATOM      2  C   UNL     1       9.647  -8.122   3.468  1.00  0.00     0.061 C 
BRANCH   2   3
ATOM      3  C   UNL     1      11.056  -7.508   3.377  1.00  0.00     0.258 C 
BRANCH   3   4
ATOM      4  N   UNL     1      11.185  -6.570   2.261  1.00  0.00    -0.358 N 
ATOM      5  H   UNL     1      10.285  -6.506   1.733  1.00  0.00     0.344 HD
ATOM      6  H   UNL     1      11.958  -6.869   1.625  1.00  0.00     0.344 HD
ATOM      7  H   UNL     1      11.419  -5.624   2.639  1.00  0.00     0.344 HD
ENDBRANCH   3   4
ENDBRANCH   2   3
ENDBRANCH   1   2
BRANCH   1   8
ATOM      8  C   UNL     1       8.196 -10.006   4.410  1.00  0.00     0.072 C 
BRANCH   8   9
ATOM      9  C   UNL     1       7.431  -9.032   5.335  1.00  0.00     0.227 C 
BRANCH   9  10
ATOM     10  N   UNL     1       5.976  -9.163   5.182  1.00  0.00    -0.350 N 
ATOM     11  H   UNL     1       5.628  -8.486   4.466  1.00  0.00     0.345 HD
ATOM     12  H   UNL     1       5.718 -10.135   4.895  1.00  0.00     0.345 HD
ATOM     13  H   UNL     1       5.501  -8.937   6.086  1.00  0.00     0.345 HD
ENDBRANCH   9  10
BRANCH   9  14
ATOM     14  C   UNL     1       7.828  -9.278   6.766  1.00  0.00     0.099 C 
ATOM     15  O   UNL     1       7.192 -10.105   7.472  1.00  0.00    -0.544 OA
ATOM     16  O   UNL     1       8.915  -8.605   7.311  1.00  0.00    -0.544 OA
ENDBRANCH   9  14
ENDBRANCH   8   9
ENDBRANCH   1   8
TORSDOF 7
ENDMDL
MODEL 7
REMARK VINA RESULT:    -2.750      1.966      4.039
REMARK INTER + INTRA:          -4.210
REMARK INTER:                  -3.712
REMARK INTRA:                  -0.497
REMARK UNBOUND:                -0.495
REMARK SMILES [NH3+]CCCC[C@@H]([NH3+])C(=O)[O-]
REMARK SMILES IDX 4 1 3 2 2 3 1 4 5 8 6 9 7 10 8 14 9 15 10 16
REMARK H PARENT 1 5 1 6 1 7 7 11 7 12 7 13
REMARK Flexibility Score: inf
ROOT
ATOM      1  C   UNL     1      11.014  -7.583   6.016  1.00  0.00     0.012 C 
ENDROOT
BRANCH   1   2
ATOM      2  C   UNL     1      10.415  -8.827   6.705  1.00  0.00     0.061 C 
BRANCH   2   3
ATOM      3  C   UNL     1       8.938  -8.658   7.103  1.00  0.00     0.258 C 
BRANCH   3   4
ATOM      4  N   UNL     1       8.024  -9.007   6.014  1.00  0.00    -0.358 N 
ATOM      5  H   UNL     1       7.148  -9.431   6.396  1.00  0.00     0.344 HD
ATOM      6  H   UNL     1       8.488  -9.668   5.352  1.00  0.00     0.344 HD
ATOM      7  H   UNL     1       7.774  -8.138   5.490  1.00  0.00     0.344 HD
ENDBRANCH   3   4
ENDBRANCH   2   3
ENDBRANCH   1   2
BRANCH   1   8
ATOM      8  C   UNL     1      11.549  -7.901   4.607  1.00  0.00     0.072 C 
BRANCH   8   9
ATOM      9  C   UNL     1      10.491  -7.670   3.504  1.00  0.00     0.227 C 
BRANCH   9  10
ATOM     10  N   UNL     1      10.995  -6.792   2.440  1.00  0.00    -0.350 N 
ATOM     11  H   UNL     1      10.456  -5.897   2.427  1.00  0.00     0.345 HD
ATOM     12  H   UNL     1      12.011  -6.584   2.578  1.00  0.00     0.345 HD
ATOM     13  H   UNL     1      10.864  -7.251   1.508  1.00  0.00     0.345 HD
ENDBRANCH   9  10
BRANCH   9  14
ATOM     14  C   UNL     1      10.064  -8.994   2.929  1.00  0.00     0.099 C 
ATOM     15  O   UNL     1       8.990  -9.537   3.303  1.00  0.00    -0.544 OA
ATOM     16  O   UNL     1      10.845  -9.616   1.962  1.00  0.00    -0.544 OA
ENDBRANCH   9  14
ENDBRANCH   8   9
ENDBRANCH   1   8
TORSDOF 7
ENDMDL
MODEL 8
REMARK VINA RESULT:    -2.749      3.195      4.798
REMARK INTER + INTRA:          -4.208
REMARK INTER:                  -4.058
REMARK INTRA:                  -0.150
REMARK UNBOUND:                -0.495
REMARK SMILES [NH3+]CCCC[C@@H]([NH3+])C(=O)[O-]
REMARK SMILES IDX 4 1 3 2 2 3 1 4 5 8 6 9 7 10 8 14 9 15 10 16
REMARK H PARENT 1 5 1 6 1 7 7 11 7 12 7 13
REMARK Flexibility Score: inf
ROOT
ATOM      1  C   UNL     1       8.611  -8.167   4.924  1.00  0.00     0.012 C 
ENDROOT
BRANCH   1   2
ATOM      2  C   UNL     1       8.105  -9.030   6.098  1.00  0.00     0.061 C 
BRANCH   2   3
ATOM      3  C   UNL     1       6.958  -9.981   5.711  1.00  0.00     0.258 C 
BRANCH   3   4
ATOM      4  N   UNL     1       5.747  -9.262   5.315  1.00  0.00    -0.358 N 
ATOM      5  H   UNL     1       5.034  -9.928   4.939  1.00  0.00     0.344 HD
ATOM      6  H   UNL     1       5.976  -8.534   4.601  1.00  0.00     0.344 HD
ATOM      7  H   UNL     1       5.348  -8.784   6.155  1.00  0.00     0.344 HD
ENDBRANCH   3   4
ENDBRANCH   2   3
ENDBRANCH   1   2
BRANCH   1   8
ATOM      8  C   UNL     1      10.137  -8.269   4.743  1.00  0.00     0.072 C 
BRANCH   8   9
ATOM      9  C   UNL     1      10.534  -8.864   3.373  1.00  0.00     0.227 C 
BRANCH   9  10
ATOM     10  N   UNL     1       9.357  -9.183   2.555  1.00  0.00    -0.350 N 
ATOM     11  H   UNL     1       8.844  -8.307   2.305  1.00  0.00     0.345 HD
ATOM     12  H   UNL     1       9.636  -9.683   1.679  1.00  0.00     0.345 HD
ATOM     13  H   UNL     1       8.698  -9.789   3.098  1.00  0.00     0.345 HD
ENDBRANCH   9  10
BRANCH   9  14
ATOM     14  C   UNL     1      11.429  -7.899   2.643  1.00  0.00     0.099 C 
ATOM     15  O   UNL     1      11.572  -6.719   3.061  1.00  0.00    -0.544 OA
ATOM     16  O   UNL     1      12.122  -8.314   1.512  1.00  0.00    -0.544 OA
ENDBRANCH   9  14
ENDBRANCH   8   9
ENDBRANCH   1   8
TORSDOF 7
ENDMDL
MODEL 9
REMARK VINA RESULT:    -2.694      2.439      2.834
REMARK INTER + INTRA:          -4.133
REMARK INTER:                  -4.027
REMARK INTRA:                  -0.106
REMARK UNBOUND:                -0.495
REMARK SMILES [NH3+]CCCC[C@@H]([NH3+])C(=O)[O-]
REMARK SMILES IDX 4 1 3 2 2 3 1 4 5 8 6 9 7 10 8 14 9 15 10 16
REMARK H PARENT 1 5 1 6 1 7 7 11 7 12 7 13
REMARK Flexibility Score: inf
ROOT
ATOM      1  C   UNL     1       9.044  -7.916   5.016  1.00  0.00     0.012 C 
ENDROOT
BRANCH   1   2
ATOM      2  C   UNL     1       9.794  -8.204   3.699  1.00  0.00     0.061 C 
BRANCH   2   3
ATOM      3  C   UNL     1      11.107  -7.413   3.554  1.00  0.00     0.258 C 
BRANCH   3   4
ATOM      4  N   UNL     1      11.137  -6.602   2.336  1.00  0.00    -0.358 N 
ATOM      5  H   UNL     1      10.165  -6.364   2.032  1.00  0.00     0.344 HD
ATOM      6  H   UNL     1      11.640  -7.112   1.575  1.00  0.00     0.344 HD
ATOM      7  H   UNL     1      11.653  -5.715   2.532  1.00  0.00     0.344 HD
ENDBRANCH   3   4
ENDBRANCH   2   3
ENDBRANCH   1   2
BRANCH   1   8
ATOM      8  C   UNL     1       8.952  -9.161   5.917  1.00  0.00     0.072 C 
BRANCH   8   9
ATOM      9  C   UNL     1       8.944  -8.806   7.421  1.00  0.00     0.227 C 
BRANCH   9  10
ATOM     10  N   UNL     1       7.901  -9.540   8.150  1.00  0.00    -0.350 N 
ATOM     11  H   UNL     1       7.764 -10.485   7.725  1.00  0.00     0.345 HD
ATOM     12  H   UNL     1       8.157  -9.647   9.159  1.00  0.00     0.345 HD
ATOM     13  H   UNL     1       6.991  -9.029   8.080  1.00  0.00     0.345 HD
ENDBRANCH   9  10
BRANCH   9  14
ATOM     14  C   UNL     1      10.296  -9.095   8.016  1.00  0.00     0.099 C 
ATOM     15  O   UNL     1      10.402  -9.826   9.037  1.00  0.00    -0.544 OA
ATOM     16  O   UNL     1      11.441  -8.572   7.426  1.00  0.00    -0.544 OA
ENDBRANCH   9  14
ENDBRANCH   8   9
ENDBRANCH   1   8
TORSDOF 7
ENDMDL
