MODEL 1
REMARK VINA RESULT:    -3.211      0.000      0.000
REMARK INTER + INTRA:          -3.822
REMARK INTER:                  -3.774
REMARK INTRA:                  -0.048
REMARK UNBOUND:                -0.048
REMARK SMILES CCCCC(=O)[O-]
REMARK SMILES IDX 4 1 5 2 6 3 7 4 3 5 2 6 1 7
REMARK H PARENT
REMARK Flexibility Score: inf
ROOT
ATOM      1  C   UNL     1       4.324  45.027  11.466  1.00  0.00     0.053 C 
ENDROOT
BRANCH   1   2
ATOM      2  C   UNL     1       5.565  44.600  12.183  1.00  0.00     0.041 C 
ATOM      3  O   UNL     1       6.677  45.112  11.888  1.00  0.00    -0.550 OA
ATOM      4  O   UNL     1       5.487  43.674  13.216  1.00  0.00    -0.550 OA
ENDBRANCH   1   2
BRANCH   1   5
ATOM      5  C   UNL     1       3.570  43.806  10.926  1.00  0.00     0.006 C 
BRANCH   5   6
ATOM      6  C   UNL     1       2.224  43.585  11.631  1.00  0.00    -0.003 C 
ATOM      7  C   UNL     1       1.227  42.807  10.771  1.00  0.00     0.004 C 
ENDBRANCH   5   6
ENDBRANCH   1   5
TORSDOF 3
ENDMDL
MODEL 2
REMARK VINA RESULT:    -3.164      1.087      1.510
REMARK INTER + INTRA:          -3.767
REMARK INTER:                  -3.718
REMARK INTRA:                  -0.049
REMARK UNBOUND:                -0.048
REMARK SMILES CCCCC(=O)[O-]
REMARK SMILES IDX 4 1 5 2 6 3 7 4 3 5 2 6 1 7
REMARK H PARENT
REMARK Flexibility Score: inf
ROOT
ATOM      1  C   UNL     1       3.637  44.697  11.414  1.00  0.00     0.053 C 
ENDROOT
BRANCH   1   2
ATOM      2  C   UNL     1       4.971  44.073  11.675  1.00  0.00     0.041 C 
ATOM      3  O   UNL     1       5.432  44.027  12.845  1.00  0.00    -0.550 OA
ATOM      4  O   UNL     1       5.683  43.496  10.630  1.00  0.00    -0.550 OA
ENDBRANCH   1   2
BRANCH   1   5
ATOM      5  C   UNL     1       2.510  43.711  11.746  1.00  0.00     0.006 C 
BRANCH   5   6
ATOM      6  C   UNL     1       1.972  42.990  10.501  1.00  0.00    -0.003 C 
ATOM      7  C   UNL     1       0.548  42.466  10.691  1.00  0.00     0.004 C 
ENDBRANCH   5   6
ENDBRANCH   1   5
TORSDOF 3
ENDMDL
MODEL 3
REMARK VINA RESULT:    -2.949      2.648      3.853
REMARK INTER + INTRA:          -3.514
REMARK INTER:                  -3.428
REMARK INTRA:                  -0.087
REMARK UNBOUND:                -0.048
REMARK SMILES CCCCC(=O)[O-]
REMARK SMILES IDX 4 1 5 2 6 3 7 4 3 5 2 6 1 7
REMARK H PARENT
REMARK Flexibility Score: inf
ROOT
ATOM      1  C   UNL     1       6.403  44.945  11.892  1.00  0.00     0.053 C 
ENDROOT
BRANCH   1   2
ATOM      2  C   UNL     1       5.343  44.085  12.503  1.00  0.00     0.041 C 
ATOM      3  O   UNL     1       4.212  43.989  11.959  1.00  0.00    -0.550 OA
ATOM      4  O   UNL     1       5.621  43.347  13.648  1.00  0.00    -0.550 OA
ENDBRANCH   1   2
BRANCH   1   5
ATOM      5  C   UNL     1       7.062  44.224  10.709  1.00  0.00     0.006 C 
BRANCH   5   6
ATOM      6  C   UNL     1       8.165  43.251  11.153  1.00  0.00    -0.003 C 
ATOM      7  C   UNL     1       7.720  41.789  11.099  1.00  0.00     0.004 C 
ENDBRANCH   5   6
ENDBRANCH   1   5
TORSDOF 3
ENDMDL
MODEL 4
REMARK VINA RESULT:    -2.840      1.607      2.355
REMARK INTER + INTRA:          -3.386
REMARK INTER:                  -3.306
REMARK INTRA:                  -0.080
REMARK UNBOUND:                -0.048
REMARK SMILES CCCCC(=O)[O-]
REMARK SMILES IDX 4 1 5 2 6 3 7 4 3 5 2 6 1 7
REMARK H PARENT
REMARK Flexibility Score: inf
ROOT
ATOM      1  C   UNL     1       5.738  43.757  12.824  1.00  0.00     0.053 C 
ENDROOT
BRANCH   1   2
ATOM      2  C   UNL     1       7.046  43.231  12.327  1.00  0.00     0.041 C 
ATOM      3  O   UNL     1       7.652  43.816  11.392  1.00  0.00    -0.550 OA
ATOM      4  O   UNL     1       7.624  42.122  12.933  1.00  0.00    -0.550 OA
ENDBRANCH   1   2
BRANCH   1   5
ATOM      5  C   UNL     1       5.437  45.125  12.198  1.00  0.00     0.006 C 
BRANCH   5   6
ATOM      6  C   UNL     1       4.231  45.086  11.248  1.00  0.00    -0.003 C 
ATOM      7  C   UNL     1       3.285  43.921  11.542  1.00  0.00     0.004 C 
ENDBRANCH   5   6
ENDBRANCH   1   5
TORSDOF 3
ENDMDL
MODEL 5
REMARK VINA RESULT:    -2.795      2.245      3.890
REMARK INTER + INTRA:          -3.333
REMARK INTER:                  -3.273
REMARK INTRA:                  -0.060
REMARK UNBOUND:                -0.048
REMARK SMILES CCCCC(=O)[O-]
REMARK SMILES IDX 4 1 5 2 6 3 7 4 3 5 2 6 1 7
REMARK H PARENT
REMARK Flexibility Score: inf
ROOT
ATOM      1  C   UNL     1       5.466  44.062  12.508  1.00  0.00     0.053 C 
ENDROOT
BRANCH   1   2
ATOM      2  C   UNL     1       4.251  44.187  11.644  1.00  0.00     0.041 C 
ATOM      3  O   UNL     1       4.292  44.868  10.586  1.00  0.00    -0.550 OA
ATOM      4  O   UNL     1       3.087  43.507  11.981  1.00  0.00    -0.550 OA
ENDBRANCH   1   2
BRANCH   1   5
ATOM      5  C   UNL     1       6.737  44.296  11.682  1.00  0.00     0.006 C 
BRANCH   5   6
ATOM      6  C   UNL     1       7.546  43.008  11.467  1.00  0.00    -0.003 C 
ATOM      7  C   UNL     1       7.697  42.185  12.747  1.00  0.00     0.004 C 
ENDBRANCH   5   6
ENDBRANCH   1   5
TORSDOF 3
ENDMDL
MODEL 6
REMARK VINA RESULT:    -2.779      2.678      4.085
REMARK INTER + INTRA:          -3.314
REMARK INTER:                  -3.239
REMARK INTRA:                  -0.076
REMARK UNBOUND:                -0.048
REMARK SMILES CCCCC(=O)[O-]
REMARK SMILES IDX 4 1 5 2 6 3 7 4 3 5 2 6 1 7
REMARK H PARENT
REMARK Flexibility Score: inf
ROOT
ATOM      1  C   UNL     1       3.030  43.345  10.079  1.00  0.00     0.053 C 
ENDROOT
BRANCH   1   2
ATOM      2  C   UNL     1       1.846  43.228  10.986  1.00  0.00     0.041 C 
ATOM      3  O   UNL     1       1.831  43.833  12.090  1.00  0.00    -0.550 OA
ATOM      4  O   UNL     1       0.737  42.492  10.589  1.00  0.00    -0.550 OA
ENDBRANCH   1   2
BRANCH   1   5
ATOM      5  C   UNL     1       3.844  44.601  10.419  1.00  0.00     0.006 C 
BRANCH   5   6
ATOM      6  C   UNL     1       5.226  44.268  10.999  1.00  0.00    -0.003 C 
ATOM      7  C   UNL     1       5.578  45.125  12.216  1.00  0.00     0.004 C 
ENDBRANCH   5   6
ENDBRANCH   1   5
TORSDOF 3
ENDMDL
MODEL 7
REMARK VINA RESULT:    -2.619     14.234     14.692
REMARK INTER + INTRA:          -3.126
REMARK INTER:                  -3.135
REMARK INTRA:                   0.008
REMARK UNBOUND:                -0.048
REMARK SMILES CCCCC(=O)[O-]
REMARK SMILES IDX 4 1 5 2 6 3 7 4 3 5 2 6 1 7
REMARK H PARENT
REMARK Flexibility Score: inf
ROOT
ATOM      1  C   UNL     1       7.536  30.199  11.347  1.00  0.00     0.053 C 
ENDROOT
BRANCH   1   2
ATOM      2  C   UNL     1       8.520  29.109  11.062  1.00  0.00     0.041 C 
ATOM      3  O   UNL     1       8.840  28.838   9.875  1.00  0.00    -0.550 OA
ATOM      4  O   UNL     1       9.124  28.427  12.111  1.00  0.00    -0.550 OA
ENDBRANCH   1   2
BRANCH   1   5
ATOM      5  C   UNL     1       7.901  31.469  10.567  1.00  0.00     0.006 C 
BRANCH   5   6
ATOM      6  C   UNL     1       8.375  32.607  11.484  1.00  0.00    -0.003 C 
ATOM      7  C   UNL     1       9.124  32.100  12.717  1.00  0.00     0.004 C 
ENDBRANCH   5   6
ENDBRANCH   1   5
TORSDOF 3
ENDMDL
MODEL 8
REMARK VINA RESULT:    -2.495     13.597     13.950
REMARK INTER + INTRA:          -2.981
REMARK INTER:                  -2.929
REMARK INTRA:                  -0.052
REMARK UNBOUND:                -0.048
REMARK SMILES CCCCC(=O)[O-]
REMARK SMILES IDX 4 1 5 2 6 3 7 4 3 5 2 6 1 7
REMARK H PARENT
REMARK Flexibility Score: inf
ROOT
ATOM      1  C   UNL     1       8.315  30.610  11.749  1.00  0.00     0.053 C 
ENDROOT
BRANCH   1   2
ATOM      2  C   UNL     1       8.663  32.033  12.052  1.00  0.00     0.041 C 
ATOM      3  O   UNL     1       8.494  32.926  11.181  1.00  0.00    -0.550 OA
ATOM      4  O   UNL     1       9.125  32.382  13.315  1.00  0.00    -0.550 OA
ENDBRANCH   1   2
BRANCH   1   5
ATOM      5  C   UNL     1       7.157  30.543  10.746  1.00  0.00     0.006 C 
BRANCH   5   6
ATOM      6  C   UNL     1       7.204  29.277   9.876  1.00  0.00    -0.003 C 
ATOM      7  C   UNL     1       8.581  28.612   9.875  1.00  0.00     0.004 C 
ENDBRANCH   5   6
ENDBRANCH   1   5
TORSDOF 3
ENDMDL
MODEL 9
REMARK VINA RESULT:    -2.256      2.529      4.239
REMARK INTER + INTRA:          -2.699
REMARK INTER:                  -2.627
REMARK INTRA:                  -0.072
REMARK UNBOUND:                -0.048
REMARK SMILES CCCCC(=O)[O-]
REMARK SMILES IDX 4 1 5 2 6 3 7 4 3 5 2 6 1 7
REMARK H PARENT
REMARK Flexibility Score: inf
ROOT
ATOM      1  C   UNL     1       6.095  44.203  12.051  1.00  0.00     0.053 C 
ENDROOT
BRANCH   1   2
ATOM      2  C   UNL     1       4.836  44.191  11.244  1.00  0.00     0.041 C 
ATOM      3  O   UNL     1       4.713  43.402  10.271  1.00  0.00    -0.550 OA
ATOM      4  O   UNL     1       3.776  45.017  11.598  1.00  0.00    -0.550 OA
ENDBRANCH   1   2
BRANCH   1   5
ATOM      5  C   UNL     1       7.016  43.053  11.624  1.00  0.00     0.006 C 
BRANCH   5   6
ATOM      6  C   UNL     1       8.358  43.549  11.064  1.00  0.00    -0.003 C 
ATOM      7  C   UNL     1       8.189  44.635  10.002  1.00  0.00     0.004 C 
ENDBRANCH   5   6
ENDBRANCH   1   5
TORSDOF 3
ENDMDL
