MODEL 1
REMARK VINA RESULT:    -5.056      0.000      0.000
REMARK INTER + INTRA:         -10.580
REMARK INTER:                  -8.603
REMARK INTRA:                  -1.977
REMARK UNBOUND:                -1.977
REMARK SMILES CCCCCCCCCCCCCC(=O)[O-]
REMARK SMILES IDX 8 1 9 2 10 3 11 4 12 5 13 6 14 7 15 8 16 9 7 10 6 11 5 12
REMARK SMILES IDX 4 13 3 14 2 15 1 16
REMARK H PARENT
REMARK Flexibility Score: inf
ROOT
ATOM      1  C   UNL     1      21.983  -4.439 -36.137  1.00  0.00     0.000 C 
ENDROOT
BRANCH   1   2
ATOM      2  C   UNL     1      23.454  -4.889 -36.210  1.00  0.00     0.000 C 
BRANCH   2   3
ATOM      3  C   UNL     1      23.602  -6.373 -36.581  1.00  0.00     0.000 C 
BRANCH   3   4
ATOM      4  C   UNL     1      22.315  -6.967 -37.174  1.00  0.00     0.000 C 
BRANCH   4   5
ATOM      5  C   UNL     1      22.573  -8.359 -37.762  1.00  0.00     0.006 C 
BRANCH   5   6
ATOM      6  C   UNL     1      23.022  -8.265 -39.223  1.00  0.00     0.053 C 
BRANCH   6   7
ATOM      7  C   UNL     1      24.357  -8.912 -39.405  1.00  0.00     0.041 C 
ATOM      8  O   UNL     1      25.339  -8.548 -38.706  1.00  0.00    -0.550 OA
ATOM      9  O   UNL     1      24.531  -9.885 -40.381  1.00  0.00    -0.550 OA
ENDBRANCH   6   7
ENDBRANCH   5   6
ENDBRANCH   4   5
ENDBRANCH   3   4
ENDBRANCH   2   3
ENDBRANCH   1   2
BRANCH   1  10
ATOM     10  C   UNL     1      21.842  -2.903 -36.184  1.00  0.00     0.000 C 
BRANCH  10  11
ATOM     11  C   UNL     1      21.125  -2.391 -37.445  1.00  0.00    -0.000 C 
BRANCH  11  12
ATOM     12  C   UNL     1      20.688  -3.526 -38.386  1.00  0.00    -0.000 C 
BRANCH  12  13
ATOM     13  C   UNL     1      21.435  -3.501 -39.729  1.00  0.00    -0.000 C 
BRANCH  13  14
ATOM     14  C   UNL     1      22.099  -4.846 -40.061  1.00  0.00    -0.000 C 
BRANCH  14  15
ATOM     15  C   UNL     1      23.623  -4.751 -39.930  1.00  0.00    -0.003 C 
ATOM     16  C   UNL     1      24.059  -3.329 -39.586  1.00  0.00     0.004 C 
ENDBRANCH  14  15
ENDBRANCH  13  14
ENDBRANCH  12  13
ENDBRANCH  11  12
ENDBRANCH  10  11
ENDBRANCH   1  10
TORSDOF 12
ENDMDL
MODEL 2
REMARK VINA RESULT:    -4.973      2.254      4.596
REMARK INTER + INTRA:         -10.438
REMARK INTER:                  -8.458
REMARK INTRA:                  -1.980
REMARK UNBOUND:                -1.977
REMARK SMILES CCCCCCCCCCCCCC(=O)[O-]
REMARK SMILES IDX 8 1 9 2 10 3 11 4 12 5 13 6 14 7 15 8 16 9 7 10 6 11 5 12
REMARK SMILES IDX 4 13 3 14 2 15 1 16
REMARK H PARENT
REMARK Flexibility Score: inf
ROOT
ATOM      1  C   UNL     1      21.537  -4.186 -38.846  1.00  0.00     0.000 C 
ENDROOT
BRANCH   1   2
ATOM      2  C   UNL     1      22.289  -5.013 -39.905  1.00  0.00     0.000 C 
BRANCH   2   3
ATOM      3  C   UNL     1      23.794  -4.705 -39.939  1.00  0.00     0.000 C 
BRANCH   3   4
ATOM      4  C   UNL     1      24.116  -3.272 -39.491  1.00  0.00     0.000 C 
BRANCH   4   5
ATOM      5  C   UNL     1      25.505  -3.196 -38.848  1.00  0.00     0.006 C 
BRANCH   5   6
ATOM      6  C   UNL     1      25.778  -4.427 -37.979  1.00  0.00     0.053 C 
BRANCH   6   7
ATOM      7  C   UNL     1      27.249  -4.645 -37.825  1.00  0.00     0.041 C 
ATOM      8  O   UNL     1      27.689  -5.767 -37.462  1.00  0.00    -0.550 OA
ATOM      9  O   UNL     1      28.133  -3.595 -38.034  1.00  0.00    -0.550 OA
ENDBRANCH   6   7
ENDBRANCH   5   6
ENDBRANCH   4   5
ENDBRANCH   3   4
ENDBRANCH   2   3
ENDBRANCH   1   2
BRANCH   1  10
ATOM     10  C   UNL     1      21.215  -5.013 -37.582  1.00  0.00     0.000 C 
BRANCH  10  11
ATOM     11  C   UNL     1      22.364  -5.044 -36.559  1.00  0.00    -0.000 C 
BRANCH  11  12
ATOM     12  C   UNL     1      23.118  -6.384 -36.550  1.00  0.00    -0.000 C 
BRANCH  12  13
ATOM     13  C   UNL     1      22.295  -7.531 -37.158  1.00  0.00    -0.000 C 
BRANCH  13  14
ATOM     14  C   UNL     1      23.022  -8.229 -38.317  1.00  0.00    -0.000 C 
BRANCH  14  15
ATOM     15  C   UNL     1      24.529  -7.957 -38.262  1.00  0.00    -0.003 C 
ATOM     16  C   UNL     1      25.265  -8.703 -39.371  1.00  0.00     0.004 C 
ENDBRANCH  14  15
ENDBRANCH  13  14
ENDBRANCH  12  13
ENDBRANCH  11  12
ENDBRANCH  10  11
ENDBRANCH   1  10
TORSDOF 12
ENDMDL
MODEL 3
REMARK VINA RESULT:    -4.954      1.515      3.709
REMARK INTER + INTRA:         -10.406
REMARK INTER:                  -8.269
REMARK INTRA:                  -2.136
REMARK UNBOUND:                -1.977
REMARK SMILES CCCCCCCCCCCCCC(=O)[O-]
REMARK SMILES IDX 8 1 9 2 10 3 11 4 12 5 13 6 14 7 15 8 16 9 7 10 6 11 5 12
REMARK SMILES IDX 4 13 3 14 2 15 1 16
REMARK H PARENT
REMARK Flexibility Score: inf
ROOT
ATOM      1  C   UNL     1      23.646  -4.769 -40.139  1.00  0.00     0.000 C 
ENDROOT
BRANCH   1   2
ATOM      2  C   UNL     1      24.030  -3.432 -39.480  1.00  0.00     0.000 C 
BRANCH   2   3
ATOM      3  C   UNL     1      25.375  -3.500 -38.739  1.00  0.00     0.000 C 
BRANCH   3   4
ATOM      4  C   UNL     1      25.373  -4.533 -37.603  1.00  0.00     0.000 C 
BRANCH   4   5
ATOM      5  C   UNL     1      26.367  -5.665 -37.889  1.00  0.00     0.006 C 
BRANCH   5   6
ATOM      6  C   UNL     1      25.840  -7.005 -37.367  1.00  0.00     0.053 C 
BRANCH   6   7
ATOM      7  C   UNL     1      25.406  -7.876 -38.502  1.00  0.00     0.041 C 
ATOM      8  O   UNL     1      24.828  -8.971 -38.276  1.00  0.00    -0.550 OA
ATOM      9  O   UNL     1      25.683  -7.502 -39.811  1.00  0.00    -0.550 OA
ENDBRANCH   6   7
ENDBRANCH   5   6
ENDBRANCH   4   5
ENDBRANCH   3   4
ENDBRANCH   2   3
ENDBRANCH   1   2
BRANCH   1  10
ATOM     10  C   UNL     1      22.170  -5.142 -39.883  1.00  0.00     0.000 C 
BRANCH  10  11
ATOM     11  C   UNL     1      21.993  -6.483 -39.150  1.00  0.00    -0.000 C 
BRANCH  11  12
ATOM     12  C   UNL     1      22.090  -6.345 -37.621  1.00  0.00    -0.000 C 
BRANCH  12  13
ATOM     13  C   UNL     1      21.250  -5.179 -37.078  1.00  0.00    -0.000 C 
BRANCH  13  14
ATOM     14  C   UNL     1      22.061  -4.236 -36.177  1.00  0.00    -0.000 C 
BRANCH  14  15
ATOM     15  C   UNL     1      21.519  -2.805 -36.253  1.00  0.00    -0.003 C 
ATOM     16  C   UNL     1      20.947  -2.504 -37.635  1.00  0.00     0.004 C 
ENDBRANCH  14  15
ENDBRANCH  13  14
ENDBRANCH  12  13
ENDBRANCH  11  12
ENDBRANCH  10  11
ENDBRANCH   1  10
TORSDOF 12
ENDMDL
MODEL 4
REMARK VINA RESULT:    -4.914      1.883      3.266
REMARK INTER + INTRA:         -10.338
REMARK INTER:                  -8.444
REMARK INTRA:                  -1.894
REMARK UNBOUND:                -1.977
REMARK SMILES CCCCCCCCCCCCCC(=O)[O-]
REMARK SMILES IDX 8 1 9 2 10 3 11 4 12 5 13 6 14 7 15 8 16 9 7 10 6 11 5 12
REMARK SMILES IDX 4 13 3 14 2 15 1 16
REMARK H PARENT
REMARK Flexibility Score: inf
ROOT
ATOM      1  C   UNL     1      25.181  -3.302 -38.600  1.00  0.00     0.000 C 
ENDROOT
BRANCH   1   2
ATOM      2  C   UNL     1      25.323  -4.568 -37.735  1.00  0.00     0.000 C 
BRANCH   2   3
ATOM      3  C   UNL     1      26.687  -5.255 -37.909  1.00  0.00     0.000 C 
BRANCH   3   4
ATOM      4  C   UNL     1      26.629  -6.764 -37.632  1.00  0.00     0.000 C 
BRANCH   4   5
ATOM      5  C   UNL     1      25.183  -7.232 -37.436  1.00  0.00     0.006 C 
BRANCH   5   6
ATOM      6  C   UNL     1      24.869  -8.438 -38.326  1.00  0.00     0.053 C 
BRANCH   6   7
ATOM      7  C   UNL     1      23.407  -8.498 -38.633  1.00  0.00     0.041 C 
ATOM      8  O   UNL     1      23.007  -8.456 -39.825  1.00  0.00    -0.550 OA
ATOM      9  O   UNL     1      22.481  -8.550 -37.598  1.00  0.00    -0.550 OA
ENDBRANCH   6   7
ENDBRANCH   5   6
ENDBRANCH   4   5
ENDBRANCH   3   4
ENDBRANCH   2   3
ENDBRANCH   1   2
BRANCH   1  10
ATOM     10  C   UNL     1      24.248  -3.526 -39.810  1.00  0.00     0.000 C 
BRANCH  10  11
ATOM     11  C   UNL     1      23.668  -4.949 -39.883  1.00  0.00    -0.000 C 
BRANCH  11  12
ATOM     12  C   UNL     1      22.147  -4.962 -40.112  1.00  0.00    -0.000 C 
BRANCH  12  13
ATOM     13  C   UNL     1      21.370  -4.301 -38.962  1.00  0.00    -0.000 C 
BRANCH  13  14
ATOM     14  C   UNL     1      21.316  -5.179 -37.704  1.00  0.00    -0.000 C 
BRANCH  14  15
ATOM     15  C   UNL     1      21.768  -4.394 -36.468  1.00  0.00    -0.003 C 
ATOM     16  C   UNL     1      21.891  -2.905 -36.776  1.00  0.00     0.004 C 
ENDBRANCH  14  15
ENDBRANCH  13  14
ENDBRANCH  12  13
ENDBRANCH  11  12
ENDBRANCH  10  11
ENDBRANCH   1  10
TORSDOF 12
ENDMDL
MODEL 5
REMARK VINA RESULT:    -4.907      2.960      5.169
REMARK INTER + INTRA:         -10.325
REMARK INTER:                  -8.546
REMARK INTRA:                  -1.779
REMARK UNBOUND:                -1.977
REMARK SMILES CCCCCCCCCCCCCC(=O)[O-]
REMARK SMILES IDX 8 1 9 2 10 3 11 4 12 5 13 6 14 7 15 8 16 9 7 10 6 11 5 12
REMARK SMILES IDX 4 13 3 14 2 15 1 16
REMARK H PARENT
REMARK Flexibility Score: inf
ROOT
ATOM      1  C   UNL     1      24.161  -3.448 -39.578  1.00  0.00     0.000 C 
ENDROOT
BRANCH   1   2
ATOM      2  C   UNL     1      23.920  -4.931 -39.915  1.00  0.00     0.000 C 
BRANCH   2   3
ATOM      3  C   UNL     1      22.430  -5.262 -40.096  1.00  0.00     0.000 C 
BRANCH   3   4
ATOM      4  C   UNL     1      21.997  -6.500 -39.297  1.00  0.00     0.000 C 
BRANCH   4   5
ATOM      5  C   UNL     1      22.122  -6.251 -37.789  1.00  0.00     0.006 C 
BRANCH   5   6
ATOM      6  C   UNL     1      21.197  -5.118 -37.339  1.00  0.00     0.053 C 
BRANCH   6   7
ATOM      7  C   UNL     1      21.905  -4.210 -36.384  1.00  0.00     0.041 C 
ATOM      8  O   UNL     1      22.975  -4.579 -35.835  1.00  0.00    -0.550 OA
ATOM      9  O   UNL     1      21.356  -2.975 -36.062  1.00  0.00    -0.550 OA
ENDBRANCH   6   7
ENDBRANCH   5   6
ENDBRANCH   4   5
ENDBRANCH   3   4
ENDBRANCH   2   3
ENDBRANCH   1   2
BRANCH   1  10
ATOM     10  C   UNL     1      25.456  -3.240 -38.762  1.00  0.00     0.000 C 
BRANCH  10  11
ATOM     11  C   UNL     1      25.739  -4.372 -37.760  1.00  0.00    -0.000 C 
BRANCH  11  12
ATOM     12  C   UNL     1      27.161  -4.943 -37.891  1.00  0.00    -0.000 C 
BRANCH  12  13
ATOM     13  C   UNL     1      27.234  -6.436 -37.533  1.00  0.00    -0.000 C 
BRANCH  13  14
ATOM     14  C   UNL     1      25.855  -7.112 -37.537  1.00  0.00    -0.000 C 
BRANCH  14  15
ATOM     15  C   UNL     1      25.636  -7.904 -38.830  1.00  0.00    -0.003 C 
ATOM     16  C   UNL     1      24.673  -9.067 -38.609  1.00  0.00     0.004 C 
ENDBRANCH  14  15
ENDBRANCH  13  14
ENDBRANCH  12  13
ENDBRANCH  11  12
ENDBRANCH  10  11
ENDBRANCH   1  10
TORSDOF 12
ENDMDL
MODEL 6
REMARK VINA RESULT:    -4.886      2.102      3.703
REMARK INTER + INTRA:         -10.290
REMARK INTER:                  -8.562
REMARK INTRA:                  -1.729
REMARK UNBOUND:                -1.977
REMARK SMILES CCCCCCCCCCCCCC(=O)[O-]
REMARK SMILES IDX 8 1 9 2 10 3 11 4 12 5 13 6 14 7 15 8 16 9 7 10 6 11 5 12
REMARK SMILES IDX 4 13 3 14 2 15 1 16
REMARK H PARENT
REMARK Flexibility Score: inf
ROOT
ATOM      1  C   UNL     1      22.210  -4.815 -39.867  1.00  0.00     0.000 C 
ENDROOT
BRANCH   1   2
ATOM      2  C   UNL     1      21.595  -4.173 -38.610  1.00  0.00     0.000 C 
BRANCH   2   3
ATOM      3  C   UNL     1      21.353  -5.188 -37.483  1.00  0.00     0.000 C 
BRANCH   3   4
ATOM      4  C   UNL     1      22.556  -5.322 -36.538  1.00  0.00     0.000 C 
BRANCH   4   5
ATOM      5  C   UNL     1      23.251  -6.676 -36.722  1.00  0.00     0.006 C 
BRANCH   5   6
ATOM      6  C   UNL     1      22.364  -7.649 -37.504  1.00  0.00     0.053 C 
BRANCH   6   7
ATOM      7  C   UNL     1      23.158  -8.352 -38.558  1.00  0.00     0.041 C 
ATOM      8  O   UNL     1      22.764  -8.355 -39.753  1.00  0.00    -0.550 OA
ATOM      9  O   UNL     1      24.310  -9.047 -38.212  1.00  0.00    -0.550 OA
ENDBRANCH   6   7
ENDBRANCH   5   6
ENDBRANCH   4   5
ENDBRANCH   3   4
ENDBRANCH   2   3
ENDBRANCH   1   2
BRANCH   1  10
ATOM     10  C   UNL     1      23.753  -4.760 -39.853  1.00  0.00     0.000 C 
BRANCH  10  11
ATOM     11  C   UNL     1      24.316  -3.330 -39.796  1.00  0.00    -0.000 C 
BRANCH  11  12
ATOM     12  C   UNL     1      25.229  -3.096 -38.581  1.00  0.00    -0.000 C 
BRANCH  12  13
ATOM     13  C   UNL     1      25.833  -4.400 -38.036  1.00  0.00    -0.000 C 
BRANCH  13  14
ATOM     14  C   UNL     1      27.366  -4.356 -37.963  1.00  0.00    -0.000 C 
BRANCH  14  15
ATOM     15  C   UNL     1      27.941  -5.747 -37.682  1.00  0.00    -0.003 C 
ATOM     16  C   UNL     1      26.873  -6.827 -37.831  1.00  0.00     0.004 C 
ENDBRANCH  14  15
ENDBRANCH  13  14
ENDBRANCH  12  13
ENDBRANCH  11  12
ENDBRANCH  10  11
ENDBRANCH   1  10
TORSDOF 12
ENDMDL
MODEL 7
REMARK VINA RESULT:    -4.840      1.081      3.165
REMARK INTER + INTRA:         -10.211
REMARK INTER:                  -8.269
REMARK INTRA:                  -1.943
REMARK UNBOUND:                -1.977
REMARK SMILES CCCCCCCCCCCCCC(=O)[O-]
REMARK SMILES IDX 8 1 9 2 10 3 11 4 12 5 13 6 14 7 15 8 16 9 7 10 6 11 5 12
REMARK SMILES IDX 4 13 3 14 2 15 1 16
REMARK H PARENT
REMARK Flexibility Score: inf
ROOT
ATOM      1  C   UNL     1      24.111  -3.688 -39.760  1.00  0.00     0.000 C 
ENDROOT
BRANCH   1   2
ATOM      2  C   UNL     1      23.837  -5.201 -39.842  1.00  0.00     0.000 C 
BRANCH   2   3
ATOM      3  C   UNL     1      22.367  -5.521 -40.153  1.00  0.00     0.000 C 
BRANCH   3   4
ATOM      4  C   UNL     1      21.963  -6.936 -39.712  1.00  0.00     0.000 C 
BRANCH   4   5
ATOM      5  C   UNL     1      22.412  -7.212 -38.273  1.00  0.00     0.006 C 
BRANCH   5   6
ATOM      6  C   UNL     1      23.015  -8.614 -38.144  1.00  0.00     0.053 C 
BRANCH   6   7
ATOM      7  C   UNL     1      24.472  -8.591 -38.477  1.00  0.00     0.041 C 
ATOM      8  O   UNL     1      25.266  -7.887 -37.800  1.00  0.00    -0.550 OA
ATOM      9  O   UNL     1      24.947  -9.309 -39.567  1.00  0.00    -0.550 OA
ENDBRANCH   6   7
ENDBRANCH   5   6
ENDBRANCH   4   5
ENDBRANCH   3   4
ENDBRANCH   2   3
ENDBRANCH   1   2
BRANCH   1  10
ATOM     10  C   UNL     1      24.588  -3.258 -38.356  1.00  0.00     0.000 C 
BRANCH  10  11
ATOM     11  C   UNL     1      24.765  -4.434 -37.380  1.00  0.00    -0.000 C 
BRANCH  11  12
ATOM     12  C   UNL     1      23.587  -4.581 -36.403  1.00  0.00    -0.000 C 
BRANCH  12  13
ATOM     13  C   UNL     1      22.649  -3.363 -36.420  1.00  0.00    -0.000 C 
BRANCH  13  14
ATOM     14  C   UNL     1      21.269  -3.688 -37.009  1.00  0.00    -0.000 C 
BRANCH  14  15
ATOM     15  C   UNL     1      20.856  -2.640 -38.047  1.00  0.00    -0.003 C 
ATOM     16  C   UNL     1      19.846  -3.213 -39.037  1.00  0.00     0.004 C 
ENDBRANCH  14  15
ENDBRANCH  13  14
ENDBRANCH  12  13
ENDBRANCH  11  12
ENDBRANCH  10  11
ENDBRANCH   1  10
TORSDOF 12
ENDMDL
MODEL 8
REMARK VINA RESULT:    -4.759      1.400      2.914
REMARK INTER + INTRA:         -10.074
REMARK INTER:                  -8.249
REMARK INTRA:                  -1.824
REMARK UNBOUND:                -1.977
REMARK SMILES CCCCCCCCCCCCCC(=O)[O-]
REMARK SMILES IDX 8 1 9 2 10 3 11 4 12 5 13 6 14 7 15 8 16 9 7 10 6 11 5 12
REMARK SMILES IDX 4 13 3 14 2 15 1 16
REMARK H PARENT
REMARK Flexibility Score: inf
ROOT
ATOM      1  C   UNL     1      24.982  -4.274 -37.810  1.00  0.00     0.000 C 
ENDROOT
BRANCH   1   2
ATOM      2  C   UNL     1      25.394  -5.717 -38.152  1.00  0.00     0.000 C 
BRANCH   2   3
ATOM      3  C   UNL     1      24.921  -6.733 -37.100  1.00  0.00     0.000 C 
BRANCH   3   4
ATOM      4  C   UNL     1      23.609  -6.315 -36.420  1.00  0.00     0.000 C 
BRANCH   4   5
ATOM      5  C   UNL     1      22.398  -6.896 -37.159  1.00  0.00     0.006 C 
BRANCH   5   6
ATOM      6  C   UNL     1      22.696  -8.305 -37.681  1.00  0.00     0.053 C 
BRANCH   6   7
ATOM      7  C   UNL     1      22.741  -8.311 -39.176  1.00  0.00     0.041 C 
ATOM      8  O   UNL     1      23.707  -8.847 -39.778  1.00  0.00    -0.550 OA
ATOM      9  O   UNL     1      21.740  -7.682 -39.904  1.00  0.00    -0.550 OA
ENDBRANCH   6   7
ENDBRANCH   5   6
ENDBRANCH   4   5
ENDBRANCH   3   4
ENDBRANCH   2   3
ENDBRANCH   1   2
BRANCH   1  10
ATOM     10  C   UNL     1      24.254  -3.584 -38.984  1.00  0.00     0.000 C 
BRANCH  10  11
ATOM     11  C   UNL     1      23.407  -4.547 -39.834  1.00  0.00    -0.000 C 
BRANCH  11  12
ATOM     12  C   UNL     1      21.927  -4.134 -39.908  1.00  0.00    -0.000 C 
BRANCH  12  13
ATOM     13  C   UNL     1      21.262  -4.068 -38.524  1.00  0.00    -0.000 C 
BRANCH  13  14
ATOM     14  C   UNL     1      20.682  -2.680 -38.213  1.00  0.00    -0.000 C 
BRANCH  14  15
ATOM     15  C   UNL     1      21.276  -2.116 -36.918  1.00  0.00    -0.003 C 
ATOM     16  C   UNL     1      21.666  -3.235 -35.957  1.00  0.00     0.004 C 
ENDBRANCH  14  15
ENDBRANCH  13  14
ENDBRANCH  12  13
ENDBRANCH  11  12
ENDBRANCH  10  11
ENDBRANCH   1  10
TORSDOF 12
ENDMDL
MODEL 9
REMARK VINA RESULT:    -4.756      2.871      5.405
REMARK INTER + INTRA:         -10.069
REMARK INTER:                  -8.290
REMARK INTRA:                  -1.779
REMARK UNBOUND:                -1.977
REMARK SMILES CCCCCCCCCCCCCC(=O)[O-]
REMARK SMILES IDX 8 1 9 2 10 3 11 4 12 5 13 6 14 7 15 8 16 9 7 10 6 11 5 12
REMARK SMILES IDX 4 13 3 14 2 15 1 16
REMARK H PARENT
REMARK Flexibility Score: inf
ROOT
ATOM      1  C   UNL     1      25.416  -3.516 -38.716  1.00  0.00     0.000 C 
ENDROOT
BRANCH   1   2
ATOM      2  C   UNL     1      24.115  -3.444 -39.536  1.00  0.00     0.000 C 
BRANCH   2   3
ATOM      3  C   UNL     1      23.605  -4.830 -39.960  1.00  0.00     0.000 C 
BRANCH   3   4
ATOM      4  C   UNL     1      22.086  -4.859 -40.187  1.00  0.00     0.000 C 
BRANCH   4   5
ATOM      5  C   UNL     1      21.387  -3.778 -39.355  1.00  0.00     0.006 C 
BRANCH   5   6
ATOM      6  C   UNL     1      20.816  -4.362 -38.060  1.00  0.00     0.053 C 
BRANCH   6   7
ATOM      7  C   UNL     1      21.364  -3.639 -36.871  1.00  0.00     0.041 C 
ATOM      8  O   UNL     1      20.897  -2.519 -36.539  1.00  0.00    -0.550 OA
ATOM      9  O   UNL     1      22.426  -4.181 -36.157  1.00  0.00    -0.550 OA
ENDBRANCH   6   7
ENDBRANCH   5   6
ENDBRANCH   4   5
ENDBRANCH   3   4
ENDBRANCH   2   3
ENDBRANCH   1   2
BRANCH   1  10
ATOM     10  C   UNL     1      25.435  -4.726 -37.758  1.00  0.00     0.000 C 
BRANCH  10  11
ATOM     11  C   UNL     1      26.660  -5.638 -37.943  1.00  0.00    -0.000 C 
BRANCH  11  12
ATOM     12  C   UNL     1      26.325  -7.129 -37.776  1.00  0.00    -0.000 C 
BRANCH  12  13
ATOM     13  C   UNL     1      25.533  -7.695 -38.965  1.00  0.00    -0.000 C 
BRANCH  13  14
ATOM     14  C   UNL     1      24.537  -8.786 -38.547  1.00  0.00    -0.000 C 
BRANCH  14  15
ATOM     15  C   UNL     1      23.093  -8.304 -38.719  1.00  0.00    -0.003 C 
ATOM     16  C   UNL     1      22.638  -7.484 -37.515  1.00  0.00     0.004 C 
ENDBRANCH  14  15
ENDBRANCH  13  14
ENDBRANCH  12  13
ENDBRANCH  11  12
ENDBRANCH  10  11
ENDBRANCH   1  10
TORSDOF 12
ENDMDL
