MODEL 1
REMARK VINA RESULT:    -5.885      0.000      0.000
REMARK INTER + INTRA:          -9.052
REMARK INTER:                  -8.122
REMARK INTRA:                  -0.930
REMARK UNBOUND:                -0.930
REMARK SMILES CCCCc1cccc(O)c1CCCC
REMARK SMILES IDX 5 1 11 2 9 3 8 4 7 5 6 6 4 7 3 8 2 9 1 10 12 11 13 12 14 13
REMARK SMILES IDX 15 14 10 15
REMARK H PARENT 10 16
REMARK Flexibility Score: inf
ROOT
ATOM      1  C   UNL     1      24.987  -0.875  24.273  1.00  0.00    -0.041 A 
ATOM      2  C   UNL     1      25.954  -0.431  25.218  1.00  0.00    -0.003 A 
ATOM      3  C   UNL     1      27.105   0.248  24.757  1.00  0.00     0.119 A 
ATOM      4  C   UNL     1      27.308   0.441  23.385  1.00  0.00     0.046 A 
ATOM      5  C   UNL     1      26.376  -0.027  22.464  1.00  0.00     0.004 A 
ATOM      6  C   UNL     1      25.225  -0.680  22.901  1.00  0.00     0.004 A 
ENDROOT
BRANCH   1   7
ATOM      7  C   UNL     1      23.722  -1.599  24.679  1.00  0.00     0.036 C 
BRANCH   7   8
ATOM      8  C   UNL     1      23.942  -3.120  24.674  1.00  0.00     0.004 C 
BRANCH   8   9
ATOM      9  C   UNL     1      22.966  -3.858  25.604  1.00  0.00    -0.003 C 
ATOM     10  C   UNL     1      23.676  -4.573  26.754  1.00  0.00     0.004 C 
ENDBRANCH   8   9
ENDBRANCH   7   8
ENDBRANCH   1   7
BRANCH   2  11
ATOM     11  C   UNL     1      25.757  -0.614  26.711  1.00  0.00     0.040 C 
BRANCH  11  12
ATOM     12  C   UNL     1      26.330  -1.962  27.172  1.00  0.00     0.005 C 
BRANCH  12  13
ATOM     13  C   UNL     1      27.551  -1.799  28.091  1.00  0.00    -0.003 C 
ATOM     14  C   UNL     1      27.467  -0.547  28.963  1.00  0.00     0.004 C 
ENDBRANCH  12  13
ENDBRANCH  11  12
ENDBRANCH   2  11
BRANCH   3  15
ATOM     15  O   UNL     1      28.047   0.733  25.666  1.00  0.00    -0.508 OA
ATOM     16  H   UNL     1      28.341   1.702  25.662  1.00  0.00     0.293 HD
ENDBRANCH   3  15
TORSDOF 7
ENDMDL
MODEL 2
REMARK VINA RESULT:    -5.787      1.246      1.541
REMARK INTER + INTRA:          -8.917
REMARK INTER:                  -8.222
REMARK INTRA:                  -0.695
REMARK UNBOUND:                -0.930
REMARK SMILES CCCCc1cccc(O)c1CCCC
REMARK SMILES IDX 5 1 11 2 9 3 8 4 7 5 6 6 4 7 3 8 2 9 1 10 12 11 13 12 14 13
REMARK SMILES IDX 15 14 10 15
REMARK H PARENT 10 16
REMARK Flexibility Score: inf
ROOT
ATOM      1  C   UNL     1      25.037  -0.947  24.222  1.00  0.00    -0.041 A 
ATOM      2  C   UNL     1      26.011  -0.460  25.139  1.00  0.00    -0.003 A 
ATOM      3  C   UNL     1      27.116   0.269  24.645  1.00  0.00     0.119 A 
ATOM      4  C   UNL     1      27.270   0.469  23.268  1.00  0.00     0.046 A 
ATOM      5  C   UNL     1      26.334  -0.040  22.374  1.00  0.00     0.004 A 
ATOM      6  C   UNL     1      25.227  -0.744  22.844  1.00  0.00     0.004 A 
ENDROOT
BRANCH   1   7
ATOM      7  C   UNL     1      23.818  -1.727  24.665  1.00  0.00     0.036 C 
BRANCH   7   8
ATOM      8  C   UNL     1      24.136  -3.227  24.752  1.00  0.00     0.004 C 
BRANCH   8   9
ATOM      9  C   UNL     1      23.308  -3.942  25.832  1.00  0.00    -0.003 C 
ATOM     10  C   UNL     1      24.156  -4.393  27.021  1.00  0.00     0.004 C 
ENDBRANCH   8   9
ENDBRANCH   7   8
ENDBRANCH   1   7
BRANCH   2  11
ATOM     11  C   UNL     1      25.865  -0.650  26.637  1.00  0.00     0.040 C 
BRANCH  11  12
ATOM     12  C   UNL     1      24.956   0.433  27.236  1.00  0.00     0.005 C 
BRANCH  12  13
ATOM     13  C   UNL     1      25.488   0.975  28.571  1.00  0.00    -0.003 C 
ATOM     14  C   UNL     1      24.691   2.177  29.078  1.00  0.00     0.004 C 
ENDBRANCH  12  13
ENDBRANCH  11  12
ENDBRANCH   2  11
BRANCH   3  15
ATOM     15  O   UNL     1      28.062   0.797  25.527  1.00  0.00    -0.508 OA
ATOM     16  H   UNL     1      28.795   0.222  25.926  1.00  0.00     0.293 HD
ENDBRANCH   3  15
TORSDOF 7
ENDMDL
MODEL 3
REMARK VINA RESULT:    -5.629      1.971      4.367
REMARK INTER + INTRA:          -8.699
REMARK INTER:                  -7.839
REMARK INTRA:                  -0.860
REMARK UNBOUND:                -0.930
REMARK SMILES CCCCc1cccc(O)c1CCCC
REMARK SMILES IDX 5 1 11 2 9 3 8 4 7 5 6 6 4 7 3 8 2 9 1 10 12 11 13 12 14 13
REMARK SMILES IDX 15 14 10 15
REMARK H PARENT 10 16
REMARK Flexibility Score: inf
ROOT
ATOM      1  C   UNL     1      24.940  -2.129  25.521  1.00  0.00    -0.041 A 
ATOM      2  C   UNL     1      25.506  -2.697  26.698  1.00  0.00    -0.003 A 
ATOM      3  C   UNL     1      24.939  -3.876  27.232  1.00  0.00     0.119 A 
ATOM      4  C   UNL     1      23.811  -4.450  26.635  1.00  0.00     0.046 A 
ATOM      5  C   UNL     1      23.240  -3.870  25.505  1.00  0.00     0.004 A 
ATOM      6  C   UNL     1      23.798  -2.719  24.952  1.00  0.00     0.004 A 
ENDROOT
BRANCH   1   7
ATOM      7  C   UNL     1      25.488  -0.875  24.876  1.00  0.00     0.036 C 
BRANCH   7   8
ATOM      8  C   UNL     1      24.992  -0.747  23.428  1.00  0.00     0.004 C 
BRANCH   8   9
ATOM      9  C   UNL     1      26.088  -0.251  22.472  1.00  0.00    -0.003 C 
ATOM     10  C   UNL     1      27.178   0.546  23.189  1.00  0.00     0.004 C 
ENDBRANCH   8   9
ENDBRANCH   7   8
ENDBRANCH   1   7
BRANCH   2  11
ATOM     11  C   UNL     1      26.734  -2.105  27.361  1.00  0.00     0.040 C 
BRANCH  11  12
ATOM     12  C   UNL     1      26.334  -1.197  28.533  1.00  0.00     0.005 C 
BRANCH  12  13
ATOM     13  C   UNL     1      26.481   0.295  28.198  1.00  0.00    -0.003 C 
ATOM     14  C   UNL     1      25.142   1.033  28.197  1.00  0.00     0.004 C 
ENDBRANCH  12  13
ENDBRANCH  11  12
ENDBRANCH   2  11
BRANCH   3  15
ATOM     15  O   UNL     1      25.502  -4.478  28.359  1.00  0.00    -0.508 OA
ATOM     16  H   UNL     1      25.924  -5.398  28.316  1.00  0.00     0.293 HD
ENDBRANCH   3  15
TORSDOF 7
ENDMDL
MODEL 4
REMARK VINA RESULT:    -5.582      7.076     10.724
REMARK INTER + INTRA:          -8.633
REMARK INTER:                  -8.064
REMARK INTRA:                  -0.569
REMARK UNBOUND:                -0.930
REMARK SMILES CCCCc1cccc(O)c1CCCC
REMARK SMILES IDX 5 1 11 2 9 3 8 4 7 5 6 6 4 7 3 8 2 9 1 10 12 11 13 12 14 13
REMARK SMILES IDX 15 14 10 15
REMARK H PARENT 10 16
REMARK Flexibility Score: inf
ROOT
ATOM      1  C   UNL     1      18.657  -6.599  27.429  1.00  0.00    -0.041 A 
ATOM      2  C   UNL     1      17.656  -6.755  26.429  1.00  0.00    -0.003 A 
ATOM      3  C   UNL     1      17.444  -8.032  25.862  1.00  0.00     0.119 A 
ATOM      4  C   UNL     1      18.240  -9.117  26.249  1.00  0.00     0.046 A 
ATOM      5  C   UNL     1      19.241  -8.950  27.201  1.00  0.00     0.004 A 
ATOM      6  C   UNL     1      19.451  -7.703  27.786  1.00  0.00     0.004 A 
ENDROOT
BRANCH   1   7
ATOM      7  C   UNL     1      18.944  -5.272  28.096  1.00  0.00     0.036 C 
BRANCH   7   8
ATOM      8  C   UNL     1      19.848  -4.402  27.209  1.00  0.00     0.004 C 
BRANCH   8   9
ATOM      9  C   UNL     1      21.330  -4.787  27.323  1.00  0.00    -0.003 C 
ATOM     10  C   UNL     1      22.173  -4.232  26.174  1.00  0.00     0.004 C 
ENDBRANCH   8   9
ENDBRANCH   7   8
ENDBRANCH   1   7
BRANCH   2  11
ATOM     11  C   UNL     1      16.771  -5.602  25.997  1.00  0.00     0.040 C 
BRANCH  11  12
ATOM     12  C   UNL     1      15.506  -5.534  26.865  1.00  0.00     0.005 C 
BRANCH  12  13
ATOM     13  C   UNL     1      14.239  -5.266  26.039  1.00  0.00    -0.003 C 
ATOM     14  C   UNL     1      14.089  -3.795  25.651  1.00  0.00     0.004 C 
ENDBRANCH  12  13
ENDBRANCH  11  12
ENDBRANCH   2  11
BRANCH   3  15
ATOM     15  O   UNL     1      16.439  -8.222  24.912  1.00  0.00    -0.508 OA
ATOM     16  H   UNL     1      16.045  -9.137  24.729  1.00  0.00     0.293 HD
ENDBRANCH   3  15
TORSDOF 7
ENDMDL
MODEL 5
REMARK VINA RESULT:    -5.530      7.898     11.255
REMARK INTER + INTRA:          -8.562
REMARK INTER:                  -7.456
REMARK INTRA:                  -1.106
REMARK UNBOUND:                -0.930
REMARK SMILES CCCCc1cccc(O)c1CCCC
REMARK SMILES IDX 5 1 11 2 9 3 8 4 7 5 6 6 4 7 3 8 2 9 1 10 12 11 13 12 14 13
REMARK SMILES IDX 15 14 10 15
REMARK H PARENT 10 16
REMARK Flexibility Score: inf
ROOT
ATOM      1  C   UNL     1      16.627  -6.250  26.154  1.00  0.00    -0.041 A 
ATOM      2  C   UNL     1      16.462  -7.663  26.112  1.00  0.00    -0.003 A 
ATOM      3  C   UNL     1      15.165  -8.208  26.249  1.00  0.00     0.119 A 
ATOM      4  C   UNL     1      14.066  -7.368  26.466  1.00  0.00     0.046 A 
ATOM      5  C   UNL     1      14.239  -5.989  26.542  1.00  0.00     0.004 A 
ATOM      6  C   UNL     1      15.507  -5.433  26.389  1.00  0.00     0.004 A 
ENDROOT
BRANCH   1   7
ATOM      7  C   UNL     1      17.976  -5.582  26.006  1.00  0.00     0.036 C 
BRANCH   7   8
ATOM      8  C   UNL     1      18.272  -4.679  27.214  1.00  0.00     0.004 C 
BRANCH   8   9
ATOM      9  C   UNL     1      19.557  -5.085  27.951  1.00  0.00    -0.003 C 
ATOM     10  C   UNL     1      20.822  -4.726  27.170  1.00  0.00     0.004 C 
ENDBRANCH   8   9
ENDBRANCH   7   8
ENDBRANCH   1   7
BRANCH   2  11
ATOM     11  C   UNL     1      17.630  -8.598  25.867  1.00  0.00     0.040 C 
BRANCH  11  12
ATOM     12  C   UNL     1      18.303  -8.985  27.191  1.00  0.00     0.005 C 
BRANCH  12  13
ATOM     13  C   UNL     1      19.796  -8.623  27.220  1.00  0.00    -0.003 C 
ATOM     14  C   UNL     1      20.373  -8.615  28.635  1.00  0.00     0.004 C 
ENDBRANCH  12  13
ENDBRANCH  11  12
ENDBRANCH   2  11
BRANCH   3  15
ATOM     15  O   UNL     1      14.969  -9.588  26.167  1.00  0.00    -0.508 OA
ATOM     16  H   UNL     1      14.212  -9.987  25.625  1.00  0.00     0.293 HD
ENDBRANCH   3  15
TORSDOF 7
ENDMDL
MODEL 6
REMARK VINA RESULT:    -5.372      7.125     10.148
REMARK INTER + INTRA:          -8.343
REMARK INTER:                  -7.349
REMARK INTRA:                  -0.995
REMARK UNBOUND:                -0.930
REMARK SMILES CCCCc1cccc(O)c1CCCC
REMARK SMILES IDX 5 1 11 2 9 3 8 4 7 5 6 6 4 7 3 8 2 9 1 10 12 11 13 12 14 13
REMARK SMILES IDX 15 14 10 15
REMARK H PARENT 10 16
REMARK Flexibility Score: inf
ROOT
ATOM      1  C   UNL     1      18.281  -8.070  27.314  1.00  0.00    -0.041 A 
ATOM      2  C   UNL     1      17.632  -6.849  26.977  1.00  0.00    -0.003 A 
ATOM      3  C   UNL     1      16.543  -6.877  26.076  1.00  0.00     0.119 A 
ATOM      4  C   UNL     1      16.140  -8.084  25.493  1.00  0.00     0.046 A 
ATOM      5  C   UNL     1      16.802  -9.269  25.800  1.00  0.00     0.004 A 
ATOM      6  C   UNL     1      17.864  -9.265  26.702  1.00  0.00     0.004 A 
ENDROOT
BRANCH   1   7
ATOM      7  C   UNL     1      19.447  -8.135  28.277  1.00  0.00     0.036 C 
BRANCH   7   8
ATOM      8  C   UNL     1      20.720  -8.606  27.558  1.00  0.00     0.004 C 
BRANCH   8   9
ATOM      9  C   UNL     1      21.861  -8.930  28.534  1.00  0.00    -0.003 C 
ATOM     10  C   UNL     1      23.240  -8.626  27.948  1.00  0.00     0.004 C 
ENDBRANCH   8   9
ENDBRANCH   7   8
ENDBRANCH   1   7
BRANCH   2  11
ATOM     11  C   UNL     1      18.038  -5.528  27.600  1.00  0.00     0.040 C 
BRANCH  11  12
ATOM     12  C   UNL     1      19.076  -4.811  26.725  1.00  0.00     0.005 C 
BRANCH  12  13
ATOM     13  C   UNL     1      20.243  -4.240  27.545  1.00  0.00    -0.003 C 
ATOM     14  C   UNL     1      21.554  -4.988  27.304  1.00  0.00     0.004 C 
ENDBRANCH  12  13
ENDBRANCH  11  12
ENDBRANCH   2  11
BRANCH   3  15
ATOM     15  O   UNL     1      15.860  -5.700  25.762  1.00  0.00    -0.508 OA
ATOM     16  H   UNL     1      16.328  -4.912  25.330  1.00  0.00     0.293 HD
ENDBRANCH   3  15
TORSDOF 7
ENDMDL
MODEL 7
REMARK VINA RESULT:    -5.326      8.669     11.086
REMARK INTER + INTRA:          -8.280
REMARK INTER:                  -7.194
REMARK INTRA:                  -1.086
REMARK UNBOUND:                -0.930
REMARK SMILES CCCCc1cccc(O)c1CCCC
REMARK SMILES IDX 5 1 11 2 9 3 8 4 7 5 6 6 4 7 3 8 2 9 1 10 12 11 13 12 14 13
REMARK SMILES IDX 15 14 10 15
REMARK H PARENT 10 16
REMARK Flexibility Score: inf
ROOT
ATOM      1  C   UNL     1      18.086  -7.999  26.516  1.00  0.00    -0.041 A 
ATOM      2  C   UNL     1      17.967  -6.584  26.618  1.00  0.00    -0.003 A 
ATOM      3  C   UNL     1      18.943  -5.863  27.343  1.00  0.00     0.119 A 
ATOM      4  C   UNL     1      19.985  -6.540  27.988  1.00  0.00     0.046 A 
ATOM      5  C   UNL     1      20.076  -7.927  27.914  1.00  0.00     0.004 A 
ATOM      6  C   UNL     1      19.135  -8.652  27.186  1.00  0.00     0.004 A 
ENDROOT
BRANCH   1   7
ATOM      7  C   UNL     1      17.094  -8.847  25.751  1.00  0.00     0.036 C 
BRANCH   7   8
ATOM      8  C   UNL     1      16.304  -9.754  26.707  1.00  0.00     0.004 C 
BRANCH   8   9
ATOM      9  C   UNL     1      14.907  -9.200  27.024  1.00  0.00    -0.003 C 
ATOM     10  C   UNL     1      14.021  -9.090  25.783  1.00  0.00     0.004 C 
ENDBRANCH   8   9
ENDBRANCH   7   8
ENDBRANCH   1   7
BRANCH   2  11
ATOM     11  C   UNL     1      16.856  -5.822  25.922  1.00  0.00     0.040 C 
BRANCH  11  12
ATOM     12  C   UNL     1      15.656  -5.634  26.861  1.00  0.00     0.005 C 
BRANCH  12  13
ATOM     13  C   UNL     1      14.351  -5.355  26.099  1.00  0.00    -0.003 C 
ATOM     14  C   UNL     1      14.211  -3.889  25.691  1.00  0.00     0.004 C 
ENDBRANCH  12  13
ENDBRANCH  11  12
ENDBRANCH   2  11
BRANCH   3  15
ATOM     15  O   UNL     1      18.875  -4.471  27.422  1.00  0.00    -0.508 OA
ATOM     16  H   UNL     1      18.346  -3.926  26.751  1.00  0.00     0.293 HD
ENDBRANCH   3  15
TORSDOF 7
ENDMDL
MODEL 8
REMARK VINA RESULT:    -5.306      6.665     10.039
REMARK INTER + INTRA:          -8.252
REMARK INTER:                  -7.266
REMARK INTRA:                  -0.986
REMARK UNBOUND:                -0.930
REMARK SMILES CCCCc1cccc(O)c1CCCC
REMARK SMILES IDX 5 1 11 2 9 3 8 4 7 5 6 6 4 7 3 8 2 9 1 10 12 11 13 12 14 13
REMARK SMILES IDX 15 14 10 15
REMARK H PARENT 10 16
REMARK Flexibility Score: inf
ROOT
ATOM      1  C   UNL     1      18.011  -6.230  27.466  1.00  0.00    -0.041 A 
ATOM      2  C   UNL     1      18.009  -7.652  27.397  1.00  0.00    -0.003 A 
ATOM      3  C   UNL     1      17.135  -8.294  26.490  1.00  0.00     0.119 A 
ATOM      4  C   UNL     1      16.255  -7.541  25.704  1.00  0.00     0.046 A 
ATOM      5  C   UNL     1      16.238  -6.152  25.802  1.00  0.00     0.004 A 
ATOM      6  C   UNL     1      17.107  -5.501  26.675  1.00  0.00     0.004 A 
ENDROOT
BRANCH   1   7
ATOM      7  C   UNL     1      18.921  -5.461  28.399  1.00  0.00     0.036 C 
BRANCH   7   8
ATOM      8  C   UNL     1      19.765  -4.442  27.618  1.00  0.00     0.004 C 
BRANCH   8   9
ATOM      9  C   UNL     1      21.188  -4.947  27.340  1.00  0.00    -0.003 C 
ATOM     10  C   UNL     1      21.849  -4.228  26.165  1.00  0.00     0.004 C 
ENDBRANCH   8   9
ENDBRANCH   7   8
ENDBRANCH   1   7
BRANCH   2  11
ATOM     11  C   UNL     1      18.957  -8.495  28.227  1.00  0.00     0.040 C 
BRANCH  11  12
ATOM     12  C   UNL     1      20.324  -8.613  27.536  1.00  0.00     0.005 C 
BRANCH  12  13
ATOM     13  C   UNL     1      21.475  -8.799  28.537  1.00  0.00    -0.003 C 
ATOM     14  C   UNL     1      22.847  -8.563  27.907  1.00  0.00     0.004 C 
ENDBRANCH  12  13
ENDBRANCH  11  12
ENDBRANCH   2  11
BRANCH   3  15
ATOM     15  O   UNL     1      17.144  -9.685  26.371  1.00  0.00    -0.508 OA
ATOM     16  H   UNL     1      16.815 -10.150  25.533  1.00  0.00     0.293 HD
ENDBRANCH   3  15
TORSDOF 7
ENDMDL
MODEL 9
REMARK VINA RESULT:    -5.189      2.734      4.811
REMARK INTER + INTRA:          -8.091
REMARK INTER:                  -7.402
REMARK INTRA:                  -0.689
REMARK UNBOUND:                -0.930
REMARK SMILES CCCCc1cccc(O)c1CCCC
REMARK SMILES IDX 5 1 11 2 9 3 8 4 7 5 6 6 4 7 3 8 2 9 1 10 12 11 13 12 14 13
REMARK SMILES IDX 15 14 10 15
REMARK H PARENT 10 16
REMARK Flexibility Score: inf
ROOT
ATOM      1  C   UNL     1      25.344  -2.172  25.905  1.00  0.00    -0.041 A 
ATOM      2  C   UNL     1      25.163  -3.335  26.706  1.00  0.00    -0.003 A 
ATOM      3  C   UNL     1      24.048  -4.170  26.464  1.00  0.00     0.119 A 
ATOM      4  C   UNL     1      23.114  -3.831  25.479  1.00  0.00     0.046 A 
ATOM      5  C   UNL     1      23.277  -2.673  24.723  1.00  0.00     0.004 A 
ATOM      6  C   UNL     1      24.381  -1.850  24.933  1.00  0.00     0.004 A 
ENDROOT
BRANCH   1   7
ATOM      7  C   UNL     1      26.513  -1.230  26.088  1.00  0.00     0.036 C 
BRANCH   7   8
ATOM      8  C   UNL     1      26.340   0.026  25.221  1.00  0.00     0.004 C 
BRANCH   8   9
ATOM      9  C   UNL     1      27.366   0.099  24.080  1.00  0.00    -0.003 C 
ATOM     10  C   UNL     1      26.712   0.084  22.698  1.00  0.00     0.004 C 
ENDBRANCH   8   9
ENDBRANCH   7   8
ENDBRANCH   1   7
BRANCH   2  11
ATOM     11  C   UNL     1      26.164  -3.736  27.773  1.00  0.00     0.040 C 
BRANCH  11  12
ATOM     12  C   UNL     1      27.234  -4.669  27.190  1.00  0.00     0.005 C 
BRANCH  12  13
ATOM     13  C   UNL     1      28.125  -5.294  28.275  1.00  0.00    -0.003 C 
ATOM     14  C   UNL     1      27.358  -6.250  29.188  1.00  0.00     0.004 C 
ENDBRANCH  12  13
ENDBRANCH  11  12
ENDBRANCH   2  11
BRANCH   3  15
ATOM     15  O   UNL     1      23.872  -5.340  27.206  1.00  0.00    -0.508 OA
ATOM     16  H   UNL     1      24.656  -5.833  27.617  1.00  0.00     0.293 HD
ENDBRANCH   3  15
TORSDOF 7
ENDMDL
