MODEL 1
REMARK VINA RESULT:    -2.285      0.000      0.000
REMARK INTER + INTRA:         -13.309
REMARK INTER:                  -6.024
REMARK INTRA:                  -7.285
REMARK UNBOUND:                -7.285
REMARK SMILES CCCCCCCCCCCCCCCCCCCCCCCCCCCCCC(=O)[O-]
REMARK SMILES IDX 16 1 17 2 18 3 19 4 20 5 21 6 22 7 23 8 24 9 25 10 26 11
REMARK SMILES IDX 27 12 28 13 29 14 30 15 31 16 32 17 15 18 14 19 13 20 12 21
REMARK SMILES IDX 11 22 10 23 9 24 8 25 7 26 6 27 5 28 4 29 3 30 2 31 1 32
REMARK H PARENT
REMARK Flexibility Score: inf
ROOT
ATOM      1  C   UNL     1     -97.415 -27.201  84.590  1.00  0.00     0.000 C 
ENDROOT
BRANCH   1   2
ATOM      2  C   UNL     1     -98.477 -26.206  85.093  1.00  0.00     0.000 C 
BRANCH   2   3
ATOM      3  C   UNL     1     -98.763 -25.016  84.150  1.00  0.00     0.000 C 
BRANCH   3   4
ATOM      4  C   UNL     1    -100.242 -24.809  83.782  1.00  0.00     0.000 C 
BRANCH   4   5
ATOM      5  C   UNL     1    -100.428 -24.117  82.421  1.00  0.00     0.000 C 
BRANCH   5   6
ATOM      6  C   UNL     1     -99.126 -24.052  81.601  1.00  0.00     0.000 C 
BRANCH   6   7
ATOM      7  C   UNL     1     -99.158 -24.802  80.252  1.00  0.00     0.000 C 
BRANCH   7   8
ATOM      8  C   UNL     1     -99.448 -26.309  80.349  1.00  0.00     0.000 C 
BRANCH   8   9
ATOM      9  C   UNL     1    -100.453 -26.794  79.294  1.00  0.00     0.000 C 
BRANCH   9  10
ATOM     10  C   UNL     1    -101.764 -27.247  79.950  1.00  0.00     0.000 C 
BRANCH  10  11
ATOM     11  C   UNL     1    -101.546 -27.594  81.430  1.00  0.00     0.000 C 
BRANCH  11  12
ATOM     12  C   UNL     1    -102.741 -27.201  82.312  1.00  0.00     0.000 C 
BRANCH  12  13
ATOM     13  C   UNL     1    -102.659 -27.809  83.724  1.00  0.00     0.006 C 
BRANCH  13  14
ATOM     14  C   UNL     1    -101.254 -28.331  84.050  1.00  0.00     0.053 C 
BRANCH  14  15
ATOM     15  C   UNL     1    -101.293 -29.703  84.653  1.00  0.00     0.041 C 
ATOM     16  O   UNL     1    -100.242 -30.393  84.722  1.00  0.00    -0.550 OA
ATOM     17  O   UNL     1    -102.482 -30.205  85.167  1.00  0.00    -0.550 OA
ENDBRANCH  14  15
ENDBRANCH  13  14
ENDBRANCH  12  13
ENDBRANCH  11  12
ENDBRANCH  10  11
ENDBRANCH   9  10
ENDBRANCH   8   9
ENDBRANCH   7   8
ENDBRANCH   6   7
ENDBRANCH   5   6
ENDBRANCH   4   5
ENDBRANCH   3   4
ENDBRANCH   2   3
ENDBRANCH   1   2
BRANCH   1  18
ATOM     18  C   UNL     1     -97.698 -27.810  83.203  1.00  0.00     0.000 C 
BRANCH  18  19
ATOM     19  C   UNL     1     -96.508 -27.714  82.222  1.00  0.00     0.000 C 
BRANCH  19  20
ATOM     20  C   UNL     1     -96.025 -26.279  81.930  1.00  0.00     0.000 C 
BRANCH  20  21
ATOM     21  C   UNL     1     -95.652 -25.992  80.460  1.00  0.00     0.000 C 
BRANCH  21  22
ATOM     22  C   UNL     1     -95.687 -27.215  79.522  1.00  0.00     0.000 C 
BRANCH  22  23
ATOM     23  C   UNL     1     -96.595 -27.066  78.288  1.00  0.00     0.000 C 
BRANCH  23  24
ATOM     24  C   UNL     1     -97.357 -28.360  77.950  1.00  0.00    -0.000 C 
BRANCH  24  25
ATOM     25  C   UNL     1     -97.108 -29.477  78.978  1.00  0.00    -0.000 C 
BRANCH  25  26
ATOM     26  C   UNL     1     -98.352 -29.789  79.824  1.00  0.00    -0.000 C 
BRANCH  26  27
ATOM     27  C   UNL     1     -99.259 -30.805  79.111  1.00  0.00    -0.000 C 
BRANCH  27  28
ATOM     28  C   UNL     1    -100.718 -30.736  79.586  1.00  0.00    -0.000 C 
BRANCH  28  29
ATOM     29  C   UNL     1    -100.881 -31.163  81.056  1.00  0.00    -0.000 C 
BRANCH  29  30
ATOM     30  C   UNL     1    -102.355 -31.307  81.468  1.00  0.00    -0.000 C 
BRANCH  30  31
ATOM     31  C   UNL     1    -103.320 -30.715  80.430  1.00  0.00    -0.003 C 
ATOM     32  C   UNL     1    -104.562 -30.138  81.101  1.00  0.00     0.004 C 
ENDBRANCH  30  31
ENDBRANCH  29  30
ENDBRANCH  28  29
ENDBRANCH  27  28
ENDBRANCH  26  27
ENDBRANCH  25  26
ENDBRANCH  24  25
ENDBRANCH  23  24
ENDBRANCH  22  23
ENDBRANCH  21  22
ENDBRANCH  20  21
ENDBRANCH  19  20
ENDBRANCH  18  19
ENDBRANCH   1  18
TORSDOF 28
ENDMDL
MODEL 2
REMARK VINA RESULT:    -2.244     12.663     16.394
REMARK INTER + INTRA:         -13.203
REMARK INTER:                  -9.578
REMARK INTRA:                  -3.624
REMARK UNBOUND:                -7.285
REMARK SMILES CCCCCCCCCCCCCCCCCCCCCCCCCCCCCC(=O)[O-]
REMARK SMILES IDX 16 1 17 2 18 3 19 4 20 5 21 6 22 7 23 8 24 9 25 10 26 11
REMARK SMILES IDX 27 12 28 13 29 14 30 15 31 16 32 17 15 18 14 19 13 20 12 21
REMARK SMILES IDX 11 22 10 23 9 24 8 25 7 26 6 27 5 28 4 29 3 30 2 31 1 32
REMARK H PARENT
REMARK Flexibility Score: inf
ROOT
ATOM      1  C   UNL     1     -96.989 -41.122  90.895  1.00  0.00     0.000 C 
ENDROOT
BRANCH   1   2
ATOM      2  C   UNL     1     -97.953 -40.456  89.895  1.00  0.00     0.000 C 
BRANCH   2   3
ATOM      3  C   UNL     1     -97.286 -39.848  88.642  1.00  0.00     0.000 C 
BRANCH   3   4
ATOM      4  C   UNL     1     -97.303 -40.741  87.389  1.00  0.00     0.000 C 
BRANCH   4   5
ATOM      5  C   UNL     1     -96.230 -41.842  87.426  1.00  0.00     0.000 C 
BRANCH   5   6
ATOM      6  C   UNL     1     -96.827 -43.254  87.567  1.00  0.00     0.000 C 
BRANCH   6   7
ATOM      7  C   UNL     1     -98.369 -43.325  87.551  1.00  0.00     0.000 C 
BRANCH   7   8
ATOM      8  C   UNL     1     -98.988 -43.803  86.227  1.00  0.00     0.000 C 
BRANCH   8   9
ATOM      9  C   UNL     1    -100.087 -42.865  85.707  1.00  0.00     0.000 C 
BRANCH   9  10
ATOM     10  C   UNL     1    -100.228 -42.973  84.184  1.00  0.00     0.000 C 
BRANCH  10  11
ATOM     11  C   UNL     1    -101.357 -42.066  83.672  1.00  0.00     0.000 C 
BRANCH  11  12
ATOM     12  C   UNL     1    -100.831 -40.816  82.950  1.00  0.00     0.000 C 
BRANCH  12  13
ATOM     13  C   UNL     1    -100.961 -40.919  81.419  1.00  0.00     0.006 C 
BRANCH  13  14
ATOM     14  C   UNL     1     -99.631 -40.642  80.704  1.00  0.00     0.053 C 
BRANCH  14  15
ATOM     15  C   UNL     1     -98.793 -41.878  80.582  1.00  0.00     0.041 C 
ATOM     16  O   UNL     1     -99.330 -43.015  80.653  1.00  0.00    -0.550 OA
ATOM     17  O   UNL     1     -97.426 -41.774  80.357  1.00  0.00    -0.550 OA
ENDBRANCH  14  15
ENDBRANCH  13  14
ENDBRANCH  12  13
ENDBRANCH  11  12
ENDBRANCH  10  11
ENDBRANCH   9  10
ENDBRANCH   8   9
ENDBRANCH   7   8
ENDBRANCH   6   7
ENDBRANCH   5   6
ENDBRANCH   4   5
ENDBRANCH   3   4
ENDBRANCH   2   3
ENDBRANCH   1   2
BRANCH   1  18
ATOM     18  C   UNL     1     -97.495 -42.443  91.504  1.00  0.00     0.000 C 
BRANCH  18  19
ATOM     19  C   UNL     1     -98.081 -42.294  92.927  1.00  0.00     0.000 C 
BRANCH  19  20
ATOM     20  C   UNL     1     -97.819 -40.927  93.593  1.00  0.00     0.000 C 
BRANCH  20  21
ATOM     21  C   UNL     1     -99.055 -40.015  93.739  1.00  0.00     0.000 C 
BRANCH  21  22
ATOM     22  C   UNL     1    -100.338 -40.529  93.055  1.00  0.00     0.000 C 
BRANCH  22  23
ATOM     23  C   UNL     1    -100.974 -39.558  92.046  1.00  0.00     0.000 C 
BRANCH  23  24
ATOM     24  C   UNL     1    -100.113 -38.306  91.799  1.00  0.00    -0.000 C 
BRANCH  24  25
ATOM     25  C   UNL     1    -100.743 -37.032  92.387  1.00  0.00    -0.000 C 
BRANCH  25  26
ATOM     26  C   UNL     1    -102.206 -37.235  92.809  1.00  0.00    -0.000 C 
BRANCH  26  27
ATOM     27  C   UNL     1    -102.367 -37.070  94.327  1.00  0.00    -0.000 C 
BRANCH  27  28
ATOM     28  C   UNL     1    -101.106 -36.509  95.002  1.00  0.00    -0.000 C 
BRANCH  28  29
ATOM     29  C   UNL     1    -101.427 -35.423  96.045  1.00  0.00    -0.000 C 
BRANCH  29  30
ATOM     30  C   UNL     1    -102.602 -34.529  95.621  1.00  0.00    -0.000 C 
BRANCH  30  31
ATOM     31  C   UNL     1    -102.149 -33.285  94.843  1.00  0.00    -0.003 C 
ATOM     32  C   UNL     1    -102.410 -33.446  93.348  1.00  0.00     0.004 C 
ENDBRANCH  30  31
ENDBRANCH  29  30
ENDBRANCH  28  29
ENDBRANCH  27  28
ENDBRANCH  26  27
ENDBRANCH  25  26
ENDBRANCH  24  25
ENDBRANCH  23  24
ENDBRANCH  22  23
ENDBRANCH  21  22
ENDBRANCH  20  21
ENDBRANCH  19  20
ENDBRANCH  18  19
ENDBRANCH   1  18
TORSDOF 28
ENDMDL
MODEL 3
REMARK VINA RESULT:    -2.100      1.766      4.761
REMARK INTER + INTRA:         -12.822
REMARK INTER:                  -6.733
REMARK INTRA:                  -6.088
REMARK UNBOUND:                -7.285
REMARK SMILES CCCCCCCCCCCCCCCCCCCCCCCCCCCCCC(=O)[O-]
REMARK SMILES IDX 16 1 17 2 18 3 19 4 20 5 21 6 22 7 23 8 24 9 25 10 26 11
REMARK SMILES IDX 27 12 28 13 29 14 30 15 31 16 32 17 15 18 14 19 13 20 12 21
REMARK SMILES IDX 11 22 10 23 9 24 8 25 7 26 6 27 5 28 4 29 3 30 2 31 1 32
REMARK H PARENT
REMARK Flexibility Score: inf
ROOT
ATOM      1  C   UNL     1     -98.892 -26.245  84.906  1.00  0.00     0.000 C 
ENDROOT
BRANCH   1   2
ATOM      2  C   UNL     1     -97.438 -26.750  84.967  1.00  0.00     0.000 C 
BRANCH   2   3
ATOM      3  C   UNL     1     -97.181 -28.103  84.268  1.00  0.00     0.000 C 
BRANCH   3   4
ATOM      4  C   UNL     1     -96.447 -28.017  82.919  1.00  0.00     0.000 C 
BRANCH   4   5
ATOM      5  C   UNL     1     -96.179 -26.570  82.475  1.00  0.00     0.000 C 
BRANCH   5   6
ATOM      6  C   UNL     1     -95.577 -26.479  81.061  1.00  0.00     0.000 C 
BRANCH   6   7
ATOM      7  C   UNL     1     -96.539 -26.841  79.909  1.00  0.00     0.000 C 
BRANCH   7   8
ATOM      8  C   UNL     1     -96.152 -28.093  79.103  1.00  0.00     0.000 C 
BRANCH   8   9
ATOM      9  C   UNL     1     -97.123 -29.263  79.316  1.00  0.00     0.000 C 
BRANCH   9  10
ATOM     10  C   UNL     1     -97.557 -29.868  77.975  1.00  0.00     0.000 C 
BRANCH  10  11
ATOM     11  C   UNL     1     -98.916 -30.574  78.105  1.00  0.00     0.000 C 
BRANCH  11  12
ATOM     12  C   UNL     1    -100.082 -29.586  78.261  1.00  0.00     0.000 C 
BRANCH  12  13
ATOM     13  C   UNL     1    -101.297 -30.213  78.969  1.00  0.00     0.006 C 
BRANCH  13  14
ATOM     14  C   UNL     1    -101.219 -31.745  79.006  1.00  0.00     0.053 C 
BRANCH  14  15
ATOM     15  C   UNL     1    -101.627 -32.294  80.340  1.00  0.00     0.041 C 
ATOM     16  O   UNL     1    -100.888 -32.125  81.346  1.00  0.00    -0.550 OA
ATOM     17  O   UNL     1    -102.838 -32.961  80.479  1.00  0.00    -0.550 OA
ENDBRANCH  14  15
ENDBRANCH  13  14
ENDBRANCH  12  13
ENDBRANCH  11  12
ENDBRANCH  10  11
ENDBRANCH   9  10
ENDBRANCH   8   9
ENDBRANCH   7   8
ENDBRANCH   6   7
ENDBRANCH   5   6
ENDBRANCH   4   5
ENDBRANCH   3   4
ENDBRANCH   2   3
ENDBRANCH   1   2
BRANCH   1  18
ATOM     18  C   UNL     1     -99.098 -24.954  84.091  1.00  0.00     0.000 C 
BRANCH  18  19
ATOM     19  C   UNL     1    -100.563 -24.712  83.660  1.00  0.00     0.000 C 
BRANCH  19  20
ATOM     20  C   UNL     1    -100.809 -24.781  82.139  1.00  0.00     0.000 C 
BRANCH  20  21
ATOM     21  C   UNL     1     -99.745 -25.554  81.332  1.00  0.00     0.000 C 
BRANCH  21  22
ATOM     22  C   UNL     1    -100.184 -26.943  80.825  1.00  0.00     0.000 C 
BRANCH  22  23
ATOM     23  C   UNL     1     -99.644 -28.134  81.636  1.00  0.00     0.000 C 
BRANCH  23  24
ATOM     24  C   UNL     1    -100.710 -28.766  82.549  1.00  0.00    -0.000 C 
BRANCH  24  25
ATOM     25  C   UNL     1    -102.141 -28.375  82.143  1.00  0.00    -0.000 C 
BRANCH  25  26
ATOM     26  C   UNL     1    -102.896 -27.645  83.265  1.00  0.00    -0.000 C 
BRANCH  26  27
ATOM     27  C   UNL     1    -102.220 -27.883  84.624  1.00  0.00    -0.000 C 
BRANCH  27  28
ATOM     28  C   UNL     1    -103.038 -28.806  85.541  1.00  0.00    -0.000 C 
BRANCH  28  29
ATOM     29  C   UNL     1    -102.614 -30.281  85.423  1.00  0.00    -0.000 C 
BRANCH  29  30
ATOM     30  C   UNL     1    -103.761 -31.186  84.944  1.00  0.00    -0.000 C 
BRANCH  30  31
ATOM     31  C   UNL     1    -103.823 -31.305  83.414  1.00  0.00    -0.003 C 
ATOM     32  C   UNL     1    -105.258 -31.183  82.911  1.00  0.00     0.004 C 
ENDBRANCH  30  31
ENDBRANCH  29  30
ENDBRANCH  28  29
ENDBRANCH  27  28
ENDBRANCH  26  27
ENDBRANCH  25  26
ENDBRANCH  24  25
ENDBRANCH  23  24
ENDBRANCH  22  23
ENDBRANCH  21  22
ENDBRANCH  20  21
ENDBRANCH  19  20
ENDBRANCH  18  19
ENDBRANCH   1  18
TORSDOF 28
ENDMDL
MODEL 4
REMARK VINA RESULT:    -2.074      1.477      3.107
REMARK INTER + INTRA:         -12.754
REMARK INTER:                  -6.537
REMARK INTRA:                  -6.217
REMARK UNBOUND:                -7.285
REMARK SMILES CCCCCCCCCCCCCCCCCCCCCCCCCCCCCC(=O)[O-]
REMARK SMILES IDX 16 1 17 2 18 3 19 4 20 5 21 6 22 7 23 8 24 9 25 10 26 11
REMARK SMILES IDX 27 12 28 13 29 14 30 15 31 16 32 17 15 18 14 19 13 20 12 21
REMARK SMILES IDX 11 22 10 23 9 24 8 25 7 26 6 27 5 28 4 29 3 30 2 31 1 32
REMARK H PARENT
REMARK Flexibility Score: inf
ROOT
ATOM      1  C   UNL     1     -96.106 -27.089  82.528  1.00  0.00     0.000 C 
ENDROOT
BRANCH   1   2
ATOM      2  C   UNL     1     -97.292 -28.050  82.728  1.00  0.00     0.000 C 
BRANCH   2   3
ATOM      3  C   UNL     1     -97.892 -28.070  84.151  1.00  0.00     0.000 C 
BRANCH   3   4
ATOM      4  C   UNL     1     -99.100 -27.144  84.369  1.00  0.00     0.000 C 
BRANCH   4   5
ATOM      5  C   UNL     1     -98.704 -25.767  84.927  1.00  0.00     0.000 C 
BRANCH   5   6
ATOM      6  C   UNL     1     -99.032 -24.612  83.962  1.00  0.00     0.000 C 
BRANCH   6   7
ATOM      7  C   UNL     1     -99.442 -25.040  82.536  1.00  0.00     0.000 C 
BRANCH   7   8
ATOM      8  C   UNL     1    -100.850 -24.598  82.101  1.00  0.00     0.000 C 
BRANCH   8   9
ATOM      9  C   UNL     1    -101.707 -24.095  83.271  1.00  0.00     0.000 C 
BRANCH   9  10
ATOM     10  C   UNL     1    -102.582 -25.220  83.837  1.00  0.00     0.000 C 
BRANCH  10  11
ATOM     11  C   UNL     1    -102.395 -25.349  85.357  1.00  0.00     0.000 C 
BRANCH  11  12
ATOM     12  C   UNL     1    -102.752 -26.749  85.880  1.00  0.00     0.000 C 
BRANCH  12  13
ATOM     13  C   UNL     1    -102.496 -27.853  84.837  1.00  0.00     0.006 C 
BRANCH  13  14
ATOM     14  C   UNL     1    -103.450 -29.043  85.007  1.00  0.00     0.053 C 
BRANCH  14  15
ATOM     15  C   UNL     1    -102.708 -30.330  85.207  1.00  0.00     0.041 C 
ATOM     16  O   UNL     1    -103.341 -31.401  85.401  1.00  0.00    -0.550 OA
ATOM     17  O   UNL     1    -101.320 -30.351  85.149  1.00  0.00    -0.550 OA
ENDBRANCH  14  15
ENDBRANCH  13  14
ENDBRANCH  12  13
ENDBRANCH  11  12
ENDBRANCH  10  11
ENDBRANCH   9  10
ENDBRANCH   8   9
ENDBRANCH   7   8
ENDBRANCH   6   7
ENDBRANCH   5   6
ENDBRANCH   4   5
ENDBRANCH   3   4
ENDBRANCH   2   3
ENDBRANCH   1   2
BRANCH   1  18
ATOM     18  C   UNL     1     -96.052 -26.400  81.151  1.00  0.00     0.000 C 
BRANCH  18  19
ATOM     19  C   UNL     1     -97.198 -26.814  80.198  1.00  0.00     0.000 C 
BRANCH  19  20
ATOM     20  C   UNL     1     -96.751 -27.631  78.968  1.00  0.00     0.000 C 
BRANCH  20  21
ATOM     21  C   UNL     1     -96.518 -29.135  79.221  1.00  0.00     0.000 C 
BRANCH  21  22
ATOM     22  C   UNL     1     -97.796 -29.991  79.323  1.00  0.00     0.000 C 
BRANCH  22  23
ATOM     23  C   UNL     1     -98.408 -30.415  77.976  1.00  0.00     0.000 C 
BRANCH  23  24
ATOM     24  C   UNL     1     -99.837 -29.880  77.775  1.00  0.00    -0.000 C 
BRANCH  24  25
ATOM     25  C   UNL     1     -99.862 -28.391  77.395  1.00  0.00    -0.000 C 
BRANCH  25  26
ATOM     26  C   UNL     1    -100.551 -27.520  78.457  1.00  0.00    -0.000 C 
BRANCH  26  27
ATOM     27  C   UNL     1    -101.199 -28.392  79.544  1.00  0.00    -0.000 C 
BRANCH  27  28
ATOM     28  C   UNL     1    -100.602 -28.144  80.938  1.00  0.00    -0.000 C 
BRANCH  28  29
ATOM     29  C   UNL     1    -100.749 -29.363  81.867  1.00  0.00    -0.000 C 
BRANCH  29  30
ATOM     30  C   UNL     1    -101.635 -30.463  81.261  1.00  0.00    -0.000 C 
BRANCH  30  31
ATOM     31  C   UNL     1    -100.829 -31.688  80.805  1.00  0.00    -0.003 C 
ATOM     32  C   UNL     1    -101.717 -32.924  80.706  1.00  0.00     0.004 C 
ENDBRANCH  30  31
ENDBRANCH  29  30
ENDBRANCH  28  29
ENDBRANCH  27  28
ENDBRANCH  26  27
ENDBRANCH  25  26
ENDBRANCH  24  25
ENDBRANCH  23  24
ENDBRANCH  22  23
ENDBRANCH  21  22
ENDBRANCH  20  21
ENDBRANCH  19  20
ENDBRANCH  18  19
ENDBRANCH   1  18
TORSDOF 28
ENDMDL
MODEL 5
REMARK VINA RESULT:    -2.071     11.936     16.264
REMARK INTER + INTRA:         -12.746
REMARK INTER:                  -8.499
REMARK INTRA:                  -4.247
REMARK UNBOUND:                -7.285
REMARK SMILES CCCCCCCCCCCCCCCCCCCCCCCCCCCCCC(=O)[O-]
REMARK SMILES IDX 16 1 17 2 18 3 19 4 20 5 21 6 22 7 23 8 24 9 25 10 26 11
REMARK SMILES IDX 27 12 28 13 29 14 30 15 31 16 32 17 15 18 14 19 13 20 12 21
REMARK SMILES IDX 11 22 10 23 9 24 8 25 7 26 6 27 5 28 4 29 3 30 2 31 1 32
REMARK H PARENT
REMARK Flexibility Score: inf
ROOT
ATOM      1  C   UNL     1    -102.552 -37.386  91.151  1.00  0.00     0.000 C 
ENDROOT
BRANCH   1   2
ATOM      2  C   UNL     1    -101.218 -37.253  91.910  1.00  0.00     0.000 C 
BRANCH   2   3
ATOM      3  C   UNL     1    -100.128 -38.272  91.509  1.00  0.00     0.000 C 
BRANCH   3   4
ATOM      4  C   UNL     1    -100.203 -39.631  92.225  1.00  0.00     0.000 C 
BRANCH   4   5
ATOM      5  C   UNL     1    -100.206 -39.500  93.757  1.00  0.00     0.000 C 
BRANCH   5   6
ATOM      6  C   UNL     1     -99.473 -40.658  94.459  1.00  0.00     0.000 C 
BRANCH   6   7
ATOM      7  C   UNL     1     -98.203 -40.258  95.242  1.00  0.00     0.000 C 
BRANCH   7   8
ATOM      8  C   UNL     1     -97.146 -41.366  95.381  1.00  0.00     0.000 C 
BRANCH   8   9
ATOM      9  C   UNL     1     -95.805 -40.998  94.730  1.00  0.00     0.000 C 
BRANCH   9  10
ATOM     10  C   UNL     1     -95.894 -41.084  93.201  1.00  0.00     0.000 C 
BRANCH  10  11
ATOM     11  C   UNL     1     -96.621 -42.365  92.765  1.00  0.00     0.000 C 
BRANCH  11  12
ATOM     12  C   UNL     1     -97.398 -42.185  91.451  1.00  0.00     0.000 C 
BRANCH  12  13
ATOM     13  C   UNL     1     -96.930 -40.957  90.650  1.00  0.00     0.006 C 
BRANCH  13  14
ATOM     14  C   UNL     1     -97.945 -40.543  89.576  1.00  0.00     0.053 C 
BRANCH  14  15
ATOM     15  C   UNL     1     -97.275 -39.961  88.369  1.00  0.00     0.041 C 
ATOM     16  O   UNL     1     -97.131 -40.656  87.329  1.00  0.00    -0.550 OA
ATOM     17  O   UNL     1     -96.841 -38.641  88.381  1.00  0.00    -0.550 OA
ENDBRANCH  14  15
ENDBRANCH  13  14
ENDBRANCH  12  13
ENDBRANCH  11  12
ENDBRANCH  10  11
ENDBRANCH   9  10
ENDBRANCH   8   9
ENDBRANCH   7   8
ENDBRANCH   6   7
ENDBRANCH   5   6
ENDBRANCH   4   5
ENDBRANCH   3   4
ENDBRANCH   2   3
ENDBRANCH   1   2
BRANCH   1  18
ATOM     18  C   UNL     1    -103.782 -37.650  92.041  1.00  0.00     0.000 C 
BRANCH  18  19
ATOM     19  C   UNL     1    -103.430 -38.060  93.490  1.00  0.00     0.000 C 
BRANCH  19  20
ATOM     20  C   UNL     1    -103.775 -37.004  94.561  1.00  0.00     0.000 C 
BRANCH  20  21
ATOM     21  C   UNL     1    -102.895 -37.034  95.827  1.00  0.00     0.000 C 
BRANCH  21  22
ATOM     22  C   UNL     1    -101.425 -36.621  95.618  1.00  0.00     0.000 C 
BRANCH  22  23
ATOM     23  C   UNL     1    -101.217 -35.353  94.772  1.00  0.00     0.000 C 
BRANCH  23  24
ATOM     24  C   UNL     1    -101.859 -34.104  95.401  1.00  0.00    -0.000 C 
BRANCH  24  25
ATOM     25  C   UNL     1    -102.873 -33.427  94.464  1.00  0.00    -0.000 C 
BRANCH  25  26
ATOM     26  C   UNL     1    -102.713 -33.868  93.001  1.00  0.00    -0.000 C 
BRANCH  26  27
ATOM     27  C   UNL     1    -104.082 -33.999  92.315  1.00  0.00    -0.000 C 
BRANCH  27  28
ATOM     28  C   UNL     1    -104.106 -33.376  90.911  1.00  0.00    -0.000 C 
BRANCH  28  29
ATOM     29  C   UNL     1    -104.027 -31.839  90.945  1.00  0.00    -0.000 C 
BRANCH  29  30
ATOM     30  C   UNL     1    -103.833 -31.228  89.548  1.00  0.00    -0.000 C 
BRANCH  30  31
ATOM     31  C   UNL     1    -103.748 -32.292  88.443  1.00  0.00    -0.003 C 
ATOM     32  C   UNL     1    -102.806 -31.851  87.327  1.00  0.00     0.004 C 
ENDBRANCH  30  31
ENDBRANCH  29  30
ENDBRANCH  28  29
ENDBRANCH  27  28
ENDBRANCH  26  27
ENDBRANCH  25  26
ENDBRANCH  24  25
ENDBRANCH  23  24
ENDBRANCH  22  23
ENDBRANCH  21  22
ENDBRANCH  20  21
ENDBRANCH  19  20
ENDBRANCH  18  19
ENDBRANCH   1  18
TORSDOF 28
ENDMDL
MODEL 6
REMARK VINA RESULT:    -2.068      2.089      4.244
REMARK INTER + INTRA:         -12.738
REMARK INTER:                  -6.650
REMARK INTRA:                  -6.089
REMARK UNBOUND:                -7.285
REMARK SMILES CCCCCCCCCCCCCCCCCCCCCCCCCCCCCC(=O)[O-]
REMARK SMILES IDX 16 1 17 2 18 3 19 4 20 5 21 6 22 7 23 8 24 9 25 10 26 11
REMARK SMILES IDX 27 12 28 13 29 14 30 15 31 16 32 17 15 18 14 19 13 20 12 21
REMARK SMILES IDX 11 22 10 23 9 24 8 25 7 26 6 27 5 28 4 29 3 30 2 31 1 32
REMARK H PARENT
REMARK Flexibility Score: inf
ROOT
ATOM      1  C   UNL     1     -98.854 -25.157  83.749  1.00  0.00     0.000 C 
ENDROOT
BRANCH   1   2
ATOM      2  C   UNL     1     -99.855 -25.390  82.603  1.00  0.00     0.000 C 
BRANCH   2   3
ATOM      3  C   UNL     1     -99.710 -26.739  81.865  1.00  0.00     0.000 C 
BRANCH   3   4
ATOM      4  C   UNL     1    -100.840 -27.751  82.117  1.00  0.00     0.000 C 
BRANCH   4   5
ATOM      5  C   UNL     1    -100.319 -29.151  82.482  1.00  0.00     0.000 C 
BRANCH   5   6
ATOM      6  C   UNL     1    -100.509 -29.490  83.972  1.00  0.00     0.000 C 
BRANCH   6   7
ATOM      7  C   UNL     1    -101.771 -28.892  84.630  1.00  0.00     0.000 C 
BRANCH   7   8
ATOM      8  C   UNL     1    -102.818 -29.920  85.090  1.00  0.00     0.000 C 
BRANCH   8   9
ATOM      9  C   UNL     1    -104.216 -29.646  84.517  1.00  0.00     0.000 C 
BRANCH   9  10
ATOM     10  C   UNL     1    -104.132 -28.793  83.245  1.00  0.00     0.000 C 
BRANCH  10  11
ATOM     11  C   UNL     1    -104.040 -29.680  81.994  1.00  0.00     0.000 C 
BRANCH  11  12
ATOM     12  C   UNL     1    -104.674 -31.065  82.203  1.00  0.00     0.000 C 
BRANCH  12  13
ATOM     13  C   UNL     1    -103.640 -32.203  82.139  1.00  0.00     0.006 C 
BRANCH  13  14
ATOM     14  C   UNL     1    -102.618 -31.997  81.013  1.00  0.00     0.053 C 
BRANCH  14  15
ATOM     15  C   UNL     1    -102.786 -33.002  79.914  1.00  0.00     0.041 C 
ATOM     16  O   UNL     1    -101.831 -33.246  79.130  1.00  0.00    -0.550 OA
ATOM     17  O   UNL     1    -103.985 -33.690  79.776  1.00  0.00    -0.550 OA
ENDBRANCH  14  15
ENDBRANCH  13  14
ENDBRANCH  12  13
ENDBRANCH  11  12
ENDBRANCH  10  11
ENDBRANCH   9  10
ENDBRANCH   8   9
ENDBRANCH   7   8
ENDBRANCH   6   7
ENDBRANCH   5   6
ENDBRANCH   4   5
ENDBRANCH   3   4
ENDBRANCH   2   3
ENDBRANCH   1   2
BRANCH   1  18
ATOM     18  C   UNL     1     -98.731 -26.321  84.752  1.00  0.00     0.000 C 
BRANCH  18  19
ATOM     19  C   UNL     1     -97.295 -26.876  84.896  1.00  0.00     0.000 C 
BRANCH  19  20
ATOM     20  C   UNL     1     -97.031 -28.189  84.131  1.00  0.00     0.000 C 
BRANCH  20  21
ATOM     21  C   UNL     1     -96.413 -28.023  82.727  1.00  0.00     0.000 C 
BRANCH  21  22
ATOM     22  C   UNL     1     -95.933 -26.599  82.382  1.00  0.00     0.000 C 
BRANCH  22  23
ATOM     23  C   UNL     1     -95.404 -26.417  80.948  1.00  0.00     0.000 C 
BRANCH  23  24
ATOM     24  C   UNL     1     -96.477 -26.685  79.879  1.00  0.00    -0.000 C 
BRANCH  24  25
ATOM     25  C   UNL     1     -96.017 -27.706  78.824  1.00  0.00    -0.000 C 
BRANCH  25  26
ATOM     26  C   UNL     1     -96.461 -29.139  79.155  1.00  0.00    -0.000 C 
BRANCH  26  27
ATOM     27  C   UNL     1     -97.922 -29.164  79.629  1.00  0.00    -0.000 C 
BRANCH  27  28
ATOM     28  C   UNL     1     -98.575 -30.547  79.474  1.00  0.00    -0.000 C 
BRANCH  28  29
ATOM     29  C   UNL     1     -99.851 -30.505  78.615  1.00  0.00    -0.000 C 
BRANCH  29  30
ATOM     30  C   UNL     1    -100.502 -29.112  78.597  1.00  0.00    -0.000 C 
BRANCH  30  31
ATOM     31  C   UNL     1    -102.027 -29.170  78.769  1.00  0.00    -0.003 C 
ATOM     32  C   UNL     1    -102.614 -27.773  78.944  1.00  0.00     0.004 C 
ENDBRANCH  30  31
ENDBRANCH  29  30
ENDBRANCH  28  29
ENDBRANCH  27  28
ENDBRANCH  26  27
ENDBRANCH  25  26
ENDBRANCH  24  25
ENDBRANCH  23  24
ENDBRANCH  22  23
ENDBRANCH  21  22
ENDBRANCH  20  21
ENDBRANCH  19  20
ENDBRANCH  18  19
ENDBRANCH   1  18
TORSDOF 28
ENDMDL
MODEL 7
REMARK VINA RESULT:    -2.045      1.626      2.229
REMARK INTER + INTRA:         -12.677
REMARK INTER:                  -6.143
REMARK INTRA:                  -6.534
REMARK UNBOUND:                -7.285
REMARK SMILES CCCCCCCCCCCCCCCCCCCCCCCCCCCCCC(=O)[O-]
REMARK SMILES IDX 16 1 17 2 18 3 19 4 20 5 21 6 22 7 23 8 24 9 25 10 26 11
REMARK SMILES IDX 27 12 28 13 29 14 30 15 31 16 32 17 15 18 14 19 13 20 12 21
REMARK SMILES IDX 11 22 10 23 9 24 8 25 7 26 6 27 5 28 4 29 3 30 2 31 1 32
REMARK H PARENT
REMARK Flexibility Score: inf
ROOT
ATOM      1  C   UNL     1     -97.398 -28.021  83.413  1.00  0.00     0.000 C 
ENDROOT
BRANCH   1   2
ATOM      2  C   UNL     1     -98.488 -27.534  84.387  1.00  0.00     0.000 C 
BRANCH   2   3
ATOM      3  C   UNL     1     -98.427 -26.034  84.747  1.00  0.00     0.000 C 
BRANCH   3   4
ATOM      4  C   UNL     1     -99.778 -25.297  84.726  1.00  0.00     0.000 C 
BRANCH   4   5
ATOM      5  C   UNL     1     -99.859 -24.230  83.622  1.00  0.00     0.000 C 
BRANCH   5   6
ATOM      6  C   UNL     1     -98.689 -24.311  82.624  1.00  0.00     0.000 C 
BRANCH   6   7
ATOM      7  C   UNL     1     -99.025 -24.953  81.261  1.00  0.00     0.000 C 
BRANCH   7   8
ATOM      8  C   UNL     1    -100.435 -25.560  81.155  1.00  0.00     0.000 C 
BRANCH   8   9
ATOM      9  C   UNL     1    -100.434 -27.092  81.257  1.00  0.00     0.000 C 
BRANCH   9  10
ATOM     10  C   UNL     1    -101.525 -27.580  82.218  1.00  0.00     0.000 C 
BRANCH  10  11
ATOM     11  C   UNL     1    -101.832 -29.068  81.990  1.00  0.00     0.000 C 
BRANCH  11  12
ATOM     12  C   UNL     1    -100.992 -29.990  82.888  1.00  0.00     0.000 C 
BRANCH  12  13
ATOM     13  C   UNL     1    -101.325 -29.822  84.381  1.00  0.00     0.006 C 
BRANCH  13  14
ATOM     14  C   UNL     1    -102.780 -30.194  84.697  1.00  0.00     0.053 C 
BRANCH  14  15
ATOM     15  C   UNL     1    -103.563 -29.017  85.194  1.00  0.00     0.041 C 
ATOM     16  O   UNL     1    -103.357 -28.564  86.351  1.00  0.00    -0.550 OA
ATOM     17  O   UNL     1    -104.495 -28.400  84.368  1.00  0.00    -0.550 OA
ENDBRANCH  14  15
ENDBRANCH  13  14
ENDBRANCH  12  13
ENDBRANCH  11  12
ENDBRANCH  10  11
ENDBRANCH   9  10
ENDBRANCH   8   9
ENDBRANCH   7   8
ENDBRANCH   6   7
ENDBRANCH   5   6
ENDBRANCH   4   5
ENDBRANCH   3   4
ENDBRANCH   2   3
ENDBRANCH   1   2
BRANCH   1  18
ATOM     18  C   UNL     1     -96.239 -27.031  83.189  1.00  0.00     0.000 C 
BRANCH  18  19
ATOM     19  C   UNL     1     -95.884 -26.809  81.700  1.00  0.00     0.000 C 
BRANCH  19  20
ATOM     20  C   UNL     1     -95.042 -25.547  81.419  1.00  0.00     0.000 C 
BRANCH  20  21
ATOM     21  C   UNL     1     -95.478 -24.721  80.191  1.00  0.00     0.000 C 
BRANCH  21  22
ATOM     22  C   UNL     1     -95.560 -25.504  78.866  1.00  0.00     0.000 C 
BRANCH  22  23
ATOM     23  C   UNL     1     -96.977 -25.656  78.283  1.00  0.00     0.000 C 
BRANCH  23  24
ATOM     24  C   UNL     1     -97.369 -27.125  78.047  1.00  0.00    -0.000 C 
BRANCH  24  25
ATOM     25  C   UNL     1     -96.259 -28.106  78.458  1.00  0.00    -0.000 C 
BRANCH  25  26
ATOM     26  C   UNL     1     -96.810 -29.458  78.936  1.00  0.00    -0.000 C 
BRANCH  26  27
ATOM     27  C   UNL     1     -97.961 -29.259  79.933  1.00  0.00    -0.000 C 
BRANCH  27  28
ATOM     28  C   UNL     1     -99.135 -30.220  79.689  1.00  0.00    -0.000 C 
BRANCH  28  29
ATOM     29  C   UNL     1     -99.714 -30.096  78.268  1.00  0.00    -0.000 C 
BRANCH  29  30
ATOM     30  C   UNL     1    -100.637 -28.876  78.113  1.00  0.00    -0.000 C 
BRANCH  30  31
ATOM     31  C   UNL     1    -102.125 -29.244  78.216  1.00  0.00    -0.003 C 
ATOM     32  C   UNL     1    -102.962 -28.037  78.629  1.00  0.00     0.004 C 
ENDBRANCH  30  31
ENDBRANCH  29  30
ENDBRANCH  28  29
ENDBRANCH  27  28
ENDBRANCH  26  27
ENDBRANCH  25  26
ENDBRANCH  24  25
ENDBRANCH  23  24
ENDBRANCH  22  23
ENDBRANCH  21  22
ENDBRANCH  20  21
ENDBRANCH  19  20
ENDBRANCH  18  19
ENDBRANCH   1  18
TORSDOF 28
ENDMDL
MODEL 8
REMARK VINA RESULT:    -2.028      2.685      6.984
REMARK INTER + INTRA:         -12.633
REMARK INTER:                  -6.253
REMARK INTRA:                  -6.380
REMARK UNBOUND:                -7.285
REMARK SMILES CCCCCCCCCCCCCCCCCCCCCCCCCCCCCC(=O)[O-]
REMARK SMILES IDX 16 1 17 2 18 3 19 4 20 5 21 6 22 7 23 8 24 9 25 10 26 11
REMARK SMILES IDX 27 12 28 13 29 14 30 15 31 16 32 17 15 18 14 19 13 20 12 21
REMARK SMILES IDX 11 22 10 23 9 24 8 25 7 26 6 27 5 28 4 29 3 30 2 31 1 32
REMARK H PARENT
REMARK Flexibility Score: inf
ROOT
ATOM      1  C   UNL     1    -100.655 -29.029  82.433  1.00  0.00     0.000 C 
ENDROOT
BRANCH   1   2
ATOM      2  C   UNL     1    -102.146 -28.922  82.807  1.00  0.00     0.000 C 
BRANCH   2   3
ATOM      3  C   UNL     1    -103.054 -30.019  82.211  1.00  0.00     0.000 C 
BRANCH   3   4
ATOM      4  C   UNL     1    -102.328 -31.292  81.742  1.00  0.00     0.000 C 
BRANCH   4   5
ATOM      5  C   UNL     1    -102.485 -31.549  80.234  1.00  0.00     0.000 C 
BRANCH   5   6
ATOM      6  C   UNL     1    -102.471 -30.254  79.401  1.00  0.00     0.000 C 
BRANCH   6   7
ATOM      7  C   UNL     1    -101.164 -29.982  78.625  1.00  0.00     0.000 C 
BRANCH   7   8
ATOM      8  C   UNL     1    -100.018 -30.968  78.910  1.00  0.00     0.000 C 
BRANCH   8   9
ATOM      9  C   UNL     1     -98.777 -30.286  79.504  1.00  0.00     0.000 C 
BRANCH   9  10
ATOM     10  C   UNL     1     -97.649 -30.199  78.468  1.00  0.00     0.000 C 
BRANCH  10  11
ATOM     11  C   UNL     1     -97.363 -28.737  78.090  1.00  0.00     0.000 C 
BRANCH  11  12
ATOM     12  C   UNL     1     -97.211 -27.827  79.319  1.00  0.00     0.000 C 
BRANCH  12  13
ATOM     13  C   UNL     1     -97.682 -26.387  79.049  1.00  0.00     0.006 C 
BRANCH  13  14
ATOM     14  C   UNL     1     -96.655 -25.344  79.511  1.00  0.00     0.053 C 
BRANCH  14  15
ATOM     15  C   UNL     1     -95.251 -25.857  79.404  1.00  0.00     0.041 C 
ATOM     16  O   UNL     1     -94.749 -26.093  78.274  1.00  0.00    -0.550 OA
ATOM     17  O   UNL     1     -94.487 -26.043  80.550  1.00  0.00    -0.550 OA
ENDBRANCH  14  15
ENDBRANCH  13  14
ENDBRANCH  12  13
ENDBRANCH  11  12
ENDBRANCH  10  11
ENDBRANCH   9  10
ENDBRANCH   8   9
ENDBRANCH   7   8
ENDBRANCH   6   7
ENDBRANCH   5   6
ENDBRANCH   4   5
ENDBRANCH   3   4
ENDBRANCH   2   3
ENDBRANCH   1   2
BRANCH   1  18
ATOM     18  C   UNL     1    -100.085 -27.811  81.680  1.00  0.00     0.000 C 
BRANCH  18  19
ATOM     19  C   UNL     1    -101.118 -27.089  80.784  1.00  0.00     0.000 C 
BRANCH  19  20
ATOM     20  C   UNL     1    -100.877 -25.575  80.612  1.00  0.00     0.000 C 
BRANCH  20  21
ATOM     21  C   UNL     1    -101.686 -24.665  81.559  1.00  0.00     0.000 C 
BRANCH  21  22
ATOM     22  C   UNL     1    -102.871 -25.345  82.272  1.00  0.00     0.000 C 
BRANCH  22  23
ATOM     23  C   UNL     1    -102.830 -25.286  83.810  1.00  0.00     0.000 C 
BRANCH  23  24
ATOM     24  C   UNL     1    -101.433 -24.940  84.355  1.00  0.00    -0.000 C 
BRANCH  24  25
ATOM     25  C   UNL     1    -100.792 -26.111  85.119  1.00  0.00    -0.000 C 
BRANCH  25  26
ATOM     26  C   UNL     1     -99.270 -26.185  84.919  1.00  0.00    -0.000 C 
BRANCH  26  27
ATOM     27  C   UNL     1     -98.796 -25.120  83.919  1.00  0.00    -0.000 C 
BRANCH  27  28
ATOM     28  C   UNL     1     -97.915 -25.702  82.802  1.00  0.00    -0.000 C 
BRANCH  28  29
ATOM     29  C   UNL     1     -96.636 -26.364  83.344  1.00  0.00    -0.000 C 
BRANCH  29  30
ATOM     30  C   UNL     1     -96.591 -27.875  83.063  1.00  0.00    -0.000 C 
BRANCH  30  31
ATOM     31  C   UNL     1     -96.526 -28.714  84.347  1.00  0.00    -0.003 C 
ATOM     32  C   UNL     1     -96.116 -27.859  85.542  1.00  0.00     0.004 C 
ENDBRANCH  30  31
ENDBRANCH  29  30
ENDBRANCH  28  29
ENDBRANCH  27  28
ENDBRANCH  26  27
ENDBRANCH  25  26
ENDBRANCH  24  25
ENDBRANCH  23  24
ENDBRANCH  22  23
ENDBRANCH  21  22
ENDBRANCH  20  21
ENDBRANCH  19  20
ENDBRANCH  18  19
ENDBRANCH   1  18
TORSDOF 28
ENDMDL
MODEL 9
REMARK VINA RESULT:    -2.019      2.974      5.999
REMARK INTER + INTRA:         -12.609
REMARK INTER:                  -6.757
REMARK INTRA:                  -5.852
REMARK UNBOUND:                -7.285
REMARK SMILES CCCCCCCCCCCCCCCCCCCCCCCCCCCCCC(=O)[O-]
REMARK SMILES IDX 16 1 17 2 18 3 19 4 20 5 21 6 22 7 23 8 24 9 25 10 26 11
REMARK SMILES IDX 27 12 28 13 29 14 30 15 31 16 32 17 15 18 14 19 13 20 12 21
REMARK SMILES IDX 11 22 10 23 9 24 8 25 7 26 6 27 5 28 4 29 3 30 2 31 1 32
REMARK H PARENT
REMARK Flexibility Score: inf
ROOT
ATOM      1  C   UNL     1     -98.257 -27.903  81.802  1.00  0.00     0.000 C 
ENDROOT
BRANCH   1   2
ATOM      2  C   UNL     1     -98.614 -26.530  81.204  1.00  0.00     0.000 C 
BRANCH   2   3
ATOM      3  C   UNL     1    -100.022 -26.431  80.577  1.00  0.00     0.000 C 
BRANCH   3   4
ATOM      4  C   UNL     1    -100.170 -27.075  79.188  1.00  0.00     0.000 C 
BRANCH   4   5
ATOM      5  C   UNL     1    -101.111 -28.291  79.190  1.00  0.00     0.000 C 
BRANCH   5   6
ATOM      6  C   UNL     1    -100.370 -29.621  78.960  1.00  0.00     0.000 C 
BRANCH   6   7
ATOM      7  C   UNL     1     -98.972 -29.495  78.317  1.00  0.00     0.000 C 
BRANCH   7   8
ATOM      8  C   UNL     1     -97.835 -30.192  79.084  1.00  0.00     0.000 C 
BRANCH   8   9
ATOM      9  C   UNL     1     -96.510 -29.419  79.022  1.00  0.00     0.000 C 
BRANCH   9  10
ATOM     10  C   UNL     1     -96.700 -28.054  78.349  1.00  0.00     0.000 C 
BRANCH  10  11
ATOM     11  C   UNL     1     -95.606 -27.069  78.786  1.00  0.00     0.000 C 
BRANCH  11  12
ATOM     12  C   UNL     1     -96.108 -25.618  78.853  1.00  0.00     0.000 C 
BRANCH  12  13
ATOM     13  C   UNL     1     -95.508 -24.838  80.036  1.00  0.00     0.006 C 
BRANCH  13  14
ATOM     14  C   UNL     1     -94.482 -25.670  80.818  1.00  0.00     0.053 C 
BRANCH  14  15
ATOM     15  C   UNL     1     -93.214 -24.909  81.063  1.00  0.00     0.041 C 
ATOM     16  O   UNL     1     -92.290 -24.928  80.207  1.00  0.00    -0.550 OA
ATOM     17  O   UNL     1     -93.067 -24.152  82.219  1.00  0.00    -0.550 OA
ENDBRANCH  14  15
ENDBRANCH  13  14
ENDBRANCH  12  13
ENDBRANCH  11  12
ENDBRANCH  10  11
ENDBRANCH   9  10
ENDBRANCH   8   9
ENDBRANCH   7   8
ENDBRANCH   6   7
ENDBRANCH   5   6
ENDBRANCH   4   5
ENDBRANCH   3   4
ENDBRANCH   2   3
ENDBRANCH   1   2
BRANCH   1  18
ATOM     18  C   UNL     1     -96.894 -27.966  82.518  1.00  0.00     0.000 C 
BRANCH  18  19
ATOM     19  C   UNL     1     -96.704 -26.877  83.599  1.00  0.00     0.000 C 
BRANCH  19  20
ATOM     20  C   UNL     1     -97.713 -26.941  84.764  1.00  0.00     0.000 C 
BRANCH  20  21
ATOM     21  C   UNL     1     -98.669 -25.736  84.879  1.00  0.00     0.000 C 
BRANCH  21  22
ATOM     22  C   UNL     1    -100.143 -26.088  85.163  1.00  0.00     0.000 C 
BRANCH  22  23
ATOM     23  C   UNL     1    -101.091 -25.952  83.958  1.00  0.00     0.000 C 
BRANCH  23  24
ATOM     24  C   UNL     1    -101.860 -27.251  83.655  1.00  0.00    -0.000 C 
BRANCH  24  25
ATOM     25  C   UNL     1    -101.102 -28.506  84.118  1.00  0.00    -0.000 C 
BRANCH  25  26
ATOM     26  C   UNL     1    -101.043 -29.595  83.035  1.00  0.00    -0.000 C 
BRANCH  26  27
ATOM     27  C   UNL     1    -102.356 -30.392  82.988  1.00  0.00    -0.000 C 
BRANCH  27  28
ATOM     28  C   UNL     1    -102.753 -30.800  81.561  1.00  0.00    -0.000 C 
BRANCH  28  29
ATOM     29  C   UNL     1    -104.089 -30.177  81.119  1.00  0.00    -0.000 C 
BRANCH  29  30
ATOM     30  C   UNL     1    -104.641 -30.818  79.835  1.00  0.00    -0.000 C 
BRANCH  30  31
ATOM     31  C   UNL     1    -103.538 -31.415  78.950  1.00  0.00    -0.003 C 
ATOM     32  C   UNL     1    -103.681 -32.930  78.842  1.00  0.00     0.004 C 
ENDBRANCH  30  31
ENDBRANCH  29  30
ENDBRANCH  28  29
ENDBRANCH  27  28
ENDBRANCH  26  27
ENDBRANCH  25  26
ENDBRANCH  24  25
ENDBRANCH  23  24
ENDBRANCH  22  23
ENDBRANCH  21  22
ENDBRANCH  20  21
ENDBRANCH  19  20
ENDBRANCH  18  19
ENDBRANCH   1  18
TORSDOF 28
ENDMDL
