MODEL 1
REMARK VINA RESULT:    -3.493      0.000      0.000
REMARK INTER + INTRA:          -5.668
REMARK INTER:                  -5.331
REMARK INTRA:                  -0.337
REMARK UNBOUND:                -0.337
REMARK SMILES CC1=CCC[C@@H](C)C(=O)C[C@H](C(C)C)C(=O)C1
REMARK SMILES IDX 8 1 9 2 6 3 7 4 5 5 4 6 3 7 2 8 1 9 10 11 11 12 15 13 16 14
REMARK SMILES IDX 17 15 12 17 13 18 14 19
REMARK H PARENT
REMARK Flexibility Score: 70.00
ROOT
ATOM      1  C   UNL     1      19.331  28.447  43.481  1.00  0.00     0.136 C 
ATOM      2  O   UNL     1      19.403  28.575  44.697  1.00  0.00    -0.299 OA
ENDROOT
BRANCH   1   3
ATOM      3  C   UNL     1      17.976  28.242  42.814  1.00  0.00     0.053 C 
ATOM      4  C   UNL     1      16.913  29.220  43.341  1.00  0.00     0.016 C 
BRANCH   3   5
ATOM      5  C   UNL     1      17.487  26.780  42.924  1.00  0.00     0.015 C 
BRANCH   5   6
ATOM      6  C   UNL     1      17.427  26.052  41.566  1.00  0.00     0.028 C 
BRANCH   6   7
ATOM      7  C   UNL     1      17.489  26.997  40.392  1.00  0.00    -0.028 C 
ATOM      8  C   UNL     1      18.519  27.108  39.514  1.00  0.00    -0.070 CG0
ATOM      9  C   UNL     1      18.327  28.041  38.342  1.00  0.00     0.039 C 
ATOM     10  G   UNL     1      19.865  26.406  39.670  1.00  0.00     0.000 G0
ENDBRANCH   6   7
ENDBRANCH   5   6
ENDBRANCH   3   5
ENDBRANCH   1   3
BRANCH   1  11
ATOM     11  C   UNL     1      20.597  28.535  42.663  1.00  0.00     0.087 C 
BRANCH  11  12
ATOM     12  C   UNL     1      20.971  27.186  41.984  1.00  0.00     0.066 C 
BRANCH  12  13
ATOM     13  C   UNL     1      20.894  27.221  40.461  1.00  0.00     0.140 C 
ATOM     14  O   UNL     1      21.602  28.017  39.860  1.00  0.00    -0.299 OA
BRANCH  13  15
ATOM     15  C   UNL     1      19.876  26.426  39.679  1.00  0.00     0.106 CG0
ATOM     16  G   UNL     1      18.527  27.123  39.515  1.00  0.00     0.000 G0
ENDBRANCH  13  15
ENDBRANCH  12  13
BRANCH  12  17
ATOM     17  C   UNL     1      22.337  26.597  42.469  1.00  0.00    -0.006 C 
ATOM     18  C   UNL     1      22.141  25.584  43.609  1.00  0.00     0.008 C 
ATOM     19  C   UNL     1      23.367  27.657  42.896  1.00  0.00     0.008 C 
ENDBRANCH  12  17
ENDBRANCH  11  12
ENDBRANCH   1  11
TORSDOF 1
ENDMDL
MODEL 2
REMARK VINA RESULT:    -3.162      1.652      3.993
REMARK INTER + INTRA:          -5.162
REMARK INTER:                  -4.810
REMARK INTRA:                  -0.352
REMARK UNBOUND:                -0.337
REMARK SMILES CC1=CCC[C@@H](C)C(=O)C[C@H](C(C)C)C(=O)C1
REMARK SMILES IDX 8 1 9 2 6 3 7 4 5 5 4 6 3 7 2 8 1 9 10 11 11 12 15 13 16 14
REMARK SMILES IDX 17 15 12 17 13 18 14 19
REMARK H PARENT
REMARK Flexibility Score: 70.00
ROOT
ATOM      1  C   UNL     1      19.914  26.807  42.949  1.00  0.00     0.136 C 
ATOM      2  O   UNL     1      20.086  27.634  43.835  1.00  0.00    -0.299 OA
ENDROOT
BRANCH   1   3
ATOM      3  C   UNL     1      21.054  25.884  42.534  1.00  0.00     0.053 C 
ATOM      4  C   UNL     1      22.093  25.701  43.653  1.00  0.00     0.016 C 
BRANCH   3   5
ATOM      5  C   UNL     1      21.729  26.343  41.221  1.00  0.00     0.015 C 
BRANCH   5   6
ATOM      6  C   UNL     1      21.199  25.610  39.973  1.00  0.00     0.028 C 
BRANCH   6   7
ATOM      7  C   UNL     1      20.896  26.544  38.829  1.00  0.00    -0.028 C 
ATOM      8  C   UNL     1      19.699  27.131  38.576  1.00  0.00    -0.070 CG0
ATOM      9  C   UNL     1      19.644  28.122  37.439  1.00  0.00     0.039 C 
ATOM     10  G   UNL     1      18.406  26.807  39.320  1.00  0.00     0.000 G0
ENDBRANCH   6   7
ENDBRANCH   5   6
ENDBRANCH   3   5
ENDBRANCH   1   3
BRANCH   1  11
ATOM     11  C   UNL     1      18.550  26.697  42.309  1.00  0.00     0.087 C 
BRANCH  11  12
ATOM     12  C   UNL     1      18.076  28.033  41.669  1.00  0.00     0.066 C 
BRANCH  12  13
ATOM     13  C   UNL     1      17.830  27.942  40.166  1.00  0.00     0.140 C 
ATOM     14  O   UNL     1      17.056  28.737  39.653  1.00  0.00    -0.299 OA
BRANCH  13  15
ATOM     15  C   UNL     1      18.383  26.823  39.317  1.00  0.00     0.106 CG0
ATOM     16  G   UNL     1      19.691  27.161  38.605  1.00  0.00     0.000 G0
ENDBRANCH  13  15
ENDBRANCH  12  13
BRANCH  12  17
ATOM     17  C   UNL     1      16.856  28.682  42.404  1.00  0.00    -0.006 C 
ATOM     18  C   UNL     1      17.311  29.582  43.564  1.00  0.00     0.008 C 
ATOM     19  C   UNL     1      15.815  27.670  42.916  1.00  0.00     0.008 C 
ENDBRANCH  12  17
ENDBRANCH  11  12
ENDBRANCH   1  11
TORSDOF 1
ENDMDL
MODEL 3
REMARK VINA RESULT:    -3.076      2.089      3.881
REMARK INTER + INTRA:          -5.031
REMARK INTER:                  -4.731
REMARK INTRA:                  -0.300
REMARK UNBOUND:                -0.337
REMARK SMILES CC1=CCC[C@@H](C)C(=O)C[C@H](C(C)C)C(=O)C1
REMARK SMILES IDX 8 1 9 2 6 3 7 4 5 5 4 6 3 7 2 8 1 9 10 11 11 12 15 13 16 14
REMARK SMILES IDX 17 15 12 17 13 18 14 19
REMARK H PARENT
REMARK Flexibility Score: 70.00
ROOT
ATOM      1  C   UNL     1      23.251  26.944  41.573  1.00  0.00     0.136 C 
ATOM      2  O   UNL     1      24.391  26.555  41.350  1.00  0.00    -0.299 OA
ENDROOT
BRANCH   1   3
ATOM      3  C   UNL     1      22.772  27.118  43.009  1.00  0.00     0.053 C 
ATOM      4  C   UNL     1      22.363  25.784  43.653  1.00  0.00     0.016 C 
BRANCH   3   5
ATOM      5  C   UNL     1      21.636  28.160  43.124  1.00  0.00     0.015 C 
BRANCH   5   6
ATOM      6  C   UNL     1      20.283  27.547  43.532  1.00  0.00     0.028 C 
BRANCH   6   7
ATOM      7  C   UNL     1      19.129  28.080  42.721  1.00  0.00    -0.028 C 
ATOM      8  C   UNL     1      18.528  27.448  41.680  1.00  0.00    -0.070 CG0
ATOM      9  C   UNL     1      17.315  28.113  41.077  1.00  0.00     0.039 C 
ATOM     10  G   UNL     1      19.036  26.154  41.048  1.00  0.00     0.000 G0
ENDBRANCH   6   7
ENDBRANCH   5   6
ENDBRANCH   3   5
ENDBRANCH   1   3
BRANCH   1  11
ATOM     11  C   UNL     1      22.354  27.279  40.405  1.00  0.00     0.087 C 
BRANCH  11  12
ATOM     12  C   UNL     1      21.470  26.078  39.961  1.00  0.00     0.066 C 
BRANCH  12  13
ATOM     13  C   UNL     1      19.982  26.408  39.874  1.00  0.00     0.140 C 
ATOM     14  O   UNL     1      19.575  27.004  38.887  1.00  0.00    -0.299 OA
BRANCH  13  15
ATOM     15  C   UNL     1      19.027  26.165  41.017  1.00  0.00     0.106 CG0
ATOM     16  G   UNL     1      18.509  27.438  41.683  1.00  0.00     0.000 G0
ENDBRANCH  13  15
ENDBRANCH  12  13
BRANCH  12  17
ATOM     17  C   UNL     1      21.973  25.379  38.655  1.00  0.00    -0.006 C 
ATOM     18  C   UNL     1      22.847  24.154  38.972  1.00  0.00     0.008 C 
ATOM     19  C   UNL     1      22.724  26.311  37.688  1.00  0.00     0.008 C 
ENDBRANCH  12  17
ENDBRANCH  11  12
ENDBRANCH   1  11
TORSDOF 1
ENDMDL
MODEL 4
REMARK VINA RESULT:    -3.007      1.989      4.933
REMARK INTER + INTRA:          -4.925
REMARK INTER:                  -4.669
REMARK INTRA:                  -0.257
REMARK UNBOUND:                -0.337
REMARK SMILES CC1=CCC[C@@H](C)C(=O)C[C@H](C(C)C)C(=O)C1
REMARK SMILES IDX 8 1 9 2 6 3 7 4 5 5 4 6 3 7 2 8 1 9 10 11 11 12 15 13 16 14
REMARK SMILES IDX 17 15 12 17 13 18 14 19
REMARK H PARENT
REMARK Flexibility Score: 70.00
ROOT
ATOM      1  C   UNL     1      18.953  27.585  39.890  1.00  0.00     0.136 C 
ATOM      2  O   UNL     1      18.114  27.501  39.003  1.00  0.00    -0.299 OA
ENDROOT
BRANCH   1   3
ATOM      3  C   UNL     1      20.330  26.960  39.700  1.00  0.00     0.053 C 
ATOM      4  C   UNL     1      20.754  26.921  38.222  1.00  0.00     0.016 C 
BRANCH   3   5
ATOM      5  C   UNL     1      20.429  25.557  40.341  1.00  0.00     0.015 C 
BRANCH   5   6
ATOM      6  C   UNL     1      21.497  25.466  41.449  1.00  0.00     0.028 C 
BRANCH   6   7
ATOM      7  C   UNL     1      22.095  26.805  41.798  1.00  0.00    -0.028 C 
ATOM      8  C   UNL     1      21.799  27.547  42.896  1.00  0.00    -0.070 CG0
ATOM      9  C   UNL     1      22.599  28.810  43.109  1.00  0.00     0.039 C 
ATOM     10  G   UNL     1      20.679  27.222  43.880  1.00  0.00     0.000 G0
ENDBRANCH   6   7
ENDBRANCH   5   6
ENDBRANCH   3   5
ENDBRANCH   1   3
BRANCH   1  11
ATOM     11  C   UNL     1      18.610  28.345  41.149  1.00  0.00     0.087 C 
BRANCH  11  12
ATOM     12  C   UNL     1      18.491  27.423  42.396  1.00  0.00     0.066 C 
BRANCH  12  13
ATOM     13  C   UNL     1      19.353  27.868  43.574  1.00  0.00     0.140 C 
ATOM     14  O   UNL     1      19.012  28.858  44.206  1.00  0.00    -0.299 OA
BRANCH  13  15
ATOM     15  C   UNL     1      20.683  27.230  43.896  1.00  0.00     0.106 CG0
ATOM     16  G   UNL     1      21.791  27.550  42.896  1.00  0.00     0.000 G0
ENDBRANCH  13  15
ENDBRANCH  12  13
BRANCH  12  17
ATOM     17  C   UNL     1      17.015  27.159  42.843  1.00  0.00    -0.006 C 
ATOM     18  C   UNL     1      16.434  25.911  42.158  1.00  0.00     0.008 C 
ATOM     19  C   UNL     1      16.066  28.351  42.628  1.00  0.00     0.008 C 
ENDBRANCH  12  17
ENDBRANCH  11  12
ENDBRANCH   1  11
TORSDOF 1
ENDMDL
MODEL 5
REMARK VINA RESULT:    -3.006      1.942      4.191
REMARK INTER + INTRA:          -4.925
REMARK INTER:                  -4.550
REMARK INTRA:                  -0.375
REMARK UNBOUND:                -0.337
REMARK SMILES CC1=CCC[C@@H](C)C(=O)C[C@H](C(C)C)C(=O)C1
REMARK SMILES IDX 8 1 9 2 6 3 7 4 5 5 4 6 3 7 2 8 1 9 10 11 11 12 15 13 16 14
REMARK SMILES IDX 17 15 12 17 13 18 14 19
REMARK H PARENT
REMARK Flexibility Score: 70.00
ROOT
ATOM      1  C   UNL     1      17.428  27.126  40.747  1.00  0.00     0.136 C 
ATOM      2  O   UNL     1      16.639  27.925  40.259  1.00  0.00    -0.299 OA
ENDROOT
BRANCH   1   3
ATOM      3  C   UNL     1      17.263  26.675  42.193  1.00  0.00     0.053 C 
ATOM      4  C   UNL     1      15.927  25.951  42.429  1.00  0.00     0.016 C 
BRANCH   3   5
ATOM      5  C   UNL     1      17.446  27.839  43.193  1.00  0.00     0.015 C 
BRANCH   5   6
ATOM      6  C   UNL     1      18.915  28.277  43.358  1.00  0.00     0.028 C 
BRANCH   6   7
ATOM      7  C   UNL     1      19.850  27.116  43.588  1.00  0.00    -0.028 C 
ATOM      8  C   UNL     1      21.000  26.873  42.908  1.00  0.00    -0.070 CG0
ATOM      9  C   UNL     1      21.845  25.713  43.375  1.00  0.00     0.039 C 
ATOM     10  G   UNL     1      21.453  27.652  41.675  1.00  0.00     0.000 G0
ENDBRANCH   6   7
ENDBRANCH   5   6
ENDBRANCH   3   5
ENDBRANCH   1   3
BRANCH   1  11
ATOM     11  C   UNL     1      18.536  26.574  39.880  1.00  0.00     0.087 C 
BRANCH  11  12
ATOM     12  C   UNL     1      19.711  27.576  39.695  1.00  0.00     0.066 C 
BRANCH  12  13
ATOM     13  C   UNL     1      21.011  27.128  40.356  1.00  0.00     0.140 C 
ATOM     14  O   UNL     1      21.642  26.215  39.842  1.00  0.00    -0.299 OA
BRANCH  13  15
ATOM     15  C   UNL     1      21.470  27.659  41.693  1.00  0.00     0.106 CG0
ATOM     16  G   UNL     1      20.978  26.851  42.891  1.00  0.00     0.000 G0
ENDBRANCH  13  15
ENDBRANCH  12  13
BRANCH  12  17
ATOM     17  C   UNL     1      19.948  27.997  38.206  1.00  0.00    -0.006 C 
ATOM     18  C   UNL     1      19.340  29.377  37.907  1.00  0.00     0.008 C 
ATOM     19  C   UNL     1      19.440  26.976  37.173  1.00  0.00     0.008 C 
ENDBRANCH  12  17
ENDBRANCH  11  12
ENDBRANCH   1  11
TORSDOF 1
ENDMDL
MODEL 6
REMARK VINA RESULT:    -2.899      2.201      4.686
REMARK INTER + INTRA:          -4.761
REMARK INTER:                  -5.436
REMARK INTRA:                   0.676
REMARK UNBOUND:                -0.337
REMARK SMILES CC1=CCC[C@@H](C)C(=O)C[C@H](C(C)C)C(=O)C1
REMARK SMILES IDX 8 1 9 2 6 3 7 4 5 5 4 6 3 7 2 8 1 9 10 11 11 12 15 13 16 14
REMARK SMILES IDX 17 15 12 17 13 18 14 19
REMARK H PARENT
REMARK Flexibility Score: 70.00
ROOT
ATOM      1  C   UNL     1      22.394  29.237  42.350  1.00  0.00     0.136 C 
ATOM      2  O   UNL     1      22.117  29.630  41.224  1.00  0.00    -0.299 OA
ENDROOT
BRANCH   1   3
ATOM      3  C   UNL     1      23.832  29.305  42.850  1.00  0.00     0.053 C 
ATOM      4  C   UNL     1      24.512  30.635  42.487  1.00  0.00     0.016 C 
BRANCH   3   5
ATOM      5  C   UNL     1      24.675  28.102  42.370  1.00  0.00     0.015 C 
BRANCH   5   6
ATOM      6  C   UNL     1      23.990  26.742  42.608  1.00  0.00     0.028 C 
BRANCH   6   7
ATOM      7  C   UNL     1      23.596  26.051  41.327  1.00  0.00    -0.028 C 
ATOM      8  C   UNL     1      22.328  25.770  40.932  1.00  0.00    -0.070 CG0
ATOM      9  C   UNL     1      22.152  25.172  39.557  1.00  0.00     0.039 C 
ATOM     10  G   UNL     1      21.091  25.959  41.805  1.00  0.00     0.000 G0
ENDBRANCH   6   7
ENDBRANCH   5   6
ENDBRANCH   3   5
ENDBRANCH   1   3
BRANCH   1  11
ATOM     11  C   UNL     1      21.283  28.723  43.236  1.00  0.00     0.087 C 
BRANCH  11  12
ATOM     12  C   UNL     1      20.011  28.323  42.436  1.00  0.00     0.066 C 
BRANCH  12  13
ATOM     13  C   UNL     1      20.230  27.163  41.469  1.00  0.00     0.140 C 
ATOM     14  O   UNL     1      19.594  27.146  40.425  1.00  0.00    -0.299 OA
BRANCH  13  15
ATOM     15  C   UNL     1      21.081  25.965  41.816  1.00  0.00     0.106 CG0
ATOM     16  G   UNL     1      22.316  25.795  40.934  1.00  0.00     0.000 G0
ENDBRANCH  13  15
ENDBRANCH  12  13
BRANCH  12  17
ATOM     17  C   UNL     1      18.754  28.080  43.337  1.00  0.00    -0.006 C 
ATOM     18  C   UNL     1      17.999  26.808  42.919  1.00  0.00     0.008 C 
ATOM     19  C   UNL     1      17.775  29.266  43.388  1.00  0.00     0.008 C 
ENDBRANCH  12  17
ENDBRANCH  11  12
ENDBRANCH   1  11
TORSDOF 1
ENDMDL
MODEL 7
REMARK VINA RESULT:    -2.855      2.121      4.514
REMARK INTER + INTRA:          -4.694
REMARK INTER:                  -4.368
REMARK INTRA:                  -0.326
REMARK UNBOUND:                -0.337
REMARK SMILES CC1=CCC[C@@H](C)C(=O)C[C@H](C(C)C)C(=O)C1
REMARK SMILES IDX 8 1 9 2 6 3 7 4 5 5 4 6 3 7 2 8 1 9 10 11 11 12 15 13 16 14
REMARK SMILES IDX 17 15 12 17 13 18 14 19
REMARK H PARENT
REMARK Flexibility Score: 70.00
ROOT
ATOM      1  C   UNL     1      19.871  29.056  39.938  1.00  0.00     0.136 C 
ATOM      2  O   UNL     1      18.881  29.643  39.523  1.00  0.00    -0.299 OA
ENDROOT
BRANCH   1   3
ATOM      3  C   UNL     1      20.846  28.414  38.958  1.00  0.00     0.053 C 
ATOM      4  C   UNL     1      21.126  29.313  37.743  1.00  0.00     0.016 C 
BRANCH   3   5
ATOM      5  C   UNL     1      20.385  27.008  38.512  1.00  0.00     0.015 C 
BRANCH   5   6
ATOM      6  C   UNL     1      21.354  25.885  38.932  1.00  0.00     0.028 C 
BRANCH   6   7
ATOM      7  C   UNL     1      22.666  26.410  39.459  1.00  0.00    -0.028 C 
ATOM      8  C   UNL     1      23.071  26.383  40.754  1.00  0.00    -0.070 CG0
ATOM      9  C   UNL     1      24.473  26.863  41.047  1.00  0.00     0.039 C 
ATOM     10  G   UNL     1      22.188  25.963  41.926  1.00  0.00     0.000 G0
ENDBRANCH   6   7
ENDBRANCH   5   6
ENDBRANCH   3   5
ENDBRANCH   1   3
BRANCH   1  11
ATOM     11  C   UNL     1      20.123  29.013  41.427  1.00  0.00     0.087 C 
BRANCH  11  12
ATOM     12  C   UNL     1      20.077  27.569  42.005  1.00  0.00     0.066 C 
BRANCH  12  13
ATOM     13  C   UNL     1      21.412  27.090  42.568  1.00  0.00     0.140 C 
ATOM     14  O   UNL     1      21.920  27.723  43.483  1.00  0.00    -0.299 OA
BRANCH  13  15
ATOM     15  C   UNL     1      22.201  25.964  41.945  1.00  0.00     0.106 CG0
ATOM     16  G   UNL     1      23.078  26.387  40.768  1.00  0.00     0.000 G0
ENDBRANCH  13  15
ENDBRANCH  12  13
BRANCH  12  17
ATOM     17  C   UNL     1      18.915  27.339  43.027  1.00  0.00    -0.006 C 
ATOM     18  C   UNL     1      17.709  26.654  42.364  1.00  0.00     0.008 C 
ATOM     19  C   UNL     1      18.449  28.614  43.752  1.00  0.00     0.008 C 
ENDBRANCH  12  17
ENDBRANCH  11  12
ENDBRANCH   1  11
TORSDOF 1
ENDMDL
MODEL 8
REMARK VINA RESULT:    -2.780      2.028      3.534
REMARK INTER + INTRA:          -4.579
REMARK INTER:                  -4.232
REMARK INTRA:                  -0.347
REMARK UNBOUND:                -0.337
REMARK SMILES CC1=CCC[C@@H](C)C(=O)C[C@H](C(C)C)C(=O)C1
REMARK SMILES IDX 8 1 9 2 6 3 7 4 5 5 4 6 3 7 2 8 1 9 10 11 11 12 15 13 16 14
REMARK SMILES IDX 17 15 12 17 13 18 14 19
REMARK H PARENT
REMARK Flexibility Score: 70.00
ROOT
ATOM      1  C   UNL     1      20.684  28.767  41.882  1.00  0.00     0.136 C 
ATOM      2  O   UNL     1      21.899  28.781  41.728  1.00  0.00    -0.299 OA
ENDROOT
BRANCH   1   3
ATOM      3  C   UNL     1      20.092  28.431  43.246  1.00  0.00     0.053 C 
ATOM      4  C   UNL     1      20.258  26.945  43.603  1.00  0.00     0.016 C 
BRANCH   3   5
ATOM      5  C   UNL     1      18.614  28.868  43.364  1.00  0.00     0.015 C 
BRANCH   5   6
ATOM      6  C   UNL     1      17.621  27.691  43.295  1.00  0.00     0.028 C 
BRANCH   6   7
ATOM      7  C   UNL     1      16.340  28.045  42.582  1.00  0.00    -0.028 C 
ATOM      8  C   UNL     1      15.997  27.664  41.325  1.00  0.00    -0.070 CG0
ATOM      9  C   UNL     1      14.616  28.037  40.845  1.00  0.00     0.039 C 
ATOM     10  G   UNL     1      16.933  26.945  40.356  1.00  0.00     0.000 G0
ENDBRANCH   6   7
ENDBRANCH   5   6
ENDBRANCH   3   5
ENDBRANCH   1   3
BRANCH   1  11
ATOM     11  C   UNL     1      19.797  29.123  40.713  1.00  0.00     0.087 C 
BRANCH  11  12
ATOM     12  C   UNL     1      19.356  27.878  39.891  1.00  0.00     0.066 C 
BRANCH  12  13
ATOM     13  C   UNL     1      17.859  27.833  39.597  1.00  0.00     0.140 C 
ATOM     14  O   UNL     1      17.396  28.646  38.809  1.00  0.00    -0.299 OA
BRANCH  13  15
ATOM     15  C   UNL     1      16.909  26.933  40.349  1.00  0.00     0.106 CG0
ATOM     16  G   UNL     1      16.000  27.662  41.334  1.00  0.00     0.000 G0
ENDBRANCH  13  15
ENDBRANCH  12  13
BRANCH  12  17
ATOM     17  C   UNL     1      20.196  27.657  38.589  1.00  0.00    -0.006 C 
ATOM     18  C   UNL     1      21.262  26.567  38.785  1.00  0.00     0.008 C 
ATOM     19  C   UNL     1      20.859  28.932  38.040  1.00  0.00     0.008 C 
ENDBRANCH  12  17
ENDBRANCH  11  12
ENDBRANCH   1  11
TORSDOF 1
ENDMDL
MODEL 9
REMARK VINA RESULT:    -2.701      2.566      4.481
REMARK INTER + INTRA:          -4.459
REMARK INTER:                  -4.279
REMARK INTRA:                  -0.179
REMARK UNBOUND:                -0.337
REMARK SMILES CC1=CCC[C@@H](C)C(=O)C[C@H](C(C)C)C(=O)C1
REMARK SMILES IDX 8 1 9 2 6 3 7 4 5 5 4 6 3 7 2 8 1 9 10 11 11 12 15 13 16 14
REMARK SMILES IDX 17 15 12 17 13 18 14 19
REMARK H PARENT
REMARK Flexibility Score: 70.00
ROOT
ATOM      1  C   UNL     1      23.966  27.243  42.348  1.00  0.00     0.136 C 
ATOM      2  O   UNL     1      24.969  26.555  42.207  1.00  0.00    -0.299 OA
ENDROOT
BRANCH   1   3
ATOM      3  C   UNL     1      23.989  28.716  41.958  1.00  0.00     0.053 C 
ATOM      4  C   UNL     1      23.507  29.629  43.097  1.00  0.00     0.016 C 
BRANCH   3   5
ATOM      5  C   UNL     1      23.199  28.988  40.658  1.00  0.00     0.015 C 
BRANCH   5   6
ATOM      6  C   UNL     1      23.719  28.188  39.448  1.00  0.00     0.028 C 
BRANCH   6   7
ATOM      7  C   UNL     1      22.611  27.700  38.548  1.00  0.00    -0.028 C 
ATOM      8  C   UNL     1      21.983  26.500  38.637  1.00  0.00    -0.070 CG0
ATOM      9  C   UNL     1      20.822  26.258  37.703  1.00  0.00     0.039 C 
ATOM     10  G   UNL     1      22.412  25.369  39.569  1.00  0.00     0.000 G0
ENDBRANCH   6   7
ENDBRANCH   5   6
ENDBRANCH   3   5
ENDBRANCH   1   3
BRANCH   1  11
ATOM     11  C   UNL     1      22.707  26.596  42.878  1.00  0.00     0.087 C 
BRANCH  11  12
ATOM     12  C   UNL     1      21.572  26.531  41.816  1.00  0.00     0.066 C 
BRANCH  12  13
ATOM     13  C   UNL     1      21.665  25.322  40.890  1.00  0.00     0.140 C 
ATOM     14  O   UNL     1      21.231  24.249  41.286  1.00  0.00    -0.299 OA
BRANCH  13  15
ATOM     15  C   UNL     1      22.403  25.360  39.573  1.00  0.00     0.106 CG0
ATOM     16  G   UNL     1      21.971  26.491  38.644  1.00  0.00     0.000 G0
ENDBRANCH  13  15
ENDBRANCH  12  13
BRANCH  12  17
ATOM     17  C   UNL     1      20.137  26.670  42.424  1.00  0.00    -0.006 C 
ATOM     18  C   UNL     1      19.102  27.036  41.347  1.00  0.00     0.008 C 
ATOM     19  C   UNL     1      20.039  27.668  43.592  1.00  0.00     0.008 C 
ENDBRANCH  12  17
ENDBRANCH  11  12
ENDBRANCH   1  11
TORSDOF 1
ENDMDL
