MODEL 1
REMARK VINA RESULT:    -3.494      0.000      0.000
REMARK INTER + INTRA:          -4.226
REMARK INTER:                  -4.107
REMARK INTRA:                  -0.119
REMARK UNBOUND:                -0.119
REMARK SMILES O=C([O-])CCC(=O)[O-]
REMARK SMILES IDX 4 1 2 2 1 3 3 4 5 5 6 6 7 7 8 8
REMARK H PARENT
REMARK Flexibility Score: inf
ROOT
ATOM      1  C   UNL     1      33.641  20.199  13.551  1.00  0.00     0.059 C 
ENDROOT
BRANCH   1   2
ATOM      2  C   UNL     1      33.626  21.354  14.502  1.00  0.00     0.042 C 
ATOM      3  O   UNL     1      32.724  22.229  14.422  1.00  0.00    -0.550 OA
ATOM      4  O   UNL     1      34.580  21.438  15.508  1.00  0.00    -0.550 OA
ENDBRANCH   1   2
BRANCH   1   5
ATOM      5  C   UNL     1      32.340  19.401  13.658  1.00  0.00     0.059 C 
BRANCH   5   6
ATOM      6  C   UNL     1      31.543  19.529  12.399  1.00  0.00     0.042 C 
ATOM      7  O   UNL     1      31.696  18.698  11.465  1.00  0.00    -0.550 OA
ATOM      8  O   UNL     1      30.665  20.593  12.237  1.00  0.00    -0.550 OA
ENDBRANCH   5   6
ENDBRANCH   1   5
TORSDOF 3
ENDMDL
MODEL 2
REMARK VINA RESULT:    -3.494      0.086      3.924
REMARK INTER + INTRA:          -4.225
REMARK INTER:                  -4.105
REMARK INTRA:                  -0.121
REMARK UNBOUND:                -0.119
REMARK SMILES O=C([O-])CCC(=O)[O-]
REMARK SMILES IDX 4 1 2 2 1 3 3 4 5 5 6 6 7 7 8 8
REMARK H PARENT
REMARK Flexibility Score: inf
ROOT
ATOM      1  C   UNL     1      32.320  19.475  13.677  1.00  0.00     0.059 C 
ENDROOT
BRANCH   1   2
ATOM      2  C   UNL     1      31.530  19.636  12.417  1.00  0.00     0.042 C 
ATOM      3  O   UNL     1      30.747  20.613  12.280  1.00  0.00    -0.550 OA
ATOM      4  O   UNL     1      31.694  18.734  11.373  1.00  0.00    -0.550 OA
ENDBRANCH   1   2
BRANCH   1   5
ATOM      5  C   UNL     1      33.635  20.252  13.586  1.00  0.00     0.059 C 
BRANCH   5   6
ATOM      6  C   UNL     1      33.637  21.391  14.557  1.00  0.00     0.042 C 
ATOM      7  O   UNL     1      32.767  22.296  14.473  1.00  0.00    -0.550 OA
ATOM      8  O   UNL     1      34.630  21.477  15.525  1.00  0.00    -0.550 OA
ENDBRANCH   5   6
ENDBRANCH   1   5
TORSDOF 3
ENDMDL
MODEL 3
REMARK VINA RESULT:    -3.291      2.039      2.815
REMARK INTER + INTRA:          -3.987
REMARK INTER:                  -3.855
REMARK INTRA:                  -0.132
REMARK UNBOUND:                -0.119
REMARK SMILES O=C([O-])CCC(=O)[O-]
REMARK SMILES IDX 4 1 2 2 1 3 3 4 5 5 6 6 7 7 8 8
REMARK H PARENT
REMARK Flexibility Score: inf
ROOT
ATOM      1  C   UNL     1      32.737  19.773  11.784  1.00  0.00     0.059 C 
ENDROOT
BRANCH   1   2
ATOM      2  C   UNL     1      32.183  19.708  13.171  1.00  0.00     0.042 C 
ATOM      3  O   UNL     1      32.274  18.646  13.841  1.00  0.00    -0.550 OA
ATOM      4  O   UNL     1      31.607  20.836  13.743  1.00  0.00    -0.550 OA
ENDBRANCH   1   2
BRANCH   1   5
ATOM      5  C   UNL     1      31.605  19.816  10.756  1.00  0.00     0.059 C 
BRANCH   5   6
ATOM      6  C   UNL     1      31.105  18.434  10.472  1.00  0.00     0.042 C 
ATOM      7  O   UNL     1      31.866  17.582   9.943  1.00  0.00    -0.550 OA
ATOM      8  O   UNL     1      29.784  18.104  10.746  1.00  0.00    -0.550 OA
ENDBRANCH   5   6
ENDBRANCH   1   5
TORSDOF 3
ENDMDL
MODEL 4
REMARK VINA RESULT:    -3.288      1.522      4.283
REMARK INTER + INTRA:          -3.984
REMARK INTER:                  -3.921
REMARK INTRA:                  -0.063
REMARK UNBOUND:                -0.119
REMARK SMILES O=C([O-])CCC(=O)[O-]
REMARK SMILES IDX 4 1 2 2 1 3 3 4 5 5 6 6 7 7 8 8
REMARK H PARENT
REMARK Flexibility Score: inf
ROOT
ATOM      1  C   UNL     1      32.312  19.493  11.497  1.00  0.00     0.059 C 
ENDROOT
BRANCH   1   2
ATOM      2  C   UNL     1      31.367  18.592  10.766  1.00  0.00     0.042 C 
ATOM      3  O   UNL     1      30.124  18.717  10.921  1.00  0.00    -0.550 OA
ATOM      4  O   UNL     1      31.859  17.646   9.875  1.00  0.00    -0.550 OA
ENDBRANCH   1   2
BRANCH   1   5
ATOM      5  C   UNL     1      32.137  19.338  13.009  1.00  0.00     0.059 C 
BRANCH   5   6
ATOM      6  C   UNL     1      32.248  20.667  13.688  1.00  0.00     0.042 C 
ATOM      7  O   UNL     1      31.333  21.523  13.557  1.00  0.00    -0.550 OA
ATOM      8  O   UNL     1      33.383  20.979  14.424  1.00  0.00    -0.550 OA
ENDBRANCH   5   6
ENDBRANCH   1   5
TORSDOF 3
ENDMDL
MODEL 5
REMARK VINA RESULT:    -3.184     14.131     15.113
REMARK INTER + INTRA:          -3.861
REMARK INTER:                  -3.739
REMARK INTRA:                  -0.122
REMARK UNBOUND:                -0.119
REMARK SMILES O=C([O-])CCC(=O)[O-]
REMARK SMILES IDX 4 1 2 2 1 3 3 4 5 5 6 6 7 7 8 8
REMARK H PARENT
REMARK Flexibility Score: inf
ROOT
ATOM      1  C   UNL     1      31.026   6.139  14.171  1.00  0.00     0.059 C 
ENDROOT
BRANCH   1   2
ATOM      2  C   UNL     1      31.563   4.807  14.589  1.00  0.00     0.042 C 
ATOM      3  O   UNL     1      31.763   4.559  15.807  1.00  0.00    -0.550 OA
ATOM      4  O   UNL     1      31.797   3.822  13.638  1.00  0.00    -0.550 OA
ENDBRANCH   1   2
BRANCH   1   5
ATOM      5  C   UNL     1      29.605   5.994  13.623  1.00  0.00     0.059 C 
BRANCH   5   6
ATOM      6  C   UNL     1      29.554   6.405  12.185  1.00  0.00     0.042 C 
ATOM      7  O   UNL     1      30.311   5.856  11.342  1.00  0.00    -0.550 OA
ATOM      8  O   UNL     1      28.705   7.429  11.785  1.00  0.00    -0.550 OA
ENDBRANCH   5   6
ENDBRANCH   1   5
TORSDOF 3
ENDMDL
MODEL 6
REMARK VINA RESULT:    -3.172     14.002     15.031
REMARK INTER + INTRA:          -3.847
REMARK INTER:                  -3.725
REMARK INTRA:                  -0.122
REMARK UNBOUND:                -0.119
REMARK SMILES O=C([O-])CCC(=O)[O-]
REMARK SMILES IDX 4 1 2 2 1 3 3 4 5 5 6 6 7 7 8 8
REMARK H PARENT
REMARK Flexibility Score: inf
ROOT
ATOM      1  C   UNL     1      30.912   6.132  14.090  1.00  0.00     0.059 C 
ENDROOT
BRANCH   1   2
ATOM      2  C   UNL     1      31.481   4.769  14.324  1.00  0.00     0.042 C 
ATOM      3  O   UNL     1      31.587   3.954  13.371  1.00  0.00    -0.550 OA
ATOM      4  O   UNL     1      31.939   4.415  15.587  1.00  0.00    -0.550 OA
ENDBRANCH   1   2
BRANCH   1   5
ATOM      5  C   UNL     1      29.448   6.034  13.656  1.00  0.00     0.059 C 
BRANCH   5   6
ATOM      6  C   UNL     1      29.263   6.638  12.299  1.00  0.00     0.042 C 
ATOM      7  O   UNL     1      29.944   6.224  11.324  1.00  0.00    -0.550 OA
ATOM      8  O   UNL     1      28.374   7.690  12.122  1.00  0.00    -0.550 OA
ENDBRANCH   5   6
ENDBRANCH   1   5
TORSDOF 3
ENDMDL
MODEL 7
REMARK VINA RESULT:    -3.141     13.954     15.287
REMARK INTER + INTRA:          -3.811
REMARK INTER:                  -3.687
REMARK INTRA:                  -0.123
REMARK UNBOUND:                -0.119
REMARK SMILES O=C([O-])CCC(=O)[O-]
REMARK SMILES IDX 4 1 2 2 1 3 3 4 5 5 6 6 7 7 8 8
REMARK H PARENT
REMARK Flexibility Score: inf
ROOT
ATOM      1  C   UNL     1      29.455   6.097  13.631  1.00  0.00     0.059 C 
ENDROOT
BRANCH   1   2
ATOM      2  C   UNL     1      29.254   6.644  12.253  1.00  0.00     0.042 C 
ATOM      3  O   UNL     1      29.766   6.064  11.260  1.00  0.00    -0.550 OA
ATOM      4  O   UNL     1      28.461   7.769  12.061  1.00  0.00    -0.550 OA
ENDBRANCH   1   2
BRANCH   1   5
ATOM      5  C   UNL     1      30.935   6.142  14.015  1.00  0.00     0.059 C 
BRANCH   5   6
ATOM      6  C   UNL     1      31.458   4.759  14.246  1.00  0.00     0.042 C 
ATOM      7  O   UNL     1      31.491   3.929  13.301  1.00  0.00    -0.550 OA
ATOM      8  O   UNL     1      31.862   4.374  15.517  1.00  0.00    -0.550 OA
ENDBRANCH   5   6
ENDBRANCH   1   5
TORSDOF 3
ENDMDL
MODEL 8
REMARK VINA RESULT:    -3.093     13.682     14.919
REMARK INTER + INTRA:          -3.754
REMARK INTER:                  -3.567
REMARK INTRA:                  -0.187
REMARK UNBOUND:                -0.119
REMARK SMILES O=C([O-])CCC(=O)[O-]
REMARK SMILES IDX 4 1 2 2 1 3 3 4 5 5 6 6 7 7 8 8
REMARK H PARENT
REMARK Flexibility Score: inf
ROOT
ATOM      1  C   UNL     1      27.778   7.462  12.975  1.00  0.00     0.059 C 
ENDROOT
BRANCH   1   2
ATOM      2  C   UNL     1      27.963   7.375  11.494  1.00  0.00     0.042 C 
ATOM      3  O   UNL     1      28.884   8.023  10.931  1.00  0.00    -0.550 OA
ATOM      4  O   UNL     1      27.148   6.540  10.739  1.00  0.00    -0.550 OA
ENDBRANCH   1   2
BRANCH   1   5
ATOM      5  C   UNL     1      27.963   6.086  13.619  1.00  0.00     0.059 C 
BRANCH   5   6
ATOM      6  C   UNL     1      29.378   5.624  13.467  1.00  0.00     0.042 C 
ATOM      7  O   UNL     1      30.317   6.274  13.998  1.00  0.00    -0.550 OA
ATOM      8  O   UNL     1      29.664   4.503  12.699  1.00  0.00    -0.550 OA
ENDBRANCH   5   6
ENDBRANCH   1   5
TORSDOF 3
ENDMDL
MODEL 9
REMARK VINA RESULT:    -3.043      1.872      2.549
REMARK INTER + INTRA:          -3.696
REMARK INTER:                  -3.539
REMARK INTRA:                  -0.157
REMARK UNBOUND:                -0.119
REMARK SMILES O=C([O-])CCC(=O)[O-]
REMARK SMILES IDX 4 1 2 2 1 3 3 4 5 5 6 6 7 7 8 8
REMARK H PARENT
REMARK Flexibility Score: inf
ROOT
ATOM      1  C   UNL     1      31.697  20.891  13.182  1.00  0.00     0.059 C 
ENDROOT
BRANCH   1   2
ATOM      2  C   UNL     1      32.640  19.779  13.516  1.00  0.00     0.042 C 
ATOM      3  O   UNL     1      32.197  18.664  13.896  1.00  0.00    -0.550 OA
ATOM      4  O   UNL     1      34.009  19.959  13.361  1.00  0.00    -0.550 OA
ENDBRANCH   1   2
BRANCH   1   5
ATOM      5  C   UNL     1      31.698  21.159  11.676  1.00  0.00     0.059 C 
BRANCH   5   6
ATOM      6  C   UNL     1      31.017  20.044  10.947  1.00  0.00     0.042 C 
ATOM      7  O   UNL     1      29.780  19.856  11.089  1.00  0.00    -0.550 OA
ATOM      8  O   UNL     1      31.756  19.182  10.147  1.00  0.00    -0.550 OA
ENDBRANCH   5   6
ENDBRANCH   1   5
TORSDOF 3
ENDMDL
