MODEL 1
REMARK VINA RESULT:    -4.636      0.000      0.000
REMARK INTER + INTRA:         -17.374
REMARK INTER:                 -11.683
REMARK INTRA:                  -5.690
REMARK UNBOUND:                -5.690
REMARK SMILES CCCCCCCCCCCCCCCCCCCCCCCCCCCC(=O)[O-]
REMARK SMILES IDX 15 1 16 2 17 3 18 4 19 5 20 6 21 7 22 8 23 9 24 10 25 11
REMARK SMILES IDX 26 12 27 13 28 14 29 15 30 16 14 17 13 18 12 19 11 20 10 21
REMARK SMILES IDX 9 22 8 23 7 24 6 25 5 26 4 27 3 28 2 29 1 30
REMARK H PARENT
REMARK Flexibility Score: inf
ROOT
ATOM      1  C   UNL     1     -25.321  62.111  30.651  1.00  0.00     0.000 C 
ENDROOT
BRANCH   1   2
ATOM      2  C   UNL     1     -23.928  62.757  30.772  1.00  0.00     0.000 C 
BRANCH   2   3
ATOM      3  C   UNL     1     -22.875  61.798  31.354  1.00  0.00     0.000 C 
BRANCH   3   4
ATOM      4  C   UNL     1     -21.446  62.348  31.224  1.00  0.00     0.000 C 
BRANCH   4   5
ATOM      5  C   UNL     1     -20.397  61.228  31.100  1.00  0.00     0.000 C 
BRANCH   5   6
ATOM      6  C   UNL     1     -20.278  60.676  29.669  1.00  0.00     0.000 C 
BRANCH   6   7
ATOM      7  C   UNL     1     -20.356  61.739  28.554  1.00  0.00     0.000 C 
BRANCH   7   8
ATOM      8  C   UNL     1     -21.639  61.700  27.702  1.00  0.00     0.000 C 
BRANCH   8   9
ATOM      9  C   UNL     1     -22.212  60.285  27.544  1.00  0.00     0.000 C 
BRANCH   9  10
ATOM     10  C   UNL     1     -23.659  60.217  28.054  1.00  0.00     0.000 C 
BRANCH  10  11
ATOM     11  C   UNL     1     -23.937  58.957  28.888  1.00  0.00     0.000 C 
BRANCH  11  12
ATOM     12  C   UNL     1     -22.662  58.165  29.210  1.00  0.00     0.006 C 
BRANCH  12  13
ATOM     13  C   UNL     1     -22.888  56.663  29.013  1.00  0.00     0.053 C 
BRANCH  13  14
ATOM     14  C   UNL     1     -22.665  56.284  27.582  1.00  0.00     0.041 C 
ATOM     15  O   UNL     1     -21.738  56.822  26.920  1.00  0.00    -0.550 OA
ATOM     16  O   UNL     1     -23.511  55.372  26.965  1.00  0.00    -0.550 OA
ENDBRANCH  13  14
ENDBRANCH  12  13
ENDBRANCH  11  12
ENDBRANCH  10  11
ENDBRANCH   9  10
ENDBRANCH   8   9
ENDBRANCH   7   8
ENDBRANCH   6   7
ENDBRANCH   5   6
ENDBRANCH   4   5
ENDBRANCH   3   4
ENDBRANCH   2   3
ENDBRANCH   1   2
BRANCH   1  17
ATOM     17  C   UNL     1     -25.629  61.015  31.695  1.00  0.00     0.000 C 
BRANCH  17  18
ATOM     18  C   UNL     1     -26.368  61.497  32.957  1.00  0.00     0.000 C 
BRANCH  18  19
ATOM     19  C   UNL     1     -26.183  60.549  34.155  1.00  0.00     0.000 C 
BRANCH  19  20
ATOM     20  C   UNL     1     -25.148  61.068  35.167  1.00  0.00     0.000 C 
BRANCH  20  21
ATOM     21  C   UNL     1     -23.690  60.654  34.883  1.00  0.00     0.000 C 
BRANCH  21  22
ATOM     22  C   UNL     1     -22.650  61.388  35.756  1.00  0.00    -0.000 C 
BRANCH  22  23
ATOM     23  C   UNL     1     -21.642  62.194  34.916  1.00  0.00    -0.000 C 
BRANCH  23  24
ATOM     24  C   UNL     1     -20.184  61.894  35.296  1.00  0.00    -0.000 C 
BRANCH  24  25
ATOM     25  C   UNL     1     -19.923  60.390  35.492  1.00  0.00    -0.000 C 
BRANCH  25  26
ATOM     26  C   UNL     1     -19.823  59.621  34.162  1.00  0.00    -0.000 C 
BRANCH  26  27
ATOM     27  C   UNL     1     -20.649  58.322  34.095  1.00  0.00    -0.000 C 
BRANCH  27  28
ATOM     28  C   UNL     1     -21.670  58.317  32.945  1.00  0.00    -0.000 C 
BRANCH  28  29
ATOM     29  C   UNL     1     -22.876  57.409  33.232  1.00  0.00    -0.003 C 
ATOM     30  C   UNL     1     -24.146  57.867  32.515  1.00  0.00     0.004 C 
ENDBRANCH  28  29
ENDBRANCH  27  28
ENDBRANCH  26  27
ENDBRANCH  25  26
ENDBRANCH  24  25
ENDBRANCH  23  24
ENDBRANCH  22  23
ENDBRANCH  21  22
ENDBRANCH  20  21
ENDBRANCH  19  20
ENDBRANCH  18  19
ENDBRANCH  17  18
ENDBRANCH   1  17
TORSDOF 26
ENDMDL
MODEL 2
REMARK VINA RESULT:    -4.606      1.940      6.136
REMARK INTER + INTRA:         -17.297
REMARK INTER:                 -11.711
REMARK INTRA:                  -5.586
REMARK UNBOUND:                -5.690
REMARK SMILES CCCCCCCCCCCCCCCCCCCCCCCCCCCC(=O)[O-]
REMARK SMILES IDX 15 1 16 2 17 3 18 4 19 5 20 6 21 7 22 8 23 9 24 10 25 11
REMARK SMILES IDX 26 12 27 13 28 14 29 15 30 16 14 17 13 18 12 19 11 20 10 21
REMARK SMILES IDX 9 22 8 23 7 24 6 25 5 26 4 27 3 28 2 29 1 30
REMARK H PARENT
REMARK Flexibility Score: inf
ROOT
ATOM      1  C   UNL     1     -25.759  61.072  30.864  1.00  0.00     0.000 C 
ENDROOT
BRANCH   1   2
ATOM      2  C   UNL     1     -26.952  61.051  31.837  1.00  0.00     0.000 C 
BRANCH   2   3
ATOM      3  C   UNL     1     -26.670  60.235  33.111  1.00  0.00     0.000 C 
BRANCH   3   4
ATOM      4  C   UNL     1     -27.007  61.011  34.392  1.00  0.00     0.000 C 
BRANCH   4   5
ATOM      5  C   UNL     1     -25.767  61.260  35.270  1.00  0.00     0.000 C 
BRANCH   5   6
ATOM      6  C   UNL     1     -24.471  60.723  34.639  1.00  0.00     0.000 C 
BRANCH   6   7
ATOM      7  C   UNL     1     -23.292  60.555  35.620  1.00  0.00     0.000 C 
BRANCH   7   8
ATOM      8  C   UNL     1     -22.461  61.827  35.869  1.00  0.00     0.000 C 
BRANCH   8   9
ATOM      9  C   UNL     1     -21.447  62.110  34.752  1.00  0.00     0.000 C 
BRANCH   9  10
ATOM     10  C   UNL     1     -20.007  62.034  35.283  1.00  0.00     0.000 C 
BRANCH  10  11
ATOM     11  C   UNL     1     -19.480  60.593  35.367  1.00  0.00     0.000 C 
BRANCH  11  12
ATOM     12  C   UNL     1     -19.530  59.863  34.017  1.00  0.00     0.006 C 
BRANCH  12  13
ATOM     13  C   UNL     1     -20.560  58.731  34.047  1.00  0.00     0.053 C 
BRANCH  13  14
ATOM     14  C   UNL     1     -19.925  57.434  33.652  1.00  0.00     0.041 C 
ATOM     15  O   UNL     1     -18.675  57.295  33.716  1.00  0.00    -0.550 OA
ATOM     16  O   UNL     1     -20.709  56.395  33.167  1.00  0.00    -0.550 OA
ENDBRANCH  13  14
ENDBRANCH  12  13
ENDBRANCH  11  12
ENDBRANCH  10  11
ENDBRANCH   9  10
ENDBRANCH   8   9
ENDBRANCH   7   8
ENDBRANCH   6   7
ENDBRANCH   5   6
ENDBRANCH   4   5
ENDBRANCH   3   4
ENDBRANCH   2   3
ENDBRANCH   1   2
BRANCH   1  17
ATOM     17  C   UNL     1     -25.124  62.461  30.634  1.00  0.00     0.000 C 
BRANCH  17  18
ATOM     18  C   UNL     1     -23.597  62.527  30.823  1.00  0.00     0.000 C 
BRANCH  18  19
ATOM     19  C   UNL     1     -23.027  61.279  31.520  1.00  0.00     0.000 C 
BRANCH  19  20
ATOM     20  C   UNL     1     -21.516  61.108  31.289  1.00  0.00     0.000 C 
BRANCH  20  21
ATOM     21  C   UNL     1     -20.898  62.076  30.261  1.00  0.00     0.000 C 
BRANCH  21  22
ATOM     22  C   UNL     1     -20.496  61.403  28.931  1.00  0.00    -0.000 C 
BRANCH  22  23
ATOM     23  C   UNL     1     -21.511  61.673  27.805  1.00  0.00    -0.000 C 
BRANCH  23  24
ATOM     24  C   UNL     1     -22.237  60.399  27.347  1.00  0.00    -0.000 C 
BRANCH  24  25
ATOM     25  C   UNL     1     -23.608  60.226  28.022  1.00  0.00    -0.000 C 
BRANCH  25  26
ATOM     26  C   UNL     1     -23.863  58.785  28.500  1.00  0.00    -0.000 C 
BRANCH  26  27
ATOM     27  C   UNL     1     -22.608  58.019  28.960  1.00  0.00    -0.000 C 
BRANCH  27  28
ATOM     28  C   UNL     1     -22.605  57.720  30.469  1.00  0.00    -0.000 C 
BRANCH  28  29
ATOM     29  C   UNL     1     -23.978  57.950  31.118  1.00  0.00    -0.003 C 
ATOM     30  C   UNL     1     -23.997  57.596  32.605  1.00  0.00     0.004 C 
ENDBRANCH  28  29
ENDBRANCH  27  28
ENDBRANCH  26  27
ENDBRANCH  25  26
ENDBRANCH  24  25
ENDBRANCH  23  24
ENDBRANCH  22  23
ENDBRANCH  21  22
ENDBRANCH  20  21
ENDBRANCH  19  20
ENDBRANCH  18  19
ENDBRANCH  17  18
ENDBRANCH   1  17
TORSDOF 26
ENDMDL
MODEL 3
REMARK VINA RESULT:    -4.575      2.126      5.571
REMARK INTER + INTRA:         -17.220
REMARK INTER:                 -11.797
REMARK INTRA:                  -5.423
REMARK UNBOUND:                -5.690
REMARK SMILES CCCCCCCCCCCCCCCCCCCCCCCCCCCC(=O)[O-]
REMARK SMILES IDX 15 1 16 2 17 3 18 4 19 5 20 6 21 7 22 8 23 9 24 10 25 11
REMARK SMILES IDX 26 12 27 13 28 14 29 15 30 16 14 17 13 18 12 19 11 20 10 21
REMARK SMILES IDX 9 22 8 23 7 24 6 25 5 26 4 27 3 28 2 29 1 30
REMARK H PARENT
REMARK Flexibility Score: inf
ROOT
ATOM      1  C   UNL     1     -23.366  61.615  27.981  1.00  0.00     0.000 C 
ENDROOT
BRANCH   1   2
ATOM      2  C   UNL     1     -21.849  61.557  28.236  1.00  0.00     0.000 C 
BRANCH   2   3
ATOM      3  C   UNL     1     -21.499  61.039  29.642  1.00  0.00     0.000 C 
BRANCH   3   4
ATOM      4  C   UNL     1     -20.624  62.025  30.429  1.00  0.00     0.000 C 
BRANCH   4   5
ATOM      5  C   UNL     1     -21.293  62.487  31.737  1.00  0.00     0.000 C 
BRANCH   5   6
ATOM      6  C   UNL     1     -22.224  61.422  32.340  1.00  0.00     0.000 C 
BRANCH   6   7
ATOM      7  C   UNL     1     -22.207  61.340  33.880  1.00  0.00     0.000 C 
BRANCH   7   8
ATOM      8  C   UNL     1     -21.333  62.396  34.582  1.00  0.00     0.000 C 
BRANCH   8   9
ATOM      9  C   UNL     1     -20.306  61.782  35.545  1.00  0.00     0.000 C 
BRANCH   9  10
ATOM     10  C   UNL     1     -19.089  61.241  34.780  1.00  0.00     0.000 C 
BRANCH  10  11
ATOM     11  C   UNL     1     -18.677  59.833  35.237  1.00  0.00     0.000 C 
BRANCH  11  12
ATOM     12  C   UNL     1     -18.476  58.863  34.063  1.00  0.00     0.006 C 
BRANCH  12  13
ATOM     13  C   UNL     1     -19.224  59.351  32.819  1.00  0.00     0.053 C 
BRANCH  13  14
ATOM     14  C   UNL     1     -18.300  59.410  31.643  1.00  0.00     0.041 C 
ATOM     15  O   UNL     1     -18.140  58.397  30.912  1.00  0.00    -0.550 OA
ATOM     16  O   UNL     1     -17.579  60.568  31.382  1.00  0.00    -0.550 OA
ENDBRANCH  13  14
ENDBRANCH  12  13
ENDBRANCH  11  12
ENDBRANCH  10  11
ENDBRANCH   9  10
ENDBRANCH   8   9
ENDBRANCH   7   8
ENDBRANCH   6   7
ENDBRANCH   5   6
ENDBRANCH   4   5
ENDBRANCH   3   4
ENDBRANCH   2   3
ENDBRANCH   1   2
BRANCH   1  17
ATOM     17  C   UNL     1     -24.247  61.565  29.249  1.00  0.00     0.000 C 
BRANCH  17  18
ATOM     18  C   UNL     1     -24.746  62.929  29.759  1.00  0.00     0.000 C 
BRANCH  18  19
ATOM     19  C   UNL     1     -25.446  62.836  31.126  1.00  0.00     0.000 C 
BRANCH  19  20
ATOM     20  C   UNL     1     -25.882  61.402  31.473  1.00  0.00     0.000 C 
BRANCH  20  21
ATOM     21  C   UNL     1     -26.057  61.118  32.977  1.00  0.00     0.000 C 
BRANCH  21  22
ATOM     22  C   UNL     1     -25.628  59.696  33.399  1.00  0.00    -0.000 C 
BRANCH  22  23
ATOM     23  C   UNL     1     -25.120  58.859  32.210  1.00  0.00    -0.000 C 
BRANCH  23  24
ATOM     24  C   UNL     1     -23.910  57.987  32.577  1.00  0.00    -0.000 C 
BRANCH  24  25
ATOM     25  C   UNL     1     -22.919  57.832  31.410  1.00  0.00    -0.000 C 
BRANCH  25  26
ATOM     26  C   UNL     1     -23.574  58.050  30.034  1.00  0.00    -0.000 C 
BRANCH  26  27
ATOM     27  C   UNL     1     -23.085  57.102  28.922  1.00  0.00    -0.000 C 
BRANCH  27  28
ATOM     28  C   UNL     1     -22.048  57.752  27.991  1.00  0.00    -0.000 C 
BRANCH  28  29
ATOM     29  C   UNL     1     -22.668  58.255  26.678  1.00  0.00    -0.003 C 
ATOM     30  C   UNL     1     -22.634  57.206  25.567  1.00  0.00     0.004 C 
ENDBRANCH  28  29
ENDBRANCH  27  28
ENDBRANCH  26  27
ENDBRANCH  25  26
ENDBRANCH  24  25
ENDBRANCH  23  24
ENDBRANCH  22  23
ENDBRANCH  21  22
ENDBRANCH  20  21
ENDBRANCH  19  20
ENDBRANCH  18  19
ENDBRANCH  17  18
ENDBRANCH   1  17
TORSDOF 26
ENDMDL
MODEL 4
REMARK VINA RESULT:    -4.554      1.154      5.611
REMARK INTER + INTRA:         -17.167
REMARK INTER:                 -11.619
REMARK INTRA:                  -5.548
REMARK UNBOUND:                -5.690
REMARK SMILES CCCCCCCCCCCCCCCCCCCCCCCCCCCC(=O)[O-]
REMARK SMILES IDX 15 1 16 2 17 3 18 4 19 5 20 6 21 7 22 8 23 9 24 10 25 11
REMARK SMILES IDX 26 12 27 13 28 14 29 15 30 16 14 17 13 18 12 19 11 20 10 21
REMARK SMILES IDX 9 22 8 23 7 24 6 25 5 26 4 27 3 28 2 29 1 30
REMARK H PARENT
REMARK Flexibility Score: inf
ROOT
ATOM      1  C   UNL     1     -19.986  61.123  32.778  1.00  0.00     0.000 C 
ENDROOT
BRANCH   1   2
ATOM      2  C   UNL     1     -19.509  61.530  34.184  1.00  0.00     0.000 C 
BRANCH   2   3
ATOM      3  C   UNL     1     -20.543  62.381  34.942  1.00  0.00     0.000 C 
BRANCH   3   4
ATOM      4  C   UNL     1     -21.357  61.556  35.950  1.00  0.00     0.000 C 
BRANCH   4   5
ATOM      5  C   UNL     1     -22.858  61.531  35.609  1.00  0.00     0.000 C 
BRANCH   5   6
ATOM      6  C   UNL     1     -23.287  60.241  34.891  1.00  0.00     0.000 C 
BRANCH   6   7
ATOM      7  C   UNL     1     -22.255  59.096  34.939  1.00  0.00     0.000 C 
BRANCH   7   8
ATOM      8  C   UNL     1     -22.209  58.202  33.686  1.00  0.00     0.000 C 
BRANCH   8   9
ATOM      9  C   UNL     1     -23.557  58.124  32.955  1.00  0.00     0.000 C 
BRANCH   9  10
ATOM     10  C   UNL     1     -23.377  58.341  31.445  1.00  0.00     0.000 C 
BRANCH  10  11
ATOM     11  C   UNL     1     -21.917  58.189  30.992  1.00  0.00     0.000 C 
BRANCH  11  12
ATOM     12  C   UNL     1     -21.721  57.036  29.996  1.00  0.00     0.006 C 
BRANCH  12  13
ATOM     13  C   UNL     1     -22.983  56.822  29.155  1.00  0.00     0.053 C 
BRANCH  13  14
ATOM     14  C   UNL     1     -22.638  56.767  27.699  1.00  0.00     0.041 C 
ATOM     15  O   UNL     1     -23.468  57.158  26.836  1.00  0.00    -0.550 OA
ATOM     16  O   UNL     1     -21.420  56.238  27.293  1.00  0.00    -0.550 OA
ENDBRANCH  13  14
ENDBRANCH  12  13
ENDBRANCH  11  12
ENDBRANCH  10  11
ENDBRANCH   9  10
ENDBRANCH   8   9
ENDBRANCH   7   8
ENDBRANCH   6   7
ENDBRANCH   5   6
ENDBRANCH   4   5
ENDBRANCH   3   4
ENDBRANCH   2   3
ENDBRANCH   1   2
BRANCH   1  17
ATOM     17  C   UNL     1     -21.207  61.906  32.246  1.00  0.00     0.000 C 
BRANCH  17  18
ATOM     18  C   UNL     1     -21.104  62.373  30.783  1.00  0.00     0.000 C 
BRANCH  18  19
ATOM     19  C   UNL     1     -20.682  61.246  29.824  1.00  0.00     0.000 C 
BRANCH  19  20
ATOM     20  C   UNL     1     -20.798  61.651  28.345  1.00  0.00     0.000 C 
BRANCH  20  21
ATOM     21  C   UNL     1     -22.232  61.661  27.780  1.00  0.00     0.000 C 
BRANCH  21  22
ATOM     22  C   UNL     1     -23.096  60.470  28.246  1.00  0.00    -0.000 C 
BRANCH  22  23
ATOM     23  C   UNL     1     -24.338  60.919  29.037  1.00  0.00    -0.000 C 
BRANCH  23  24
ATOM     24  C   UNL     1     -24.368  62.437  29.277  1.00  0.00    -0.000 C 
BRANCH  24  25
ATOM     25  C   UNL     1     -24.866  62.801  30.687  1.00  0.00    -0.000 C 
BRANCH  25  26
ATOM     26  C   UNL     1     -25.031  61.573  31.601  1.00  0.00    -0.000 C 
BRANCH  26  27
ATOM     27  C   UNL     1     -26.486  61.230  31.974  1.00  0.00    -0.000 C 
BRANCH  27  28
ATOM     28  C   UNL     1     -26.588  60.148  33.063  1.00  0.00    -0.000 C 
BRANCH  28  29
ATOM     29  C   UNL     1     -27.395  60.615  34.284  1.00  0.00    -0.003 C 
ATOM     30  C   UNL     1     -26.634  61.619  35.148  1.00  0.00     0.004 C 
ENDBRANCH  28  29
ENDBRANCH  27  28
ENDBRANCH  26  27
ENDBRANCH  25  26
ENDBRANCH  24  25
ENDBRANCH  23  24
ENDBRANCH  22  23
ENDBRANCH  21  22
ENDBRANCH  20  21
ENDBRANCH  19  20
ENDBRANCH  18  19
ENDBRANCH  17  18
ENDBRANCH   1  17
TORSDOF 26
ENDMDL
MODEL 5
REMARK VINA RESULT:    -4.544      1.361      3.076
REMARK INTER + INTRA:         -17.140
REMARK INTER:                 -10.930
REMARK INTRA:                  -6.211
REMARK UNBOUND:                -5.690
REMARK SMILES CCCCCCCCCCCCCCCCCCCCCCCCCCCC(=O)[O-]
REMARK SMILES IDX 15 1 16 2 17 3 18 4 19 5 20 6 21 7 22 8 23 9 24 10 25 11
REMARK SMILES IDX 26 12 27 13 28 14 29 15 30 16 14 17 13 18 12 19 11 20 10 21
REMARK SMILES IDX 9 22 8 23 7 24 6 25 5 26 4 27 3 28 2 29 1 30
REMARK H PARENT
REMARK Flexibility Score: inf
ROOT
ATOM      1  C   UNL     1     -24.956  58.710  32.094  1.00  0.00     0.000 C 
ENDROOT
BRANCH   1   2
ATOM      2  C   UNL     1     -24.369  58.540  30.681  1.00  0.00     0.000 C 
BRANCH   2   3
ATOM      3  C   UNL     1     -25.136  59.343  29.616  1.00  0.00     0.000 C 
BRANCH   3   4
ATOM      4  C   UNL     1     -24.225  59.829  28.479  1.00  0.00     0.000 C 
BRANCH   4   5
ATOM      5  C   UNL     1     -23.997  61.351  28.522  1.00  0.00     0.000 C 
BRANCH   5   6
ATOM      6  C   UNL     1     -24.843  62.053  29.598  1.00  0.00     0.000 C 
BRANCH   6   7
ATOM      7  C   UNL     1     -24.033  62.764  30.701  1.00  0.00     0.000 C 
BRANCH   7   8
ATOM      8  C   UNL     1     -22.969  61.894  31.396  1.00  0.00     0.000 C 
BRANCH   8   9
ATOM      9  C   UNL     1     -21.600  62.581  31.491  1.00  0.00     0.000 C 
BRANCH   9  10
ATOM     10  C   UNL     1     -20.490  61.677  30.934  1.00  0.00     0.000 C 
BRANCH  10  11
ATOM     11  C   UNL     1     -20.573  61.504  29.409  1.00  0.00     0.000 C 
BRANCH  11  12
ATOM     12  C   UNL     1     -20.247  60.074  28.955  1.00  0.00     0.006 C 
BRANCH  12  13
ATOM     13  C   UNL     1     -20.821  59.047  29.935  1.00  0.00     0.053 C 
BRANCH  13  14
ATOM     14  C   UNL     1     -20.979  57.717  29.267  1.00  0.00     0.041 C 
ATOM     15  O   UNL     1     -21.636  57.618  28.198  1.00  0.00    -0.550 OA
ATOM     16  O   UNL     1     -20.441  56.577  29.852  1.00  0.00    -0.550 OA
ENDBRANCH  13  14
ENDBRANCH  12  13
ENDBRANCH  11  12
ENDBRANCH  10  11
ENDBRANCH   9  10
ENDBRANCH   8   9
ENDBRANCH   7   8
ENDBRANCH   6   7
ENDBRANCH   5   6
ENDBRANCH   4   5
ENDBRANCH   3   4
ENDBRANCH   2   3
ENDBRANCH   1   2
BRANCH   1  17
ATOM     17  C   UNL     1     -26.268  59.521  32.167  1.00  0.00     0.000 C 
BRANCH  17  18
ATOM     18  C   UNL     1     -26.202  60.808  33.010  1.00  0.00     0.000 C 
BRANCH  18  19
ATOM     19  C   UNL     1     -25.740  60.552  34.455  1.00  0.00     0.000 C 
BRANCH  19  20
ATOM     20  C   UNL     1     -24.312  61.058  34.720  1.00  0.00     0.000 C 
BRANCH  20  21
ATOM     21  C   UNL     1     -23.654  60.518  36.005  1.00  0.00     0.000 C 
BRANCH  21  22
ATOM     22  C   UNL     1     -22.233  61.065  36.258  1.00  0.00    -0.000 C 
BRANCH  22  23
ATOM     23  C   UNL     1     -21.730  61.949  35.102  1.00  0.00    -0.000 C 
BRANCH  23  24
ATOM     24  C   UNL     1     -20.244  62.313  35.241  1.00  0.00    -0.000 C 
BRANCH  24  25
ATOM     25  C   UNL     1     -19.333  61.405  34.398  1.00  0.00    -0.000 C 
BRANCH  25  26
ATOM     26  C   UNL     1     -18.814  60.184  35.180  1.00  0.00    -0.000 C 
BRANCH  26  27
ATOM     27  C   UNL     1     -19.402  58.829  34.739  1.00  0.00    -0.000 C 
BRANCH  27  28
ATOM     28  C   UNL     1     -20.194  58.917  33.423  1.00  0.00    -0.000 C 
BRANCH  28  29
ATOM     29  C   UNL     1     -21.639  58.415  33.570  1.00  0.00    -0.003 C 
ATOM     30  C   UNL     1     -21.842  57.551  34.814  1.00  0.00     0.004 C 
ENDBRANCH  28  29
ENDBRANCH  27  28
ENDBRANCH  26  27
ENDBRANCH  25  26
ENDBRANCH  24  25
ENDBRANCH  23  24
ENDBRANCH  22  23
ENDBRANCH  21  22
ENDBRANCH  20  21
ENDBRANCH  19  20
ENDBRANCH  18  19
ENDBRANCH  17  18
ENDBRANCH   1  17
TORSDOF 26
ENDMDL
MODEL 6
REMARK VINA RESULT:    -4.541      1.994      5.690
REMARK INTER + INTRA:         -17.134
REMARK INTER:                 -11.310
REMARK INTRA:                  -5.824
REMARK UNBOUND:                -5.690
REMARK SMILES CCCCCCCCCCCCCCCCCCCCCCCCCCCC(=O)[O-]
REMARK SMILES IDX 15 1 16 2 17 3 18 4 19 5 20 6 21 7 22 8 23 9 24 10 25 11
REMARK SMILES IDX 26 12 27 13 28 14 29 15 30 16 14 17 13 18 12 19 11 20 10 21
REMARK SMILES IDX 9 22 8 23 7 24 6 25 5 26 4 27 3 28 2 29 1 30
REMARK H PARENT
REMARK Flexibility Score: inf
ROOT
ATOM      1  C   UNL     1     -21.022  60.891  28.512  1.00  0.00     0.000 C 
ENDROOT
BRANCH   1   2
ATOM      2  C   UNL     1     -20.138  61.822  29.362  1.00  0.00     0.000 C 
BRANCH   2   3
ATOM      3  C   UNL     1     -20.386  61.664  30.873  1.00  0.00     0.000 C 
BRANCH   3   4
ATOM      4  C   UNL     1     -21.700  60.930  31.178  1.00  0.00     0.000 C 
BRANCH   4   5
ATOM      5  C   UNL     1     -22.443  61.537  32.382  1.00  0.00     0.000 C 
BRANCH   5   6
ATOM      6  C   UNL     1     -22.536  60.573  33.576  1.00  0.00     0.000 C 
BRANCH   6   7
ATOM      7  C   UNL     1     -22.372  61.234  34.960  1.00  0.00     0.000 C 
BRANCH   7   8
ATOM      8  C   UNL     1     -21.309  62.346  35.033  1.00  0.00     0.000 C 
BRANCH   8   9
ATOM      9  C   UNL     1     -19.956  61.849  35.561  1.00  0.00     0.000 C 
BRANCH   9  10
ATOM     10  C   UNL     1     -19.111  61.244  34.429  1.00  0.00     0.000 C 
BRANCH  10  11
ATOM     11  C   UNL     1     -18.962  59.719  34.548  1.00  0.00     0.000 C 
BRANCH  11  12
ATOM     12  C   UNL     1     -19.099  59.002  33.197  1.00  0.00     0.006 C 
BRANCH  12  13
ATOM     13  C   UNL     1     -18.052  59.510  32.202  1.00  0.00     0.053 C 
BRANCH  13  14
ATOM     14  C   UNL     1     -17.920  58.562  31.051  1.00  0.00     0.041 C 
ATOM     15  O   UNL     1     -18.804  58.527  30.155  1.00  0.00    -0.550 OA
ATOM     16  O   UNL     1     -16.847  57.683  30.994  1.00  0.00    -0.550 OA
ENDBRANCH  13  14
ENDBRANCH  12  13
ENDBRANCH  11  12
ENDBRANCH  10  11
ENDBRANCH   9  10
ENDBRANCH   8   9
ENDBRANCH   7   8
ENDBRANCH   6   7
ENDBRANCH   5   6
ENDBRANCH   4   5
ENDBRANCH   3   4
ENDBRANCH   2   3
ENDBRANCH   1   2
BRANCH   1  17
ATOM     17  C   UNL     1     -21.804  61.585  27.375  1.00  0.00     0.000 C 
BRANCH  17  18
ATOM     18  C   UNL     1     -23.252  61.980  27.717  1.00  0.00     0.000 C 
BRANCH  18  19
ATOM     19  C   UNL     1     -24.072  60.809  28.285  1.00  0.00     0.000 C 
BRANCH  19  20
ATOM     20  C   UNL     1     -25.138  61.265  29.295  1.00  0.00     0.000 C 
BRANCH  20  21
ATOM     21  C   UNL     1     -24.826  62.587  30.024  1.00  0.00     0.000 C 
BRANCH  21  22
ATOM     22  C   UNL     1     -25.674  62.817  31.293  1.00  0.00    -0.000 C 
BRANCH  22  23
ATOM     23  C   UNL     1     -26.469  61.564  31.703  1.00  0.00    -0.000 C 
BRANCH  23  24
ATOM     24  C   UNL     1     -26.173  61.122  33.144  1.00  0.00    -0.000 C 
BRANCH  24  25
ATOM     25  C   UNL     1     -25.823  59.627  33.242  1.00  0.00    -0.000 C 
BRANCH  25  26
ATOM     26  C   UNL     1     -25.563  58.981  31.869  1.00  0.00    -0.000 C 
BRANCH  26  27
ATOM     27  C   UNL     1     -24.302  58.099  31.792  1.00  0.00    -0.000 C 
BRANCH  27  28
ATOM     28  C   UNL     1     -23.803  57.887  30.353  1.00  0.00    -0.000 C 
BRANCH  28  29
ATOM     29  C   UNL     1     -22.310  57.529  30.293  1.00  0.00    -0.003 C 
ATOM     30  C   UNL     1     -21.756  57.073  31.643  1.00  0.00     0.004 C 
ENDBRANCH  28  29
ENDBRANCH  27  28
ENDBRANCH  26  27
ENDBRANCH  25  26
ENDBRANCH  24  25
ENDBRANCH  23  24
ENDBRANCH  22  23
ENDBRANCH  21  22
ENDBRANCH  20  21
ENDBRANCH  19  20
ENDBRANCH  18  19
ENDBRANCH  17  18
ENDBRANCH   1  17
TORSDOF 26
ENDMDL
MODEL 7
REMARK VINA RESULT:    -4.513      2.179      5.882
REMARK INTER + INTRA:         -17.062
REMARK INTER:                 -11.100
REMARK INTRA:                  -5.963
REMARK UNBOUND:                -5.690
REMARK SMILES CCCCCCCCCCCCCCCCCCCCCCCCCCCC(=O)[O-]
REMARK SMILES IDX 15 1 16 2 17 3 18 4 19 5 20 6 21 7 22 8 23 9 24 10 25 11
REMARK SMILES IDX 26 12 27 13 28 14 29 15 30 16 14 17 13 18 12 19 11 20 10 21
REMARK SMILES IDX 9 22 8 23 7 24 6 25 5 26 4 27 3 28 2 29 1 30
REMARK H PARENT
REMARK Flexibility Score: inf
ROOT
ATOM      1  C   UNL     1     -20.254  61.413  29.443  1.00  0.00     0.000 C 
ENDROOT
BRANCH   1   2
ATOM      2  C   UNL     1     -20.891  62.082  30.675  1.00  0.00     0.000 C 
BRANCH   2   3
ATOM      3  C   UNL     1     -21.771  61.118  31.489  1.00  0.00     0.000 C 
BRANCH   3   4
ATOM      4  C   UNL     1     -22.113  61.669  32.882  1.00  0.00     0.000 C 
BRANCH   4   5
ATOM      5  C   UNL     1     -20.888  62.280  33.586  1.00  0.00     0.000 C 
BRANCH   5   6
ATOM      6  C   UNL     1     -21.042  62.333  35.115  1.00  0.00     0.000 C 
BRANCH   6   7
ATOM      7  C   UNL     1     -22.275  61.590  35.671  1.00  0.00     0.000 C 
BRANCH   7   8
ATOM      8  C   UNL     1     -21.969  60.518  36.732  1.00  0.00     0.000 C 
BRANCH   8   9
ATOM      9  C   UNL     1     -21.031  59.416  36.220  1.00  0.00     0.000 C 
BRANCH   9  10
ATOM     10  C   UNL     1     -21.763  58.474  35.252  1.00  0.00     0.000 C 
BRANCH  10  11
ATOM     11  C   UNL     1     -21.102  58.413  33.867  1.00  0.00     0.000 C 
BRANCH  11  12
ATOM     12  C   UNL     1     -19.568  58.368  33.943  1.00  0.00     0.006 C 
BRANCH  12  13
ATOM     13  C   UNL     1     -18.943  59.227  32.840  1.00  0.00     0.053 C 
BRANCH  13  14
ATOM     14  C   UNL     1     -17.880  58.459  32.118  1.00  0.00     0.041 C 
ATOM     15  O   UNL     1     -16.857  59.050  31.682  1.00  0.00    -0.550 OA
ATOM     16  O   UNL     1     -18.042  57.100  31.885  1.00  0.00    -0.550 OA
ENDBRANCH  13  14
ENDBRANCH  12  13
ENDBRANCH  11  12
ENDBRANCH  10  11
ENDBRANCH   9  10
ENDBRANCH   8   9
ENDBRANCH   7   8
ENDBRANCH   6   7
ENDBRANCH   5   6
ENDBRANCH   4   5
ENDBRANCH   3   4
ENDBRANCH   2   3
ENDBRANCH   1   2
BRANCH   1  17
ATOM     17  C   UNL     1     -20.992  61.658  28.108  1.00  0.00     0.000 C 
BRANCH  17  18
ATOM     18  C   UNL     1     -22.271  60.828  27.899  1.00  0.00     0.000 C 
BRANCH  18  19
ATOM     19  C   UNL     1     -23.546  61.690  27.883  1.00  0.00     0.000 C 
BRANCH  19  20
ATOM     20  C   UNL     1     -24.345  61.592  29.193  1.00  0.00     0.000 C 
BRANCH  20  21
ATOM     21  C   UNL     1     -24.672  62.941  29.862  1.00  0.00     0.000 C 
BRANCH  21  22
ATOM     22  C   UNL     1     -25.466  62.809  31.180  1.00  0.00    -0.000 C 
BRANCH  22  23
ATOM     23  C   UNL     1     -25.886  61.357  31.470  1.00  0.00    -0.000 C 
BRANCH  23  24
ATOM     24  C   UNL     1     -25.592  60.935  32.918  1.00  0.00    -0.000 C 
BRANCH  24  25
ATOM     25  C   UNL     1     -25.222  59.447  33.035  1.00  0.00    -0.000 C 
BRANCH  25  26
ATOM     26  C   UNL     1     -25.174  58.732  31.672  1.00  0.00    -0.000 C 
BRANCH  26  27
ATOM     27  C   UNL     1     -23.824  58.074  31.327  1.00  0.00    -0.000 C 
BRANCH  27  28
ATOM     28  C   UNL     1     -23.562  57.997  29.814  1.00  0.00    -0.000 C 
BRANCH  28  29
ATOM     29  C   UNL     1     -22.306  57.180  29.474  1.00  0.00    -0.003 C 
ATOM     30  C   UNL     1     -21.024  57.812  30.018  1.00  0.00     0.004 C 
ENDBRANCH  28  29
ENDBRANCH  27  28
ENDBRANCH  26  27
ENDBRANCH  25  26
ENDBRANCH  24  25
ENDBRANCH  23  24
ENDBRANCH  22  23
ENDBRANCH  21  22
ENDBRANCH  20  21
ENDBRANCH  19  20
ENDBRANCH  18  19
ENDBRANCH  17  18
ENDBRANCH   1  17
TORSDOF 26
ENDMDL
MODEL 8
REMARK VINA RESULT:    -4.508      2.705      6.068
REMARK INTER + INTRA:         -17.050
REMARK INTER:                 -11.044
REMARK INTRA:                  -6.006
REMARK UNBOUND:                -5.690
REMARK SMILES CCCCCCCCCCCCCCCCCCCCCCCCCCCC(=O)[O-]
REMARK SMILES IDX 15 1 16 2 17 3 18 4 19 5 20 6 21 7 22 8 23 9 24 10 25 11
REMARK SMILES IDX 26 12 27 13 28 14 29 15 30 16 14 17 13 18 12 19 11 20 10 21
REMARK SMILES IDX 9 22 8 23 7 24 6 25 5 26 4 27 3 28 2 29 1 30
REMARK H PARENT
REMARK Flexibility Score: inf
ROOT
ATOM      1  C   UNL     1     -24.021  59.276  28.474  1.00  0.00     0.000 C 
ENDROOT
BRANCH   1   2
ATOM      2  C   UNL     1     -23.610  58.402  29.673  1.00  0.00     0.000 C 
BRANCH   2   3
ATOM      3  C   UNL     1     -24.566  58.545  30.871  1.00  0.00     0.000 C 
BRANCH   3   4
ATOM      4  C   UNL     1     -25.852  59.304  30.508  1.00  0.00     0.000 C 
BRANCH   4   5
ATOM      5  C   UNL     1     -26.394  60.134  31.686  1.00  0.00     0.000 C 
BRANCH   5   6
ATOM      6  C   UNL     1     -26.019  59.544  33.056  1.00  0.00     0.000 C 
BRANCH   6   7
ATOM      7  C   UNL     1     -26.414  60.413  34.268  1.00  0.00     0.000 C 
BRANCH   7   8
ATOM      8  C   UNL     1     -25.238  61.059  35.022  1.00  0.00     0.000 C 
BRANCH   8   9
ATOM      9  C   UNL     1     -23.867  60.608  34.496  1.00  0.00     0.000 C 
BRANCH   9  10
ATOM     10  C   UNL     1     -22.773  60.830  35.551  1.00  0.00     0.000 C 
BRANCH  10  11
ATOM     11  C   UNL     1     -21.868  62.028  35.226  1.00  0.00     0.000 C 
BRANCH  11  12
ATOM     12  C   UNL     1     -20.376  61.711  35.404  1.00  0.00     0.006 C 
BRANCH  12  13
ATOM     13  C   UNL     1     -20.183  60.315  36.003  1.00  0.00     0.053 C 
BRANCH  13  14
ATOM     14  C   UNL     1     -18.922  59.694  35.489  1.00  0.00     0.041 C 
ATOM     15  O   UNL     1     -18.517  59.952  34.325  1.00  0.00    -0.550 OA
ATOM     16  O   UNL     1     -18.220  58.791  36.277  1.00  0.00    -0.550 OA
ENDBRANCH  13  14
ENDBRANCH  12  13
ENDBRANCH  11  12
ENDBRANCH  10  11
ENDBRANCH   9  10
ENDBRANCH   8   9
ENDBRANCH   7   8
ENDBRANCH   6   7
ENDBRANCH   5   6
ENDBRANCH   4   5
ENDBRANCH   3   4
ENDBRANCH   2   3
ENDBRANCH   1   2
BRANCH   1  17
ATOM     17  C   UNL     1     -22.884  60.122  27.859  1.00  0.00     0.000 C 
BRANCH  17  18
ATOM     18  C   UNL     1     -22.909  61.619  28.217  1.00  0.00     0.000 C 
BRANCH  18  19
ATOM     19  C   UNL     1     -24.220  62.049  28.897  1.00  0.00     0.000 C 
BRANCH  19  20
ATOM     20  C   UNL     1     -23.992  62.682  30.280  1.00  0.00     0.000 C 
BRANCH  20  21
ATOM     21  C   UNL     1     -23.028  61.910  31.203  1.00  0.00     0.000 C 
BRANCH  21  22
ATOM     22  C   UNL     1     -21.724  62.671  31.521  1.00  0.00    -0.000 C 
BRANCH  22  23
ATOM     23  C   UNL     1     -20.536  61.723  31.767  1.00  0.00    -0.000 C 
BRANCH  23  24
ATOM     24  C   UNL     1     -20.383  60.668  30.660  1.00  0.00    -0.000 C 
BRANCH  24  25
ATOM     25  C   UNL     1     -20.258  59.240  31.219  1.00  0.00    -0.000 C 
BRANCH  25  26
ATOM     26  C   UNL     1     -21.223  58.966  32.387  1.00  0.00    -0.000 C 
BRANCH  26  27
ATOM     27  C   UNL     1     -21.174  57.533  32.951  1.00  0.00    -0.000 C 
BRANCH  27  28
ATOM     28  C   UNL     1     -22.009  57.362  34.232  1.00  0.00    -0.000 C 
BRANCH  28  29
ATOM     29  C   UNL     1     -22.777  56.032  34.261  1.00  0.00    -0.003 C 
ATOM     30  C   UNL     1     -23.373  55.662  32.903  1.00  0.00     0.004 C 
ENDBRANCH  28  29
ENDBRANCH  27  28
ENDBRANCH  26  27
ENDBRANCH  25  26
ENDBRANCH  24  25
ENDBRANCH  23  24
ENDBRANCH  22  23
ENDBRANCH  21  22
ENDBRANCH  20  21
ENDBRANCH  19  20
ENDBRANCH  18  19
ENDBRANCH  17  18
ENDBRANCH   1  17
TORSDOF 26
ENDMDL
MODEL 9
REMARK VINA RESULT:    -4.465      1.393      4.188
REMARK INTER + INTRA:         -16.942
REMARK INTER:                 -11.042
REMARK INTRA:                  -5.901
REMARK UNBOUND:                -5.690
REMARK SMILES CCCCCCCCCCCCCCCCCCCCCCCCCCCC(=O)[O-]
REMARK SMILES IDX 15 1 16 2 17 3 18 4 19 5 20 6 21 7 22 8 23 9 24 10 25 11
REMARK SMILES IDX 26 12 27 13 28 14 29 15 30 16 14 17 13 18 12 19 11 20 10 21
REMARK SMILES IDX 9 22 8 23 7 24 6 25 5 26 4 27 3 28 2 29 1 30
REMARK H PARENT
REMARK Flexibility Score: inf
ROOT
ATOM      1  C   UNL     1     -21.490  60.765  28.389  1.00  0.00     0.000 C 
ENDROOT
BRANCH   1   2
ATOM      2  C   UNL     1     -22.608  61.642  27.796  1.00  0.00     0.000 C 
BRANCH   2   3
ATOM      3  C   UNL     1     -23.958  61.452  28.510  1.00  0.00     0.000 C 
BRANCH   3   4
ATOM      4  C   UNL     1     -24.378  62.693  29.311  1.00  0.00     0.000 C 
BRANCH   4   5
ATOM      5  C   UNL     1     -24.563  62.389  30.809  1.00  0.00     0.000 C 
BRANCH   5   6
ATOM      6  C   UNL     1     -25.986  62.691  31.309  1.00  0.00     0.000 C 
BRANCH   6   7
ATOM      7  C   UNL     1     -26.582  61.627  32.254  1.00  0.00     0.000 C 
BRANCH   7   8
ATOM      8  C   UNL     1     -25.652  61.168  33.392  1.00  0.00     0.000 C 
BRANCH   8   9
ATOM      9  C   UNL     1     -25.475  59.644  33.446  1.00  0.00     0.000 C 
BRANCH   9  10
ATOM     10  C   UNL     1     -25.520  59.035  32.036  1.00  0.00     0.000 C 
BRANCH  10  11
ATOM     11  C   UNL     1     -24.253  58.235  31.694  1.00  0.00     0.000 C 
BRANCH  11  12
ATOM     12  C   UNL     1     -23.881  58.321  30.206  1.00  0.00     0.006 C 
BRANCH  12  13
ATOM     13  C   UNL     1     -22.571  57.578  29.929  1.00  0.00     0.053 C 
BRANCH  13  14
ATOM     14  C   UNL     1     -22.835  56.317  29.167  1.00  0.00     0.041 C 
ATOM     15  O   UNL     1     -22.984  56.351  27.917  1.00  0.00    -0.550 OA
ATOM     16  O   UNL     1     -22.964  55.111  29.843  1.00  0.00    -0.550 OA
ENDBRANCH  13  14
ENDBRANCH  12  13
ENDBRANCH  11  12
ENDBRANCH  10  11
ENDBRANCH   9  10
ENDBRANCH   8   9
ENDBRANCH   7   8
ENDBRANCH   6   7
ENDBRANCH   5   6
ENDBRANCH   4   5
ENDBRANCH   3   4
ENDBRANCH   2   3
ENDBRANCH   1   2
BRANCH   1  17
ATOM     17  C   UNL     1     -20.331  61.540  29.054  1.00  0.00     0.000 C 
BRANCH  17  18
ATOM     18  C   UNL     1     -20.587  61.997  30.501  1.00  0.00     0.000 C 
BRANCH  18  19
ATOM     19  C   UNL     1     -21.385  60.967  31.320  1.00  0.00     0.000 C 
BRANCH  19  20
ATOM     20  C   UNL     1     -21.944  61.553  32.628  1.00  0.00     0.000 C 
BRANCH  20  21
ATOM     21  C   UNL     1     -20.903  62.238  33.535  1.00  0.00     0.000 C 
BRANCH  21  22
ATOM     22  C   UNL     1     -21.121  61.980  35.042  1.00  0.00    -0.000 C 
BRANCH  22  23
ATOM     23  C   UNL     1     -22.580  61.616  35.371  1.00  0.00    -0.000 C 
BRANCH  23  24
ATOM     24  C   UNL     1     -22.701  60.278  36.115  1.00  0.00    -0.000 C 
BRANCH  24  25
ATOM     25  C   UNL     1     -21.575  59.295  35.749  1.00  0.00    -0.000 C 
BRANCH  25  26
ATOM     26  C   UNL     1     -21.901  58.446  34.506  1.00  0.00    -0.000 C 
BRANCH  26  27
ATOM     27  C   UNL     1     -20.689  58.091  33.623  1.00  0.00    -0.000 C 
BRANCH  27  28
ATOM     28  C   UNL     1     -19.399  58.807  34.057  1.00  0.00    -0.000 C 
BRANCH  28  29
ATOM     29  C   UNL     1     -18.560  59.285  32.862  1.00  0.00    -0.003 C 
ATOM     30  C   UNL     1     -18.792  58.449  31.603  1.00  0.00     0.004 C 
ENDBRANCH  28  29
ENDBRANCH  27  28
ENDBRANCH  26  27
ENDBRANCH  25  26
ENDBRANCH  24  25
ENDBRANCH  23  24
ENDBRANCH  22  23
ENDBRANCH  21  22
ENDBRANCH  20  21
ENDBRANCH  19  20
ENDBRANCH  18  19
ENDBRANCH  17  18
ENDBRANCH   1  17
TORSDOF 26
ENDMDL
