MODEL 1
REMARK VINA RESULT:    -4.299      0.000      0.000
REMARK INTER + INTRA:          -4.551
REMARK INTER:                  -5.305
REMARK INTRA:                   0.754
REMARK UNBOUND:                 0.754
REMARK SMILES CC1=CC=CC(C)(C)CC1=O
REMARK SMILES IDX 1 1 2 2 3 3 10 4 11 5 9 6 4 8 5 9 6 10 7 11 8 12
REMARK H PARENT
REMARK Flexibility Score: 80.00
ROOT
ATOM      1  C   UNL     1       0.040 -12.796  31.600  1.00  0.00     0.048 C 
ATOM      2  C   UNL     1      -1.162 -13.117  30.742  1.00  0.00    -0.008 C 
ATOM      3  C   UNL     1      -2.381 -13.025  31.316  1.00  0.00     0.007 C 
ENDROOT
BRANCH   2   4
ATOM      4  C   UNL     1      -0.909 -13.436  29.315  1.00  0.00     0.159 C 
ATOM      5  O   UNL     1       0.247 -13.249  28.847  1.00  0.00    -0.295 OA
BRANCH   4   6
ATOM      6  C   UNL     1      -1.954 -13.986  28.393  1.00  0.00     0.091 CG0
ATOM      7  G   UNL     1      -3.188 -13.066  28.255  1.00  0.00     0.000 G0
ENDBRANCH   4   6
ENDBRANCH   2   4
BRANCH   3   8
ATOM      8  C   UNL     1      -3.726 -13.248  30.734  1.00  0.00    -0.003 C 
ATOM      9  C   UNL     1      -4.096 -13.267  29.447  1.00  0.00    -0.020 C 
BRANCH   9  10
ATOM     10  C   UNL     1      -3.193 -13.084  28.250  1.00  0.00    -0.010 CG0
ATOM     11  C   UNL     1      -3.963 -13.533  26.988  1.00  0.00     0.016 C 
ATOM     12  C   UNL     1      -2.834 -11.590  28.084  1.00  0.00     0.016 C 
ATOM     13  G   UNL     1      -1.946 -13.984  28.397  1.00  0.00     0.000 G0
ENDBRANCH   9  10
ENDBRANCH   3   8
TORSDOF 0
ENDMDL
MODEL 2
REMARK VINA RESULT:    -4.187      1.626      3.567
REMARK INTER + INTRA:          -4.412
REMARK INTER:                  -5.162
REMARK INTRA:                   0.750
REMARK UNBOUND:                 0.754
REMARK SMILES CC1=CC=CC(C)(C)CC1=O
REMARK SMILES IDX 1 1 2 2 3 3 10 4 11 5 9 6 4 8 5 9 6 10 7 11 8 12
REMARK H PARENT
REMARK Flexibility Score: 80.00
ROOT
ATOM      1  C   UNL     1      -4.859 -13.289  28.010  1.00  0.00     0.048 C 
ATOM      2  C   UNL     1      -3.878 -13.046  29.133  1.00  0.00    -0.008 C 
ATOM      3  C   UNL     1      -4.128 -13.639  30.320  1.00  0.00     0.007 C 
ENDROOT
BRANCH   2   4
ATOM      4  C   UNL     1      -2.677 -12.233  28.818  1.00  0.00     0.159 C 
ATOM      5  O   UNL     1      -2.421 -11.971  27.610  1.00  0.00    -0.295 OA
BRANCH   4   6
ATOM      6  C   UNL     1      -1.750 -11.689  29.861  1.00  0.00     0.091 CG0
ATOM      7  G   UNL     1      -1.086 -12.790  30.719  1.00  0.00     0.000 G0
ENDBRANCH   4   6
ENDBRANCH   2   4
BRANCH   3   8
ATOM      8  C   UNL     1      -3.348 -13.611  31.580  1.00  0.00    -0.003 C 
ATOM      9  C   UNL     1      -2.067 -13.271  31.773  1.00  0.00    -0.020 C 
BRANCH   9  10
ATOM     10  C   UNL     1      -1.096 -12.797  30.718  1.00  0.00    -0.010 CG0
ATOM     11  C   UNL     1       0.127 -12.174  31.429  1.00  0.00     0.016 C 
ATOM     12  C   UNL     1      -0.600 -13.996  29.879  1.00  0.00     0.016 C 
ATOM     13  G   UNL     1      -1.759 -11.700  29.856  1.00  0.00     0.000 G0
ENDBRANCH   9  10
ENDBRANCH   3   8
TORSDOF 0
ENDMDL
MODEL 3
REMARK VINA RESULT:    -4.084      2.113      4.014
REMARK INTER + INTRA:          -4.284
REMARK INTER:                  -5.044
REMARK INTRA:                   0.759
REMARK UNBOUND:                 0.754
REMARK SMILES CC1=CC=CC(C)(C)CC1=O
REMARK SMILES IDX 1 1 2 2 3 3 10 4 11 5 9 6 4 8 5 9 6 10 7 11 8 12
REMARK H PARENT
REMARK Flexibility Score: 80.00
ROOT
ATOM      1  C   UNL     1      -4.798 -13.368  28.390  1.00  0.00     0.048 C 
ATOM      2  C   UNL     1      -3.445 -13.337  29.063  1.00  0.00    -0.008 C 
ATOM      3  C   UNL     1      -2.355 -13.496  28.281  1.00  0.00     0.007 C 
ENDROOT
BRANCH   2   4
ATOM      4  C   UNL     1      -3.420 -13.058  30.520  1.00  0.00     0.159 C 
ATOM      5  O   UNL     1      -4.477 -12.655  31.080  1.00  0.00    -0.295 OA
BRANCH   4   6
ATOM      6  C   UNL     1      -2.206 -13.242  31.377  1.00  0.00     0.091 CG0
ATOM      7  G   UNL     1      -1.009 -12.371  30.932  1.00  0.00     0.000 G0
ENDBRANCH   4   6
ENDBRANCH   2   4
BRANCH   3   8
ATOM      8  C   UNL     1      -0.917 -13.485  28.641  1.00  0.00    -0.003 C 
ATOM      9  C   UNL     1      -0.326 -13.006  29.742  1.00  0.00    -0.020 C 
BRANCH   9  10
ATOM     10  C   UNL     1      -1.014 -12.365  30.924  1.00  0.00    -0.010 CG0
ATOM     11  C   UNL     1      -0.006 -12.294  32.093  1.00  0.00     0.016 C 
ATOM     12  C   UNL     1      -1.437 -10.921  30.570  1.00  0.00     0.016 C 
ATOM     13  G   UNL     1      -2.206 -13.242  31.370  1.00  0.00     0.000 G0
ENDBRANCH   9  10
ENDBRANCH   3   8
TORSDOF 0
ENDMDL
MODEL 4
REMARK VINA RESULT:    -4.041      1.823      3.086
REMARK INTER + INTRA:          -4.231
REMARK INTER:                  -4.986
REMARK INTRA:                   0.755
REMARK UNBOUND:                 0.754
REMARK SMILES CC1=CC=CC(C)(C)CC1=O
REMARK SMILES IDX 1 1 2 2 3 3 10 4 11 5 9 6 4 8 5 9 6 10 7 11 8 12
REMARK H PARENT
REMARK Flexibility Score: 80.00
ROOT
ATOM      1  C   UNL     1      -0.014 -14.222  28.754  1.00  0.00     0.048 C 
ATOM      2  C   UNL     1      -1.172 -13.330  29.138  1.00  0.00    -0.008 C 
ATOM      3  C   UNL     1      -2.303 -13.426  28.407  1.00  0.00     0.007 C 
ENDROOT
BRANCH   2   4
ATOM      4  C   UNL     1      -0.997 -12.474  30.338  1.00  0.00     0.159 C 
ATOM      5  O   UNL     1       0.004 -12.666  31.081  1.00  0.00    -0.295 OA
BRANCH   4   6
ATOM      6  C   UNL     1      -1.943 -11.375  30.713  1.00  0.00     0.091 CG0
ATOM      7  G   UNL     1      -3.387 -11.870  30.954  1.00  0.00     0.000 G0
ENDBRANCH   4   6
ENDBRANCH   2   4
BRANCH   3   8
ATOM      8  C   UNL     1      -3.594 -12.713  28.555  1.00  0.00    -0.003 C 
ATOM      9  C   UNL     1      -4.079 -12.056  29.615  1.00  0.00    -0.020 C 
BRANCH   9  10
ATOM     10  C   UNL     1      -3.387 -11.861  30.944  1.00  0.00    -0.010 CG0
ATOM     11  C   UNL     1      -4.136 -10.758  31.724  1.00  0.00     0.016 C 
ATOM     12  C   UNL     1      -3.458 -13.164  31.773  1.00  0.00     0.016 C 
ATOM     13  G   UNL     1      -1.937 -11.383  30.710  1.00  0.00     0.000 G0
ENDBRANCH   9  10
ENDBRANCH   3   8
TORSDOF 0
ENDMDL
MODEL 5
REMARK VINA RESULT:    -4.039      2.067      3.734
REMARK INTER + INTRA:          -4.229
REMARK INTER:                  -4.994
REMARK INTRA:                   0.765
REMARK UNBOUND:                 0.754
REMARK SMILES CC1=CC=CC(C)(C)CC1=O
REMARK SMILES IDX 1 1 2 2 3 3 10 4 11 5 9 6 4 8 5 9 6 10 7 11 8 12
REMARK H PARENT
REMARK Flexibility Score: 80.00
ROOT
ATOM      1  C   UNL     1      -4.190 -13.777  26.531  1.00  0.00     0.048 C 
ATOM      2  C   UNL     1      -3.979 -12.992  27.804  1.00  0.00    -0.008 C 
ATOM      3  C   UNL     1      -4.344 -13.577  28.966  1.00  0.00     0.007 C 
ENDROOT
BRANCH   2   4
ATOM      4  C   UNL     1      -3.318 -11.669  27.683  1.00  0.00     0.159 C 
ATOM      5  O   UNL     1      -2.777 -11.359  26.586  1.00  0.00    -0.295 OA
BRANCH   4   6
ATOM      6  C   UNL     1      -3.268 -10.665  28.793  1.00  0.00     0.091 CG0
ATOM      7  G   UNL     1      -2.556 -11.192  30.059  1.00  0.00     0.000 G0
ENDBRANCH   4   6
ENDBRANCH   2   4
BRANCH   3   8
ATOM      8  C   UNL     1      -4.238 -13.077  30.357  1.00  0.00    -0.003 C 
ATOM      9  C   UNL     1      -3.478 -12.087  30.843  1.00  0.00    -0.020 C 
BRANCH   9  10
ATOM     10  C   UNL     1      -2.540 -11.205  30.053  1.00  0.00    -0.010 CG0
ATOM     11  C   UNL     1      -2.152  -9.997  30.935  1.00  0.00     0.016 C 
ATOM     12  C   UNL     1      -1.248 -11.981  29.711  1.00  0.00     0.016 C 
ATOM     13  G   UNL     1      -3.263 -10.669  28.797  1.00  0.00     0.000 G0
ENDBRANCH   9  10
ENDBRANCH   3   8
TORSDOF 0
ENDMDL
MODEL 6
REMARK VINA RESULT:    -3.957      1.643      3.514
REMARK INTER + INTRA:          -4.129
REMARK INTER:                  -4.871
REMARK INTRA:                   0.742
REMARK UNBOUND:                 0.754
REMARK SMILES CC1=CC=CC(C)(C)CC1=O
REMARK SMILES IDX 1 1 2 2 3 3 10 4 11 5 9 6 4 8 5 9 6 10 7 11 8 12
REMARK H PARENT
REMARK Flexibility Score: 80.00
ROOT
ATOM      1  C   UNL     1      -4.217 -14.051  26.882  1.00  0.00     0.048 C 
ATOM      2  C   UNL     1      -3.613 -13.084  27.874  1.00  0.00    -0.008 C 
ATOM      3  C   UNL     1      -4.373 -12.040  28.269  1.00  0.00     0.007 C 
ENDROOT
BRANCH   2   4
ATOM      4  C   UNL     1      -2.260 -13.404  28.392  1.00  0.00     0.159 C 
ATOM      5  O   UNL     1      -1.770 -14.542  28.151  1.00  0.00    -0.295 OA
BRANCH   4   6
ATOM      6  C   UNL     1      -1.428 -12.440  29.182  1.00  0.00     0.091 CG0
ATOM      7  G   UNL     1      -2.103 -11.988  30.496  1.00  0.00     0.000 G0
ENDBRANCH   4   6
ENDBRANCH   2   4
BRANCH   3   8
ATOM      8  C   UNL     1      -4.071 -10.957  29.236  1.00  0.00    -0.003 C 
ATOM      9  C   UNL     1      -3.131 -10.912  30.187  1.00  0.00    -0.020 C 
BRANCH   9  10
ATOM     10  C   UNL     1      -2.108 -11.982  30.490  1.00  0.00    -0.010 CG0
ATOM     11  C   UNL     1      -1.012 -11.366  31.388  1.00  0.00     0.016 C 
ATOM     12  C   UNL     1      -2.770 -13.140  31.270  1.00  0.00     0.016 C 
ATOM     13  G   UNL     1      -1.443 -12.452  29.176  1.00  0.00     0.000 G0
ENDBRANCH   9  10
ENDBRANCH   3   8
TORSDOF 0
ENDMDL
MODEL 7
REMARK VINA RESULT:    -3.902      2.015      2.989
REMARK INTER + INTRA:          -4.060
REMARK INTER:                  -4.810
REMARK INTRA:                   0.749
REMARK UNBOUND:                 0.754
REMARK SMILES CC1=CC=CC(C)(C)CC1=O
REMARK SMILES IDX 1 1 2 2 3 3 10 4 11 5 9 6 4 8 5 9 6 10 7 11 8 12
REMARK H PARENT
REMARK Flexibility Score: 80.00
ROOT
ATOM      1  C   UNL     1      -3.752 -14.655  32.577  1.00  0.00     0.048 C 
ATOM      2  C   UNL     1      -3.325 -13.634  31.548  1.00  0.00    -0.008 C 
ATOM      3  C   UNL     1      -2.092 -13.097  31.676  1.00  0.00     0.007 C 
ENDROOT
BRANCH   2   4
ATOM      4  C   UNL     1      -4.267 -13.359  30.436  1.00  0.00     0.159 C 
ATOM      5  O   UNL     1      -5.262 -14.120  30.280  1.00  0.00    -0.295 OA
BRANCH   4   6
ATOM      6  C   UNL     1      -4.112 -12.212  29.485  1.00  0.00     0.091 CG0
ATOM      7  G   UNL     1      -2.780 -12.244  28.703  1.00  0.00     0.000 G0
ENDBRANCH   4   6
ENDBRANCH   2   4
BRANCH   3   8
ATOM      8  C   UNL     1      -1.393 -12.107  30.823  1.00  0.00    -0.003 C 
ATOM      9  C   UNL     1      -1.659 -11.741  29.563  1.00  0.00    -0.020 C 
BRANCH   9  10
ATOM     10  C   UNL     1      -2.788 -12.253  28.699  1.00  0.00    -0.010 CG0
ATOM     11  C   UNL     1      -2.936 -11.308  27.485  1.00  0.00     0.016 C 
ATOM     12  C   UNL     1      -2.449 -13.664  28.167  1.00  0.00     0.016 C 
ATOM     13  G   UNL     1      -4.110 -12.218  29.497  1.00  0.00     0.000 G0
ENDBRANCH   9  10
ENDBRANCH   3   8
TORSDOF 0
ENDMDL
MODEL 8
REMARK VINA RESULT:    -3.830      2.272      3.956
REMARK INTER + INTRA:          -3.971
REMARK INTER:                  -4.721
REMARK INTRA:                   0.750
REMARK UNBOUND:                 0.754
REMARK SMILES CC1=CC=CC(C)(C)CC1=O
REMARK SMILES IDX 1 1 2 2 3 3 10 4 11 5 9 6 4 8 5 9 6 10 7 11 8 12
REMARK H PARENT
REMARK Flexibility Score: 80.00
ROOT
ATOM      1  C   UNL     1      -6.008 -14.358  28.389  1.00  0.00     0.048 C 
ATOM      2  C   UNL     1      -4.739 -13.575  28.635  1.00  0.00    -0.008 C 
ATOM      3  C   UNL     1      -4.217 -12.890  27.595  1.00  0.00     0.007 C 
ENDROOT
BRANCH   2   4
ATOM      4  C   UNL     1      -4.211 -13.560  30.022  1.00  0.00     0.159 C 
ATOM      5  O   UNL     1      -4.940 -13.996  30.955  1.00  0.00    -0.295 OA
BRANCH   4   6
ATOM      6  C   UNL     1      -2.843 -13.066  30.380  1.00  0.00     0.091 CG0
ATOM      7  G   UNL     1      -2.618 -11.581  30.019  1.00  0.00     0.000 G0
ENDBRANCH   4   6
ENDBRANCH   2   4
BRANCH   3   8
ATOM      8  C   UNL     1      -3.017 -12.023  27.534  1.00  0.00    -0.003 C 
ATOM      9  C   UNL     1      -2.337 -11.450  28.535  1.00  0.00    -0.020 C 
BRANCH   9  10
ATOM     10  C   UNL     1      -2.632 -11.582  30.011  1.00  0.00    -0.010 CG0
ATOM     11  C   UNL     1      -1.401 -11.079  30.799  1.00  0.00     0.016 C 
ATOM     12  C   UNL     1      -3.837 -10.692  30.390  1.00  0.00     0.016 C 
ATOM     13  G   UNL     1      -2.854 -13.069  30.366  1.00  0.00     0.000 G0
ENDBRANCH   9  10
ENDBRANCH   3   8
TORSDOF 0
ENDMDL
MODEL 9
REMARK VINA RESULT:    -3.758      1.846      2.548
REMARK INTER + INTRA:          -3.883
REMARK INTER:                  -4.637
REMARK INTRA:                   0.754
REMARK UNBOUND:                 0.754
REMARK SMILES CC1=CC=CC(C)(C)CC1=O
REMARK SMILES IDX 1 1 2 2 3 3 10 4 11 5 9 6 4 8 5 9 6 10 7 11 8 12
REMARK H PARENT
REMARK Flexibility Score: 80.00
ROOT
ATOM      1  C   UNL     1      -4.295 -13.746  32.498  1.00  0.00     0.048 C 
ATOM      2  C   UNL     1      -4.164 -13.545  31.006  1.00  0.00    -0.008 C 
ATOM      3  C   UNL     1      -5.163 -14.006  30.223  1.00  0.00     0.007 C 
ENDROOT
BRANCH   2   4
ATOM      4  C   UNL     1      -2.980 -12.788  30.527  1.00  0.00     0.159 C 
ATOM      5  O   UNL     1      -2.268 -12.176  31.370  1.00  0.00    -0.295 OA
BRANCH   4   6
ATOM      6  C   UNL     1      -2.570 -12.720  29.088  1.00  0.00     0.091 CG0
ATOM      7  G   UNL     1      -3.654 -12.105  28.174  1.00  0.00     0.000 G0
ENDBRANCH   4   6
ENDBRANCH   2   4
BRANCH   3   8
ATOM      8  C   UNL     1      -5.329 -13.934  28.752  1.00  0.00    -0.003 C 
ATOM      9  C   UNL     1      -4.715 -13.135  27.871  1.00  0.00    -0.020 C 
BRANCH   9  10
ATOM     10  C   UNL     1      -3.656 -12.102  28.181  1.00  0.00    -0.010 CG0
ATOM     11  C   UNL     1      -2.981 -11.686  26.855  1.00  0.00     0.016 C 
ATOM     12  C   UNL     1      -4.309 -10.846  28.800  1.00  0.00     0.016 C 
ATOM     13  G   UNL     1      -2.576 -12.724  29.095  1.00  0.00     0.000 G0
ENDBRANCH   9  10
ENDBRANCH   3   8
TORSDOF 0
ENDMDL
