MODEL 1
REMARK VINA RESULT:    -2.736      0.000      0.000
REMARK INTER + INTRA:          -3.357
REMARK INTER:                  -3.056
REMARK INTRA:                  -0.301
REMARK UNBOUND:                -0.301
REMARK SMILES CC(=O)c1ccc(O)cc1O
REMARK SMILES IDX 4 1 10 2 9 3 7 4 6 5 5 6 2 7 1 8 3 9 11 10 8 12
REMARK H PARENT 11 11 8 13
REMARK Flexibility Score: inf
ROOT
ATOM      1  C   UNL     1     110.632  87.161  58.063  1.00  0.00     0.059 A 
ATOM      2  C   UNL     1     109.553  87.912  57.538  1.00  0.00     0.130 A 
ATOM      3  C   UNL     1     108.239  87.436  57.660  1.00  0.00     0.093 A 
ATOM      4  C   UNL     1     107.981  86.219  58.293  1.00  0.00     0.119 A 
ATOM      5  C   UNL     1     109.040  85.468  58.811  1.00  0.00     0.047 A 
ATOM      6  C   UNL     1     110.353  85.933  58.699  1.00  0.00     0.019 A 
ENDROOT
BRANCH   1   7
ATOM      7  C   UNL     1     112.038  87.647  57.957  1.00  0.00     0.163 C 
ATOM      8  C   UNL     1     112.978  87.607  59.125  1.00  0.00     0.093 C 
ATOM      9  O   UNL     1     112.459  88.135  56.874  1.00  0.00    -0.294 OA
ENDBRANCH   1   7
BRANCH   2  10
ATOM     10  O   UNL     1     109.781  89.125  56.887  1.00  0.00    -0.507 OA
ATOM     11  H   UNL     1     110.088  89.162  55.922  1.00  0.00     0.293 HD
ENDBRANCH   2  10
BRANCH   4  12
ATOM     12  O   UNL     1     106.668  85.764  58.402  1.00  0.00    -0.508 OA
ATOM     13  H   UNL     1     105.904  86.396  58.613  1.00  0.00     0.293 HD
ENDBRANCH   4  12
TORSDOF 3
ENDMDL
MODEL 2
REMARK VINA RESULT:    -2.635      2.259      5.147
REMARK INTER + INTRA:          -3.245
REMARK INTER:                  -2.937
REMARK INTRA:                  -0.308
REMARK UNBOUND:                -0.301
REMARK SMILES CC(=O)c1ccc(O)cc1O
REMARK SMILES IDX 4 1 10 2 9 3 7 4 6 5 5 6 2 7 1 8 3 9 11 10 8 12
REMARK H PARENT 11 11 8 13
REMARK Flexibility Score: inf
ROOT
ATOM      1  C   UNL     1     107.361  86.295  56.110  1.00  0.00     0.059 A 
ATOM      2  C   UNL     1     107.613  86.568  57.476  1.00  0.00     0.130 A 
ATOM      3  C   UNL     1     108.585  87.514  57.837  1.00  0.00     0.093 A 
ATOM      4  C   UNL     1     109.315  88.191  56.858  1.00  0.00     0.119 A 
ATOM      5  C   UNL     1     109.075  87.925  55.507  1.00  0.00     0.047 A 
ATOM      6  C   UNL     1     108.109  86.988  55.135  1.00  0.00     0.019 A 
ENDROOT
BRANCH   1   7
ATOM      7  C   UNL     1     106.328  85.302  55.697  1.00  0.00     0.163 C 
ATOM      8  C   UNL     1     105.206  85.669  54.772  1.00  0.00     0.093 C 
ATOM      9  O   UNL     1     106.363  84.126  56.149  1.00  0.00    -0.294 OA
ENDBRANCH   1   7
BRANCH   2  10
ATOM     10  O   UNL     1     106.911  85.897  58.478  1.00  0.00    -0.507 OA
ATOM     11  H   UNL     1     106.373  86.396  59.177  1.00  0.00     0.293 HD
ENDBRANCH   2  10
BRANCH   4  12
ATOM     12  O   UNL     1     110.276  89.125  57.239  1.00  0.00    -0.508 OA
ATOM     13  H   UNL     1     110.375  89.420  58.204  1.00  0.00     0.293 HD
ENDBRANCH   4  12
TORSDOF 3
ENDMDL
MODEL 3
REMARK VINA RESULT:    -2.622     10.311     12.251
REMARK INTER + INTRA:          -3.230
REMARK INTER:                  -2.957
REMARK INTRA:                  -0.273
REMARK UNBOUND:                -0.301
REMARK SMILES CC(=O)c1ccc(O)cc1O
REMARK SMILES IDX 4 1 10 2 9 3 7 4 6 5 5 6 2 7 1 8 3 9 11 10 8 12
REMARK H PARENT 11 11 8 13
REMARK Flexibility Score: inf
ROOT
ATOM      1  C   UNL     1     122.186  87.519  56.146  1.00  0.00     0.059 A 
ATOM      2  C   UNL     1     122.146  86.693  57.295  1.00  0.00     0.130 A 
ATOM      3  C   UNL     1     121.165  86.900  58.277  1.00  0.00     0.093 A 
ATOM      4  C   UNL     1     120.224  87.921  58.136  1.00  0.00     0.119 A 
ATOM      5  C   UNL     1     120.257  88.744  57.007  1.00  0.00     0.047 A 
ATOM      6  C   UNL     1     121.227  88.546  56.021  1.00  0.00     0.019 A 
ENDROOT
BRANCH   1   7
ATOM      7  C   UNL     1     123.210  87.315  55.082  1.00  0.00     0.163 C 
ATOM      8  C   UNL     1     122.910  87.579  53.636  1.00  0.00     0.093 C 
ATOM      9  O   UNL     1     124.356  86.884  55.380  1.00  0.00    -0.294 OA
ENDBRANCH   1   7
BRANCH   2  10
ATOM     10  O   UNL     1     123.082  85.674  57.472  1.00  0.00    -0.507 OA
ATOM     11  H   UNL     1     123.326  85.328  58.393  1.00  0.00     0.293 HD
ENDBRANCH   2  10
BRANCH   4  12
ATOM     12  O   UNL     1     119.259  88.110  59.124  1.00  0.00    -0.508 OA
ATOM     13  H   UNL     1     118.385  88.583  58.928  1.00  0.00     0.293 HD
ENDBRANCH   4  12
TORSDOF 3
ENDMDL
MODEL 4
REMARK VINA RESULT:    -2.618     10.110     11.995
REMARK INTER + INTRA:          -3.226
REMARK INTER:                  -2.931
REMARK INTRA:                  -0.295
REMARK UNBOUND:                -0.301
REMARK SMILES CC(=O)c1ccc(O)cc1O
REMARK SMILES IDX 4 1 10 2 9 3 7 4 6 5 5 6 2 7 1 8 3 9 11 10 8 12
REMARK H PARENT 11 11 8 13
REMARK Flexibility Score: inf
ROOT
ATOM      1  C   UNL     1     121.877  85.726  58.232  1.00  0.00     0.059 A 
ATOM      2  C   UNL     1     122.165  86.709  57.254  1.00  0.00     0.130 A 
ATOM      3  C   UNL     1     121.338  87.836  57.126  1.00  0.00     0.093 A 
ATOM      4  C   UNL     1     120.225  87.998  57.951  1.00  0.00     0.119 A 
ATOM      5  C   UNL     1     119.931  87.031  58.917  1.00  0.00     0.047 A 
ATOM      6  C   UNL     1     120.747  85.906  59.057  1.00  0.00     0.019 A 
ENDROOT
BRANCH   1   7
ATOM      7  C   UNL     1     122.743  84.524  58.398  1.00  0.00     0.163 C 
ATOM      8  C   UNL     1     122.169  83.174  58.711  1.00  0.00     0.093 C 
ATOM      9  O   UNL     1     123.996  84.628  58.305  1.00  0.00    -0.294 OA
ENDBRANCH   1   7
BRANCH   2  10
ATOM     10  O   UNL     1     123.262  86.568  56.404  1.00  0.00    -0.507 OA
ATOM     11  H   UNL     1     123.313  85.822  55.720  1.00  0.00     0.293 HD
ENDBRANCH   2  10
BRANCH   4  12
ATOM     12  O   UNL     1     119.417  89.124  57.805  1.00  0.00    -0.508 OA
ATOM     13  H   UNL     1     119.469  89.710  56.980  1.00  0.00     0.293 HD
ENDBRANCH   4  12
TORSDOF 3
ENDMDL
MODEL 5
REMARK VINA RESULT:    -2.602      1.348      2.286
REMARK INTER + INTRA:          -3.208
REMARK INTER:                  -2.911
REMARK INTRA:                  -0.297
REMARK UNBOUND:                -0.301
REMARK SMILES CC(=O)c1ccc(O)cc1O
REMARK SMILES IDX 4 1 10 2 9 3 7 4 6 5 5 6 2 7 1 8 3 9 11 10 8 12
REMARK H PARENT 11 11 8 13
REMARK Flexibility Score: inf
ROOT
ATOM      1  C   UNL     1     110.577  87.353  57.864  1.00  0.00     0.059 A 
ATOM      2  C   UNL     1     110.425  86.160  58.611  1.00  0.00     0.130 A 
ATOM      3  C   UNL     1     109.145  85.638  58.850  1.00  0.00     0.093 A 
ATOM      4  C   UNL     1     108.010  86.288  58.362  1.00  0.00     0.119 A 
ATOM      5  C   UNL     1     108.150  87.468  57.626  1.00  0.00     0.047 A 
ATOM      6  C   UNL     1     109.419  87.997  57.379  1.00  0.00     0.019 A 
ENDROOT
BRANCH   1   7
ATOM      7  C   UNL     1     111.925  87.925  57.585  1.00  0.00     0.163 C 
ATOM      8  C   UNL     1     112.290  88.465  56.234  1.00  0.00     0.093 C 
ATOM      9  O   UNL     1     112.806  87.939  58.487  1.00  0.00    -0.294 OA
ENDBRANCH   1   7
BRANCH   2  10
ATOM     10  O   UNL     1     111.539  85.496  59.125  1.00  0.00    -0.507 OA
ATOM     11  H   UNL     1     111.446  84.726  59.777  1.00  0.00     0.293 HD
ENDBRANCH   2  10
BRANCH   4  12
ATOM     12  O   UNL     1     106.748  85.752  58.613  1.00  0.00    -0.508 OA
ATOM     13  H   UNL     1     106.473  84.850  58.244  1.00  0.00     0.293 HD
ENDBRANCH   4  12
TORSDOF 3
ENDMDL
MODEL 6
REMARK VINA RESULT:    -2.543      1.728      4.474
REMARK INTER + INTRA:          -3.141
REMARK INTER:                  -2.834
REMARK INTRA:                  -0.307
REMARK UNBOUND:                -0.301
REMARK SMILES CC(=O)c1ccc(O)cc1O
REMARK SMILES IDX 4 1 10 2 9 3 7 4 6 5 5 6 2 7 1 8 3 9 11 10 8 12
REMARK H PARENT 11 11 8 13
REMARK Flexibility Score: inf
ROOT
ATOM      1  C   UNL     1     107.766  85.673  58.172  1.00  0.00     0.059 A 
ATOM      2  C   UNL     1     107.521  86.467  57.025  1.00  0.00     0.130 A 
ATOM      3  C   UNL     1     108.325  87.586  56.760  1.00  0.00     0.093 A 
ATOM      4  C   UNL     1     109.367  87.933  57.621  1.00  0.00     0.119 A 
ATOM      5  C   UNL     1     109.614  87.158  58.758  1.00  0.00     0.047 A 
ATOM      6  C   UNL     1     108.823  86.040  59.032  1.00  0.00     0.019 A 
ENDROOT
BRANCH   1   7
ATOM      7  C   UNL     1     106.936  84.473  58.474  1.00  0.00     0.163 C 
ATOM      8  C   UNL     1     107.555  83.140  58.776  1.00  0.00     0.093 C 
ATOM      9  O   UNL     1     105.678  84.551  58.453  1.00  0.00    -0.294 OA
ENDBRANCH   1   7
BRANCH   2  10
ATOM     10  O   UNL     1     106.478  86.154  56.153  1.00  0.00    -0.507 OA
ATOM     11  H   UNL     1     106.227  86.763  55.384  1.00  0.00     0.293 HD
ENDBRANCH   2  10
BRANCH   4  12
ATOM     12  O   UNL     1     110.151  89.050  57.338  1.00  0.00    -0.508 OA
ATOM     13  H   UNL     1     109.919  89.966  57.704  1.00  0.00     0.293 HD
ENDBRANCH   4  12
TORSDOF 3
ENDMDL
MODEL 7
REMARK VINA RESULT:    -2.521      1.959      4.437
REMARK INTER + INTRA:          -3.118
REMARK INTER:                  -2.815
REMARK INTRA:                  -0.302
REMARK UNBOUND:                -0.301
REMARK SMILES CC(=O)c1ccc(O)cc1O
REMARK SMILES IDX 4 1 10 2 9 3 7 4 6 5 5 6 2 7 1 8 3 9 11 10 8 12
REMARK H PARENT 11 11 8 13
REMARK Flexibility Score: inf
ROOT
ATOM      1  C   UNL     1     108.469  87.702  56.489  1.00  0.00     0.059 A 
ATOM      2  C   UNL     1     108.352  87.093  57.762  1.00  0.00     0.130 A 
ATOM      3  C   UNL     1     109.455  87.058  58.629  1.00  0.00     0.093 A 
ATOM      4  C   UNL     1     110.676  87.616  58.248  1.00  0.00     0.119 A 
ATOM      5  C   UNL     1     110.803  88.216  56.992  1.00  0.00     0.047 A 
ATOM      6  C   UNL     1     109.712  88.260  56.121  1.00  0.00     0.019 A 
ENDROOT
BRANCH   1   7
ATOM      7  C   UNL     1     107.312  87.763  55.551  1.00  0.00     0.163 C 
ATOM      8  C   UNL     1     106.952  89.023  54.822  1.00  0.00     0.093 C 
ATOM      9  O   UNL     1     106.587  86.747  55.373  1.00  0.00    -0.294 OA
ENDBRANCH   1   7
BRANCH   2  10
ATOM     10  O   UNL     1     107.149  86.513  58.165  1.00  0.00    -0.507 OA
ATOM     11  H   UNL     1     106.256  86.843  57.818  1.00  0.00     0.293 HD
ENDBRANCH   2  10
BRANCH   4  12
ATOM     12  O   UNL     1     111.758  87.569  59.125  1.00  0.00    -0.508 OA
ATOM     13  H   UNL     1     112.089  86.693  59.512  1.00  0.00     0.293 HD
ENDBRANCH   4  12
TORSDOF 3
ENDMDL
MODEL 8
REMARK VINA RESULT:    -2.444     10.800     12.537
REMARK INTER + INTRA:          -3.031
REMARK INTER:                  -2.729
REMARK INTRA:                  -0.302
REMARK UNBOUND:                -0.301
REMARK SMILES CC(=O)c1ccc(O)cc1O
REMARK SMILES IDX 4 1 10 2 9 3 7 4 6 5 5 6 2 7 1 8 3 9 11 10 8 12
REMARK H PARENT 11 11 8 13
REMARK Flexibility Score: inf
ROOT
ATOM      1  C   UNL     1     122.542  85.810  57.123  1.00  0.00     0.059 A 
ATOM      2  C   UNL     1     121.628  85.754  58.203  1.00  0.00     0.130 A 
ATOM      3  C   UNL     1     120.755  86.826  58.442  1.00  0.00     0.093 A 
ATOM      4  C   UNL     1     120.779  87.957  57.625  1.00  0.00     0.119 A 
ATOM      5  C   UNL     1     121.681  88.023  56.558  1.00  0.00     0.047 A 
ATOM      6  C   UNL     1     122.553  86.962  56.308  1.00  0.00     0.019 A 
ENDROOT
BRANCH   1   7
ATOM      7  C   UNL     1     123.474  84.681  56.839  1.00  0.00     0.163 C 
ATOM      8  C   UNL     1     124.907  84.917  56.464  1.00  0.00     0.093 C 
ATOM      9  O   UNL     1     123.060  83.492  56.882  1.00  0.00    -0.294 OA
ENDBRANCH   1   7
BRANCH   2  10
ATOM     10  O   UNL     1     121.590  84.643  59.046  1.00  0.00    -0.507 OA
ATOM     11  H   UNL     1     121.903  83.730  58.738  1.00  0.00     0.293 HD
ENDBRANCH   2  10
BRANCH   4  12
ATOM     12  O   UNL     1     119.904  89.011  57.881  1.00  0.00    -0.508 OA
ATOM     13  H   UNL     1     118.917  88.851  58.048  1.00  0.00     0.293 HD
ENDBRANCH   4  12
TORSDOF 3
ENDMDL
