MODEL 1
REMARK VINA RESULT:    -4.540      0.000      0.000
REMARK INTER + INTRA:         -10.027
REMARK INTER:                  -7.991
REMARK INTRA:                  -2.036
REMARK UNBOUND:                -2.036
REMARK SMILES CCCCCCCCCCCCCCC(=O)[O-]
REMARK SMILES IDX 9 1 10 2 11 3 12 4 13 5 14 6 15 7 16 8 17 9 8 10 7 11 6 12
REMARK SMILES IDX 5 13 4 14 3 15 2 16 1 17
REMARK H PARENT
REMARK Flexibility Score: inf
ROOT
ATOM      1  C   UNL     1       9.745  10.237   5.409  1.00  0.00     0.000 C 
ENDROOT
BRANCH   1   2
ATOM      2  C   UNL     1      11.011  10.085   4.557  1.00  0.00     0.000 C 
BRANCH   2   3
ATOM      3  C   UNL     1      11.505  11.450   4.054  1.00  0.00     0.000 C 
BRANCH   3   4
ATOM      4  C   UNL     1      12.993  11.690   4.389  1.00  0.00     0.000 C 
BRANCH   4   5
ATOM      5  C   UNL     1      13.667  12.733   3.481  1.00  0.00     0.006 C 
BRANCH   5   6
ATOM      6  C   UNL     1      14.880  13.402   4.140  1.00  0.00     0.053 C 
BRANCH   6   7
ATOM      7  C   UNL     1      16.081  13.291   3.255  1.00  0.00     0.041 C 
ATOM      8  O   UNL     1      15.976  12.794   2.102  1.00  0.00    -0.550 OA
ATOM      9  O   UNL     1      17.308  13.783   3.684  1.00  0.00    -0.550 OA
ENDBRANCH   6   7
ENDBRANCH   5   6
ENDBRANCH   4   5
ENDBRANCH   3   4
ENDBRANCH   2   3
ENDBRANCH   1   2
BRANCH   1  10
ATOM     10  C   UNL     1       8.783  11.260   4.785  1.00  0.00     0.000 C 
BRANCH  10  11
ATOM     11  C   UNL     1       7.901  11.967   5.829  1.00  0.00    -0.000 C 
BRANCH  11  12
ATOM     12  C   UNL     1       8.512  12.069   7.243  1.00  0.00    -0.000 C 
BRANCH  12  13
ATOM     13  C   UNL     1       9.314  13.354   7.516  1.00  0.00    -0.000 C 
BRANCH  13  14
ATOM     14  C   UNL     1      10.791  13.301   7.085  1.00  0.00    -0.000 C 
BRANCH  14  15
ATOM     15  C   UNL     1      11.218  14.479   6.183  1.00  0.00    -0.000 C 
BRANCH  15  16
ATOM     16  C   UNL     1      10.036  15.092   5.418  1.00  0.00    -0.003 C 
ATOM     17  C   UNL     1      10.091  14.725   3.937  1.00  0.00     0.004 C 
ENDBRANCH  15  16
ENDBRANCH  14  15
ENDBRANCH  13  14
ENDBRANCH  12  13
ENDBRANCH  11  12
ENDBRANCH  10  11
ENDBRANCH   1  10
TORSDOF 13
ENDMDL
MODEL 2
REMARK VINA RESULT:    -4.514      1.035      1.964
REMARK INTER + INTRA:          -9.980
REMARK INTER:                  -7.911
REMARK INTRA:                  -2.069
REMARK UNBOUND:                -2.036
REMARK SMILES CCCCCCCCCCCCCCC(=O)[O-]
REMARK SMILES IDX 9 1 10 2 11 3 12 4 13 5 14 6 15 7 16 8 17 9 8 10 7 11 6 12
REMARK SMILES IDX 5 13 4 14 3 15 2 16 1 17
REMARK H PARENT
REMARK Flexibility Score: inf
ROOT
ATOM      1  C   UNL     1      11.735  10.936   4.295  1.00  0.00     0.000 C 
ENDROOT
BRANCH   1   2
ATOM      2  C   UNL     1      11.326  12.154   3.459  1.00  0.00     0.000 C 
BRANCH   2   3
ATOM      3  C   UNL     1      12.540  12.765   2.743  1.00  0.00     0.000 C 
BRANCH   3   4
ATOM      4  C   UNL     1      12.665  14.282   2.997  1.00  0.00     0.000 C 
BRANCH   4   5
ATOM      5  C   UNL     1      14.120  14.776   3.069  1.00  0.00     0.006 C 
BRANCH   5   6
ATOM      6  C   UNL     1      15.001  13.906   3.972  1.00  0.00     0.053 C 
BRANCH   6   7
ATOM      7  C   UNL     1      16.197  13.414   3.219  1.00  0.00     0.041 C 
ATOM      8  O   UNL     1      16.049  12.741   2.164  1.00  0.00    -0.550 OA
ATOM      9  O   UNL     1      17.475  13.741   3.653  1.00  0.00    -0.550 OA
ENDBRANCH   6   7
ENDBRANCH   5   6
ENDBRANCH   4   5
ENDBRANCH   3   4
ENDBRANCH   2   3
ENDBRANCH   1   2
BRANCH   1  10
ATOM     10  C   UNL     1      10.499  10.184   4.813  1.00  0.00     0.000 C 
BRANCH  10  11
ATOM     11  C   UNL     1       9.808  10.903   5.985  1.00  0.00    -0.000 C 
BRANCH  11  12
ATOM     12  C   UNL     1       8.467  11.585   5.637  1.00  0.00    -0.000 C 
BRANCH  12  13
ATOM     13  C   UNL     1       8.418  13.100   5.902  1.00  0.00    -0.000 C 
BRANCH  13  14
ATOM     14  C   UNL     1       9.629  13.665   6.668  1.00  0.00    -0.000 C 
BRANCH  14  15
ATOM     15  C   UNL     1      10.318  14.848   5.956  1.00  0.00    -0.000 C 
BRANCH  15  16
ATOM     16  C   UNL     1      11.800  14.980   6.336  1.00  0.00    -0.003 C 
ATOM     17  C   UNL     1      12.388  13.629   6.735  1.00  0.00     0.004 C 
ENDBRANCH  15  16
ENDBRANCH  14  15
ENDBRANCH  13  14
ENDBRANCH  12  13
ENDBRANCH  11  12
ENDBRANCH  10  11
ENDBRANCH   1  10
TORSDOF 13
ENDMDL
MODEL 3
REMARK VINA RESULT:    -4.457      1.588      4.074
REMARK INTER + INTRA:          -9.881
REMARK INTER:                  -7.889
REMARK INTRA:                  -1.991
REMARK UNBOUND:                -2.036
REMARK SMILES CCCCCCCCCCCCCCC(=O)[O-]
REMARK SMILES IDX 9 1 10 2 11 3 12 4 13 5 14 6 15 7 16 8 17 9 8 10 7 11 6 12
REMARK SMILES IDX 5 13 4 14 3 15 2 16 1 17
REMARK H PARENT
REMARK Flexibility Score: inf
ROOT
ATOM      1  C   UNL     1      11.086  15.431   3.643  1.00  0.00     0.000 C 
ENDROOT
BRANCH   1   2
ATOM      2  C   UNL     1      11.994  15.676   2.432  1.00  0.00     0.000 C 
BRANCH   2   3
ATOM      3  C   UNL     1      12.448  14.349   1.804  1.00  0.00     0.000 C 
BRANCH   3   4
ATOM      4  C   UNL     1      13.932  14.382   1.382  1.00  0.00     0.000 C 
BRANCH   4   5
ATOM      5  C   UNL     1      14.863  13.625   2.345  1.00  0.00     0.006 C 
BRANCH   5   6
ATOM      6  C   UNL     1      15.445  14.525   3.442  1.00  0.00     0.053 C 
BRANCH   6   7
ATOM      7  C   UNL     1      16.941  14.505   3.394  1.00  0.00     0.041 C 
ATOM      8  O   UNL     1      17.569  13.442   3.646  1.00  0.00    -0.550 OA
ATOM      9  O   UNL     1      17.640  15.646   3.022  1.00  0.00    -0.550 OA
ENDBRANCH   6   7
ENDBRANCH   5   6
ENDBRANCH   4   5
ENDBRANCH   3   4
ENDBRANCH   2   3
ENDBRANCH   1   2
BRANCH   1  10
ATOM     10  C   UNL     1      11.915  15.103   4.894  1.00  0.00     0.000 C 
BRANCH  10  11
ATOM     11  C   UNL     1      11.620  13.703   5.459  1.00  0.00    -0.000 C 
BRANCH  11  12
ATOM     12  C   UNL     1      12.755  12.672   5.281  1.00  0.00    -0.000 C 
BRANCH  12  13
ATOM     13  C   UNL     1      12.488  11.583   4.225  1.00  0.00    -0.000 C 
BRANCH  13  14
ATOM     14  C   UNL     1      11.006  11.395   3.849  1.00  0.00    -0.000 C 
BRANCH  14  15
ATOM     15  C   UNL     1      10.285  10.318   4.688  1.00  0.00    -0.000 C 
BRANCH  15  16
ATOM     16  C   UNL     1       9.080  10.881   5.456  1.00  0.00    -0.003 C 
ATOM     17  C   UNL     1       9.372  10.966   6.952  1.00  0.00     0.004 C 
ENDBRANCH  15  16
ENDBRANCH  14  15
ENDBRANCH  13  14
ENDBRANCH  12  13
ENDBRANCH  11  12
ENDBRANCH  10  11
ENDBRANCH   1  10
TORSDOF 13
ENDMDL
MODEL 4
REMARK VINA RESULT:    -4.433      1.491      2.740
REMARK INTER + INTRA:          -9.839
REMARK INTER:                  -8.182
REMARK INTRA:                  -1.656
REMARK UNBOUND:                -2.036
REMARK SMILES CCCCCCCCCCCCCCC(=O)[O-]
REMARK SMILES IDX 9 1 10 2 11 3 12 4 13 5 14 6 15 7 16 8 17 9 8 10 7 11 6 12
REMARK SMILES IDX 5 13 4 14 3 15 2 16 1 17
REMARK H PARENT
REMARK Flexibility Score: inf
ROOT
ATOM      1  C   UNL     1      11.717  11.919   3.278  1.00  0.00     0.000 C 
ENDROOT
BRANCH   1   2
ATOM      2  C   UNL     1      12.115  13.360   3.619  1.00  0.00     0.000 C 
BRANCH   2   3
ATOM      3  C   UNL     1      12.090  14.251   2.367  1.00  0.00     0.000 C 
BRANCH   3   4
ATOM      4  C   UNL     1      13.410  14.172   1.570  1.00  0.00     0.000 C 
BRANCH   4   5
ATOM      5  C   UNL     1      14.658  14.484   2.414  1.00  0.00     0.006 C 
BRANCH   5   6
ATOM      6  C   UNL     1      15.673  13.336   2.424  1.00  0.00     0.053 C 
BRANCH   6   7
ATOM      7  C   UNL     1      16.444  13.331   3.706  1.00  0.00     0.041 C 
ATOM      8  O   UNL     1      17.693  13.494   3.695  1.00  0.00    -0.550 OA
ATOM      9  O   UNL     1      15.778  13.197   4.918  1.00  0.00    -0.550 OA
ENDBRANCH   6   7
ENDBRANCH   5   6
ENDBRANCH   4   5
ENDBRANCH   3   4
ENDBRANCH   2   3
ENDBRANCH   1   2
BRANCH   1  10
ATOM     10  C   UNL     1      11.756  11.028   4.528  1.00  0.00     0.000 C 
BRANCH  10  11
ATOM     11  C   UNL     1      10.482  10.184   4.703  1.00  0.00    -0.000 C 
BRANCH  11  12
ATOM     12  C   UNL     1       9.728  10.402   6.032  1.00  0.00    -0.000 C 
BRANCH  12  13
ATOM     13  C   UNL     1      10.053  11.720   6.758  1.00  0.00    -0.000 C 
BRANCH  13  14
ATOM     14  C   UNL     1       9.138  12.904   6.393  1.00  0.00    -0.000 C 
BRANCH  14  15
ATOM     15  C   UNL     1       8.005  12.534   5.411  1.00  0.00    -0.000 C 
BRANCH  15  16
ATOM     16  C   UNL     1       8.227  13.123   4.010  1.00  0.00    -0.003 C 
ATOM     17  C   UNL     1       8.634  14.592   4.090  1.00  0.00     0.004 C 
ENDBRANCH  15  16
ENDBRANCH  14  15
ENDBRANCH  13  14
ENDBRANCH  12  13
ENDBRANCH  11  12
ENDBRANCH  10  11
ENDBRANCH   1  10
TORSDOF 13
ENDMDL
MODEL 5
REMARK VINA RESULT:    -4.399      3.799      6.336
REMARK INTER + INTRA:          -9.779
REMARK INTER:                  -7.949
REMARK INTRA:                  -1.829
REMARK UNBOUND:                -2.036
REMARK SMILES CCCCCCCCCCCCCCC(=O)[O-]
REMARK SMILES IDX 9 1 10 2 11 3 12 4 13 5 14 6 15 7 16 8 17 9 8 10 7 11 6 12
REMARK SMILES IDX 5 13 4 14 3 15 2 16 1 17
REMARK H PARENT
REMARK Flexibility Score: inf
ROOT
ATOM      1  C   UNL     1      12.645  13.045   5.027  1.00  0.00     0.000 C 
ENDROOT
BRANCH   1   2
ATOM      2  C   UNL     1      12.544  11.667   4.362  1.00  0.00     0.000 C 
BRANCH   2   3
ATOM      3  C   UNL     1      11.089  11.337   3.995  1.00  0.00     0.000 C 
BRANCH   3   4
ATOM      4  C   UNL     1      10.563  10.100   4.755  1.00  0.00     0.000 C 
BRANCH   4   5
ATOM      5  C   UNL     1       9.697  10.451   5.977  1.00  0.00     0.006 C 
BRANCH   5   6
ATOM      6  C   UNL     1       8.465  11.288   5.614  1.00  0.00     0.053 C 
BRANCH   6   7
ATOM      7  C   UNL     1       7.718  11.681   6.849  1.00  0.00     0.041 C 
ATOM      8  O   UNL     1       8.243  11.525   7.984  1.00  0.00    -0.550 OA
ATOM      9  O   UNL     1       6.462  12.265   6.746  1.00  0.00    -0.550 OA
ENDBRANCH   6   7
ENDBRANCH   5   6
ENDBRANCH   4   5
ENDBRANCH   3   4
ENDBRANCH   2   3
ENDBRANCH   1   2
BRANCH   1  10
ATOM     10  C   UNL     1      11.301  13.786   4.963  1.00  0.00     0.000 C 
BRANCH  10  11
ATOM     11  C   UNL     1      11.355  15.050   4.088  1.00  0.00    -0.000 C 
BRANCH  11  12
ATOM     12  C   UNL     1      11.101  14.817   2.583  1.00  0.00    -0.000 C 
BRANCH  12  13
ATOM     13  C   UNL     1      12.339  14.973   1.680  1.00  0.00    -0.000 C 
BRANCH  13  14
ATOM     14  C   UNL     1      13.036  13.653   1.304  1.00  0.00    -0.000 C 
BRANCH  14  15
ATOM     15  C   UNL     1      14.572  13.771   1.191  1.00  0.00    -0.000 C 
BRANCH  15  16
ATOM     16  C   UNL     1      15.296  13.222   2.430  1.00  0.00    -0.003 C 
ATOM     17  C   UNL     1      15.721  14.353   3.363  1.00  0.00     0.004 C 
ENDBRANCH  15  16
ENDBRANCH  14  15
ENDBRANCH  13  14
ENDBRANCH  12  13
ENDBRANCH  11  12
ENDBRANCH  10  11
ENDBRANCH   1  10
TORSDOF 13
ENDMDL
MODEL 6
REMARK VINA RESULT:    -4.397      4.036      6.529
REMARK INTER + INTRA:          -9.775
REMARK INTER:                  -8.152
REMARK INTRA:                  -1.623
REMARK UNBOUND:                -2.036
REMARK SMILES CCCCCCCCCCCCCCC(=O)[O-]
REMARK SMILES IDX 9 1 10 2 11 3 12 4 13 5 14 6 15 7 16 8 17 9 8 10 7 11 6 12
REMARK SMILES IDX 5 13 4 14 3 15 2 16 1 17
REMARK H PARENT
REMARK Flexibility Score: inf
ROOT
ATOM      1  C   UNL     1      12.025  11.985   4.905  1.00  0.00     0.000 C 
ENDROOT
BRANCH   1   2
ATOM      2  C   UNL     1      11.004  11.533   3.854  1.00  0.00     0.000 C 
BRANCH   2   3
ATOM      3  C   UNL     1       9.665  11.163   4.510  1.00  0.00     0.000 C 
BRANCH   3   4
ATOM      4  C   UNL     1       9.856  10.487   5.884  1.00  0.00     0.000 C 
BRANCH   4   5
ATOM      5  C   UNL     1       9.102  11.191   7.026  1.00  0.00     0.006 C 
BRANCH   5   6
ATOM      6  C   UNL     1       8.756  12.649   6.702  1.00  0.00     0.053 C 
BRANCH   6   7
ATOM      7  C   UNL     1       7.291  12.891   6.882  1.00  0.00     0.041 C 
ATOM      8  O   UNL     1       6.458  11.998   6.571  1.00  0.00    -0.550 OA
ATOM      9  O   UNL     1       6.846  14.083   7.440  1.00  0.00    -0.550 OA
ENDBRANCH   6   7
ENDBRANCH   5   6
ENDBRANCH   4   5
ENDBRANCH   3   4
ENDBRANCH   2   3
ENDBRANCH   1   2
BRANCH   1  10
ATOM     10  C   UNL     1      13.451  11.963   4.333  1.00  0.00     0.000 C 
BRANCH  10  11
ATOM     11  C   UNL     1      14.364  13.032   4.957  1.00  0.00    -0.000 C 
BRANCH  11  12
ATOM     12  C   UNL     1      15.477  13.566   4.030  1.00  0.00    -0.000 C 
BRANCH  12  13
ATOM     13  C   UNL     1      15.351  13.152   2.553  1.00  0.00    -0.000 C 
BRANCH  13  14
ATOM     14  C   UNL     1      14.694  14.204   1.639  1.00  0.00    -0.000 C 
BRANCH  14  15
ATOM     15  C   UNL     1      13.297  13.794   1.125  1.00  0.00    -0.000 C 
BRANCH  15  16
ATOM     16  C   UNL     1      12.161  14.437   1.935  1.00  0.00    -0.003 C 
ATOM     17  C   UNL     1      12.636  15.709   2.634  1.00  0.00     0.004 C 
ENDBRANCH  15  16
ENDBRANCH  14  15
ENDBRANCH  13  14
ENDBRANCH  12  13
ENDBRANCH  11  12
ENDBRANCH  10  11
ENDBRANCH   1  10
TORSDOF 13
ENDMDL
MODEL 7
REMARK VINA RESULT:    -4.381      3.772      6.523
REMARK INTER + INTRA:          -9.746
REMARK INTER:                  -8.026
REMARK INTRA:                  -1.721
REMARK UNBOUND:                -2.036
REMARK SMILES CCCCCCCCCCCCCCC(=O)[O-]
REMARK SMILES IDX 9 1 10 2 11 3 12 4 13 5 14 6 15 7 16 8 17 9 8 10 7 11 6 12
REMARK SMILES IDX 5 13 4 14 3 15 2 16 1 17
REMARK H PARENT
REMARK Flexibility Score: inf
ROOT
ATOM      1  C   UNL     1      12.792  13.175   5.015  1.00  0.00     0.000 C 
ENDROOT
BRANCH   1   2
ATOM      2  C   UNL     1      12.637  11.935   4.127  1.00  0.00     0.000 C 
BRANCH   2   3
ATOM      3  C   UNL     1      11.155  11.609   3.887  1.00  0.00     0.000 C 
BRANCH   3   4
ATOM      4  C   UNL     1      10.722  10.309   4.599  1.00  0.00     0.000 C 
BRANCH   4   5
ATOM      5  C   UNL     1       9.783  10.545   5.794  1.00  0.00     0.006 C 
BRANCH   5   6
ATOM      6  C   UNL     1       8.508  11.304   5.409  1.00  0.00     0.053 C 
BRANCH   6   7
ATOM      7  C   UNL     1       7.780  11.758   6.635  1.00  0.00     0.041 C 
ATOM      8  O   UNL     1       6.576  12.121   6.560  1.00  0.00    -0.550 OA
ATOM      9  O   UNL     1       8.416  11.734   7.870  1.00  0.00    -0.550 OA
ENDBRANCH   6   7
ENDBRANCH   5   6
ENDBRANCH   4   5
ENDBRANCH   3   4
ENDBRANCH   2   3
ENDBRANCH   1   2
BRANCH   1  10
ATOM     10  C   UNL     1      14.099  13.918   4.699  1.00  0.00     0.000 C 
BRANCH  10  11
ATOM     11  C   UNL     1      15.182  13.001   4.106  1.00  0.00    -0.000 C 
BRANCH  11  12
ATOM     12  C   UNL     1      15.728  13.435   2.729  1.00  0.00    -0.000 C 
BRANCH  12  13
ATOM     13  C   UNL     1      14.825  14.405   1.945  1.00  0.00    -0.000 C 
BRANCH  13  14
ATOM     14  C   UNL     1      13.903  13.736   0.909  1.00  0.00    -0.000 C 
BRANCH  14  15
ATOM     15  C   UNL     1      12.528  14.423   0.766  1.00  0.00    -0.000 C 
BRANCH  15  16
ATOM     16  C   UNL     1      12.187  15.312   1.972  1.00  0.00    -0.003 C 
ATOM     17  C   UNL     1      10.747  15.091   2.427  1.00  0.00     0.004 C 
ENDBRANCH  15  16
ENDBRANCH  14  15
ENDBRANCH  13  14
ENDBRANCH  12  13
ENDBRANCH  11  12
ENDBRANCH  10  11
ENDBRANCH   1  10
TORSDOF 13
ENDMDL
MODEL 8
REMARK VINA RESULT:    -4.349      1.282      3.334
REMARK INTER + INTRA:          -9.690
REMARK INTER:                  -7.341
REMARK INTRA:                  -2.348
REMARK UNBOUND:                -2.036
REMARK SMILES CCCCCCCCCCCCCCC(=O)[O-]
REMARK SMILES IDX 9 1 10 2 11 3 12 4 13 5 14 6 15 7 16 8 17 9 8 10 7 11 6 12
REMARK SMILES IDX 5 13 4 14 3 15 2 16 1 17
REMARK H PARENT
REMARK Flexibility Score: inf
ROOT
ATOM      1  C   UNL     1      10.426  13.990   4.151  1.00  0.00     0.000 C 
ENDROOT
BRANCH   1   2
ATOM      2  C   UNL     1      10.417  14.653   5.534  1.00  0.00     0.000 C 
BRANCH   2   3
ATOM      3  C   UNL     1      11.785  14.517   6.220  1.00  0.00     0.000 C 
BRANCH   3   4
ATOM      4  C   UNL     1      12.384  13.105   6.049  1.00  0.00     0.000 C 
BRANCH   4   5
ATOM      5  C   UNL     1      13.758  13.099   5.356  1.00  0.00     0.006 C 
BRANCH   5   6
ATOM      6  C   UNL     1      13.759  12.309   4.042  1.00  0.00     0.053 C 
BRANCH   6   7
ATOM      7  C   UNL     1      14.279  13.157   2.924  1.00  0.00     0.041 C 
ATOM      8  O   UNL     1      13.594  14.120   2.488  1.00  0.00    -0.550 OA
ATOM      9  O   UNL     1      15.541  12.915   2.396  1.00  0.00    -0.550 OA
ENDBRANCH   6   7
ENDBRANCH   5   6
ENDBRANCH   4   5
ENDBRANCH   3   4
ENDBRANCH   2   3
ENDBRANCH   1   2
BRANCH   1  10
ATOM     10  C   UNL     1       9.012  13.553   3.741  1.00  0.00     0.000 C 
BRANCH  10  11
ATOM     11  C   UNL     1       8.877  12.028   3.587  1.00  0.00    -0.000 C 
BRANCH  11  12
ATOM     12  C   UNL     1      10.184  11.231   3.785  1.00  0.00    -0.000 C 
BRANCH  12  13
ATOM     13  C   UNL     1      10.226  10.350   5.047  1.00  0.00    -0.000 C 
BRANCH  13  14
ATOM     14  C   UNL     1       9.069  10.579   6.036  1.00  0.00    -0.000 C 
BRANCH  14  15
ATOM     15  C   UNL     1       9.450  11.462   7.244  1.00  0.00    -0.000 C 
BRANCH  15  16
ATOM     16  C   UNL     1       8.236  12.180   7.853  1.00  0.00    -0.003 C 
ATOM     17  C   UNL     1       7.137  12.380   6.812  1.00  0.00     0.004 C 
ENDBRANCH  15  16
ENDBRANCH  14  15
ENDBRANCH  13  14
ENDBRANCH  12  13
ENDBRANCH  11  12
ENDBRANCH  10  11
ENDBRANCH   1  10
TORSDOF 13
ENDMDL
MODEL 9
REMARK VINA RESULT:    -4.296      1.250      3.063
REMARK INTER + INTRA:          -9.597
REMARK INTER:                  -7.959
REMARK INTRA:                  -1.638
REMARK UNBOUND:                -2.036
REMARK SMILES CCCCCCCCCCCCCCC(=O)[O-]
REMARK SMILES IDX 9 1 10 2 11 3 12 4 13 5 14 6 15 7 16 8 17 9 8 10 7 11 6 12
REMARK SMILES IDX 5 13 4 14 3 15 2 16 1 17
REMARK H PARENT
REMARK Flexibility Score: inf
ROOT
ATOM      1  C   UNL     1      11.710  13.721   6.308  1.00  0.00     0.000 C 
ENDROOT
BRANCH   1   2
ATOM      2  C   UNL     1      13.023  13.689   5.517  1.00  0.00     0.000 C 
BRANCH   2   3
ATOM      3  C   UNL     1      13.214  12.334   4.819  1.00  0.00     0.000 C 
BRANCH   3   4
ATOM      4  C   UNL     1      13.064  12.442   3.286  1.00  0.00     0.000 C 
BRANCH   4   5
ATOM      5  C   UNL     1      13.971  13.512   2.653  1.00  0.00     0.006 C 
BRANCH   5   6
ATOM      6  C   UNL     1      15.440  13.080   2.581  1.00  0.00     0.053 C 
BRANCH   6   7
ATOM      7  C   UNL     1      16.315  14.087   3.258  1.00  0.00     0.041 C 
ATOM      8  O   UNL     1      15.831  15.178   3.660  1.00  0.00    -0.550 OA
ATOM      9  O   UNL     1      17.655  13.802   3.489  1.00  0.00    -0.550 OA
ENDBRANCH   6   7
ENDBRANCH   5   6
ENDBRANCH   4   5
ENDBRANCH   3   4
ENDBRANCH   2   3
ENDBRANCH   1   2
BRANCH   1  10
ATOM     10  C   UNL     1      10.790  14.842   5.802  1.00  0.00     0.000 C 
BRANCH  10  11
ATOM     11  C   UNL     1       9.382  14.342   5.436  1.00  0.00    -0.000 C 
BRANCH  11  12
ATOM     12  C   UNL     1       8.428  14.134   6.631  1.00  0.00    -0.000 C 
BRANCH  12  13
ATOM     13  C   UNL     1       7.455  12.949   6.491  1.00  0.00    -0.000 C 
BRANCH  13  14
ATOM     14  C   UNL     1       8.057  11.690   5.839  1.00  0.00    -0.000 C 
BRANCH  14  15
ATOM     15  C   UNL     1       9.138  11.001   6.700  1.00  0.00    -0.000 C 
BRANCH  15  16
ATOM     16  C   UNL     1      10.104  10.152   5.861  1.00  0.00    -0.003 C 
ATOM     17  C   UNL     1      10.095  10.592   4.399  1.00  0.00     0.004 C 
ENDBRANCH  15  16
ENDBRANCH  14  15
ENDBRANCH  13  14
ENDBRANCH  12  13
ENDBRANCH  11  12
ENDBRANCH  10  11
ENDBRANCH   1  10
TORSDOF 13
ENDMDL
