MODEL 1
REMARK VINA RESULT:    -3.615      0.000      0.000
REMARK INTER + INTRA:          -4.667
REMARK INTER:                  -5.095
REMARK INTRA:                   0.428
REMARK UNBOUND:                 0.428
REMARK SMILES CC1=CCC(=C(C)C)C(=O)CC(C)=CCC1
REMARK SMILES IDX 12 1 14 2 13 3 15 4 16 5 2 6 1 7 3 8 11 10 9 11 10 12 5 13
REMARK SMILES IDX 6 14 7 15 8 16 4 17
REMARK H PARENT
REMARK Flexibility Score: 60.00
ROOT
ATOM      1  C   UNL     1      22.181  25.528  41.367  1.00  0.00    -0.070 C 
ATOM      2  C   UNL     1      23.237  26.261  41.784  1.00  0.00    -0.027 C 
ATOM      3  C   UNL     1      22.293  24.821  40.040  1.00  0.00     0.039 C 
ENDROOT
BRANCH   2   4
ATOM      4  C   UNL     1      23.280  27.116  43.032  1.00  0.00     0.032 C 
BRANCH   4   5
ATOM      5  C   UNL     1      23.449  28.628  42.776  1.00  0.00     0.034 C 
BRANCH   5   6
ATOM      6  C   UNL     1      22.508  29.163  41.710  1.00  0.00    -0.077 C 
ATOM      7  C   UNL     1      23.123  29.747  40.463  1.00  0.00     0.039 C 
ATOM      8  C   UNL     1      21.160  29.213  41.836  1.00  0.00    -0.023 CG0
ATOM      9  G   UNL     1      20.328  28.672  42.983  1.00  0.00     0.000 G0
ENDBRANCH   5   6
ENDBRANCH   4   5
ENDBRANCH   2   4
BRANCH   1  10
ATOM     10  C   UNL     1      20.867  25.460  42.118  1.00  0.00     0.111 C 
BRANCH  10  11
ATOM     11  C   UNL     1      19.898  26.507  41.636  1.00  0.00     0.163 C 
ATOM     12  O   UNL     1      19.575  26.500  40.417  1.00  0.00    -0.294 OA
BRANCH  11  13
ATOM     13  C   UNL     1      19.364  27.577  42.529  1.00  0.00    -0.002 C 
ATOM     14  C   UNL     1      18.037  27.612  42.862  1.00  0.00    -0.069 C 
ATOM     15  C   UNL     1      17.101  26.491  42.470  1.00  0.00     0.039 C 
ATOM     16  C   UNL     1      17.436  28.767  43.632  1.00  0.00     0.039 C 
BRANCH  13  17
ATOM     17  C   UNL     1      20.331  28.665  42.968  1.00  0.00     0.066 CG0
ATOM     18  G   UNL     1      21.171  29.187  41.817  1.00  0.00     0.000 G0
ENDBRANCH  13  17
ENDBRANCH  11  13
ENDBRANCH  10  11
ENDBRANCH   1  10
TORSDOF 0
ENDMDL
MODEL 2
REMARK VINA RESULT:    -3.558      1.439      4.279
REMARK INTER + INTRA:          -4.586
REMARK INTER:                  -5.178
REMARK INTRA:                   0.592
REMARK UNBOUND:                 0.428
REMARK SMILES CC1=CCC(=C(C)C)C(=O)CC(C)=CCC1
REMARK SMILES IDX 12 1 14 2 13 3 15 4 16 5 2 6 1 7 3 8 11 10 9 11 10 12 5 13
REMARK SMILES IDX 6 14 7 15 8 16 4 17
REMARK H PARENT
REMARK Flexibility Score: 60.00
ROOT
ATOM      1  C   UNL     1      20.125  26.311  40.383  1.00  0.00    -0.070 C 
ATOM      2  C   UNL     1      19.107  25.798  41.109  1.00  0.00    -0.027 C 
ATOM      3  C   UNL     1      21.416  25.534  40.331  1.00  0.00     0.039 C 
ENDROOT
BRANCH   2   4
ATOM      4  C   UNL     1      17.775  26.471  41.361  1.00  0.00     0.032 C 
BRANCH   4   5
ATOM      5  C   UNL     1      17.436  26.699  42.848  1.00  0.00     0.034 C 
BRANCH   5   6
ATOM      6  C   UNL     1      17.546  28.154  43.270  1.00  0.00    -0.077 C 
ATOM      7  C   UNL     1      16.264  28.917  43.495  1.00  0.00     0.039 C 
ATOM      8  C   UNL     1      18.714  28.829  43.389  1.00  0.00    -0.023 CG0
ATOM      9  G   UNL     1      20.115  28.269  43.231  1.00  0.00     0.000 G0
ENDBRANCH   5   6
ENDBRANCH   4   5
ENDBRANCH   2   4
BRANCH   1  10
ATOM     10  C   UNL     1      20.062  27.662  39.702  1.00  0.00     0.111 C 
BRANCH  10  11
ATOM     11  C   UNL     1      19.984  28.785  40.704  1.00  0.00     0.163 C 
ATOM     12  O   UNL     1      19.242  29.769  40.436  1.00  0.00    -0.294 OA
BRANCH  11  13
ATOM     13  C   UNL     1      20.793  28.798  41.958  1.00  0.00    -0.002 C 
ATOM     14  C   UNL     1      22.111  29.165  41.935  1.00  0.00    -0.069 C 
ATOM     15  C   UNL     1      22.749  29.717  40.680  1.00  0.00     0.039 C 
ATOM     16  C   UNL     1      22.999  29.038  43.153  1.00  0.00     0.039 C 
BRANCH  13  17
ATOM     17  C   UNL     1      20.121  28.300  43.226  1.00  0.00     0.066 CG0
ATOM     18  G   UNL     1      18.708  28.832  43.377  1.00  0.00     0.000 G0
ENDBRANCH  13  17
ENDBRANCH  11  13
ENDBRANCH  10  11
ENDBRANCH   1  10
TORSDOF 0
ENDMDL
MODEL 3
REMARK VINA RESULT:    -3.544      1.437      1.869
REMARK INTER + INTRA:          -4.566
REMARK INTER:                  -5.077
REMARK INTRA:                   0.511
REMARK UNBOUND:                 0.428
REMARK SMILES CC1=CCC(=C(C)C)C(=O)CC(C)=CCC1
REMARK SMILES IDX 12 1 14 2 13 3 15 4 16 5 2 6 1 7 3 8 11 10 9 11 10 12 5 13
REMARK SMILES IDX 6 14 7 15 8 16 4 17
REMARK H PARENT
REMARK Flexibility Score: 60.00
ROOT
ATOM      1  C   UNL     1      20.889  26.010  40.071  1.00  0.00    -0.070 C 
ATOM      2  C   UNL     1      21.798  25.528  40.947  1.00  0.00    -0.027 C 
ATOM      3  C   UNL     1      21.298  26.135  38.626  1.00  0.00     0.039 C 
ENDROOT
BRANCH   2   4
ATOM      4  C   UNL     1      21.611  25.419  42.445  1.00  0.00     0.032 C 
BRANCH   4   5
ATOM      5  C   UNL     1      22.608  26.244  43.284  1.00  0.00     0.034 C 
BRANCH   5   6
ATOM      6  C   UNL     1      22.618  27.719  42.921  1.00  0.00    -0.077 C 
ATOM      7  C   UNL     1      23.922  28.316  42.453  1.00  0.00     0.039 C 
ATOM      8  C   UNL     1      21.555  28.547  43.055  1.00  0.00    -0.023 CG0
ATOM      9  G   UNL     1      20.150  28.168  43.486  1.00  0.00     0.000 G0
ENDBRANCH   5   6
ENDBRANCH   4   5
ENDBRANCH   2   4
BRANCH   1  10
ATOM     10  C   UNL     1      19.522  26.513  40.486  1.00  0.00     0.111 C 
BRANCH  10  11
ATOM     11  C   UNL     1      19.584  27.929  40.999  1.00  0.00     0.163 C 
ATOM     12  O   UNL     1      20.093  28.808  40.253  1.00  0.00    -0.294 OA
BRANCH  11  13
ATOM     13  C   UNL     1      19.126  28.305  42.369  1.00  0.00    -0.002 C 
ATOM     14  C   UNL     1      17.874  28.817  42.571  1.00  0.00    -0.069 C 
ATOM     15  C   UNL     1      16.859  28.874  41.451  1.00  0.00     0.039 C 
ATOM     16  C   UNL     1      17.437  29.355  43.916  1.00  0.00     0.039 C 
BRANCH  13  17
ATOM     17  C   UNL     1      20.137  28.185  43.498  1.00  0.00     0.066 CG0
ATOM     18  G   UNL     1      21.545  28.527  43.050  1.00  0.00     0.000 G0
ENDBRANCH  13  17
ENDBRANCH  11  13
ENDBRANCH  10  11
ENDBRANCH   1  10
TORSDOF 0
ENDMDL
MODEL 4
REMARK VINA RESULT:    -3.539      2.349      4.399
REMARK INTER + INTRA:          -4.559
REMARK INTER:                  -4.780
REMARK INTRA:                   0.221
REMARK UNBOUND:                 0.428
REMARK SMILES CC1=CCC(=C(C)C)C(=O)CC(C)=CCC1
REMARK SMILES IDX 12 1 14 2 13 3 15 4 16 5 2 6 1 7 3 8 11 10 9 11 10 12 5 13
REMARK SMILES IDX 6 14 7 15 8 16 4 17
REMARK H PARENT
REMARK Flexibility Score: 60.00
ROOT
ATOM      1  C   UNL     1      18.075  28.980  43.285  1.00  0.00    -0.070 C 
ATOM      2  C   UNL     1      18.987  28.526  44.173  1.00  0.00    -0.027 C 
ATOM      3  C   UNL     1      16.674  29.234  43.781  1.00  0.00     0.039 C 
ENDROOT
BRANCH   2   4
ATOM      4  C   UNL     1      20.409  28.122  43.849  1.00  0.00     0.032 C 
BRANCH   4   5
ATOM      5  C   UNL     1      20.607  26.618  43.566  1.00  0.00     0.034 C 
BRANCH   5   6
ATOM      6  C   UNL     1      21.432  26.348  42.320  1.00  0.00    -0.077 C 
ATOM      7  C   UNL     1      22.931  26.470  42.433  1.00  0.00     0.039 C 
ATOM      8  C   UNL     1      20.909  26.073  41.101  1.00  0.00    -0.023 CG0
ATOM      9  G   UNL     1      19.444  25.885  40.756  1.00  0.00     0.000 G0
ENDBRANCH   5   6
ENDBRANCH   4   5
ENDBRANCH   2   4
BRANCH   1  10
ATOM     10  C   UNL     1      18.366  29.154  41.809  1.00  0.00     0.111 C 
BRANCH  10  11
ATOM     11  C   UNL     1      17.912  27.959  41.009  1.00  0.00     0.163 C 
ATOM     12  O   UNL     1      16.710  27.596  41.117  1.00  0.00    -0.294 OA
BRANCH  11  13
ATOM     13  C   UNL     1      18.844  27.166  40.155  1.00  0.00    -0.002 C 
ATOM     14  C   UNL     1      19.078  27.525  38.856  1.00  0.00    -0.069 C 
ATOM     15  C   UNL     1      18.531  28.816  38.289  1.00  0.00     0.039 C 
ATOM     16  C   UNL     1      19.889  26.657  37.920  1.00  0.00     0.039 C 
BRANCH  13  17
ATOM     17  C   UNL     1      19.437  25.903  40.759  1.00  0.00     0.066 CG0
ATOM     18  G   UNL     1      20.909  26.061  41.093  1.00  0.00     0.000 G0
ENDBRANCH  13  17
ENDBRANCH  11  13
ENDBRANCH  10  11
ENDBRANCH   1  10
TORSDOF 0
ENDMDL
MODEL 5
REMARK VINA RESULT:    -3.526      1.968      5.226
REMARK INTER + INTRA:          -4.541
REMARK INTER:                  -5.001
REMARK INTRA:                   0.459
REMARK UNBOUND:                 0.428
REMARK SMILES CC1=CCC(=C(C)C)C(=O)CC(C)=CCC1
REMARK SMILES IDX 12 1 14 2 13 3 15 4 16 5 2 6 1 7 3 8 11 10 9 11 10 12 5 13
REMARK SMILES IDX 6 14 7 15 8 16 4 17
REMARK H PARENT
REMARK Flexibility Score: 60.00
ROOT
ATOM      1  C   UNL     1      17.651  28.242  43.419  1.00  0.00    -0.070 C 
ATOM      2  C   UNL     1      16.756  27.378  42.890  1.00  0.00    -0.027 C 
ATOM      3  C   UNL     1      17.202  29.661  43.661  1.00  0.00     0.039 C 
ENDROOT
BRANCH   2   4
ATOM      4  C   UNL     1      17.043  25.947  42.487  1.00  0.00     0.032 C 
BRANCH   4   5
ATOM      5  C   UNL     1      16.816  25.638  40.993  1.00  0.00     0.034 C 
BRANCH   5   6
ATOM      6  C   UNL     1      17.606  26.547  40.067  1.00  0.00    -0.077 C 
ATOM      7  C   UNL     1      16.834  27.360  39.059  1.00  0.00     0.039 C 
ATOM      8  C   UNL     1      18.958  26.623  40.041  1.00  0.00    -0.023 CG0
ATOM      9  G   UNL     1      19.932  25.917  40.966  1.00  0.00     0.000 G0
ENDBRANCH   5   6
ENDBRANCH   4   5
ENDBRANCH   2   4
BRANCH   1  10
ATOM     10  C   UNL     1      19.096  27.881  43.689  1.00  0.00     0.111 C 
BRANCH  10  11
ATOM     11  C   UNL     1      19.946  28.029  42.454  1.00  0.00     0.163 C 
ATOM     12  O   UNL     1      19.966  29.151  41.879  1.00  0.00    -0.294 OA
BRANCH  11  13
ATOM     13  C   UNL     1      20.703  26.888  41.861  1.00  0.00    -0.002 C 
ATOM     14  C   UNL     1      22.056  26.780  42.036  1.00  0.00    -0.069 C 
ATOM     15  C   UNL     1      22.804  27.716  42.959  1.00  0.00     0.039 C 
ATOM     16  C   UNL     1      22.874  25.729  41.319  1.00  0.00     0.039 C 
BRANCH  13  17
ATOM     17  C   UNL     1      19.927  25.918  40.984  1.00  0.00     0.066 CG0
ATOM     18  G   UNL     1      18.952  26.628  40.063  1.00  0.00     0.000 G0
ENDBRANCH  13  17
ENDBRANCH  11  13
ENDBRANCH  10  11
ENDBRANCH   1  10
TORSDOF 0
ENDMDL
MODEL 6
REMARK VINA RESULT:    -3.468      3.865      7.716
REMARK INTER + INTRA:          -4.459
REMARK INTER:                  -4.615
REMARK INTRA:                   0.155
REMARK UNBOUND:                 0.428
REMARK SMILES CC1=CCC(=C(C)C)C(=O)CC(C)=CCC1
REMARK SMILES IDX 12 1 14 2 13 3 15 4 16 5 2 6 1 7 3 8 11 10 9 11 10 12 5 13
REMARK SMILES IDX 6 14 7 15 8 16 4 17
REMARK H PARENT
REMARK Flexibility Score: 60.00
ROOT
ATOM      1  C   UNL     1      12.975  28.429  43.685  1.00  0.00    -0.070 C 
ATOM      2  C   UNL     1      12.260  27.283  43.745  1.00  0.00    -0.027 C 
ATOM      3  C   UNL     1      12.245  29.696  43.319  1.00  0.00     0.039 C 
ENDROOT
BRANCH   2   4
ATOM      4  C   UNL     1      12.825  25.902  43.998  1.00  0.00     0.032 C 
BRANCH   4   5
ATOM      5  C   UNL     1      13.383  25.192  42.748  1.00  0.00     0.034 C 
BRANCH   5   6
ATOM      6  C   UNL     1      14.698  24.476  43.003  1.00  0.00    -0.077 C 
ATOM      7  C   UNL     1      14.666  23.243  43.873  1.00  0.00     0.039 C 
ATOM      8  C   UNL     1      15.903  24.908  42.561  1.00  0.00    -0.023 CG0
ATOM      9  G   UNL     1      16.173  26.101  41.664  1.00  0.00     0.000 G0
ENDBRANCH   5   6
ENDBRANCH   4   5
ENDBRANCH   2   4
BRANCH   1  10
ATOM     10  C   UNL     1      14.476  28.482  43.874  1.00  0.00     0.111 C 
BRANCH  10  11
ATOM     11  C   UNL     1      15.207  28.298  42.568  1.00  0.00     0.163 C 
ATOM     12  O   UNL     1      14.758  28.891  41.550  1.00  0.00    -0.294 OA
BRANCH  11  13
ATOM     13  C   UNL     1      16.390  27.400  42.432  1.00  0.00    -0.002 C 
ATOM     14  C   UNL     1      17.616  27.782  42.904  1.00  0.00    -0.069 C 
ATOM     15  C   UNL     1      17.784  29.048  43.714  1.00  0.00     0.039 C 
ATOM     16  C   UNL     1      18.864  26.968  42.642  1.00  0.00     0.039 C 
BRANCH  13  17
ATOM     17  C   UNL     1      16.193  26.100  41.668  1.00  0.00     0.066 CG0
ATOM     18  G   UNL     1      15.897  24.931  42.588  1.00  0.00     0.000 G0
ENDBRANCH  13  17
ENDBRANCH  11  13
ENDBRANCH  10  11
ENDBRANCH   1  10
TORSDOF 0
ENDMDL
MODEL 7
REMARK VINA RESULT:    -3.417      2.100      4.265
REMARK INTER + INTRA:          -4.388
REMARK INTER:                  -4.629
REMARK INTRA:                   0.242
REMARK UNBOUND:                 0.428
REMARK SMILES CC1=CCC(=C(C)C)C(=O)CC(C)=CCC1
REMARK SMILES IDX 12 1 14 2 13 3 15 4 16 5 2 6 1 7 3 8 11 10 9 11 10 12 5 13
REMARK SMILES IDX 6 14 7 15 8 16 4 17
REMARK H PARENT
REMARK Flexibility Score: 60.00
ROOT
ATOM      1  C   UNL     1      19.237  27.364  42.525  1.00  0.00    -0.070 C 
ATOM      2  C   UNL     1      20.053  27.338  43.602  1.00  0.00    -0.027 C 
ATOM      3  C   UNL     1      17.797  26.964  42.720  1.00  0.00     0.039 C 
ENDROOT
BRANCH   2   4
ATOM      4  C   UNL     1      21.542  27.609  43.590  1.00  0.00     0.032 C 
BRANCH   4   5
ATOM      5  C   UNL     1      22.425  26.365  43.360  1.00  0.00     0.034 C 
BRANCH   5   6
ATOM      6  C   UNL     1      23.398  26.528  42.206  1.00  0.00    -0.077 C 
ATOM      7  C   UNL     1      24.645  27.341  42.451  1.00  0.00     0.039 C 
ATOM      8  C   UNL     1      23.189  26.052  40.955  1.00  0.00    -0.023 CG0
ATOM      9  G   UNL     1      22.026  25.200  40.484  1.00  0.00     0.000 G0
ENDBRANCH   5   6
ENDBRANCH   4   5
ENDBRANCH   2   4
BRANCH   1  10
ATOM     10  C   UNL     1      19.720  27.682  41.125  1.00  0.00     0.111 C 
BRANCH  10  11
ATOM     11  C   UNL     1      19.771  26.448  40.262  1.00  0.00     0.163 C 
ATOM     12  O   UNL     1      18.713  25.774  40.128  1.00  0.00    -0.294 OA
BRANCH  11  13
ATOM     13  C   UNL     1      21.030  25.970  39.620  1.00  0.00    -0.002 C 
ATOM     14  C   UNL     1      21.247  26.152  38.282  1.00  0.00    -0.069 C 
ATOM     15  C   UNL     1      20.298  26.977  37.440  1.00  0.00     0.039 C 
ATOM     16  C   UNL     1      22.436  25.543  37.573  1.00  0.00     0.039 C 
BRANCH  13  17
ATOM     17  C   UNL     1      22.005  25.196  40.493  1.00  0.00     0.066 CG0
ATOM     18  G   UNL     1      23.182  26.045  40.935  1.00  0.00     0.000 G0
ENDBRANCH  13  17
ENDBRANCH  11  13
ENDBRANCH  10  11
ENDBRANCH   1  10
TORSDOF 0
ENDMDL
MODEL 8
REMARK VINA RESULT:    -3.193      2.459      3.991
REMARK INTER + INTRA:          -4.071
REMARK INTER:                  -4.588
REMARK INTRA:                   0.517
REMARK UNBOUND:                 0.428
REMARK SMILES CC1=CCC(=C(C)C)C(=O)CC(C)=CCC1
REMARK SMILES IDX 12 1 14 2 13 3 15 4 16 5 2 6 1 7 3 8 11 10 9 11 10 12 5 13
REMARK SMILES IDX 6 14 7 15 8 16 4 17
REMARK H PARENT
REMARK Flexibility Score: 60.00
ROOT
ATOM      1  C   UNL     1      17.856  28.073  43.385  1.00  0.00    -0.070 C 
ATOM      2  C   UNL     1      19.060  28.428  43.883  1.00  0.00    -0.027 C 
ATOM      3  C   UNL     1      16.721  29.056  43.515  1.00  0.00     0.039 C 
ENDROOT
BRANCH   2   4
ATOM      4  C   UNL     1      20.289  27.546  43.936  1.00  0.00     0.032 C 
BRANCH   4   5
ATOM      5  C   UNL     1      20.731  26.968  42.576  1.00  0.00     0.034 C 
BRANCH   5   6
ATOM      6  C   UNL     1      20.802  28.014  41.477  1.00  0.00    -0.077 C 
ATOM      7  C   UNL     1      21.760  29.163  41.666  1.00  0.00     0.039 C 
ATOM      8  C   UNL     1      20.015  28.019  40.375  1.00  0.00    -0.023 CG0
ATOM      9  G   UNL     1      19.002  26.966  39.969  1.00  0.00     0.000 G0
ENDBRANCH   5   6
ENDBRANCH   4   5
ENDBRANCH   2   4
BRANCH   1  10
ATOM     10  C   UNL     1      17.571  26.708  42.793  1.00  0.00     0.111 C 
BRANCH  10  11
ATOM     11  C   UNL     1      16.897  26.816  41.449  1.00  0.00     0.163 C 
ATOM     12  O   UNL     1      15.740  26.328  41.325  1.00  0.00    -0.294 OA
BRANCH  11  13
ATOM     13  C   UNL     1      17.570  27.417  40.261  1.00  0.00    -0.002 C 
ATOM     14  C   UNL     1      16.893  28.265  39.429  1.00  0.00    -0.069 C 
ATOM     15  C   UNL     1      15.498  28.746  39.764  1.00  0.00     0.039 C 
ATOM     16  C   UNL     1      17.494  28.765  38.133  1.00  0.00     0.039 C 
BRANCH  13  17
ATOM     17  C   UNL     1      18.994  26.973  39.969  1.00  0.00     0.066 CG0
ATOM     18  G   UNL     1      20.017  28.021  40.366  1.00  0.00     0.000 G0
ENDBRANCH  13  17
ENDBRANCH  11  13
ENDBRANCH  10  11
ENDBRANCH   1  10
TORSDOF 0
ENDMDL
MODEL 9
REMARK VINA RESULT:    -3.045      2.081      4.533
REMARK INTER + INTRA:          -3.863
REMARK INTER:                  -4.357
REMARK INTRA:                   0.494
REMARK UNBOUND:                 0.428
REMARK SMILES CC1=CCC(=C(C)C)C(=O)CC(C)=CCC1
REMARK SMILES IDX 12 1 14 2 13 3 15 4 16 5 2 6 1 7 3 8 11 10 9 11 10 12 5 13
REMARK SMILES IDX 6 14 7 15 8 16 4 17
REMARK H PARENT
REMARK Flexibility Score: 60.00
ROOT
ATOM      1  C   UNL     1      20.483  27.293  43.190  1.00  0.00    -0.070 C 
ATOM      2  C   UNL     1      19.146  27.390  43.361  1.00  0.00    -0.027 C 
ATOM      3  C   UNL     1      21.101  25.919  43.232  1.00  0.00     0.039 C 
ENDROOT
BRANCH   2   4
ATOM      4  C   UNL     1      18.358  28.679  43.448  1.00  0.00     0.032 C 
BRANCH   4   5
ATOM      5  C   UNL     1      17.829  29.208  42.099  1.00  0.00     0.034 C 
BRANCH   5   6
ATOM      6  C   UNL     1      17.758  28.137  41.024  1.00  0.00    -0.077 C 
ATOM      7  C   UNL     1      16.556  27.226  41.021  1.00  0.00     0.039 C 
ATOM      8  C   UNL     1      18.733  27.902  40.113  1.00  0.00    -0.023 CG0
ATOM      9  G   UNL     1      20.011  28.695  39.917  1.00  0.00     0.000 G0
ENDBRANCH   5   6
ENDBRANCH   4   5
ENDBRANCH   2   4
BRANCH   1  10
ATOM     10  C   UNL     1      21.392  28.496  43.053  1.00  0.00     0.111 C 
BRANCH  10  11
ATOM     11  C   UNL     1      21.911  28.643  41.646  1.00  0.00     0.163 C 
ATOM     12  O   UNL     1      22.920  29.375  41.459  1.00  0.00    -0.294 OA
BRANCH  11  13
ATOM     13  C   UNL     1      21.239  28.009  40.475  1.00  0.00    -0.002 C 
ATOM     14  C   UNL     1      21.763  26.889  39.889  1.00  0.00    -0.069 C 
ATOM     15  C   UNL     1      22.944  26.166  40.498  1.00  0.00     0.039 C 
ATOM     16  C   UNL     1      21.198  26.315  38.609  1.00  0.00     0.039 C 
BRANCH  13  17
ATOM     17  C   UNL     1      20.014  28.711  39.910  1.00  0.00     0.066 CG0
ATOM     18  G   UNL     1      18.745  27.905  40.108  1.00  0.00     0.000 G0
ENDBRANCH  13  17
ENDBRANCH  11  13
ENDBRANCH  10  11
ENDBRANCH   1  10
TORSDOF 0
ENDMDL
