MODEL 1
REMARK VINA RESULT:    -3.662      0.000      0.000
REMARK INTER + INTRA:          -4.421
REMARK INTER:                  -4.304
REMARK INTRA:                  -0.117
REMARK UNBOUND:                -0.117
REMARK SMILES O=C([O-])CCC(=O)[O-]
REMARK SMILES IDX 4 1 2 2 1 3 3 4 5 5 6 6 7 7 8 8
REMARK H PARENT
REMARK Flexibility Score: inf
ROOT
ATOM      1  C   UNL     1       6.938  -7.951   4.811  1.00  0.00     0.059 C 
ENDROOT
BRANCH   1   2
ATOM      2  C   UNL     1       7.819  -7.811   3.608  1.00  0.00     0.042 C 
ATOM      3  O   UNL     1       7.379  -7.271   2.559  1.00  0.00    -0.550 OA
ATOM      4  O   UNL     1       9.114  -8.315   3.630  1.00  0.00    -0.550 OA
ENDBRANCH   1   2
BRANCH   1   5
ATOM      5  C   UNL     1       7.529  -7.235   6.030  1.00  0.00     0.059 C 
BRANCH   5   6
ATOM      6  C   UNL     1       8.062  -8.208   7.038  1.00  0.00     0.042 C 
ATOM      7  O   UNL     1       8.250  -9.411   6.718  1.00  0.00    -0.550 OA
ATOM      8  O   UNL     1       8.311  -7.796   8.340  1.00  0.00    -0.550 OA
ENDBRANCH   5   6
ENDBRANCH   1   5
TORSDOF 3
ENDMDL
MODEL 2
REMARK VINA RESULT:    -3.640      0.134      3.856
REMARK INTER + INTRA:          -4.395
REMARK INTER:                  -4.277
REMARK INTRA:                  -0.117
REMARK UNBOUND:                -0.117
REMARK SMILES O=C([O-])CCC(=O)[O-]
REMARK SMILES IDX 4 1 2 2 1 3 3 4 5 5 6 6 7 7 8 8
REMARK H PARENT
REMARK Flexibility Score: inf
ROOT
ATOM      1  C   UNL     1       7.588  -7.257   6.003  1.00  0.00     0.059 C 
ENDROOT
BRANCH   1   2
ATOM      2  C   UNL     1       7.997  -8.269   7.029  1.00  0.00     0.042 C 
ATOM      3  O   UNL     1       8.235  -7.911   8.213  1.00  0.00    -0.550 OA
ATOM      4  O   UNL     1       8.155  -9.602   6.670  1.00  0.00    -0.550 OA
ENDBRANCH   1   2
BRANCH   1   5
ATOM      5  C   UNL     1       6.930  -7.919   4.788  1.00  0.00     0.059 C 
BRANCH   5   6
ATOM      6  C   UNL     1       7.823  -7.881   3.585  1.00  0.00     0.042 C 
ATOM      7  O   UNL     1       7.385  -7.451   2.486  1.00  0.00    -0.550 OA
ATOM      8  O   UNL     1       9.124  -8.358   3.669  1.00  0.00    -0.550 OA
ENDBRANCH   5   6
ENDBRANCH   1   5
TORSDOF 3
ENDMDL
MODEL 3
REMARK VINA RESULT:    -3.575     13.607     15.271
REMARK INTER + INTRA:          -4.319
REMARK INTER:                  -4.179
REMARK INTRA:                  -0.140
REMARK UNBOUND:                -0.117
REMARK SMILES O=C([O-])CCC(=O)[O-]
REMARK SMILES IDX 4 1 2 2 1 3 3 4 5 5 6 6 7 7 8 8
REMARK H PARENT
REMARK Flexibility Score: inf
ROOT
ATOM      1  C   UNL     1       0.150   0.656  -4.108  1.00  0.00     0.059 C 
ENDROOT
BRANCH   1   2
ATOM      2  C   UNL     1       0.349   1.541  -5.301  1.00  0.00     0.042 C 
ATOM      3  O   UNL     1       1.169   2.496  -5.251  1.00  0.00    -0.550 OA
ATOM      4  O   UNL     1      -0.399   1.336  -6.453  1.00  0.00    -0.550 OA
ENDBRANCH   1   2
BRANCH   1   5
ATOM      5  C   UNL     1      -0.180  -0.782  -4.521  1.00  0.00     0.059 C 
BRANCH   5   6
ATOM      6  C   UNL     1       1.025  -1.493  -5.059  1.00  0.00     0.042 C 
ATOM      7  O   UNL     1       1.050  -1.875  -6.259  1.00  0.00    -0.550 OA
ATOM      8  O   UNL     1       2.100  -1.771  -4.227  1.00  0.00    -0.550 OA
ENDBRANCH   5   6
ENDBRANCH   1   5
TORSDOF 3
ENDMDL
MODEL 4
REMARK VINA RESULT:    -3.540     13.484     15.551
REMARK INTER + INTRA:          -4.277
REMARK INTER:                  -4.170
REMARK INTRA:                  -0.107
REMARK UNBOUND:                -0.117
REMARK SMILES O=C([O-])CCC(=O)[O-]
REMARK SMILES IDX 4 1 2 2 1 3 3 4 5 5 6 6 7 7 8 8
REMARK H PARENT
REMARK Flexibility Score: inf
ROOT
ATOM      1  C   UNL     1      -0.002  -0.581  -4.473  1.00  0.00     0.059 C 
ENDROOT
BRANCH   1   2
ATOM      2  C   UNL     1       1.039  -1.537  -4.969  1.00  0.00     0.042 C 
ATOM      3  O   UNL     1       0.991  -1.968  -6.152  1.00  0.00    -0.550 OA
ATOM      4  O   UNL     1       2.039  -1.984  -4.114  1.00  0.00    -0.550 OA
ENDBRANCH   1   2
BRANCH   1   5
ATOM      5  C   UNL     1       0.506   0.864  -4.484  1.00  0.00     0.059 C 
BRANCH   5   6
ATOM      6  C   UNL     1       0.121   1.576  -5.745  1.00  0.00     0.042 C 
ATOM      7  O   UNL     1       0.782   1.395  -6.801  1.00  0.00    -0.550 OA
ATOM      8  O   UNL     1      -0.940   2.471  -5.744  1.00  0.00    -0.550 OA
ENDBRANCH   5   6
ENDBRANCH   1   5
TORSDOF 3
ENDMDL
MODEL 5
REMARK VINA RESULT:    -3.530     12.711     14.428
REMARK INTER + INTRA:          -4.265
REMARK INTER:                  -4.176
REMARK INTRA:                  -0.090
REMARK UNBOUND:                -0.117
REMARK SMILES O=C([O-])CCC(=O)[O-]
REMARK SMILES IDX 4 1 2 2 1 3 3 4 5 5 6 6 7 7 8 8
REMARK H PARENT
REMARK Flexibility Score: inf
ROOT
ATOM      1  C   UNL     1       0.524  -1.309  -5.022  1.00  0.00     0.059 C 
ENDROOT
BRANCH   1   2
ATOM      2  C   UNL     1       1.336  -2.088  -4.034  1.00  0.00     0.042 C 
ATOM      3  O   UNL     1       0.767  -2.756  -3.131  1.00  0.00    -0.550 OA
ATOM      4  O   UNL     1       2.724  -2.043  -4.084  1.00  0.00    -0.550 OA
ENDBRANCH   1   2
BRANCH   1   5
ATOM      5  C   UNL     1      -0.165  -0.108  -4.366  1.00  0.00     0.059 C 
BRANCH   5   6
ATOM      6  C   UNL     1       0.616   1.155  -4.568  1.00  0.00     0.042 C 
ATOM      7  O   UNL     1       0.138   2.092  -5.259  1.00  0.00    -0.550 OA
ATOM      8  O   UNL     1       1.889   1.281  -4.027  1.00  0.00    -0.550 OA
ENDBRANCH   5   6
ENDBRANCH   1   5
TORSDOF 3
ENDMDL
MODEL 6
REMARK VINA RESULT:    -3.513     12.717     14.252
REMARK INTER + INTRA:          -4.246
REMARK INTER:                  -4.158
REMARK INTRA:                  -0.088
REMARK UNBOUND:                -0.117
REMARK SMILES O=C([O-])CCC(=O)[O-]
REMARK SMILES IDX 4 1 2 2 1 3 3 4 5 5 6 6 7 7 8 8
REMARK H PARENT
REMARK Flexibility Score: inf
ROOT
ATOM      1  C   UNL     1      -0.076  -0.053  -4.414  1.00  0.00     0.059 C 
ENDROOT
BRANCH   1   2
ATOM      2  C   UNL     1       0.733   1.196  -4.582  1.00  0.00     0.042 C 
ATOM      3  O   UNL     1       0.297   2.144  -5.287  1.00  0.00    -0.550 OA
ATOM      4  O   UNL     1       1.989   1.297  -3.995  1.00  0.00    -0.550 OA
ENDBRANCH   1   2
BRANCH   1   5
ATOM      5  C   UNL     1       0.610  -1.262  -5.060  1.00  0.00     0.059 C 
BRANCH   5   6
ATOM      6  C   UNL     1       1.394  -2.054  -4.058  1.00  0.00     0.042 C 
ATOM      7  O   UNL     1       0.798  -2.726  -3.176  1.00  0.00    -0.550 OA
ATOM      8  O   UNL     1       2.782  -2.015  -4.071  1.00  0.00    -0.550 OA
ENDBRANCH   5   6
ENDBRANCH   1   5
TORSDOF 3
ENDMDL
MODEL 7
REMARK VINA RESULT:    -3.468     11.654     13.208
REMARK INTER + INTRA:          -4.193
REMARK INTER:                  -4.029
REMARK INTRA:                  -0.165
REMARK UNBOUND:                -0.117
REMARK SMILES O=C([O-])CCC(=O)[O-]
REMARK SMILES IDX 4 1 2 2 1 3 3 4 5 5 6 6 7 7 8 8
REMARK H PARENT
REMARK Flexibility Score: inf
ROOT
ATOM      1  C   UNL     1       2.878   0.012  -5.418  1.00  0.00     0.059 C 
ENDROOT
BRANCH   1   2
ATOM      2  C   UNL     1       1.641  -0.677  -4.927  1.00  0.00     0.042 C 
ATOM      3  O   UNL     1       0.866  -0.092  -4.125  1.00  0.00    -0.550 OA
ATOM      4  O   UNL     1       1.366  -1.980  -5.323  1.00  0.00    -0.550 OA
ENDBRANCH   1   2
BRANCH   1   5
ATOM      5  C   UNL     1       3.892   0.224  -4.290  1.00  0.00     0.059 C 
BRANCH   5   6
ATOM      6  C   UNL     1       4.514  -1.067  -3.854  1.00  0.00     0.042 C 
ATOM      7  O   UNL     1       5.358  -1.643  -4.591  1.00  0.00    -0.550 OA
ATOM      8  O   UNL     1       4.133  -1.656  -2.656  1.00  0.00    -0.550 OA
ENDBRANCH   5   6
ENDBRANCH   1   5
TORSDOF 3
ENDMDL
MODEL 8
REMARK VINA RESULT:    -3.454     11.656     13.423
REMARK INTER + INTRA:          -4.176
REMARK INTER:                  -4.022
REMARK INTRA:                  -0.154
REMARK UNBOUND:                -0.117
REMARK SMILES O=C([O-])CCC(=O)[O-]
REMARK SMILES IDX 4 1 2 2 1 3 3 4 5 5 6 6 7 7 8 8
REMARK H PARENT
REMARK Flexibility Score: inf
ROOT
ATOM      1  C   UNL     1       3.888   0.239  -4.174  1.00  0.00     0.059 C 
ENDROOT
BRANCH   1   2
ATOM      2  C   UNL     1       4.512  -1.078  -3.825  1.00  0.00     0.042 C 
ATOM      3  O   UNL     1       4.215  -1.652  -2.744  1.00  0.00    -0.550 OA
ATOM      4  O   UNL     1       5.451  -1.651  -4.673  1.00  0.00    -0.550 OA
ENDBRANCH   1   2
BRANCH   1   5
ATOM      5  C   UNL     1       2.902   0.106  -5.339  1.00  0.00     0.059 C 
BRANCH   5   6
ATOM      6  C   UNL     1       1.660  -0.628  -4.930  1.00  0.00     0.042 C 
ATOM      7  O   UNL     1       0.840  -0.093  -4.140  1.00  0.00    -0.550 OA
ATOM      8  O   UNL     1       1.431  -1.918  -5.390  1.00  0.00    -0.550 OA
ENDBRANCH   5   6
ENDBRANCH   1   5
TORSDOF 3
ENDMDL
MODEL 9
REMARK VINA RESULT:    -3.412     13.238     14.534
REMARK INTER + INTRA:          -4.127
REMARK INTER:                  -4.062
REMARK INTRA:                  -0.065
REMARK UNBOUND:                -0.117
REMARK SMILES O=C([O-])CCC(=O)[O-]
REMARK SMILES IDX 4 1 2 2 1 3 3 4 5 5 6 6 7 7 8 8
REMARK H PARENT
REMARK Flexibility Score: inf
ROOT
ATOM      1  C   UNL     1       0.108  -0.743  -4.973  1.00  0.00     0.059 C 
ENDROOT
BRANCH   1   2
ATOM      2  C   UNL     1       0.679  -1.870  -4.167  1.00  0.00     0.042 C 
ATOM      3  O   UNL     1       1.519  -2.654  -4.681  1.00  0.00    -0.550 OA
ATOM      4  O   UNL     1       0.253  -2.078  -2.861  1.00  0.00    -0.550 OA
ENDBRANCH   1   2
BRANCH   1   5
ATOM      5  C   UNL     1       0.101   0.569  -4.183  1.00  0.00     0.059 C 
BRANCH   5   6
ATOM      6  C   UNL     1       1.332   1.382  -4.449  1.00  0.00     0.042 C 
ATOM      7  O   UNL     1       1.246   2.480  -5.058  1.00  0.00    -0.550 OA
ATOM      8  O   UNL     1       2.577   0.906  -4.061  1.00  0.00    -0.550 OA
ENDBRANCH   5   6
ENDBRANCH   1   5
TORSDOF 3
ENDMDL
