MODEL 1
REMARK VINA RESULT:    -4.548      0.000      0.000
REMARK INTER + INTRA:         -13.200
REMARK INTER:                 -10.397
REMARK INTRA:                  -2.802
REMARK UNBOUND:                -2.802
REMARK SMILES CCCCCCCCCCCCCCCCCCCCCCCC(=O)[O-]
REMARK SMILES IDX 13 1 14 2 15 3 16 4 17 5 18 6 19 7 20 8 21 9 22 10 23 11
REMARK SMILES IDX 24 12 25 13 26 14 12 15 11 16 10 17 9 18 8 19 7 20 6 21 5 22
REMARK SMILES IDX 4 23 3 24 2 25 1 26
REMARK H PARENT
REMARK Flexibility Score: inf
ROOT
ATOM      1  C   UNL     1     163.991 178.678 181.808  1.00  0.00     0.000 C 
ENDROOT
BRANCH   1   2
ATOM      2  C   UNL     1     164.367 177.227 181.476  1.00  0.00     0.000 C 
BRANCH   2   3
ATOM      3  C   UNL     1     165.457 177.171 180.400  1.00  0.00     0.000 C 
BRANCH   3   4
ATOM      4  C   UNL     1     166.484 178.298 180.597  1.00  0.00     0.000 C 
BRANCH   4   5
ATOM      5  C   UNL     1     167.432 178.453 179.398  1.00  0.00     0.000 C 
BRANCH   5   6
ATOM      6  C   UNL     1     168.900 178.642 179.822  1.00  0.00     0.000 C 
BRANCH   6   7
ATOM      7  C   UNL     1     169.131 178.346 181.312  1.00  0.00     0.000 C 
BRANCH   7   8
ATOM      8  C   UNL     1     170.544 178.735 181.782  1.00  0.00     0.000 C 
BRANCH   8   9
ATOM      9  C   UNL     1     171.461 179.168 180.623  1.00  0.00     0.000 C 
BRANCH   9  10
ATOM     10  C   UNL     1     172.780 179.838 181.052  1.00  0.00     0.006 C 
BRANCH  10  11
ATOM     11  C   UNL     1     173.972 178.872 181.042  1.00  0.00     0.053 C 
BRANCH  11  12
ATOM     12  C   UNL     1     174.892 179.190 179.904  1.00  0.00     0.041 C 
ATOM     13  O   UNL     1     176.126 178.960 180.003  1.00  0.00    -0.550 OA
ATOM     14  O   UNL     1     174.393 179.784 178.753  1.00  0.00    -0.550 OA
ENDBRANCH  11  12
ENDBRANCH  10  11
ENDBRANCH   9  10
ENDBRANCH   8   9
ENDBRANCH   7   8
ENDBRANCH   6   7
ENDBRANCH   5   6
ENDBRANCH   4   5
ENDBRANCH   3   4
ENDBRANCH   2   3
ENDBRANCH   1   2
BRANCH   1  15
ATOM     15  C   UNL     1     162.472 178.905 181.815  1.00  0.00     0.000 C 
BRANCH  15  16
ATOM     16  C   UNL     1     162.027 179.959 180.786  1.00  0.00     0.000 C 
BRANCH  16  17
ATOM     17  C   UNL     1     162.886 179.926 179.505  1.00  0.00     0.000 C 
BRANCH  17  18
ATOM     18  C   UNL     1     162.069 179.722 178.217  1.00  0.00    -0.000 C 
BRANCH  18  19
ATOM     19  C   UNL     1     161.490 178.308 178.093  1.00  0.00    -0.000 C 
BRANCH  19  20
ATOM     20  C   UNL     1     162.607 177.256 178.021  1.00  0.00    -0.000 C 
BRANCH  20  21
ATOM     21  C   UNL     1     162.297 175.995 178.851  1.00  0.00    -0.000 C 
BRANCH  21  22
ATOM     22  C   UNL     1     161.016 176.071 179.702  1.00  0.00    -0.000 C 
BRANCH  22  23
ATOM     23  C   UNL     1     161.231 175.609 181.151  1.00  0.00    -0.000 C 
BRANCH  23  24
ATOM     24  C   UNL     1     162.132 174.366 181.204  1.00  0.00    -0.000 C 
BRANCH  24  25
ATOM     25  C   UNL     1     161.362 173.091 181.585  1.00  0.00    -0.003 C 
ATOM     26  C   UNL     1     161.889 172.440 182.864  1.00  0.00     0.004 C 
ENDBRANCH  24  25
ENDBRANCH  23  24
ENDBRANCH  22  23
ENDBRANCH  21  22
ENDBRANCH  20  21
ENDBRANCH  19  20
ENDBRANCH  18  19
ENDBRANCH  17  18
ENDBRANCH  16  17
ENDBRANCH  15  16
ENDBRANCH   1  15
TORSDOF 22
ENDMDL
MODEL 2
REMARK VINA RESULT:    -4.527      4.207     11.511
REMARK INTER + INTRA:         -13.152
REMARK INTER:                 -10.517
REMARK INTRA:                  -2.635
REMARK UNBOUND:                -2.802
REMARK SMILES CCCCCCCCCCCCCCCCCCCCCCCC(=O)[O-]
REMARK SMILES IDX 13 1 14 2 15 3 16 4 17 5 18 6 19 7 20 8 21 9 22 10 23 11
REMARK SMILES IDX 24 12 25 13 26 14 12 15 11 16 10 17 9 18 8 19 7 20 6 21 5 22
REMARK SMILES IDX 4 23 3 24 2 25 1 26
REMARK H PARENT
REMARK Flexibility Score: inf
ROOT
ATOM      1  C   UNL     1     172.131 179.566 181.230  1.00  0.00     0.000 C 
ENDROOT
BRANCH   1   2
ATOM      2  C   UNL     1     171.430 179.443 179.869  1.00  0.00     0.000 C 
BRANCH   2   3
ATOM      3  C   UNL     1     170.555 178.186 179.811  1.00  0.00     0.000 C 
BRANCH   3   4
ATOM      4  C   UNL     1     169.269 178.372 180.631  1.00  0.00     0.000 C 
BRANCH   4   5
ATOM      5  C   UNL     1     168.045 178.680 179.754  1.00  0.00     0.000 C 
BRANCH   5   6
ATOM      6  C   UNL     1     166.721 178.621 180.539  1.00  0.00     0.000 C 
BRANCH   6   7
ATOM      7  C   UNL     1     165.925 179.933 180.460  1.00  0.00     0.000 C 
BRANCH   7   8
ATOM      8  C   UNL     1     164.408 179.700 180.349  1.00  0.00     0.000 C 
BRANCH   8   9
ATOM      9  C   UNL     1     163.822 178.983 181.580  1.00  0.00     0.000 C 
BRANCH   9  10
ATOM     10  C   UNL     1     162.348 178.557 181.445  1.00  0.00     0.006 C 
BRANCH  10  11
ATOM     11  C   UNL     1     162.183 177.059 181.158  1.00  0.00     0.053 C 
BRANCH  11  12
ATOM     12  C   UNL     1     161.676 176.846 179.766  1.00  0.00     0.041 C 
ATOM     13  O   UNL     1     161.932 177.684 178.862  1.00  0.00    -0.550 OA
ATOM     14  O   UNL     1     160.880 175.745 179.478  1.00  0.00    -0.550 OA
ENDBRANCH  11  12
ENDBRANCH  10  11
ENDBRANCH   9  10
ENDBRANCH   8   9
ENDBRANCH   7   8
ENDBRANCH   6   7
ENDBRANCH   5   6
ENDBRANCH   4   5
ENDBRANCH   3   4
ENDBRANCH   2   3
ENDBRANCH   1   2
BRANCH   1  15
ATOM     15  C   UNL     1     173.655 179.403 181.123  1.00  0.00     0.000 C 
BRANCH  15  16
ATOM     16  C   UNL     1     174.093 177.928 181.131  1.00  0.00     0.000 C 
BRANCH  16  17
ATOM     17  C   UNL     1     175.604 177.767 181.401  1.00  0.00     0.000 C 
BRANCH  17  18
ATOM     18  C   UNL     1     176.326 179.095 181.688  1.00  0.00    -0.000 C 
BRANCH  18  19
ATOM     19  C   UNL     1     177.351 179.465 180.610  1.00  0.00    -0.000 C 
BRANCH  19  20
ATOM     20  C   UNL     1     177.225 178.544 179.386  1.00  0.00    -0.000 C 
BRANCH  20  21
ATOM     21  C   UNL     1     176.824 179.301 178.106  1.00  0.00    -0.000 C 
BRANCH  21  22
ATOM     22  C   UNL     1     175.503 180.088 178.198  1.00  0.00    -0.000 C 
BRANCH  22  23
ATOM     23  C   UNL     1     174.381 179.478 177.344  1.00  0.00    -0.000 C 
BRANCH  23  24
ATOM     24  C   UNL     1     174.594 177.969 177.153  1.00  0.00    -0.000 C 
BRANCH  24  25
ATOM     25  C   UNL     1     173.427 177.132 177.701  1.00  0.00    -0.003 C 
ATOM     26  C   UNL     1     173.839 175.705 178.066  1.00  0.00     0.004 C 
ENDBRANCH  24  25
ENDBRANCH  23  24
ENDBRANCH  22  23
ENDBRANCH  21  22
ENDBRANCH  20  21
ENDBRANCH  19  20
ENDBRANCH  18  19
ENDBRANCH  17  18
ENDBRANCH  16  17
ENDBRANCH  15  16
ENDBRANCH   1  15
TORSDOF 22
ENDMDL
MODEL 3
REMARK VINA RESULT:    -4.525      1.959      4.463
REMARK INTER + INTRA:         -13.146
REMARK INTER:                 -10.295
REMARK INTRA:                  -2.851
REMARK UNBOUND:                -2.802
REMARK SMILES CCCCCCCCCCCCCCCCCCCCCCCC(=O)[O-]
REMARK SMILES IDX 13 1 14 2 15 3 16 4 17 5 18 6 19 7 20 8 21 9 22 10 23 11
REMARK SMILES IDX 24 12 25 13 26 14 12 15 11 16 10 17 9 18 8 19 7 20 6 21 5 22
REMARK SMILES IDX 4 23 3 24 2 25 1 26
REMARK H PARENT
REMARK Flexibility Score: inf
ROOT
ATOM      1  C   UNL     1     169.199 175.334 181.381  1.00  0.00     0.000 C 
ENDROOT
BRANCH   1   2
ATOM      2  C   UNL     1     170.402 176.281 181.511  1.00  0.00     0.000 C 
BRANCH   2   3
ATOM      3  C   UNL     1     170.241 177.214 182.717  1.00  0.00     0.000 C 
BRANCH   3   4
ATOM      4  C   UNL     1     170.274 178.687 182.282  1.00  0.00     0.000 C 
BRANCH   4   5
ATOM      5  C   UNL     1     171.220 178.934 181.096  1.00  0.00     0.000 C 
BRANCH   5   6
ATOM      6  C   UNL     1     172.204 180.090 181.352  1.00  0.00     0.000 C 
BRANCH   6   7
ATOM      7  C   UNL     1     173.673 179.663 181.202  1.00  0.00     0.000 C 
BRANCH   7   8
ATOM      8  C   UNL     1     173.825 178.288 180.529  1.00  0.00     0.000 C 
BRANCH   8   9
ATOM      9  C   UNL     1     174.985 177.461 181.114  1.00  0.00     0.000 C 
BRANCH   9  10
ATOM     10  C   UNL     1     176.153 178.287 181.683  1.00  0.00     0.006 C 
BRANCH  10  11
ATOM     11  C   UNL     1     177.054 178.879 180.591  1.00  0.00     0.053 C 
BRANCH  11  12
ATOM     12  C   UNL     1     177.601 177.792 179.718  1.00  0.00     0.041 C 
ATOM     13  O   UNL     1     177.425 177.830 178.472  1.00  0.00    -0.550 OA
ATOM     14  O   UNL     1     178.263 176.713 180.288  1.00  0.00    -0.550 OA
ENDBRANCH  11  12
ENDBRANCH  10  11
ENDBRANCH   9  10
ENDBRANCH   8   9
ENDBRANCH   7   8
ENDBRANCH   6   7
ENDBRANCH   5   6
ENDBRANCH   4   5
ENDBRANCH   3   4
ENDBRANCH   2   3
ENDBRANCH   1   2
BRANCH   1  15
ATOM     15  C   UNL     1     167.977 176.019 180.750  1.00  0.00     0.000 C 
BRANCH  15  16
ATOM     16  C   UNL     1     168.337 176.823 179.489  1.00  0.00     0.000 C 
BRANCH  16  17
ATOM     17  C   UNL     1     167.823 178.277 179.554  1.00  0.00     0.000 C 
BRANCH  17  18
ATOM     18  C   UNL     1     166.468 178.422 180.270  1.00  0.00    -0.000 C 
BRANCH  18  19
ATOM     19  C   UNL     1     165.302 178.656 179.302  1.00  0.00    -0.000 C 
BRANCH  19  20
ATOM     20  C   UNL     1     164.294 179.660 179.882  1.00  0.00    -0.000 C 
BRANCH  20  21
ATOM     21  C   UNL     1     163.995 179.416 181.373  1.00  0.00    -0.000 C 
BRANCH  21  22
ATOM     22  C   UNL     1     162.537 179.035 181.693  1.00  0.00    -0.000 C 
BRANCH  22  23
ATOM     23  C   UNL     1     161.922 178.088 180.653  1.00  0.00    -0.000 C 
BRANCH  23  24
ATOM     24  C   UNL     1     161.939 176.635 181.152  1.00  0.00    -0.000 C 
BRANCH  24  25
ATOM     25  C   UNL     1     163.126 175.832 180.598  1.00  0.00    -0.003 C 
ATOM     26  C   UNL     1     164.204 175.564 181.649  1.00  0.00     0.004 C 
ENDBRANCH  24  25
ENDBRANCH  23  24
ENDBRANCH  22  23
ENDBRANCH  21  22
ENDBRANCH  20  21
ENDBRANCH  19  20
ENDBRANCH  18  19
ENDBRANCH  17  18
ENDBRANCH  16  17
ENDBRANCH  15  16
ENDBRANCH   1  15
TORSDOF 22
ENDMDL
MODEL 4
REMARK VINA RESULT:    -4.508      5.525      9.163
REMARK INTER + INTRA:         -13.109
REMARK INTER:                  -8.599
REMARK INTRA:                  -4.510
REMARK UNBOUND:                -2.802
REMARK SMILES CCCCCCCCCCCCCCCCCCCCCCCC(=O)[O-]
REMARK SMILES IDX 13 1 14 2 15 3 16 4 17 5 18 6 19 7 20 8 21 9 22 10 23 11
REMARK SMILES IDX 24 12 25 13 26 14 12 15 11 16 10 17 9 18 8 19 7 20 6 21 5 22
REMARK SMILES IDX 4 23 3 24 2 25 1 26
REMARK H PARENT
REMARK Flexibility Score: inf
ROOT
ATOM      1  C   UNL     1     175.761 174.994 179.063  1.00  0.00     0.000 C 
ENDROOT
BRANCH   1   2
ATOM      2  C   UNL     1     176.480 175.514 180.317  1.00  0.00     0.000 C 
BRANCH   2   3
ATOM      3  C   UNL     1     177.597 176.495 179.945  1.00  0.00     0.000 C 
BRANCH   3   4
ATOM      4  C   UNL     1     177.535 177.758 180.817  1.00  0.00     0.000 C 
BRANCH   4   5
ATOM      5  C   UNL     1     176.199 177.899 181.563  1.00  0.00     0.000 C 
BRANCH   5   6
ATOM      6  C   UNL     1     175.528 179.265 181.327  1.00  0.00     0.000 C 
BRANCH   6   7
ATOM      7  C   UNL     1     174.131 179.141 180.700  1.00  0.00     0.000 C 
BRANCH   7   8
ATOM      8  C   UNL     1     174.155 178.430 179.335  1.00  0.00     0.000 C 
BRANCH   8   9
ATOM      9  C   UNL     1     174.261 179.410 178.152  1.00  0.00     0.000 C 
BRANCH   9  10
ATOM     10  C   UNL     1     174.663 178.771 176.810  1.00  0.00     0.006 C 
BRANCH  10  11
ATOM     11  C   UNL     1     175.971 177.973 176.896  1.00  0.00     0.053 C 
BRANCH  11  12
ATOM     12  C   UNL     1     177.150 178.885 176.753  1.00  0.00     0.041 C 
ATOM     13  O   UNL     1     177.539 179.577 177.730  1.00  0.00    -0.550 OA
ATOM     14  O   UNL     1     177.788 179.007 175.526  1.00  0.00    -0.550 OA
ENDBRANCH  11  12
ENDBRANCH  10  11
ENDBRANCH   9  10
ENDBRANCH   8   9
ENDBRANCH   7   8
ENDBRANCH   6   7
ENDBRANCH   5   6
ENDBRANCH   4   5
ENDBRANCH   3   4
ENDBRANCH   2   3
ENDBRANCH   1   2
BRANCH   1  15
ATOM     15  C   UNL     1     174.290 174.641 179.334  1.00  0.00     0.000 C 
BRANCH  15  16
ATOM     16  C   UNL     1     173.844 175.017 180.758  1.00  0.00     0.000 C 
BRANCH  16  17
ATOM     17  C   UNL     1     172.358 175.430 180.817  1.00  0.00     0.000 C 
BRANCH  17  18
ATOM     18  C   UNL     1     172.043 176.449 181.926  1.00  0.00    -0.000 C 
BRANCH  18  19
ATOM     19  C   UNL     1     170.694 176.194 182.608  1.00  0.00    -0.000 C 
BRANCH  19  20
ATOM     20  C   UNL     1     170.046 177.510 183.065  1.00  0.00    -0.000 C 
BRANCH  20  21
ATOM     21  C   UNL     1     170.033 178.586 181.962  1.00  0.00    -0.000 C 
BRANCH  21  22
ATOM     22  C   UNL     1     168.748 178.638 181.115  1.00  0.00    -0.000 C 
BRANCH  22  23
ATOM     23  C   UNL     1     168.989 178.290 179.639  1.00  0.00    -0.000 C 
BRANCH  23  24
ATOM     24  C   UNL     1     170.465 178.487 179.260  1.00  0.00    -0.000 C 
BRANCH  24  25
ATOM     25  C   UNL     1     170.737 178.205 177.773  1.00  0.00    -0.003 C 
ATOM     26  C   UNL     1     171.353 176.826 177.534  1.00  0.00     0.004 C 
ENDBRANCH  24  25
ENDBRANCH  23  24
ENDBRANCH  22  23
ENDBRANCH  21  22
ENDBRANCH  20  21
ENDBRANCH  19  20
ENDBRANCH  18  19
ENDBRANCH  17  18
ENDBRANCH  16  17
ENDBRANCH  15  16
ENDBRANCH   1  15
TORSDOF 22
ENDMDL
MODEL 5
REMARK VINA RESULT:    -4.488      3.797      8.729
REMARK INTER + INTRA:         -13.062
REMARK INTER:                  -9.844
REMARK INTRA:                  -3.218
REMARK UNBOUND:                -2.802
REMARK SMILES CCCCCCCCCCCCCCCCCCCCCCCC(=O)[O-]
REMARK SMILES IDX 13 1 14 2 15 3 16 4 17 5 18 6 19 7 20 8 21 9 22 10 23 11
REMARK SMILES IDX 24 12 25 13 26 14 12 15 11 16 10 17 9 18 8 19 7 20 6 21 5 22
REMARK SMILES IDX 4 23 3 24 2 25 1 26
REMARK H PARENT
REMARK Flexibility Score: inf
ROOT
ATOM      1  C   UNL     1     162.263 179.850 180.763  1.00  0.00     0.000 C 
ENDROOT
BRANCH   1   2
ATOM      2  C   UNL     1     163.170 179.844 179.523  1.00  0.00     0.000 C 
BRANCH   2   3
ATOM      3  C   UNL     1     162.397 179.401 178.276  1.00  0.00     0.000 C 
BRANCH   3   4
ATOM      4  C   UNL     1     161.532 178.167 178.572  1.00  0.00     0.000 C 
BRANCH   4   5
ATOM      5  C   UNL     1     162.189 176.856 178.110  1.00  0.00     0.000 C 
BRANCH   5   6
ATOM      6  C   UNL     1     161.854 175.667 179.030  1.00  0.00     0.000 C 
BRANCH   6   7
ATOM      7  C   UNL     1     161.196 176.103 180.348  1.00  0.00     0.000 C 
BRANCH   7   8
ATOM      8  C   UNL     1     160.653 174.914 181.161  1.00  0.00     0.000 C 
BRANCH   8   9
ATOM      9  C   UNL     1     161.525 173.652 181.030  1.00  0.00     0.000 C 
BRANCH   9  10
ATOM     10  C   UNL     1     161.380 172.638 182.180  1.00  0.00     0.006 C 
BRANCH  10  11
ATOM     11  C   UNL     1     162.583 172.640 183.134  1.00  0.00     0.053 C 
BRANCH  11  12
ATOM     12  C   UNL     1     163.773 172.014 182.475  1.00  0.00     0.041 C 
ATOM     13  O   UNL     1     163.689 170.859 181.980  1.00  0.00    -0.550 OA
ATOM     14  O   UNL     1     164.987 172.686 182.453  1.00  0.00    -0.550 OA
ENDBRANCH  11  12
ENDBRANCH  10  11
ENDBRANCH   9  10
ENDBRANCH   8   9
ENDBRANCH   7   8
ENDBRANCH   6   7
ENDBRANCH   5   6
ENDBRANCH   4   5
ENDBRANCH   3   4
ENDBRANCH   2   3
ENDBRANCH   1   2
BRANCH   1  15
ATOM     15  C   UNL     1     162.851 179.035 181.925  1.00  0.00     0.000 C 
BRANCH  15  16
ATOM     16  C   UNL     1     164.254 178.486 181.612  1.00  0.00     0.000 C 
BRANCH  16  17
ATOM     17  C   UNL     1     164.275 176.945 181.532  1.00  0.00     0.000 C 
BRANCH  17  18
ATOM     18  C   UNL     1     165.428 176.385 180.681  1.00  0.00    -0.000 C 
BRANCH  18  19
ATOM     19  C   UNL     1     165.460 176.963 179.261  1.00  0.00    -0.000 C 
BRANCH  19  20
ATOM     20  C   UNL     1     166.635 177.937 179.085  1.00  0.00    -0.000 C 
BRANCH  20  21
ATOM     21  C   UNL     1     167.984 177.219 178.892  1.00  0.00    -0.000 C 
BRANCH  21  22
ATOM     22  C   UNL     1     168.965 177.342 180.073  1.00  0.00    -0.000 C 
BRANCH  22  23
ATOM     23  C   UNL     1     168.630 178.509 181.012  1.00  0.00    -0.000 C 
BRANCH  23  24
ATOM     24  C   UNL     1     169.672 178.632 182.133  1.00  0.00    -0.000 C 
BRANCH  24  25
ATOM     25  C   UNL     1     171.098 178.311 181.654  1.00  0.00    -0.003 C 
ATOM     26  C   UNL     1     171.795 179.515 181.019  1.00  0.00     0.004 C 
ENDBRANCH  24  25
ENDBRANCH  23  24
ENDBRANCH  22  23
ENDBRANCH  21  22
ENDBRANCH  20  21
ENDBRANCH  19  20
ENDBRANCH  18  19
ENDBRANCH  17  18
ENDBRANCH  16  17
ENDBRANCH  15  16
ENDBRANCH   1  15
TORSDOF 22
ENDMDL
MODEL 6
REMARK VINA RESULT:    -4.469      1.601      4.478
REMARK INTER + INTRA:         -13.018
REMARK INTER:                 -10.519
REMARK INTRA:                  -2.500
REMARK UNBOUND:                -2.802
REMARK SMILES CCCCCCCCCCCCCCCCCCCCCCCC(=O)[O-]
REMARK SMILES IDX 13 1 14 2 15 3 16 4 17 5 18 6 19 7 20 8 21 9 22 10 23 11
REMARK SMILES IDX 24 12 25 13 26 14 12 15 11 16 10 17 9 18 8 19 7 20 6 21 5 22
REMARK SMILES IDX 4 23 3 24 2 25 1 26
REMARK H PARENT
REMARK Flexibility Score: inf
ROOT
ATOM      1  C   UNL     1     168.340 178.384 180.379  1.00  0.00     0.000 C 
ENDROOT
BRANCH   1   2
ATOM      2  C   UNL     1     169.285 178.487 181.586  1.00  0.00     0.000 C 
BRANCH   2   3
ATOM      3  C   UNL     1     170.717 178.098 181.201  1.00  0.00     0.000 C 
BRANCH   3   4
ATOM      4  C   UNL     1     171.670 179.294 181.343  1.00  0.00     0.000 C 
BRANCH   4   5
ATOM      5  C   UNL     1     173.042 179.040 180.697  1.00  0.00     0.000 C 
BRANCH   5   6
ATOM      6  C   UNL     1     173.629 177.666 181.070  1.00  0.00     0.000 C 
BRANCH   6   7
ATOM      7  C   UNL     1     175.164 177.645 181.027  1.00  0.00     0.000 C 
BRANCH   7   8
ATOM      8  C   UNL     1     175.795 178.827 181.783  1.00  0.00     0.000 C 
BRANCH   8   9
ATOM      9  C   UNL     1     177.050 179.383 181.084  1.00  0.00     0.000 C 
BRANCH   9  10
ATOM     10  C   UNL     1     177.164 179.048 179.585  1.00  0.00     0.006 C 
BRANCH  10  11
ATOM     11  C   UNL     1     176.527 180.115 178.684  1.00  0.00     0.053 C 
BRANCH  11  12
ATOM     12  C   UNL     1     175.699 179.470 177.616  1.00  0.00     0.041 C 
ATOM     13  O   UNL     1     176.250 178.792 176.709  1.00  0.00    -0.550 OA
ATOM     14  O   UNL     1     174.324 179.658 177.595  1.00  0.00    -0.550 OA
ENDBRANCH  11  12
ENDBRANCH  10  11
ENDBRANCH   9  10
ENDBRANCH   8   9
ENDBRANCH   7   8
ENDBRANCH   6   7
ENDBRANCH   5   6
ENDBRANCH   4   5
ENDBRANCH   3   4
ENDBRANCH   2   3
ENDBRANCH   1   2
BRANCH   1  15
ATOM     15  C   UNL     1     167.021 179.139 180.598  1.00  0.00     0.000 C 
BRANCH  15  16
ATOM     16  C   UNL     1     165.837 178.487 179.861  1.00  0.00     0.000 C 
BRANCH  16  17
ATOM     17  C   UNL     1     164.940 177.663 180.808  1.00  0.00     0.000 C 
BRANCH  17  18
ATOM     18  C   UNL     1     164.000 178.521 181.673  1.00  0.00    -0.000 C 
BRANCH  18  19
ATOM     19  C   UNL     1     163.590 179.832 180.992  1.00  0.00    -0.000 C 
BRANCH  19  20
ATOM     20  C   UNL     1     162.061 179.956 180.903  1.00  0.00    -0.000 C 
BRANCH  20  21
ATOM     21  C   UNL     1     161.539 179.903 179.455  1.00  0.00    -0.000 C 
BRANCH  21  22
ATOM     22  C   UNL     1     162.625 179.747 178.374  1.00  0.00    -0.000 C 
BRANCH  22  23
ATOM     23  C   UNL     1     162.715 178.319 177.817  1.00  0.00    -0.000 C 
BRANCH  23  24
ATOM     24  C   UNL     1     161.531 177.465 178.295  1.00  0.00    -0.000 C 
BRANCH  24  25
ATOM     25  C   UNL     1     161.975 176.244 179.117  1.00  0.00    -0.003 C 
ATOM     26  C   UNL     1     161.425 176.257 180.544  1.00  0.00     0.004 C 
ENDBRANCH  24  25
ENDBRANCH  23  24
ENDBRANCH  22  23
ENDBRANCH  21  22
ENDBRANCH  20  21
ENDBRANCH  19  20
ENDBRANCH  18  19
ENDBRANCH  17  18
ENDBRANCH  16  17
ENDBRANCH  15  16
ENDBRANCH   1  15
TORSDOF 22
ENDMDL
MODEL 7
REMARK VINA RESULT:    -4.467      5.673      8.516
REMARK INTER + INTRA:         -13.014
REMARK INTER:                  -8.607
REMARK INTRA:                  -4.407
REMARK UNBOUND:                -2.802
REMARK SMILES CCCCCCCCCCCCCCCCCCCCCCCC(=O)[O-]
REMARK SMILES IDX 13 1 14 2 15 3 16 4 17 5 18 6 19 7 20 8 21 9 22 10 23 11
REMARK SMILES IDX 24 12 25 13 26 14 12 15 11 16 10 17 9 18 8 19 7 20 6 21 5 22
REMARK SMILES IDX 4 23 3 24 2 25 1 26
REMARK H PARENT
REMARK Flexibility Score: inf
ROOT
ATOM      1  C   UNL     1     164.857 176.014 179.807  1.00  0.00     0.000 C 
ENDROOT
BRANCH   1   2
ATOM      2  C   UNL     1     163.360 175.672 179.817  1.00  0.00     0.000 C 
BRANCH   2   3
ATOM      3  C   UNL     1     162.720 176.035 181.162  1.00  0.00     0.000 C 
BRANCH   3   4
ATOM      4  C   UNL     1     161.201 176.217 181.020  1.00  0.00     0.000 C 
BRANCH   4   5
ATOM      5  C   UNL     1     160.457 174.882 180.852  1.00  0.00     0.000 C 
BRANCH   5   6
ATOM      6  C   UNL     1     160.381 174.076 182.162  1.00  0.00     0.000 C 
BRANCH   6   7
ATOM      7  C   UNL     1     160.999 172.675 182.035  1.00  0.00     0.000 C 
BRANCH   7   8
ATOM      8  C   UNL     1     162.407 172.591 182.649  1.00  0.00     0.000 C 
BRANCH   8   9
ATOM      9  C   UNL     1     163.495 172.261 181.609  1.00  0.00     0.000 C 
BRANCH   9  10
ATOM     10  C   UNL     1     162.979 172.041 180.175  1.00  0.00     0.006 C 
BRANCH  10  11
ATOM     11  C   UNL     1     163.321 170.649 179.625  1.00  0.00     0.053 C 
BRANCH  11  12
ATOM     12  C   UNL     1     162.552 169.594 180.357  1.00  0.00     0.041 C 
ATOM     13  O   UNL     1     161.293 169.610 180.354  1.00  0.00    -0.550 OA
ATOM     14  O   UNL     1     163.226 168.621 181.083  1.00  0.00    -0.550 OA
ENDBRANCH  11  12
ENDBRANCH  10  11
ENDBRANCH   9  10
ENDBRANCH   8   9
ENDBRANCH   7   8
ENDBRANCH   6   7
ENDBRANCH   5   6
ENDBRANCH   4   5
ENDBRANCH   3   4
ENDBRANCH   2   3
ENDBRANCH   1   2
BRANCH   1  15
ATOM     15  C   UNL     1     165.216 177.115 180.816  1.00  0.00     0.000 C 
BRANCH  15  16
ATOM     16  C   UNL     1     165.744 178.390 180.136  1.00  0.00     0.000 C 
BRANCH  16  17
ATOM     17  C   UNL     1     164.845 179.615 180.407  1.00  0.00     0.000 C 
BRANCH  17  18
ATOM     18  C   UNL     1     163.747 179.357 181.453  1.00  0.00    -0.000 C 
BRANCH  18  19
ATOM     19  C   UNL     1     162.355 179.792 180.981  1.00  0.00    -0.000 C 
BRANCH  19  20
ATOM     20  C   UNL     1     162.343 180.061 179.468  1.00  0.00    -0.000 C 
BRANCH  20  21
ATOM     21  C   UNL     1     161.449 179.075 178.692  1.00  0.00    -0.000 C 
BRANCH  21  22
ATOM     22  C   UNL     1     162.162 178.285 177.577  1.00  0.00    -0.000 C 
BRANCH  22  23
ATOM     23  C   UNL     1     161.386 177.036 177.137  1.00  0.00    -0.000 C 
BRANCH  23  24
ATOM     24  C   UNL     1     162.297 176.061 176.376  1.00  0.00    -0.000 C 
BRANCH  24  25
ATOM     25  C   UNL     1     161.600 174.729 176.054  1.00  0.00    -0.003 C 
ATOM     26  C   UNL     1     161.290 173.904 177.304  1.00  0.00     0.004 C 
ENDBRANCH  24  25
ENDBRANCH  23  24
ENDBRANCH  22  23
ENDBRANCH  21  22
ENDBRANCH  20  21
ENDBRANCH  19  20
ENDBRANCH  18  19
ENDBRANCH  17  18
ENDBRANCH  16  17
ENDBRANCH  15  16
ENDBRANCH   1  15
TORSDOF 22
ENDMDL
MODEL 8
REMARK VINA RESULT:    -4.419      7.741     10.475
REMARK INTER + INTRA:         -12.904
REMARK INTER:                  -8.946
REMARK INTRA:                  -3.958
REMARK UNBOUND:                -2.802
REMARK SMILES CCCCCCCCCCCCCCCCCCCCCCCC(=O)[O-]
REMARK SMILES IDX 13 1 14 2 15 3 16 4 17 5 18 6 19 7 20 8 21 9 22 10 23 11
REMARK SMILES IDX 24 12 25 13 26 14 12 15 11 16 10 17 9 18 8 19 7 20 6 21 5 22
REMARK SMILES IDX 4 23 3 24 2 25 1 26
REMARK H PARENT
REMARK Flexibility Score: inf
ROOT
ATOM      1  C   UNL     1     175.028 177.222 181.780  1.00  0.00     0.000 C 
ENDROOT
BRANCH   1   2
ATOM      2  C   UNL     1     176.430 177.651 181.322  1.00  0.00     0.000 C 
BRANCH   2   3
ATOM      3  C   UNL     1     176.805 179.021 181.900  1.00  0.00     0.000 C 
BRANCH   3   4
ATOM      4  C   UNL     1     177.142 180.017 180.780  1.00  0.00     0.000 C 
BRANCH   4   5
ATOM      5  C   UNL     1     177.201 179.356 179.394  1.00  0.00     0.000 C 
BRANCH   5   6
ATOM      6  C   UNL     1     176.135 179.905 178.428  1.00  0.00     0.000 C 
BRANCH   6   7
ATOM      7  C   UNL     1     175.385 178.794 177.677  1.00  0.00     0.000 C 
BRANCH   7   8
ATOM      8  C   UNL     1     176.207 177.498 177.560  1.00  0.00     0.000 C 
BRANCH   8   9
ATOM      9  C   UNL     1     175.341 176.229 177.661  1.00  0.00     0.000 C 
BRANCH   9  10
ATOM     10  C   UNL     1     175.770 175.232 178.753  1.00  0.00     0.006 C 
BRANCH  10  11
ATOM     11  C   UNL     1     176.802 174.210 178.258  1.00  0.00     0.053 C 
BRANCH  11  12
ATOM     12  C   UNL     1     177.850 173.977 179.302  1.00  0.00     0.041 C 
ATOM     13  O   UNL     1     178.168 174.899 180.097  1.00  0.00    -0.550 OA
ATOM     14  O   UNL     1     178.507 172.756 179.364  1.00  0.00    -0.550 OA
ENDBRANCH  11  12
ENDBRANCH  10  11
ENDBRANCH   9  10
ENDBRANCH   8   9
ENDBRANCH   7   8
ENDBRANCH   6   7
ENDBRANCH   5   6
ENDBRANCH   4   5
ENDBRANCH   3   4
ENDBRANCH   2   3
ENDBRANCH   1   2
BRANCH   1  15
ATOM     15  C   UNL     1     173.930 177.664 180.801  1.00  0.00     0.000 C 
BRANCH  15  16
ATOM     16  C   UNL     1     173.374 179.061 181.128  1.00  0.00     0.000 C 
BRANCH  16  17
ATOM     17  C   UNL     1     172.138 179.414 180.273  1.00  0.00     0.000 C 
BRANCH  17  18
ATOM     18  C   UNL     1     171.884 178.431 179.117  1.00  0.00    -0.000 C 
BRANCH  18  19
ATOM     19  C   UNL     1     171.849 179.116 177.746  1.00  0.00    -0.000 C 
BRANCH  19  20
ATOM     20  C   UNL     1     170.936 178.356 176.770  1.00  0.00    -0.000 C 
BRANCH  20  21
ATOM     21  C   UNL     1     171.064 178.855 175.318  1.00  0.00    -0.000 C 
BRANCH  21  22
ATOM     22  C   UNL     1     172.024 180.042 175.117  1.00  0.00    -0.000 C 
BRANCH  22  23
ATOM     23  C   UNL     1     173.159 179.734 174.130  1.00  0.00    -0.000 C 
BRANCH  23  24
ATOM     24  C   UNL     1     173.202 178.237 173.790  1.00  0.00    -0.000 C 
BRANCH  24  25
ATOM     25  C   UNL     1     174.593 177.619 174.009  1.00  0.00    -0.003 C 
ATOM     26  C   UNL     1     175.713 178.660 173.995  1.00  0.00     0.004 C 
ENDBRANCH  24  25
ENDBRANCH  23  24
ENDBRANCH  22  23
ENDBRANCH  21  22
ENDBRANCH  20  21
ENDBRANCH  19  20
ENDBRANCH  18  19
ENDBRANCH  17  18
ENDBRANCH  16  17
ENDBRANCH  15  16
ENDBRANCH   1  15
TORSDOF 22
ENDMDL
MODEL 9
REMARK VINA RESULT:    -4.400      5.852      9.587
REMARK INTER + INTRA:         -12.862
REMARK INTER:                  -8.741
REMARK INTRA:                  -4.121
REMARK UNBOUND:                -2.802
REMARK SMILES CCCCCCCCCCCCCCCCCCCCCCCC(=O)[O-]
REMARK SMILES IDX 13 1 14 2 15 3 16 4 17 5 18 6 19 7 20 8 21 9 22 10 23 11
REMARK SMILES IDX 24 12 25 13 26 14 12 15 11 16 10 17 9 18 8 19 7 20 6 21 5 22
REMARK SMILES IDX 4 23 3 24 2 25 1 26
REMARK H PARENT
REMARK Flexibility Score: inf
ROOT
ATOM      1  C   UNL     1     175.385 177.709 177.441  1.00  0.00     0.000 C 
ENDROOT
BRANCH   1   2
ATOM      2  C   UNL     1     176.730 178.407 177.693  1.00  0.00     0.000 C 
BRANCH   2   3
ATOM      3  C   UNL     1     176.528 179.768 178.369  1.00  0.00     0.000 C 
BRANCH   3   4
ATOM      4  C   UNL     1     177.404 179.895 179.625  1.00  0.00     0.000 C 
BRANCH   4   5
ATOM      5  C   UNL     1     176.627 179.616 180.921  1.00  0.00     0.000 C 
BRANCH   5   6
ATOM      6  C   UNL     1     176.977 178.250 181.541  1.00  0.00     0.000 C 
BRANCH   6   7
ATOM      7  C   UNL     1     175.753 177.333 181.688  1.00  0.00     0.000 C 
BRANCH   7   8
ATOM      8  C   UNL     1     175.738 176.194 180.653  1.00  0.00     0.000 C 
BRANCH   8   9
ATOM      9  C   UNL     1     177.094 175.474 180.538  1.00  0.00     0.000 C 
BRANCH   9  10
ATOM     10  C   UNL     1     177.013 173.994 180.120  1.00  0.00     0.006 C 
BRANCH  10  11
ATOM     11  C   UNL     1     177.756 173.059 181.084  1.00  0.00     0.053 C 
BRANCH  11  12
ATOM     12  C   UNL     1     178.496 172.004 180.322  1.00  0.00     0.041 C 
ATOM     13  O   UNL     1     178.991 172.266 179.194  1.00  0.00    -0.550 OA
ATOM     14  O   UNL     1     178.598 170.719 180.836  1.00  0.00    -0.550 OA
ENDBRANCH  11  12
ENDBRANCH  10  11
ENDBRANCH   9  10
ENDBRANCH   8   9
ENDBRANCH   7   8
ENDBRANCH   6   7
ENDBRANCH   5   6
ENDBRANCH   4   5
ENDBRANCH   3   4
ENDBRANCH   2   3
ENDBRANCH   1   2
BRANCH   1  15
ATOM     15  C   UNL     1     174.186 178.630 177.712  1.00  0.00     0.000 C 
BRANCH  15  16
ATOM     16  C   UNL     1     173.333 178.155 178.901  1.00  0.00     0.000 C 
BRANCH  16  17
ATOM     17  C   UNL     1     172.840 179.328 179.775  1.00  0.00     0.000 C 
BRANCH  17  18
ATOM     18  C   UNL     1     172.377 178.902 181.179  1.00  0.00    -0.000 C 
BRANCH  18  19
ATOM     19  C   UNL     1     172.095 177.399 181.286  1.00  0.00    -0.000 C 
BRANCH  19  20
ATOM     20  C   UNL     1     170.863 177.127 182.163  1.00  0.00    -0.000 C 
BRANCH  20  21
ATOM     21  C   UNL     1     169.694 178.086 181.867  1.00  0.00    -0.000 C 
BRANCH  21  22
ATOM     22  C   UNL     1     168.834 177.712 180.645  1.00  0.00    -0.000 C 
BRANCH  22  23
ATOM     23  C   UNL     1     169.032 178.666 179.459  1.00  0.00    -0.000 C 
BRANCH  23  24
ATOM     24  C   UNL     1     169.661 177.935 178.263  1.00  0.00    -0.000 C 
BRANCH  24  25
ATOM     25  C   UNL     1     169.899 176.442 178.540  1.00  0.00    -0.003 C 
ATOM     26  C   UNL     1     170.817 175.786 177.509  1.00  0.00     0.004 C 
ENDBRANCH  24  25
ENDBRANCH  23  24
ENDBRANCH  22  23
ENDBRANCH  21  22
ENDBRANCH  20  21
ENDBRANCH  19  20
ENDBRANCH  18  19
ENDBRANCH  17  18
ENDBRANCH  16  17
ENDBRANCH  15  16
ENDBRANCH   1  15
TORSDOF 22
ENDMDL
