MODEL 1
REMARK VINA RESULT:    -6.324      0.000      0.000
REMARK INTER + INTRA:         -19.154
REMARK INTER:                 -15.937
REMARK INTRA:                  -3.218
REMARK UNBOUND:                -3.218
REMARK SMILES CCCCCCCCCCCCCCCCCCCCCCCCCCCC(=O)[O-]
REMARK SMILES IDX 15 1 16 2 17 3 18 4 19 5 20 6 21 7 22 8 23 9 24 10 25 11
REMARK SMILES IDX 26 12 27 13 28 14 29 15 30 16 14 17 13 18 12 19 11 20 10 21
REMARK SMILES IDX 9 22 8 23 7 24 6 25 5 26 4 27 3 28 2 29 1 30
REMARK H PARENT
REMARK Flexibility Score: inf
ROOT
ATOM      1  C   UNL     1       2.651   5.328  19.098  1.00  0.00     0.000 C 
ENDROOT
BRANCH   1   2
ATOM      2  C   UNL     1       2.803   4.112  20.027  1.00  0.00     0.000 C 
BRANCH   2   3
ATOM      3  C   UNL     1       2.600   2.773  19.296  1.00  0.00     0.000 C 
BRANCH   3   4
ATOM      4  C   UNL     1       3.890   2.102  18.780  1.00  0.00     0.000 C 
BRANCH   4   5
ATOM      5  C   UNL     1       4.165   0.692  19.336  1.00  0.00     0.000 C 
BRANCH   5   6
ATOM      6  C   UNL     1       5.411  -0.009  18.761  1.00  0.00     0.000 C 
BRANCH   6   7
ATOM      7  C   UNL     1       5.134  -1.416  18.190  1.00  0.00     0.000 C 
BRANCH   7   8
ATOM      8  C   UNL     1       5.276  -1.477  16.658  1.00  0.00     0.000 C 
BRANCH   8   9
ATOM      9  C   UNL     1       5.317  -0.076  16.018  1.00  0.00     0.000 C 
BRANCH   9  10
ATOM     10  C   UNL     1       5.885  -0.064  14.587  1.00  0.00     0.000 C 
BRANCH  10  11
ATOM     11  C   UNL     1       4.979   0.704  13.606  1.00  0.00     0.000 C 
BRANCH  11  12
ATOM     12  C   UNL     1       3.634  -0.003  13.361  1.00  0.00     0.006 C 
BRANCH  12  13
ATOM     13  C   UNL     1       2.458   0.576  14.163  1.00  0.00     0.053 C 
BRANCH  13  14
ATOM     14  C   UNL     1       1.605  -0.498  14.765  1.00  0.00     0.041 C 
ATOM     15  O   UNL     1       2.123  -1.581  15.142  1.00  0.00    -0.550 OA
ATOM     16  O   UNL     1       0.234  -0.310  14.888  1.00  0.00    -0.550 OA
ENDBRANCH  13  14
ENDBRANCH  12  13
ENDBRANCH  11  12
ENDBRANCH  10  11
ENDBRANCH   9  10
ENDBRANCH   8   9
ENDBRANCH   7   8
ENDBRANCH   6   7
ENDBRANCH   5   6
ENDBRANCH   4   5
ENDBRANCH   3   4
ENDBRANCH   2   3
ENDBRANCH   1   2
BRANCH   1  17
ATOM     17  C   UNL     1       2.006   4.967  17.749  1.00  0.00     0.000 C 
BRANCH  17  18
ATOM     18  C   UNL     1       3.023   4.923  16.593  1.00  0.00     0.000 C 
BRANCH  18  19
ATOM     19  C   UNL     1       2.686   3.845  15.539  1.00  0.00     0.000 C 
BRANCH  19  20
ATOM     20  C   UNL     1       3.320   4.099  14.158  1.00  0.00     0.000 C 
BRANCH  20  21
ATOM     21  C   UNL     1       4.736   4.705  14.188  1.00  0.00     0.000 C 
BRANCH  21  22
ATOM     22  C   UNL     1       5.132   5.507  12.931  1.00  0.00    -0.000 C 
BRANCH  22  23
ATOM     23  C   UNL     1       5.265   7.026  13.145  1.00  0.00    -0.000 C 
BRANCH  23  24
ATOM     24  C   UNL     1       6.456   7.399  14.040  1.00  0.00    -0.000 C 
BRANCH  24  25
ATOM     25  C   UNL     1       5.988   7.763  15.455  1.00  0.00    -0.000 C 
BRANCH  25  26
ATOM     26  C   UNL     1       4.522   8.214  15.450  1.00  0.00    -0.000 C 
BRANCH  26  27
ATOM     27  C   UNL     1       4.214   9.112  16.658  1.00  0.00    -0.000 C 
BRANCH  27  28
ATOM     28  C   UNL     1       3.048   8.564  17.507  1.00  0.00    -0.000 C 
BRANCH  28  29
ATOM     29  C   UNL     1       2.597   9.523  18.622  1.00  0.00    -0.003 C 
ATOM     30  C   UNL     1       1.991   8.801  19.824  1.00  0.00     0.004 C 
ENDBRANCH  28  29
ENDBRANCH  27  28
ENDBRANCH  26  27
ENDBRANCH  25  26
ENDBRANCH  24  25
ENDBRANCH  23  24
ENDBRANCH  22  23
ENDBRANCH  21  22
ENDBRANCH  20  21
ENDBRANCH  19  20
ENDBRANCH  18  19
ENDBRANCH  17  18
ENDBRANCH   1  17
TORSDOF 26
ENDMDL
MODEL 2
REMARK VINA RESULT:    -6.262      3.003      8.033
REMARK INTER + INTRA:         -18.998
REMARK INTER:                 -15.600
REMARK INTRA:                  -3.398
REMARK UNBOUND:                -3.218
REMARK SMILES CCCCCCCCCCCCCCCCCCCCCCCCCCCC(=O)[O-]
REMARK SMILES IDX 15 1 16 2 17 3 18 4 19 5 20 6 21 7 22 8 23 9 24 10 25 11
REMARK SMILES IDX 26 12 27 13 28 14 29 15 30 16 14 17 13 18 12 19 11 20 10 21
REMARK SMILES IDX 9 22 8 23 7 24 6 25 5 26 4 27 3 28 2 29 1 30
REMARK H PARENT
REMARK Flexibility Score: inf
ROOT
ATOM      1  C   UNL     1       1.973   5.290  17.527  1.00  0.00     0.000 C 
ENDROOT
BRANCH   1   2
ATOM      2  C   UNL     1       3.212   4.858  16.726  1.00  0.00     0.000 C 
BRANCH   2   3
ATOM      3  C   UNL     1       2.978   3.574  15.910  1.00  0.00     0.000 C 
BRANCH   3   4
ATOM      4  C   UNL     1       2.914   3.768  14.381  1.00  0.00     0.000 C 
BRANCH   4   5
ATOM      5  C   UNL     1       4.194   3.385  13.616  1.00  0.00     0.000 C 
BRANCH   5   6
ATOM      6  C   UNL     1       4.935   4.559  12.947  1.00  0.00     0.000 C 
BRANCH   6   7
ATOM      7  C   UNL     1       4.609   5.939  13.558  1.00  0.00     0.000 C 
BRANCH   7   8
ATOM      8  C   UNL     1       5.441   7.077  12.939  1.00  0.00     0.000 C 
BRANCH   8   9
ATOM      9  C   UNL     1       6.485   7.640  13.921  1.00  0.00     0.000 C 
BRANCH   9  10
ATOM     10  C   UNL     1       6.031   7.614  15.393  1.00  0.00     0.000 C 
BRANCH  10  11
ATOM     11  C   UNL     1       4.601   8.157  15.571  1.00  0.00     0.000 C 
BRANCH  11  12
ATOM     12  C   UNL     1       4.407   8.891  16.911  1.00  0.00     0.006 C 
BRANCH  12  13
ATOM     13  C   UNL     1       2.958   8.897  17.424  1.00  0.00     0.053 C 
BRANCH  13  14
ATOM     14  C   UNL     1       2.859   9.432  18.820  1.00  0.00     0.041 C 
ATOM     15  O   UNL     1       1.908   9.081  19.567  1.00  0.00    -0.550 OA
ATOM     16  O   UNL     1       3.803  10.338  19.286  1.00  0.00    -0.550 OA
ENDBRANCH  13  14
ENDBRANCH  12  13
ENDBRANCH  11  12
ENDBRANCH  10  11
ENDBRANCH   9  10
ENDBRANCH   8   9
ENDBRANCH   7   8
ENDBRANCH   6   7
ENDBRANCH   5   6
ENDBRANCH   4   5
ENDBRANCH   3   4
ENDBRANCH   2   3
ENDBRANCH   1   2
BRANCH   1  17
ATOM     17  C   UNL     1       2.318   5.742  18.956  1.00  0.00     0.000 C 
BRANCH  17  18
ATOM     18  C   UNL     1       2.870   4.598  19.828  1.00  0.00     0.000 C 
BRANCH  18  19
ATOM     19  C   UNL     1       1.874   3.428  19.982  1.00  0.00     0.000 C 
BRANCH  19  20
ATOM     20  C   UNL     1       2.322   2.128  19.288  1.00  0.00     0.000 C 
BRANCH  20  21
ATOM     21  C   UNL     1       3.846   1.950  19.152  1.00  0.00     0.000 C 
BRANCH  21  22
ATOM     22  C   UNL     1       4.370   0.530  19.456  1.00  0.00    -0.000 C 
BRANCH  22  23
ATOM     23  C   UNL     1       5.436   0.007  18.476  1.00  0.00    -0.000 C 
BRANCH  23  24
ATOM     24  C   UNL     1       5.094  -1.378  17.908  1.00  0.00    -0.000 C 
BRANCH  24  25
ATOM     25  C   UNL     1       5.222  -1.393  16.379  1.00  0.00    -0.000 C 
BRANCH  25  26
ATOM     26  C   UNL     1       4.752  -0.063  15.776  1.00  0.00    -0.000 C 
BRANCH  26  27
ATOM     27  C   UNL     1       4.493  -0.200  14.267  1.00  0.00    -0.000 C 
BRANCH  27  28
ATOM     28  C   UNL     1       3.001  -0.025  13.916  1.00  0.00    -0.000 C 
BRANCH  28  29
ATOM     29  C   UNL     1       2.069  -0.093  15.138  1.00  0.00    -0.003 C 
ATOM     30  C   UNL     1       0.612   0.213  14.799  1.00  0.00     0.004 C 
ENDBRANCH  28  29
ENDBRANCH  27  28
ENDBRANCH  26  27
ENDBRANCH  25  26
ENDBRANCH  24  25
ENDBRANCH  23  24
ENDBRANCH  22  23
ENDBRANCH  21  22
ENDBRANCH  20  21
ENDBRANCH  19  20
ENDBRANCH  18  19
ENDBRANCH  17  18
ENDBRANCH   1  17
TORSDOF 26
ENDMDL
MODEL 3
REMARK VINA RESULT:    -6.001      3.026      7.510
REMARK INTER + INTRA:         -18.339
REMARK INTER:                 -15.025
REMARK INTRA:                  -3.315
REMARK UNBOUND:                -3.218
REMARK SMILES CCCCCCCCCCCCCCCCCCCCCCCCCCCC(=O)[O-]
REMARK SMILES IDX 15 1 16 2 17 3 18 4 19 5 20 6 21 7 22 8 23 9 24 10 25 11
REMARK SMILES IDX 26 12 27 13 28 14 29 15 30 16 14 17 13 18 12 19 11 20 10 21
REMARK SMILES IDX 9 22 8 23 7 24 6 25 5 26 4 27 3 28 2 29 1 30
REMARK H PARENT
REMARK Flexibility Score: inf
ROOT
ATOM      1  C   UNL     1       4.009   1.182  19.233  1.00  0.00     0.000 C 
ENDROOT
BRANCH   1   2
ATOM      2  C   UNL     1       3.468   2.605  19.014  1.00  0.00     0.000 C 
BRANCH   2   3
ATOM      3  C   UNL     1       2.043   2.792  19.566  1.00  0.00     0.000 C 
BRANCH   3   4
ATOM      4  C   UNL     1       1.530   4.247  19.585  1.00  0.00     0.000 C 
BRANCH   4   5
ATOM      5  C   UNL     1       2.612   5.327  19.402  1.00  0.00     0.000 C 
BRANCH   5   6
ATOM      6  C   UNL     1       2.144   6.611  18.688  1.00  0.00     0.000 C 
BRANCH   6   7
ATOM      7  C   UNL     1       1.997   7.832  19.622  1.00  0.00     0.000 C 
BRANCH   7   8
ATOM      8  C   UNL     1       2.318   9.163  18.917  1.00  0.00     0.000 C 
BRANCH   8   9
ATOM      9  C   UNL     1       2.797   8.957  17.467  1.00  0.00     0.000 C 
BRANCH   9  10
ATOM     10  C   UNL     1       4.321   9.090  17.292  1.00  0.00     0.000 C 
BRANCH  10  11
ATOM     11  C   UNL     1       4.777   8.733  15.865  1.00  0.00     0.000 C 
BRANCH  11  12
ATOM     12  C   UNL     1       4.754   7.218  15.593  1.00  0.00     0.006 C 
BRANCH  12  13
ATOM     13  C   UNL     1       5.255   6.817  14.197  1.00  0.00     0.053 C 
BRANCH  13  14
ATOM     14  C   UNL     1       6.018   7.922  13.534  1.00  0.00     0.041 C 
ATOM     15  O   UNL     1       5.411   8.806  12.876  1.00  0.00    -0.550 OA
ATOM     16  O   UNL     1       7.404   7.961  13.625  1.00  0.00    -0.550 OA
ENDBRANCH  13  14
ENDBRANCH  12  13
ENDBRANCH  11  12
ENDBRANCH  10  11
ENDBRANCH   9  10
ENDBRANCH   8   9
ENDBRANCH   7   8
ENDBRANCH   6   7
ENDBRANCH   5   6
ENDBRANCH   4   5
ENDBRANCH   3   4
ENDBRANCH   2   3
ENDBRANCH   1   2
BRANCH   1  17
ATOM     17  C   UNL     1       4.900   0.701  18.075  1.00  0.00     0.000 C 
BRANCH  17  18
ATOM     18  C   UNL     1       5.616  -0.628  18.383  1.00  0.00     0.000 C 
BRANCH  18  19
ATOM     19  C   UNL     1       5.603  -1.607  17.189  1.00  0.00     0.000 C 
BRANCH  19  20
ATOM     20  C   UNL     1       4.584  -1.245  16.092  1.00  0.00     0.000 C 
BRANCH  20  21
ATOM     21  C   UNL     1       5.168  -1.112  14.673  1.00  0.00     0.000 C 
BRANCH  21  22
ATOM     22  C   UNL     1       5.841   0.243  14.366  1.00  0.00    -0.000 C 
BRANCH  22  23
ATOM     23  C   UNL     1       5.279   0.984  13.139  1.00  0.00    -0.000 C 
BRANCH  23  24
ATOM     24  C   UNL     1       4.621   2.323  13.502  1.00  0.00    -0.000 C 
BRANCH  24  25
ATOM     25  C   UNL     1       4.909   2.701  14.960  1.00  0.00    -0.000 C 
BRANCH  25  26
ATOM     26  C   UNL     1       3.648   3.238  15.648  1.00  0.00    -0.000 C 
BRANCH  26  27
ATOM     27  C   UNL     1       2.382   2.592  15.065  1.00  0.00    -0.000 C 
BRANCH  27  28
ATOM     28  C   UNL     1       2.195   1.138  15.549  1.00  0.00    -0.000 C 
BRANCH  28  29
ATOM     29  C   UNL     1       1.149   0.351  14.741  1.00  0.00    -0.003 C 
ATOM     30  C   UNL     1       1.374  -1.158  14.780  1.00  0.00     0.004 C 
ENDBRANCH  28  29
ENDBRANCH  27  28
ENDBRANCH  26  27
ENDBRANCH  25  26
ENDBRANCH  24  25
ENDBRANCH  23  24
ENDBRANCH  22  23
ENDBRANCH  21  22
ENDBRANCH  20  21
ENDBRANCH  19  20
ENDBRANCH  18  19
ENDBRANCH  17  18
ENDBRANCH   1  17
TORSDOF 26
ENDMDL
MODEL 4
REMARK VINA RESULT:    -5.962      1.589      2.062
REMARK INTER + INTRA:         -18.242
REMARK INTER:                 -14.990
REMARK INTRA:                  -3.252
REMARK UNBOUND:                -3.218
REMARK SMILES CCCCCCCCCCCCCCCCCCCCCCCCCCCC(=O)[O-]
REMARK SMILES IDX 15 1 16 2 17 3 18 4 19 5 20 6 21 7 22 8 23 9 24 10 25 11
REMARK SMILES IDX 26 12 27 13 28 14 29 15 30 16 14 17 13 18 12 19 11 20 10 21
REMARK SMILES IDX 9 22 8 23 7 24 6 25 5 26 4 27 3 28 2 29 1 30
REMARK H PARENT
REMARK Flexibility Score: inf
ROOT
ATOM      1  C   UNL     1       2.472   4.984  19.354  1.00  0.00     0.000 C 
ENDROOT
BRANCH   1   2
ATOM      2  C   UNL     1       1.798   3.737  19.950  1.00  0.00     0.000 C 
BRANCH   2   3
ATOM      3  C   UNL     1       2.229   2.434  19.251  1.00  0.00     0.000 C 
BRANCH   3   4
ATOM      4  C   UNL     1       3.748   2.167  19.234  1.00  0.00     0.000 C 
BRANCH   4   5
ATOM      5  C   UNL     1       4.283   1.494  17.956  1.00  0.00     0.000 C 
BRANCH   5   6
ATOM      6  C   UNL     1       5.333   0.390  18.187  1.00  0.00     0.000 C 
BRANCH   6   7
ATOM      7  C   UNL     1       4.779  -1.044  18.047  1.00  0.00     0.000 C 
BRANCH   7   8
ATOM      8  C   UNL     1       5.170  -1.707  16.714  1.00  0.00     0.000 C 
BRANCH   8   9
ATOM      9  C   UNL     1       3.953  -1.947  15.800  1.00  0.00     0.000 C 
BRANCH   9  10
ATOM     10  C   UNL     1       3.157  -0.669  15.477  1.00  0.00     0.000 C 
BRANCH  10  11
ATOM     11  C   UNL     1       2.605  -0.673  14.040  1.00  0.00     0.000 C 
BRANCH  11  12
ATOM     12  C   UNL     1       3.541   0.033  13.041  1.00  0.00     0.006 C 
BRANCH  12  13
ATOM     13  C   UNL     1       4.495   1.055  13.681  1.00  0.00     0.053 C 
BRANCH  13  14
ATOM     14  C   UNL     1       5.932   0.706  13.447  1.00  0.00     0.041 C 
ATOM     15  O   UNL     1       6.374  -0.423  13.787  1.00  0.00    -0.550 OA
ATOM     16  O   UNL     1       6.790   1.638  12.875  1.00  0.00    -0.550 OA
ENDBRANCH  13  14
ENDBRANCH  12  13
ENDBRANCH  11  12
ENDBRANCH  10  11
ENDBRANCH   9  10
ENDBRANCH   8   9
ENDBRANCH   7   8
ENDBRANCH   6   7
ENDBRANCH   5   6
ENDBRANCH   4   5
ENDBRANCH   3   4
ENDBRANCH   2   3
ENDBRANCH   1   2
BRANCH   1  17
ATOM     17  C   UNL     1       1.978   5.303  17.932  1.00  0.00     0.000 C 
BRANCH  17  18
ATOM     18  C   UNL     1       3.044   5.033  16.854  1.00  0.00     0.000 C 
BRANCH  18  19
ATOM     19  C   UNL     1       2.653   3.884  15.898  1.00  0.00     0.000 C 
BRANCH  19  20
ATOM     20  C   UNL     1       3.205   4.043  14.469  1.00  0.00     0.000 C 
BRANCH  20  21
ATOM     21  C   UNL     1       4.490   4.883  14.352  1.00  0.00     0.000 C 
BRANCH  21  22
ATOM     22  C   UNL     1       4.613   5.716  13.058  1.00  0.00    -0.000 C 
BRANCH  22  23
ATOM     23  C   UNL     1       5.061   7.175  13.264  1.00  0.00    -0.000 C 
BRANCH  23  24
ATOM     24  C   UNL     1       6.359   7.289  14.077  1.00  0.00    -0.000 C 
BRANCH  24  25
ATOM     25  C   UNL     1       6.064   7.660  15.536  1.00  0.00    -0.000 C 
BRANCH  25  26
ATOM     26  C   UNL     1       4.611   8.119  15.703  1.00  0.00    -0.000 C 
BRANCH  26  27
ATOM     27  C   UNL     1       4.437   8.957  16.979  1.00  0.00    -0.000 C 
BRANCH  27  28
ATOM     28  C   UNL     1       2.953   9.124  17.368  1.00  0.00    -0.000 C 
BRANCH  28  29
ATOM     29  C   UNL     1       2.747   9.615  18.811  1.00  0.00    -0.003 C 
ATOM     30  C   UNL     1       2.167   8.545  19.731  1.00  0.00     0.004 C 
ENDBRANCH  28  29
ENDBRANCH  27  28
ENDBRANCH  26  27
ENDBRANCH  25  26
ENDBRANCH  24  25
ENDBRANCH  23  24
ENDBRANCH  22  23
ENDBRANCH  21  22
ENDBRANCH  20  21
ENDBRANCH  19  20
ENDBRANCH  18  19
ENDBRANCH  17  18
ENDBRANCH   1  17
TORSDOF 26
ENDMDL
MODEL 5
REMARK VINA RESULT:    -5.952      0.871      3.423
REMARK INTER + INTRA:         -18.217
REMARK INTER:                 -14.815
REMARK INTRA:                  -3.402
REMARK UNBOUND:                -3.218
REMARK SMILES CCCCCCCCCCCCCCCCCCCCCCCCCCCC(=O)[O-]
REMARK SMILES IDX 15 1 16 2 17 3 18 4 19 5 20 6 21 7 22 8 23 9 24 10 25 11
REMARK SMILES IDX 26 12 27 13 28 14 29 15 30 16 14 17 13 18 12 19 11 20 10 21
REMARK SMILES IDX 9 22 8 23 7 24 6 25 5 26 4 27 3 28 2 29 1 30
REMARK H PARENT
REMARK Flexibility Score: inf
ROOT
ATOM      1  C   UNL     1       1.883   4.893  18.961  1.00  0.00     0.000 C 
ENDROOT
BRANCH   1   2
ATOM      2  C   UNL     1       2.876   4.267  19.955  1.00  0.00     0.000 C 
BRANCH   2   3
ATOM      3  C   UNL     1       3.222   2.806  19.611  1.00  0.00     0.000 C 
BRANCH   3   4
ATOM      4  C   UNL     1       3.337   2.494  18.105  1.00  0.00     0.000 C 
BRANCH   4   5
ATOM      5  C   UNL     1       4.462   1.516  17.721  1.00  0.00     0.000 C 
BRANCH   5   6
ATOM      6  C   UNL     1       4.801   0.454  18.785  1.00  0.00     0.000 C 
BRANCH   6   7
ATOM      7  C   UNL     1       4.561  -1.000  18.323  1.00  0.00     0.000 C 
BRANCH   7   8
ATOM      8  C   UNL     1       5.531  -1.439  17.210  1.00  0.00     0.000 C 
BRANCH   8   9
ATOM      9  C   UNL     1       4.847  -1.515  15.832  1.00  0.00     0.000 C 
BRANCH   9  10
ATOM     10  C   UNL     1       5.558  -0.696  14.739  1.00  0.00     0.000 C 
BRANCH  10  11
ATOM     11  C   UNL     1       4.881   0.665  14.496  1.00  0.00     0.000 C 
BRANCH  11  12
ATOM     12  C   UNL     1       3.452   0.528  13.940  1.00  0.00     0.006 C 
BRANCH  12  13
ATOM     13  C   UNL     1       2.344   0.751  14.980  1.00  0.00     0.053 C 
BRANCH  13  14
ATOM     14  C   UNL     1       1.259  -0.276  14.875  1.00  0.00     0.041 C 
ATOM     15  O   UNL     1       1.542  -1.502  14.903  1.00  0.00    -0.550 OA
ATOM     16  O   UNL     1      -0.064   0.122  14.721  1.00  0.00    -0.550 OA
ENDBRANCH  13  14
ENDBRANCH  12  13
ENDBRANCH  11  12
ENDBRANCH  10  11
ENDBRANCH   9  10
ENDBRANCH   8   9
ENDBRANCH   7   8
ENDBRANCH   6   7
ENDBRANCH   5   6
ENDBRANCH   4   5
ENDBRANCH   3   4
ENDBRANCH   2   3
ENDBRANCH   1   2
BRANCH   1  17
ATOM     17  C   UNL     1       2.350   6.264  18.441  1.00  0.00     0.000 C 
BRANCH  17  18
ATOM     18  C   UNL     1       1.964   7.422  19.379  1.00  0.00     0.000 C 
BRANCH  18  19
ATOM     19  C   UNL     1       1.971   8.795  18.671  1.00  0.00     0.000 C 
BRANCH  19  20
ATOM     20  C   UNL     1       3.260   9.608  18.891  1.00  0.00     0.000 C 
BRANCH  20  21
ATOM     21  C   UNL     1       4.298   9.510  17.758  1.00  0.00     0.000 C 
BRANCH  21  22
ATOM     22  C   UNL     1       3.773   8.903  16.439  1.00  0.00    -0.000 C 
BRANCH  22  23
ATOM     23  C   UNL     1       4.609   7.737  15.882  1.00  0.00    -0.000 C 
BRANCH  23  24
ATOM     24  C   UNL     1       5.683   8.197  14.885  1.00  0.00    -0.000 C 
BRANCH  24  25
ATOM     25  C   UNL     1       6.068   7.062  13.927  1.00  0.00    -0.000 C 
BRANCH  25  26
ATOM     26  C   UNL     1       4.929   6.765  12.944  1.00  0.00    -0.000 C 
BRANCH  26  27
ATOM     27  C   UNL     1       4.513   5.287  13.009  1.00  0.00    -0.000 C 
BRANCH  27  28
ATOM     28  C   UNL     1       4.988   4.606  14.310  1.00  0.00    -0.000 C 
BRANCH  28  29
ATOM     29  C   UNL     1       3.835   4.143  15.217  1.00  0.00    -0.003 C 
ATOM     30  C   UNL     1       2.482   4.134  14.510  1.00  0.00     0.004 C 
ENDBRANCH  28  29
ENDBRANCH  27  28
ENDBRANCH  26  27
ENDBRANCH  25  26
ENDBRANCH  24  25
ENDBRANCH  23  24
ENDBRANCH  22  23
ENDBRANCH  21  22
ENDBRANCH  20  21
ENDBRANCH  19  20
ENDBRANCH  18  19
ENDBRANCH  17  18
ENDBRANCH   1  17
TORSDOF 26
ENDMDL
MODEL 6
REMARK VINA RESULT:    -5.930      1.633      5.335
REMARK INTER + INTRA:         -18.160
REMARK INTER:                 -15.008
REMARK INTRA:                  -3.152
REMARK UNBOUND:                -3.218
REMARK SMILES CCCCCCCCCCCCCCCCCCCCCCCCCCCC(=O)[O-]
REMARK SMILES IDX 15 1 16 2 17 3 18 4 19 5 20 6 21 7 22 8 23 9 24 10 25 11
REMARK SMILES IDX 26 12 27 13 28 14 29 15 30 16 14 17 13 18 12 19 11 20 10 21
REMARK SMILES IDX 9 22 8 23 7 24 6 25 5 26 4 27 3 28 2 29 1 30
REMARK H PARENT
REMARK Flexibility Score: inf
ROOT
ATOM      1  C   UNL     1       3.011   9.441  18.765  1.00  0.00     0.000 C 
ENDROOT
BRANCH   1   2
ATOM      2  C   UNL     1       1.827   8.567  19.212  1.00  0.00     0.000 C 
BRANCH   2   3
ATOM      3  C   UNL     1       2.231   7.106  19.480  1.00  0.00     0.000 C 
BRANCH   3   4
ATOM      4  C   UNL     1       1.604   6.065  18.529  1.00  0.00     0.000 C 
BRANCH   4   5
ATOM      5  C   UNL     1       2.438   4.788  18.311  1.00  0.00     0.000 C 
BRANCH   5   6
ATOM      6  C   UNL     1       2.868   4.059  19.599  1.00  0.00     0.000 C 
BRANCH   6   7
ATOM      7  C   UNL     1       2.812   2.519  19.498  1.00  0.00     0.000 C 
BRANCH   7   8
ATOM      8  C   UNL     1       3.954   1.936  18.645  1.00  0.00     0.000 C 
BRANCH   8   9
ATOM      9  C   UNL     1       4.365   0.524  19.105  1.00  0.00     0.000 C 
BRANCH   9  10
ATOM     10  C   UNL     1       5.524  -0.081  18.290  1.00  0.00     0.000 C 
BRANCH  10  11
ATOM     11  C   UNL     1       5.110  -1.369  17.556  1.00  0.00     0.000 C 
BRANCH  11  12
ATOM     12  C   UNL     1       5.109  -1.207  16.025  1.00  0.00     0.006 C 
BRANCH  12  13
ATOM     13  C   UNL     1       5.667   0.136  15.530  1.00  0.00     0.053 C 
BRANCH  13  14
ATOM     14  C   UNL     1       5.793   0.177  14.038  1.00  0.00     0.041 C 
ATOM     15  O   UNL     1       5.429   1.199  13.399  1.00  0.00    -0.550 OA
ATOM     16  O   UNL     1       6.291  -0.923  13.351  1.00  0.00    -0.550 OA
ENDBRANCH  13  14
ENDBRANCH  12  13
ENDBRANCH  11  12
ENDBRANCH  10  11
ENDBRANCH   9  10
ENDBRANCH   8   9
ENDBRANCH   7   8
ENDBRANCH   6   7
ENDBRANCH   5   6
ENDBRANCH   4   5
ENDBRANCH   3   4
ENDBRANCH   2   3
ENDBRANCH   1   2
BRANCH   1  17
ATOM     17  C   UNL     1       3.186   9.466  17.237  1.00  0.00     0.000 C 
BRANCH  17  18
ATOM     18  C   UNL     1       3.923   8.225  16.699  1.00  0.00     0.000 C 
BRANCH  18  19
ATOM     19  C   UNL     1       5.214   8.582  15.930  1.00  0.00     0.000 C 
BRANCH  19  20
ATOM     20  C   UNL     1       5.153   8.268  14.422  1.00  0.00     0.000 C 
BRANCH  20  21
ATOM     21  C   UNL     1       5.806   6.938  14.003  1.00  0.00     0.000 C 
BRANCH  21  22
ATOM     22  C   UNL     1       5.040   6.143  12.925  1.00  0.00    -0.000 C 
BRANCH  22  23
ATOM     23  C   UNL     1       4.276   4.912  13.445  1.00  0.00    -0.000 C 
BRANCH  23  24
ATOM     24  C   UNL     1       4.219   4.851  14.978  1.00  0.00    -0.000 C 
BRANCH  24  25
ATOM     25  C   UNL     1       4.039   3.407  15.466  1.00  0.00    -0.000 C 
BRANCH  25  26
ATOM     26  C   UNL     1       2.726   2.811  14.944  1.00  0.00    -0.000 C 
BRANCH  26  27
ATOM     27  C   UNL     1       2.517   1.384  15.472  1.00  0.00    -0.000 C 
BRANCH  27  28
ATOM     28  C   UNL     1       1.060   0.906  15.297  1.00  0.00    -0.000 C 
BRANCH  28  29
ATOM     29  C   UNL     1       0.924  -0.334  14.398  1.00  0.00    -0.003 C 
ATOM     30  C   UNL     1       1.842  -1.481  14.816  1.00  0.00     0.004 C 
ENDBRANCH  28  29
ENDBRANCH  27  28
ENDBRANCH  26  27
ENDBRANCH  25  26
ENDBRANCH  24  25
ENDBRANCH  23  24
ENDBRANCH  22  23
ENDBRANCH  21  22
ENDBRANCH  20  21
ENDBRANCH  19  20
ENDBRANCH  18  19
ENDBRANCH  17  18
ENDBRANCH   1  17
TORSDOF 26
ENDMDL
MODEL 7
REMARK VINA RESULT:    -5.925      2.952      7.974
REMARK INTER + INTRA:         -18.149
REMARK INTER:                 -14.693
REMARK INTRA:                  -3.456
REMARK UNBOUND:                -3.218
REMARK SMILES CCCCCCCCCCCCCCCCCCCCCCCCCCCC(=O)[O-]
REMARK SMILES IDX 15 1 16 2 17 3 18 4 19 5 20 6 21 7 22 8 23 9 24 10 25 11
REMARK SMILES IDX 26 12 27 13 28 14 29 15 30 16 14 17 13 18 12 19 11 20 10 21
REMARK SMILES IDX 9 22 8 23 7 24 6 25 5 26 4 27 3 28 2 29 1 30
REMARK H PARENT
REMARK Flexibility Score: inf
ROOT
ATOM      1  C   UNL     1       2.286   4.755  18.982  1.00  0.00     0.000 C 
ENDROOT
BRANCH   1   2
ATOM      2  C   UNL     1       2.257   5.261  17.530  1.00  0.00     0.000 C 
BRANCH   2   3
ATOM      3  C   UNL     1       3.234   4.501  16.614  1.00  0.00     0.000 C 
BRANCH   3   4
ATOM      4  C   UNL     1       2.595   3.832  15.380  1.00  0.00     0.000 C 
BRANCH   4   5
ATOM      5  C   UNL     1       3.162   4.282  14.021  1.00  0.00     0.000 C 
BRANCH   5   6
ATOM      6  C   UNL     1       4.607   4.818  14.058  1.00  0.00     0.000 C 
BRANCH   6   7
ATOM      7  C   UNL     1       4.963   5.746  12.877  1.00  0.00     0.000 C 
BRANCH   7   8
ATOM      8  C   UNL     1       5.064   7.226  13.292  1.00  0.00     0.000 C 
BRANCH   8   9
ATOM      9  C   UNL     1       6.267   7.494  14.217  1.00  0.00     0.000 C 
BRANCH   9  10
ATOM     10  C   UNL     1       5.877   7.748  15.685  1.00  0.00     0.000 C 
BRANCH  10  11
ATOM     11  C   UNL     1       4.728   8.764  15.816  1.00  0.00     0.000 C 
BRANCH  11  12
ATOM     12  C   UNL     1       3.655   8.323  16.828  1.00  0.00     0.006 C 
BRANCH  12  13
ATOM     13  C   UNL     1       2.869   9.481  17.464  1.00  0.00     0.053 C 
BRANCH  13  14
ATOM     14  C   UNL     1       2.925   9.443  18.960  1.00  0.00     0.041 C 
ATOM     15  O   UNL     1       3.648  10.260  19.588  1.00  0.00    -0.550 OA
ATOM     16  O   UNL     1       2.196   8.490  19.660  1.00  0.00    -0.550 OA
ENDBRANCH  13  14
ENDBRANCH  12  13
ENDBRANCH  11  12
ENDBRANCH  10  11
ENDBRANCH   9  10
ENDBRANCH   8   9
ENDBRANCH   7   8
ENDBRANCH   6   7
ENDBRANCH   5   6
ENDBRANCH   4   5
ENDBRANCH   3   4
ENDBRANCH   2   3
ENDBRANCH   1   2
BRANCH   1  17
ATOM     17  C   UNL     1       2.069   3.236  19.087  1.00  0.00     0.000 C 
BRANCH  17  18
ATOM     18  C   UNL     1       3.237   2.512  19.783  1.00  0.00     0.000 C 
BRANCH  18  19
ATOM     19  C   UNL     1       3.985   1.540  18.843  1.00  0.00     0.000 C 
BRANCH  19  20
ATOM     20  C   UNL     1       4.533   0.284  19.547  1.00  0.00     0.000 C 
BRANCH  20  21
ATOM     21  C   UNL     1       5.567  -0.521  18.739  1.00  0.00     0.000 C 
BRANCH  21  22
ATOM     22  C   UNL     1       4.989  -1.332  17.559  1.00  0.00    -0.000 C 
BRANCH  22  23
ATOM     23  C   UNL     1       5.411  -0.839  16.163  1.00  0.00    -0.000 C 
BRANCH  23  24
ATOM     24  C   UNL     1       5.486   0.692  16.070  1.00  0.00    -0.000 C 
BRANCH  24  25
ATOM     25  C   UNL     1       4.982   1.185  14.707  1.00  0.00    -0.000 C 
BRANCH  25  26
ATOM     26  C   UNL     1       5.038   0.065  13.662  1.00  0.00    -0.000 C 
BRANCH  26  27
ATOM     27  C   UNL     1       3.627  -0.346  13.213  1.00  0.00    -0.000 C 
BRANCH  27  28
ATOM     28  C   UNL     1       2.529   0.457  13.941  1.00  0.00    -0.000 C 
BRANCH  28  29
ATOM     29  C   UNL     1       1.630  -0.408  14.842  1.00  0.00    -0.003 C 
ATOM     30  C   UNL     1       2.122  -1.847  14.975  1.00  0.00     0.004 C 
ENDBRANCH  28  29
ENDBRANCH  27  28
ENDBRANCH  26  27
ENDBRANCH  25  26
ENDBRANCH  24  25
ENDBRANCH  23  24
ENDBRANCH  22  23
ENDBRANCH  21  22
ENDBRANCH  20  21
ENDBRANCH  19  20
ENDBRANCH  18  19
ENDBRANCH  17  18
ENDBRANCH   1  17
TORSDOF 26
ENDMDL
MODEL 8
REMARK VINA RESULT:    -5.893      0.979      7.016
REMARK INTER + INTRA:         -18.067
REMARK INTER:                 -14.458
REMARK INTRA:                  -3.609
REMARK UNBOUND:                -3.218
REMARK SMILES CCCCCCCCCCCCCCCCCCCCCCCCCCCC(=O)[O-]
REMARK SMILES IDX 15 1 16 2 17 3 18 4 19 5 20 6 21 7 22 8 23 9 24 10 25 11
REMARK SMILES IDX 26 12 27 13 28 14 29 15 30 16 14 17 13 18 12 19 11 20 10 21
REMARK SMILES IDX 9 22 8 23 7 24 6 25 5 26 4 27 3 28 2 29 1 30
REMARK H PARENT
REMARK Flexibility Score: inf
ROOT
ATOM      1  C   UNL     1       2.276   8.856  18.296  1.00  0.00     0.000 C 
ENDROOT
BRANCH   1   2
ATOM      2  C   UNL     1       3.729   8.981  17.805  1.00  0.00     0.000 C 
BRANCH   2   3
ATOM      3  C   UNL     1       3.866   8.763  16.287  1.00  0.00     0.000 C 
BRANCH   3   4
ATOM      4  C   UNL     1       4.549   7.443  15.871  1.00  0.00     0.000 C 
BRANCH   4   5
ATOM      5  C   UNL     1       5.745   7.595  14.913  1.00  0.00     0.000 C 
BRANCH   5   6
ATOM      6  C   UNL     1       5.385   7.627  13.415  1.00  0.00     0.000 C 
BRANCH   6   7
ATOM      7  C   UNL     1       4.503   6.448  12.954  1.00  0.00     0.000 C 
BRANCH   7   8
ATOM      8  C   UNL     1       5.251   5.102  12.967  1.00  0.00     0.000 C 
BRANCH   8   9
ATOM      9  C   UNL     1       4.319   3.917  13.282  1.00  0.00     0.000 C 
BRANCH   9  10
ATOM     10  C   UNL     1       3.199   4.256  14.283  1.00  0.00     0.000 C 
BRANCH  10  11
ATOM     11  C   UNL     1       3.459   3.656  15.676  1.00  0.00     0.000 C 
BRANCH  11  12
ATOM     12  C   UNL     1       2.542   2.460  15.990  1.00  0.00     0.006 C 
BRANCH  12  13
ATOM     13  C   UNL     1       2.784   1.227  15.104  1.00  0.00     0.053 C 
BRANCH  13  14
ATOM     14  C   UNL     1       1.558   0.376  14.977  1.00  0.00     0.041 C 
ATOM     15  O   UNL     1       0.416   0.885  15.121  1.00  0.00    -0.550 OA
ATOM     16  O   UNL     1       1.679  -0.985  14.725  1.00  0.00    -0.550 OA
ENDBRANCH  13  14
ENDBRANCH  12  13
ENDBRANCH  11  12
ENDBRANCH  10  11
ENDBRANCH   9  10
ENDBRANCH   8   9
ENDBRANCH   7   8
ENDBRANCH   6   7
ENDBRANCH   5   6
ENDBRANCH   4   5
ENDBRANCH   3   4
ENDBRANCH   2   3
ENDBRANCH   1   2
BRANCH   1  17
ATOM     17  C   UNL     1       2.064   7.644  19.219  1.00  0.00     0.000 C 
BRANCH  17  18
ATOM     18  C   UNL     1       2.239   6.299  18.489  1.00  0.00     0.000 C 
BRANCH  18  19
ATOM     19  C   UNL     1       2.617   5.144  19.443  1.00  0.00     0.000 C 
BRANCH  19  20
ATOM     20  C   UNL     1       1.633   3.959  19.413  1.00  0.00     0.000 C 
BRANCH  20  21
ATOM     21  C   UNL     1       2.241   2.594  19.785  1.00  0.00     0.000 C 
BRANCH  21  22
ATOM     22  C   UNL     1       3.632   2.309  19.179  1.00  0.00    -0.000 C 
BRANCH  22  23
ATOM     23  C   UNL     1       4.014   0.820  19.099  1.00  0.00    -0.000 C 
BRANCH  23  24
ATOM     24  C   UNL     1       5.205   0.560  18.165  1.00  0.00    -0.000 C 
BRANCH  24  25
ATOM     25  C   UNL     1       5.389  -0.942  17.913  1.00  0.00    -0.000 C 
BRANCH  25  26
ATOM     26  C   UNL     1       4.742  -1.359  16.587  1.00  0.00    -0.000 C 
BRANCH  26  27
ATOM     27  C   UNL     1       5.624  -0.966  15.391  1.00  0.00    -0.000 C 
BRANCH  27  28
ATOM     28  C   UNL     1       5.000  -1.390  14.045  1.00  0.00    -0.000 C 
BRANCH  28  29
ATOM     29  C   UNL     1       5.094  -0.308  12.956  1.00  0.00    -0.003 C 
ATOM     30  C   UNL     1       6.170   0.738  13.242  1.00  0.00     0.004 C 
ENDBRANCH  28  29
ENDBRANCH  27  28
ENDBRANCH  26  27
ENDBRANCH  25  26
ENDBRANCH  24  25
ENDBRANCH  23  24
ENDBRANCH  22  23
ENDBRANCH  21  22
ENDBRANCH  20  21
ENDBRANCH  19  20
ENDBRANCH  18  19
ENDBRANCH  17  18
ENDBRANCH   1  17
TORSDOF 26
ENDMDL
MODEL 9
REMARK VINA RESULT:    -5.884      2.015      8.040
REMARK INTER + INTRA:         -18.045
REMARK INTER:                 -14.728
REMARK INTRA:                  -3.318
REMARK UNBOUND:                -3.218
REMARK SMILES CCCCCCCCCCCCCCCCCCCCCCCCCCCC(=O)[O-]
REMARK SMILES IDX 15 1 16 2 17 3 18 4 19 5 20 6 21 7 22 8 23 9 24 10 25 11
REMARK SMILES IDX 26 12 27 13 28 14 29 15 30 16 14 17 13 18 12 19 11 20 10 21
REMARK SMILES IDX 9 22 8 23 7 24 6 25 5 26 4 27 3 28 2 29 1 30
REMARK H PARENT
REMARK Flexibility Score: inf
ROOT
ATOM      1  C   UNL     1       4.875   5.455  13.983  1.00  0.00     0.000 C 
ENDROOT
BRANCH   1   2
ATOM      2  C   UNL     1       5.270   6.722  13.207  1.00  0.00     0.000 C 
BRANCH   2   3
ATOM      3  C   UNL     1       5.386   7.963  14.110  1.00  0.00     0.000 C 
BRANCH   3   4
ATOM      4  C   UNL     1       5.061   7.727  15.600  1.00  0.00     0.000 C 
BRANCH   4   5
ATOM      5  C   UNL     1       4.158   8.790  16.252  1.00  0.00     0.000 C 
BRANCH   5   6
ATOM      6  C   UNL     1       4.736   9.456  17.516  1.00  0.00     0.000 C 
BRANCH   6   7
ATOM      7  C   UNL     1       3.667   9.924  18.526  1.00  0.00     0.000 C 
BRANCH   7   8
ATOM      8  C   UNL     1       2.329   9.180  18.365  1.00  0.00     0.000 C 
BRANCH   8   9
ATOM      9  C   UNL     1       1.945   8.383  19.626  1.00  0.00     0.000 C 
BRANCH   9  10
ATOM     10  C   UNL     1       2.147   6.863  19.485  1.00  0.00     0.000 C 
BRANCH  10  11
ATOM     11  C   UNL     1       2.548   6.458  18.054  1.00  0.00     0.000 C 
BRANCH  11  12
ATOM     12  C   UNL     1       2.478   4.937  17.825  1.00  0.00     0.006 C 
BRANCH  12  13
ATOM     13  C   UNL     1       2.825   4.093  19.062  1.00  0.00     0.053 C 
BRANCH  13  14
ATOM     14  C   UNL     1       1.611   3.458  19.667  1.00  0.00     0.041 C 
ATOM     15  O   UNL     1       1.717   2.392  20.328  1.00  0.00    -0.550 OA
ATOM     16  O   UNL     1       0.359   4.032  19.480  1.00  0.00    -0.550 OA
ENDBRANCH  13  14
ENDBRANCH  12  13
ENDBRANCH  11  12
ENDBRANCH  10  11
ENDBRANCH   9  10
ENDBRANCH   8   9
ENDBRANCH   7   8
ENDBRANCH   6   7
ENDBRANCH   5   6
ENDBRANCH   4   5
ENDBRANCH   3   4
ENDBRANCH   2   3
ENDBRANCH   1   2
BRANCH   1  17
ATOM     17  C   UNL     1       4.050   4.472  13.135  1.00  0.00     0.000 C 
BRANCH  17  18
ATOM     18  C   UNL     1       4.192   3.012  13.605  1.00  0.00     0.000 C 
BRANCH  18  19
ATOM     19  C   UNL     1       4.504   2.896  15.114  1.00  0.00     0.000 C 
BRANCH  19  20
ATOM     20  C   UNL     1       3.391   2.215  15.934  1.00  0.00     0.000 C 
BRANCH  20  21
ATOM     21  C   UNL     1       2.042   2.063  15.207  1.00  0.00     0.000 C 
BRANCH  21  22
ATOM     22  C   UNL     1       1.492   0.622  15.141  1.00  0.00    -0.000 C 
BRANCH  22  23
ATOM     23  C   UNL     1       2.167  -0.284  14.096  1.00  0.00    -0.000 C 
BRANCH  23  24
ATOM     24  C   UNL     1       2.218  -1.756  14.528  1.00  0.00    -0.000 C 
BRANCH  24  25
ATOM     25  C   UNL     1       3.337  -1.992  15.551  1.00  0.00    -0.000 C 
BRANCH  25  26
ATOM     26  C   UNL     1       4.630  -1.290  15.121  1.00  0.00    -0.000 C 
BRANCH  26  27
ATOM     27  C   UNL     1       5.350  -0.667  16.328  1.00  0.00    -0.000 C 
BRANCH  27  28
ATOM     28  C   UNL     1       5.565  -1.687  17.465  1.00  0.00    -0.000 C 
BRANCH  28  29
ATOM     29  C   UNL     1       5.257  -1.123  18.863  1.00  0.00    -0.003 C 
ATOM     30  C   UNL     1       4.791   0.331  18.833  1.00  0.00     0.004 C 
ENDBRANCH  28  29
ENDBRANCH  27  28
ENDBRANCH  26  27
ENDBRANCH  25  26
ENDBRANCH  24  25
ENDBRANCH  23  24
ENDBRANCH  22  23
ENDBRANCH  21  22
ENDBRANCH  20  21
ENDBRANCH  19  20
ENDBRANCH  18  19
ENDBRANCH  17  18
ENDBRANCH   1  17
TORSDOF 26
ENDMDL
