MODEL 1
REMARK VINA RESULT:    -4.638      0.000      0.000
REMARK INTER + INTRA:         -16.534
REMARK INTER:                 -11.688
REMARK INTRA:                  -4.846
REMARK UNBOUND:                -4.846
REMARK SMILES CCCCCCCCCCCCCCCCCCCCCCCCCCCC(=O)[O-]
REMARK SMILES IDX 15 1 16 2 17 3 18 4 19 5 20 6 21 7 22 8 23 9 24 10 25 11
REMARK SMILES IDX 26 12 27 13 28 14 29 15 30 16 14 17 13 18 12 19 11 20 10 21
REMARK SMILES IDX 9 22 8 23 7 24 6 25 5 26 4 27 3 28 2 29 1 30
REMARK H PARENT
REMARK Flexibility Score: inf
ROOT
ATOM      1  C   UNL     1     -25.644 -60.450   4.331  1.00  0.00     0.000 C 
ENDROOT
BRANCH   1   2
ATOM      2  C   UNL     1     -26.423 -61.561   3.602  1.00  0.00     0.000 C 
BRANCH   2   3
ATOM      3  C   UNL     1     -26.037 -62.976   4.066  1.00  0.00     0.000 C 
BRANCH   3   4
ATOM      4  C   UNL     1     -24.880 -63.571   3.242  1.00  0.00     0.000 C 
BRANCH   4   5
ATOM      5  C   UNL     1     -23.489 -63.396   3.878  1.00  0.00     0.000 C 
BRANCH   5   6
ATOM      6  C   UNL     1     -22.628 -62.360   3.133  1.00  0.00     0.000 C 
BRANCH   6   7
ATOM      7  C   UNL     1     -23.239 -61.920   1.790  1.00  0.00     0.000 C 
BRANCH   7   8
ATOM      8  C   UNL     1     -22.431 -60.861   1.012  1.00  0.00     0.000 C 
BRANCH   8   9
ATOM      9  C   UNL     1     -22.204 -61.173  -0.480  1.00  0.00     0.000 C 
BRANCH   9  10
ATOM     10  C   UNL     1     -22.331 -59.958  -1.419  1.00  0.00     0.000 C 
BRANCH  10  11
ATOM     11  C   UNL     1     -22.806 -58.656  -0.743  1.00  0.00     0.000 C 
BRANCH  11  12
ATOM     12  C   UNL     1     -24.282 -58.295  -0.989  1.00  0.00     0.006 C 
BRANCH  12  13
ATOM     13  C   UNL     1     -25.071 -59.435  -1.647  1.00  0.00     0.053 C 
BRANCH  13  14
ATOM     14  C   UNL     1     -25.915 -58.913  -2.766  1.00  0.00     0.041 C 
ATOM     15  O   UNL     1     -25.952 -59.519  -3.867  1.00  0.00    -0.550 OA
ATOM     16  O   UNL     1     -26.671 -57.760  -2.590  1.00  0.00    -0.550 OA
ENDBRANCH  13  14
ENDBRANCH  12  13
ENDBRANCH  11  12
ENDBRANCH  10  11
ENDBRANCH   9  10
ENDBRANCH   8   9
ENDBRANCH   7   8
ENDBRANCH   6   7
ENDBRANCH   5   6
ENDBRANCH   4   5
ENDBRANCH   3   4
ENDBRANCH   2   3
ENDBRANCH   1   2
BRANCH   1  17
ATOM     17  C   UNL     1     -25.395 -60.688   5.833  1.00  0.00     0.000 C 
BRANCH  17  18
ATOM     18  C   UNL     1     -23.940 -60.433   6.258  1.00  0.00     0.000 C 
BRANCH  18  19
ATOM     19  C   UNL     1     -23.135 -59.658   5.200  1.00  0.00     0.000 C 
BRANCH  19  20
ATOM     20  C   UNL     1     -22.644 -58.270   5.667  1.00  0.00     0.000 C 
BRANCH  20  21
ATOM     21  C   UNL     1     -22.825 -57.137   4.634  1.00  0.00     0.000 C 
BRANCH  21  22
ATOM     22  C   UNL     1     -22.802 -57.568   3.151  1.00  0.00    -0.000 C 
BRANCH  22  23
ATOM     23  C   UNL     1     -24.023 -57.140   2.319  1.00  0.00    -0.000 C 
BRANCH  23  24
ATOM     24  C   UNL     1     -24.195 -55.614   2.258  1.00  0.00    -0.000 C 
BRANCH  24  25
ATOM     25  C   UNL     1     -25.657 -55.220   2.500  1.00  0.00    -0.000 C 
BRANCH  25  26
ATOM     26  C   UNL     1     -26.032 -55.370   3.979  1.00  0.00    -0.000 C 
BRANCH  26  27
ATOM     27  C   UNL     1     -26.810 -56.672   4.217  1.00  0.00    -0.000 C 
BRANCH  27  28
ATOM     28  C   UNL     1     -28.016 -56.822   3.277  1.00  0.00    -0.000 C 
BRANCH  28  29
ATOM     29  C   UNL     1     -28.154 -58.245   2.715  1.00  0.00    -0.003 C 
ATOM     30  C   UNL     1     -27.426 -58.381   1.381  1.00  0.00     0.004 C 
ENDBRANCH  28  29
ENDBRANCH  27  28
ENDBRANCH  26  27
ENDBRANCH  25  26
ENDBRANCH  24  25
ENDBRANCH  23  24
ENDBRANCH  22  23
ENDBRANCH  21  22
ENDBRANCH  20  21
ENDBRANCH  19  20
ENDBRANCH  18  19
ENDBRANCH  17  18
ENDBRANCH   1  17
TORSDOF 26
ENDMDL
MODEL 2
REMARK VINA RESULT:    -4.583      2.004      4.156
REMARK INTER + INTRA:         -16.394
REMARK INTER:                 -11.215
REMARK INTRA:                  -5.179
REMARK UNBOUND:                -4.846
REMARK SMILES CCCCCCCCCCCCCCCCCCCCCCCCCCCC(=O)[O-]
REMARK SMILES IDX 15 1 16 2 17 3 18 4 19 5 20 6 21 7 22 8 23 9 24 10 25 11
REMARK SMILES IDX 26 12 27 13 28 14 29 15 30 16 14 17 13 18 12 19 11 20 10 21
REMARK SMILES IDX 9 22 8 23 7 24 6 25 5 26 4 27 3 28 2 29 1 30
REMARK H PARENT
REMARK Flexibility Score: inf
ROOT
ATOM      1  C   UNL     1     -26.270 -63.216   4.412  1.00  0.00     0.000 C 
ENDROOT
BRANCH   1   2
ATOM      2  C   UNL     1     -25.365 -62.492   3.395  1.00  0.00     0.000 C 
BRANCH   2   3
ATOM      3  C   UNL     1     -24.356 -63.429   2.710  1.00  0.00     0.000 C 
BRANCH   3   4
ATOM      4  C   UNL     1     -23.110 -62.681   2.202  1.00  0.00     0.000 C 
BRANCH   4   5
ATOM      5  C   UNL     1     -23.339 -61.187   1.907  1.00  0.00     0.000 C 
BRANCH   5   6
ATOM      6  C   UNL     1     -22.147 -60.542   1.177  1.00  0.00     0.000 C 
BRANCH   6   7
ATOM      7  C   UNL     1     -22.058 -60.943  -0.307  1.00  0.00     0.000 C 
BRANCH   7   8
ATOM      8  C   UNL     1     -22.831 -60.033  -1.284  1.00  0.00     0.000 C 
BRANCH   8   9
ATOM      9  C   UNL     1     -23.001 -58.571  -0.825  1.00  0.00     0.000 C 
BRANCH   9  10
ATOM     10  C   UNL     1     -24.436 -58.023  -0.940  1.00  0.00     0.000 C 
BRANCH  10  11
ATOM     11  C   UNL     1     -25.526 -59.087  -1.179  1.00  0.00     0.000 C 
BRANCH  11  12
ATOM     12  C   UNL     1     -25.958 -59.871   0.074  1.00  0.00     0.006 C 
BRANCH  12  13
ATOM     13  C   UNL     1     -26.243 -58.960   1.275  1.00  0.00     0.053 C 
BRANCH  13  14
ATOM     14  C   UNL     1     -27.514 -59.367   1.953  1.00  0.00     0.041 C 
ATOM     15  O   UNL     1     -28.581 -59.458   1.294  1.00  0.00    -0.550 OA
ATOM     16  O   UNL     1     -27.516 -59.658   3.312  1.00  0.00    -0.550 OA
ENDBRANCH  13  14
ENDBRANCH  12  13
ENDBRANCH  11  12
ENDBRANCH  10  11
ENDBRANCH   9  10
ENDBRANCH   8   9
ENDBRANCH   7   8
ENDBRANCH   6   7
ENDBRANCH   5   6
ENDBRANCH   4   5
ENDBRANCH   3   4
ENDBRANCH   2   3
ENDBRANCH   1   2
BRANCH   1  17
ATOM     17  C   UNL     1     -26.493 -62.479   5.746  1.00  0.00     0.000 C 
BRANCH  17  18
ATOM     18  C   UNL     1     -25.915 -63.227   6.959  1.00  0.00     0.000 C 
BRANCH  18  19
ATOM     19  C   UNL     1     -24.890 -64.304   6.564  1.00  0.00     0.000 C 
BRANCH  19  20
ATOM     20  C   UNL     1     -23.438 -63.982   6.981  1.00  0.00     0.000 C 
BRANCH  20  21
ATOM     21  C   UNL     1     -22.457 -63.773   5.807  1.00  0.00     0.000 C 
BRANCH  21  22
ATOM     22  C   UNL     1     -22.077 -62.307   5.501  1.00  0.00    -0.000 C 
BRANCH  22  23
ATOM     23  C   UNL     1     -23.060 -61.246   6.024  1.00  0.00    -0.000 C 
BRANCH  23  24
ATOM     24  C   UNL     1     -22.806 -59.854   5.426  1.00  0.00    -0.000 C 
BRANCH  24  25
ATOM     25  C   UNL     1     -24.089 -59.013   5.434  1.00  0.00    -0.000 C 
BRANCH  25  26
ATOM     26  C   UNL     1     -23.824 -57.597   4.909  1.00  0.00    -0.000 C 
BRANCH  26  27
ATOM     27  C   UNL     1     -22.649 -57.592   3.919  1.00  0.00    -0.000 C 
BRANCH  27  28
ATOM     28  C   UNL     1     -23.069 -57.160   2.505  1.00  0.00    -0.000 C 
BRANCH  28  29
ATOM     29  C   UNL     1     -24.411 -56.414   2.488  1.00  0.00    -0.003 C 
ATOM     30  C   UNL     1     -24.305 -55.110   1.702  1.00  0.00     0.004 C 
ENDBRANCH  28  29
ENDBRANCH  27  28
ENDBRANCH  26  27
ENDBRANCH  25  26
ENDBRANCH  24  25
ENDBRANCH  23  24
ENDBRANCH  22  23
ENDBRANCH  21  22
ENDBRANCH  20  21
ENDBRANCH  19  20
ENDBRANCH  18  19
ENDBRANCH  17  18
ENDBRANCH   1  17
TORSDOF 26
ENDMDL
MODEL 3
REMARK VINA RESULT:    -4.581      1.971      3.838
REMARK INTER + INTRA:         -16.390
REMARK INTER:                 -11.692
REMARK INTRA:                  -4.697
REMARK UNBOUND:                -4.846
REMARK SMILES CCCCCCCCCCCCCCCCCCCCCCCCCCCC(=O)[O-]
REMARK SMILES IDX 15 1 16 2 17 3 18 4 19 5 20 6 21 7 22 8 23 9 24 10 25 11
REMARK SMILES IDX 26 12 27 13 28 14 29 15 30 16 14 17 13 18 12 19 11 20 10 21
REMARK SMILES IDX 9 22 8 23 7 24 6 25 5 26 4 27 3 28 2 29 1 30
REMARK H PARENT
REMARK Flexibility Score: inf
ROOT
ATOM      1  C   UNL     1     -25.514 -63.012   3.579  1.00  0.00     0.000 C 
ENDROOT
BRANCH   1   2
ATOM      2  C   UNL     1     -24.505 -62.321   2.641  1.00  0.00     0.000 C 
BRANCH   2   3
ATOM      3  C   UNL     1     -23.364 -63.248   2.191  1.00  0.00     0.000 C 
BRANCH   3   4
ATOM      4  C   UNL     1     -22.150 -62.468   1.653  1.00  0.00     0.000 C 
BRANCH   4   5
ATOM      5  C   UNL     1     -22.441 -61.618   0.402  1.00  0.00     0.000 C 
BRANCH   5   6
ATOM      6  C   UNL     1     -22.094 -60.133   0.607  1.00  0.00     0.000 C 
BRANCH   6   7
ATOM      7  C   UNL     1     -23.321 -59.207   0.522  1.00  0.00     0.000 C 
BRANCH   7   8
ATOM      8  C   UNL     1     -24.682 -59.925   0.409  1.00  0.00     0.000 C 
BRANCH   8   9
ATOM      9  C   UNL     1     -25.670 -59.303  -0.599  1.00  0.00     0.000 C 
BRANCH   9  10
ATOM     10  C   UNL     1     -25.056 -58.941  -1.964  1.00  0.00     0.000 C 
BRANCH  10  11
ATOM     11  C   UNL     1     -25.960 -58.095  -2.884  1.00  0.00     0.000 C 
BRANCH  11  12
ATOM     12  C   UNL     1     -26.458 -56.773  -2.271  1.00  0.00     0.006 C 
BRANCH  12  13
ATOM     13  C   UNL     1     -27.047 -55.818  -3.318  1.00  0.00     0.053 C 
BRANCH  13  14
ATOM     14  C   UNL     1     -26.139 -55.714  -4.503  1.00  0.00     0.041 C 
ATOM     15  O   UNL     1     -26.532 -56.095  -5.635  1.00  0.00    -0.550 OA
ATOM     16  O   UNL     1     -24.862 -55.185  -4.359  1.00  0.00    -0.550 OA
ENDBRANCH  13  14
ENDBRANCH  12  13
ENDBRANCH  11  12
ENDBRANCH  10  11
ENDBRANCH   9  10
ENDBRANCH   8   9
ENDBRANCH   7   8
ENDBRANCH   6   7
ENDBRANCH   5   6
ENDBRANCH   4   5
ENDBRANCH   3   4
ENDBRANCH   2   3
ENDBRANCH   1   2
BRANCH   1  17
ATOM     17  C   UNL     1     -25.258 -64.509   3.844  1.00  0.00     0.000 C 
BRANCH  17  18
ATOM     18  C   UNL     1     -24.815 -64.805   5.285  1.00  0.00     0.000 C 
BRANCH  18  19
ATOM     19  C   UNL     1     -23.309 -65.097   5.400  1.00  0.00     0.000 C 
BRANCH  19  20
ATOM     20  C   UNL     1     -22.515 -64.033   6.189  1.00  0.00     0.000 C 
BRANCH  20  21
ATOM     21  C   UNL     1     -23.154 -62.627   6.207  1.00  0.00     0.000 C 
BRANCH  21  22
ATOM     22  C   UNL     1     -22.339 -61.508   5.523  1.00  0.00    -0.000 C 
BRANCH  22  23
ATOM     23  C   UNL     1     -22.968 -60.105   5.577  1.00  0.00    -0.000 C 
BRANCH  23  24
ATOM     24  C   UNL     1     -23.039 -59.431   4.199  1.00  0.00    -0.000 C 
BRANCH  24  25
ATOM     25  C   UNL     1     -24.197 -58.427   4.139  1.00  0.00    -0.000 C 
BRANCH  25  26
ATOM     26  C   UNL     1     -25.523 -59.132   3.832  1.00  0.00    -0.000 C 
BRANCH  26  27
ATOM     27  C   UNL     1     -26.568 -58.131   3.318  1.00  0.00    -0.000 C 
BRANCH  27  28
ATOM     28  C   UNL     1     -25.983 -56.727   3.093  1.00  0.00    -0.000 C 
BRANCH  28  29
ATOM     29  C   UNL     1     -26.160 -56.239   1.648  1.00  0.00    -0.003 C 
ATOM     30  C   UNL     1     -24.809 -56.041   0.966  1.00  0.00     0.004 C 
ENDBRANCH  28  29
ENDBRANCH  27  28
ENDBRANCH  26  27
ENDBRANCH  25  26
ENDBRANCH  24  25
ENDBRANCH  23  24
ENDBRANCH  22  23
ENDBRANCH  21  22
ENDBRANCH  20  21
ENDBRANCH  19  20
ENDBRANCH  18  19
ENDBRANCH  17  18
ENDBRANCH   1  17
TORSDOF 26
ENDMDL
MODEL 4
REMARK VINA RESULT:    -4.570      2.499      5.223
REMARK INTER + INTRA:         -16.363
REMARK INTER:                 -11.181
REMARK INTRA:                  -5.182
REMARK UNBOUND:                -4.846
REMARK SMILES CCCCCCCCCCCCCCCCCCCCCCCCCCCC(=O)[O-]
REMARK SMILES IDX 15 1 16 2 17 3 18 4 19 5 20 6 21 7 22 8 23 9 24 10 25 11
REMARK SMILES IDX 26 12 27 13 28 14 29 15 30 16 14 17 13 18 12 19 11 20 10 21
REMARK SMILES IDX 9 22 8 23 7 24 6 25 5 26 4 27 3 28 2 29 1 30
REMARK H PARENT
REMARK Flexibility Score: inf
ROOT
ATOM      1  C   UNL     1     -23.134 -60.499   1.929  1.00  0.00     0.000 C 
ENDROOT
BRANCH   1   2
ATOM      2  C   UNL     1     -22.927 -58.987   2.147  1.00  0.00     0.000 C 
BRANCH   2   3
ATOM      3  C   UNL     1     -22.039 -58.337   1.072  1.00  0.00     0.000 C 
BRANCH   3   4
ATOM      4  C   UNL     1     -22.049 -59.121  -0.253  1.00  0.00     0.000 C 
BRANCH   4   5
ATOM      5  C   UNL     1     -23.066 -58.608  -1.289  1.00  0.00     0.000 C 
BRANCH   5   6
ATOM      6  C   UNL     1     -24.262 -59.563  -1.461  1.00  0.00     0.000 C 
BRANCH   6   7
ATOM      7  C   UNL     1     -25.491 -59.147  -0.632  1.00  0.00     0.000 C 
BRANCH   7   8
ATOM      8  C   UNL     1     -25.828 -57.642  -0.660  1.00  0.00     0.000 C 
BRANCH   8   9
ATOM      9  C   UNL     1     -25.661 -56.906   0.684  1.00  0.00     0.000 C 
BRANCH   9  10
ATOM     10  C   UNL     1     -25.091 -55.479   0.572  1.00  0.00     0.000 C 
BRANCH  10  11
ATOM     11  C   UNL     1     -24.606 -54.862   1.899  1.00  0.00     0.000 C 
BRANCH  11  12
ATOM     12  C   UNL     1     -25.352 -53.588   2.337  1.00  0.00     0.006 C 
BRANCH  12  13
ATOM     13  C   UNL     1     -26.433 -53.159   1.336  1.00  0.00     0.053 C 
BRANCH  13  14
ATOM     14  C   UNL     1     -26.083 -51.841   0.718  1.00  0.00     0.041 C 
ATOM     15  O   UNL     1     -25.082 -51.742  -0.036  1.00  0.00    -0.550 OA
ATOM     16  O   UNL     1     -26.871 -50.724   0.967  1.00  0.00    -0.550 OA
ENDBRANCH  13  14
ENDBRANCH  12  13
ENDBRANCH  11  12
ENDBRANCH  10  11
ENDBRANCH   9  10
ENDBRANCH   8   9
ENDBRANCH   7   8
ENDBRANCH   6   7
ENDBRANCH   5   6
ENDBRANCH   4   5
ENDBRANCH   3   4
ENDBRANCH   2   3
ENDBRANCH   1   2
BRANCH   1  17
ATOM     17  C   UNL     1     -24.513 -61.048   2.344  1.00  0.00     0.000 C 
BRANCH  17  18
ATOM     18  C   UNL     1     -24.525 -62.571   2.550  1.00  0.00     0.000 C 
BRANCH  18  19
ATOM     19  C   UNL     1     -24.495 -62.974   4.035  1.00  0.00     0.000 C 
BRANCH  19  20
ATOM     20  C   UNL     1     -23.077 -63.212   4.599  1.00  0.00     0.000 C 
BRANCH  20  21
ATOM     21  C   UNL     1     -22.736 -62.391   5.863  1.00  0.00     0.000 C 
BRANCH  21  22
ATOM     22  C   UNL     1     -23.448 -61.027   5.992  1.00  0.00    -0.000 C 
BRANCH  22  23
ATOM     23  C   UNL     1     -22.609 -59.803   5.587  1.00  0.00    -0.000 C 
BRANCH  23  24
ATOM     24  C   UNL     1     -23.364 -58.478   5.770  1.00  0.00    -0.000 C 
BRANCH  24  25
ATOM     25  C   UNL     1     -24.848 -58.641   5.417  1.00  0.00    -0.000 C 
BRANCH  25  26
ATOM     26  C   UNL     1     -25.393 -57.384   4.728  1.00  0.00    -0.000 C 
BRANCH  26  27
ATOM     27  C   UNL     1     -26.680 -57.701   3.952  1.00  0.00    -0.000 C 
BRANCH  27  28
ATOM     28  C   UNL     1     -27.460 -58.880   4.553  1.00  0.00    -0.000 C 
BRANCH  28  29
ATOM     29  C   UNL     1     -27.689 -60.014   3.543  1.00  0.00    -0.003 C 
ATOM     30  C   UNL     1     -27.905 -59.461   2.137  1.00  0.00     0.004 C 
ENDBRANCH  28  29
ENDBRANCH  27  28
ENDBRANCH  26  27
ENDBRANCH  25  26
ENDBRANCH  24  25
ENDBRANCH  23  24
ENDBRANCH  22  23
ENDBRANCH  21  22
ENDBRANCH  20  21
ENDBRANCH  19  20
ENDBRANCH  18  19
ENDBRANCH  17  18
ENDBRANCH   1  17
TORSDOF 26
ENDMDL
MODEL 5
REMARK VINA RESULT:    -4.489      1.363      4.116
REMARK INTER + INTRA:         -16.158
REMARK INTER:                 -10.427
REMARK INTRA:                  -5.730
REMARK UNBOUND:                -4.846
REMARK SMILES CCCCCCCCCCCCCCCCCCCCCCCCCCCC(=O)[O-]
REMARK SMILES IDX 15 1 16 2 17 3 18 4 19 5 20 6 21 7 22 8 23 9 24 10 25 11
REMARK SMILES IDX 26 12 27 13 28 14 29 15 30 16 14 17 13 18 12 19 11 20 10 21
REMARK SMILES IDX 9 22 8 23 7 24 6 25 5 26 4 27 3 28 2 29 1 30
REMARK H PARENT
REMARK Flexibility Score: inf
ROOT
ATOM      1  C   UNL     1     -24.483 -60.420   6.617  1.00  0.00     0.000 C 
ENDROOT
BRANCH   1   2
ATOM      2  C   UNL     1     -24.834 -58.922   6.720  1.00  0.00     0.000 C 
BRANCH   2   3
ATOM      3  C   UNL     1     -23.616 -58.001   6.532  1.00  0.00     0.000 C 
BRANCH   3   4
ATOM      4  C   UNL     1     -24.004 -56.619   5.975  1.00  0.00     0.000 C 
BRANCH   4   5
ATOM      5  C   UNL     1     -23.147 -56.148   4.785  1.00  0.00     0.000 C 
BRANCH   5   6
ATOM      6  C   UNL     1     -22.259 -57.271   4.219  1.00  0.00     0.000 C 
BRANCH   6   7
ATOM      7  C   UNL     1     -22.602 -57.636   2.763  1.00  0.00     0.000 C 
BRANCH   7   8
ATOM      8  C   UNL     1     -23.180 -59.051   2.555  1.00  0.00     0.000 C 
BRANCH   8   9
ATOM      9  C   UNL     1     -22.534 -59.864   1.416  1.00  0.00     0.000 C 
BRANCH   9  10
ATOM     10  C   UNL     1     -23.491 -60.232   0.265  1.00  0.00     0.000 C 
BRANCH  10  11
ATOM     11  C   UNL     1     -24.764 -59.368   0.172  1.00  0.00     0.000 C 
BRANCH  11  12
ATOM     12  C   UNL     1     -24.635 -58.108  -0.702  1.00  0.00     0.006 C 
BRANCH  12  13
ATOM     13  C   UNL     1     -25.990 -57.462  -1.018  1.00  0.00     0.053 C 
BRANCH  13  14
ATOM     14  C   UNL     1     -26.086 -57.128  -2.474  1.00  0.00     0.041 C 
ATOM     15  O   UNL     1     -25.050 -56.842  -3.127  1.00  0.00    -0.550 OA
ATOM     16  O   UNL     1     -27.321 -57.142  -3.112  1.00  0.00    -0.550 OA
ENDBRANCH  13  14
ENDBRANCH  12  13
ENDBRANCH  11  12
ENDBRANCH  10  11
ENDBRANCH   9  10
ENDBRANCH   8   9
ENDBRANCH   7   8
ENDBRANCH   6   7
ENDBRANCH   5   6
ENDBRANCH   4   5
ENDBRANCH   3   4
ENDBRANCH   2   3
ENDBRANCH   1   2
BRANCH   1  17
ATOM     17  C   UNL     1     -23.173 -60.747   5.874  1.00  0.00     0.000 C 
BRANCH  17  18
ATOM     18  C   UNL     1     -23.052 -62.227   5.476  1.00  0.00     0.000 C 
BRANCH  18  19
ATOM     19  C   UNL     1     -22.619 -62.420   4.013  1.00  0.00     0.000 C 
BRANCH  19  20
ATOM     20  C   UNL     1     -23.640 -63.190   3.146  1.00  0.00     0.000 C 
BRANCH  20  21
ATOM     21  C   UNL     1     -25.121 -62.906   3.481  1.00  0.00     0.000 C 
BRANCH  21  22
ATOM     22  C   UNL     1     -25.681 -61.562   2.968  1.00  0.00    -0.000 C 
BRANCH  22  23
ATOM     23  C   UNL     1     -26.611 -60.817   3.941  1.00  0.00    -0.000 C 
BRANCH  23  24
ATOM     24  C   UNL     1     -27.850 -60.230   3.249  1.00  0.00    -0.000 C 
BRANCH  24  25
ATOM     25  C   UNL     1     -27.501 -58.933   2.510  1.00  0.00    -0.000 C 
BRANCH  25  26
ATOM     26  C   UNL     1     -26.794 -57.940   3.441  1.00  0.00    -0.000 C 
BRANCH  26  27
ATOM     27  C   UNL     1     -26.093 -56.837   2.634  1.00  0.00    -0.000 C 
BRANCH  27  28
ATOM     28  C   UNL     1     -26.392 -55.429   3.172  1.00  0.00    -0.000 C 
BRANCH  28  29
ATOM     29  C   UNL     1     -25.964 -54.321   2.198  1.00  0.00    -0.003 C 
ATOM     30  C   UNL     1     -24.519 -54.514   1.747  1.00  0.00     0.004 C 
ENDBRANCH  28  29
ENDBRANCH  27  28
ENDBRANCH  26  27
ENDBRANCH  25  26
ENDBRANCH  24  25
ENDBRANCH  23  24
ENDBRANCH  22  23
ENDBRANCH  21  22
ENDBRANCH  20  21
ENDBRANCH  19  20
ENDBRANCH  18  19
ENDBRANCH  17  18
ENDBRANCH   1  17
TORSDOF 26
ENDMDL
MODEL 6
REMARK VINA RESULT:    -4.483      1.634      4.483
REMARK INTER + INTRA:         -16.142
REMARK INTER:                 -10.866
REMARK INTRA:                  -5.276
REMARK UNBOUND:                -4.846
REMARK SMILES CCCCCCCCCCCCCCCCCCCCCCCCCCCC(=O)[O-]
REMARK SMILES IDX 15 1 16 2 17 3 18 4 19 5 20 6 21 7 22 8 23 9 24 10 25 11
REMARK SMILES IDX 26 12 27 13 28 14 29 15 30 16 14 17 13 18 12 19 11 20 10 21
REMARK SMILES IDX 9 22 8 23 7 24 6 25 5 26 4 27 3 28 2 29 1 30
REMARK H PARENT
REMARK Flexibility Score: inf
ROOT
ATOM      1  C   UNL     1     -26.058 -61.430   5.365  1.00  0.00     0.000 C 
ENDROOT
BRANCH   1   2
ATOM      2  C   UNL     1     -25.398 -60.040   5.438  1.00  0.00     0.000 C 
BRANCH   2   3
ATOM      3  C   UNL     1     -24.006 -60.065   6.094  1.00  0.00     0.000 C 
BRANCH   3   4
ATOM      4  C   UNL     1     -22.922 -59.441   5.196  1.00  0.00     0.000 C 
BRANCH   4   5
ATOM      5  C   UNL     1     -23.398 -59.083   3.776  1.00  0.00     0.000 C 
BRANCH   5   6
ATOM      6  C   UNL     1     -22.939 -57.680   3.339  1.00  0.00     0.000 C 
BRANCH   6   7
ATOM      7  C   UNL     1     -23.699 -56.546   4.051  1.00  0.00     0.000 C 
BRANCH   7   8
ATOM      8  C   UNL     1     -24.477 -55.589   3.123  1.00  0.00     0.000 C 
BRANCH   8   9
ATOM      9  C   UNL     1     -24.471 -55.973   1.630  1.00  0.00     0.000 C 
BRANCH   9  10
ATOM     10  C   UNL     1     -25.722 -55.531   0.846  1.00  0.00     0.000 C 
BRANCH  10  11
ATOM     11  C   UNL     1     -25.565 -54.217   0.054  1.00  0.00     0.000 C 
BRANCH  11  12
ATOM     12  C   UNL     1     -26.127 -54.250  -1.379  1.00  0.00     0.006 C 
BRANCH  12  13
ATOM     13  C   UNL     1     -25.961 -55.619  -2.051  1.00  0.00     0.053 C 
BRANCH  13  14
ATOM     14  C   UNL     1     -27.263 -56.083  -2.625  1.00  0.00     0.041 C 
ATOM     15  O   UNL     1     -27.430 -56.113  -3.871  1.00  0.00    -0.550 OA
ATOM     16  O   UNL     1     -28.290 -56.494  -1.783  1.00  0.00    -0.550 OA
ENDBRANCH  13  14
ENDBRANCH  12  13
ENDBRANCH  11  12
ENDBRANCH  10  11
ENDBRANCH   9  10
ENDBRANCH   8   9
ENDBRANCH   7   8
ENDBRANCH   6   7
ENDBRANCH   5   6
ENDBRANCH   4   5
ENDBRANCH   3   4
ENDBRANCH   2   3
ENDBRANCH   1   2
BRANCH   1  17
ATOM     17  C   UNL     1     -26.039 -62.104   3.979  1.00  0.00     0.000 C 
BRANCH  17  18
ATOM     18  C   UNL     1     -24.688 -62.751   3.635  1.00  0.00     0.000 C 
BRANCH  18  19
ATOM     19  C   UNL     1     -24.154 -62.325   2.257  1.00  0.00     0.000 C 
BRANCH  19  20
ATOM     20  C   UNL     1     -22.632 -62.524   2.078  1.00  0.00     0.000 C 
BRANCH  20  21
ATOM     21  C   UNL     1     -22.050 -61.937   0.773  1.00  0.00     0.000 C 
BRANCH  21  22
ATOM     22  C   UNL     1     -21.875 -60.403   0.745  1.00  0.00    -0.000 C 
BRANCH  22  23
ATOM     23  C   UNL     1     -22.039 -59.744  -0.635  1.00  0.00    -0.000 C 
BRANCH  23  24
ATOM     24  C   UNL     1     -22.921 -58.487  -0.593  1.00  0.00    -0.000 C 
BRANCH  24  25
ATOM     25  C   UNL     1     -24.039 -58.568  -1.640  1.00  0.00    -0.000 C 
BRANCH  25  26
ATOM     26  C   UNL     1     -25.136 -59.545  -1.202  1.00  0.00    -0.000 C 
BRANCH  26  27
ATOM     27  C   UNL     1     -26.067 -58.894  -0.168  1.00  0.00    -0.000 C 
BRANCH  27  28
ATOM     28  C   UNL     1     -25.915 -59.506   1.234  1.00  0.00    -0.000 C 
BRANCH  28  29
ATOM     29  C   UNL     1     -26.886 -58.893   2.254  1.00  0.00    -0.003 C 
ATOM     30  C   UNL     1     -28.122 -58.325   1.563  1.00  0.00     0.004 C 
ENDBRANCH  28  29
ENDBRANCH  27  28
ENDBRANCH  26  27
ENDBRANCH  25  26
ENDBRANCH  24  25
ENDBRANCH  23  24
ENDBRANCH  22  23
ENDBRANCH  21  22
ENDBRANCH  20  21
ENDBRANCH  19  20
ENDBRANCH  18  19
ENDBRANCH  17  18
ENDBRANCH   1  17
TORSDOF 26
ENDMDL
MODEL 7
REMARK VINA RESULT:    -4.470      2.345      5.076
REMARK INTER + INTRA:         -16.109
REMARK INTER:                 -10.591
REMARK INTRA:                  -5.518
REMARK UNBOUND:                -4.846
REMARK SMILES CCCCCCCCCCCCCCCCCCCCCCCCCCCC(=O)[O-]
REMARK SMILES IDX 15 1 16 2 17 3 18 4 19 5 20 6 21 7 22 8 23 9 24 10 25 11
REMARK SMILES IDX 26 12 27 13 28 14 29 15 30 16 14 17 13 18 12 19 11 20 10 21
REMARK SMILES IDX 9 22 8 23 7 24 6 25 5 26 4 27 3 28 2 29 1 30
REMARK H PARENT
REMARK Flexibility Score: inf
ROOT
ATOM      1  C   UNL     1     -23.366 -58.847   3.048  1.00  0.00     0.000 C 
ENDROOT
BRANCH   1   2
ATOM      2  C   UNL     1     -22.618 -57.806   2.191  1.00  0.00     0.000 C 
BRANCH   2   3
ATOM      3  C   UNL     1     -21.875 -58.428   0.996  1.00  0.00     0.000 C 
BRANCH   3   4
ATOM      4  C   UNL     1     -22.011 -59.961   0.951  1.00  0.00     0.000 C 
BRANCH   4   5
ATOM      5  C   UNL     1     -22.612 -60.509  -0.357  1.00  0.00     0.000 C 
BRANCH   5   6
ATOM      6  C   UNL     1     -23.247 -59.405  -1.220  1.00  0.00     0.000 C 
BRANCH   6   7
ATOM      7  C   UNL     1     -24.782 -59.499  -1.290  1.00  0.00     0.000 C 
BRANCH   7   8
ATOM      8  C   UNL     1     -25.490 -59.748   0.058  1.00  0.00     0.000 C 
BRANCH   8   9
ATOM      9  C   UNL     1     -26.288 -58.551   0.611  1.00  0.00     0.000 C 
BRANCH   9  10
ATOM     10  C   UNL     1     -25.652 -57.173   0.345  1.00  0.00     0.000 C 
BRANCH  10  11
ATOM     11  C   UNL     1     -26.652 -56.041   0.037  1.00  0.00     0.000 C 
BRANCH  11  12
ATOM     12  C   UNL     1     -26.127 -54.618   0.304  1.00  0.00     0.006 C 
BRANCH  12  13
ATOM     13  C   UNL     1     -26.348 -54.165   1.753  1.00  0.00     0.053 C 
BRANCH  13  14
ATOM     14  C   UNL     1     -25.089 -54.316   2.548  1.00  0.00     0.041 C 
ATOM     15  O   UNL     1     -24.052 -53.685   2.217  1.00  0.00    -0.550 OA
ATOM     16  O   UNL     1     -25.064 -55.146   3.663  1.00  0.00    -0.550 OA
ENDBRANCH  13  14
ENDBRANCH  12  13
ENDBRANCH  11  12
ENDBRANCH  10  11
ENDBRANCH   9  10
ENDBRANCH   8   9
ENDBRANCH   7   8
ENDBRANCH   6   7
ENDBRANCH   5   6
ENDBRANCH   4   5
ENDBRANCH   3   4
ENDBRANCH   2   3
ENDBRANCH   1   2
BRANCH   1  17
ATOM     17  C   UNL     1     -23.508 -58.499   4.542  1.00  0.00     0.000 C 
BRANCH  17  18
ATOM     18  C   UNL     1     -22.723 -59.445   5.465  1.00  0.00     0.000 C 
BRANCH  18  19
ATOM     19  C   UNL     1     -23.559 -60.645   5.943  1.00  0.00     0.000 C 
BRANCH  19  20
ATOM     20  C   UNL     1     -22.967 -62.021   5.566  1.00  0.00     0.000 C 
BRANCH  20  21
ATOM     21  C   UNL     1     -22.395 -62.111   4.134  1.00  0.00     0.000 C 
BRANCH  21  22
ATOM     22  C   UNL     1     -23.259 -62.880   3.112  1.00  0.00    -0.000 C 
BRANCH  22  23
ATOM     23  C   UNL     1     -24.668 -62.310   2.875  1.00  0.00    -0.000 C 
BRANCH  23  24
ATOM     24  C   UNL     1     -25.752 -63.053   3.671  1.00  0.00    -0.000 C 
BRANCH  24  25
ATOM     25  C   UNL     1     -26.806 -62.076   4.204  1.00  0.00    -0.000 C 
BRANCH  25  26
ATOM     26  C   UNL     1     -26.736 -60.733   3.468  1.00  0.00    -0.000 C 
BRANCH  26  27
ATOM     27  C   UNL     1     -26.824 -59.561   4.457  1.00  0.00    -0.000 C 
BRANCH  27  28
ATOM     28  C   UNL     1     -28.136 -58.772   4.325  1.00  0.00    -0.000 C 
BRANCH  28  29
ATOM     29  C   UNL     1     -27.902 -57.281   4.037  1.00  0.00    -0.003 C 
ATOM     30  C   UNL     1     -28.768 -56.803   2.876  1.00  0.00     0.004 C 
ENDBRANCH  28  29
ENDBRANCH  27  28
ENDBRANCH  26  27
ENDBRANCH  25  26
ENDBRANCH  24  25
ENDBRANCH  23  24
ENDBRANCH  22  23
ENDBRANCH  21  22
ENDBRANCH  20  21
ENDBRANCH  19  20
ENDBRANCH  18  19
ENDBRANCH  17  18
ENDBRANCH   1  17
TORSDOF 26
ENDMDL
MODEL 8
REMARK VINA RESULT:    -4.442      2.037      6.361
REMARK INTER + INTRA:         -16.041
REMARK INTER:                 -10.934
REMARK INTRA:                  -5.107
REMARK UNBOUND:                -4.846
REMARK SMILES CCCCCCCCCCCCCCCCCCCCCCCCCCCC(=O)[O-]
REMARK SMILES IDX 15 1 16 2 17 3 18 4 19 5 20 6 21 7 22 8 23 9 24 10 25 11
REMARK SMILES IDX 26 12 27 13 28 14 29 15 30 16 14 17 13 18 12 19 11 20 10 21
REMARK SMILES IDX 9 22 8 23 7 24 6 25 5 26 4 27 3 28 2 29 1 30
REMARK H PARENT
REMARK Flexibility Score: inf
ROOT
ATOM      1  C   UNL     1     -25.705 -60.103   2.088  1.00  0.00     0.000 C 
ENDROOT
BRANCH   1   2
ATOM      2  C   UNL     1     -25.200 -59.993   3.541  1.00  0.00     0.000 C 
BRANCH   2   3
ATOM      3  C   UNL     1     -23.706 -59.641   3.638  1.00  0.00     0.000 C 
BRANCH   3   4
ATOM      4  C   UNL     1     -23.299 -58.529   2.654  1.00  0.00     0.000 C 
BRANCH   4   5
ATOM      5  C   UNL     1     -22.742 -57.258   3.324  1.00  0.00     0.000 C 
BRANCH   5   6
ATOM      6  C   UNL     1     -22.590 -57.416   4.848  1.00  0.00     0.000 C 
BRANCH   6   7
ATOM      7  C   UNL     1     -23.530 -56.494   5.648  1.00  0.00     0.000 C 
BRANCH   7   8
ATOM      8  C   UNL     1     -25.022 -56.885   5.615  1.00  0.00     0.000 C 
BRANCH   8   9
ATOM      9  C   UNL     1     -25.983 -55.769   5.160  1.00  0.00     0.000 C 
BRANCH   9  10
ATOM     10  C   UNL     1     -27.035 -56.207   4.124  1.00  0.00     0.000 C 
BRANCH  10  11
ATOM     11  C   UNL     1     -26.956 -55.483   2.765  1.00  0.00     0.000 C 
BRANCH  11  12
ATOM     12  C   UNL     1     -25.531 -55.283   2.216  1.00  0.00     0.006 C 
BRANCH  12  13
ATOM     13  C   UNL     1     -25.510 -54.994   0.709  1.00  0.00     0.053 C 
BRANCH  13  14
ATOM     14  C   UNL     1     -25.249 -53.542   0.456  1.00  0.00     0.041 C 
ATOM     15  O   UNL     1     -25.111 -52.747   1.421  1.00  0.00    -0.550 OA
ATOM     16  O   UNL     1     -25.149 -53.069  -0.847  1.00  0.00    -0.550 OA
ENDBRANCH  13  14
ENDBRANCH  12  13
ENDBRANCH  11  12
ENDBRANCH  10  11
ENDBRANCH   9  10
ENDBRANCH   8   9
ENDBRANCH   7   8
ENDBRANCH   6   7
ENDBRANCH   5   6
ENDBRANCH   4   5
ENDBRANCH   3   4
ENDBRANCH   2   3
ENDBRANCH   1   2
BRANCH   1  17
ATOM     17  C   UNL     1     -26.629 -58.964   1.617  1.00  0.00     0.000 C 
BRANCH  17  18
ATOM     18  C   UNL     1     -26.350 -58.509   0.176  1.00  0.00     0.000 C 
BRANCH  18  19
ATOM     19  C   UNL     1     -25.473 -59.502  -0.605  1.00  0.00     0.000 C 
BRANCH  19  20
ATOM     20  C   UNL     1     -24.481 -58.837  -1.585  1.00  0.00     0.000 C 
BRANCH  20  21
ATOM     21  C   UNL     1     -23.016 -58.798  -1.099  1.00  0.00     0.000 C 
BRANCH  21  22
ATOM     22  C   UNL     1     -22.282 -60.156  -1.063  1.00  0.00    -0.000 C 
BRANCH  22  23
ATOM     23  C   UNL     1     -21.875 -60.651   0.336  1.00  0.00    -0.000 C 
BRANCH  23  24
ATOM     24  C   UNL     1     -21.970 -62.178   0.477  1.00  0.00    -0.000 C 
BRANCH  24  25
ATOM     25  C   UNL     1     -22.295 -62.574   1.922  1.00  0.00    -0.000 C 
BRANCH  25  26
ATOM     26  C   UNL     1     -23.717 -63.137   2.034  1.00  0.00    -0.000 C 
BRANCH  26  27
ATOM     27  C   UNL     1     -23.934 -63.809   3.398  1.00  0.00    -0.000 C 
BRANCH  27  28
ATOM     28  C   UNL     1     -25.369 -63.638   3.922  1.00  0.00    -0.000 C 
BRANCH  28  29
ATOM     29  C   UNL     1     -25.418 -63.357   5.431  1.00  0.00    -0.003 C 
ATOM     30  C   UNL     1     -24.147 -62.655   5.900  1.00  0.00     0.004 C 
ENDBRANCH  28  29
ENDBRANCH  27  28
ENDBRANCH  26  27
ENDBRANCH  25  26
ENDBRANCH  24  25
ENDBRANCH  23  24
ENDBRANCH  22  23
ENDBRANCH  21  22
ENDBRANCH  20  21
ENDBRANCH  19  20
ENDBRANCH  18  19
ENDBRANCH  17  18
ENDBRANCH   1  17
TORSDOF 26
ENDMDL
MODEL 9
REMARK VINA RESULT:    -4.431      2.145      5.055
REMARK INTER + INTRA:         -16.012
REMARK INTER:                 -10.256
REMARK INTRA:                  -5.755
REMARK UNBOUND:                -4.846
REMARK SMILES CCCCCCCCCCCCCCCCCCCCCCCCCCCC(=O)[O-]
REMARK SMILES IDX 15 1 16 2 17 3 18 4 19 5 20 6 21 7 22 8 23 9 24 10 25 11
REMARK SMILES IDX 26 12 27 13 28 14 29 15 30 16 14 17 13 18 12 19 11 20 10 21
REMARK SMILES IDX 9 22 8 23 7 24 6 25 5 26 4 27 3 28 2 29 1 30
REMARK H PARENT
REMARK Flexibility Score: inf
ROOT
ATOM      1  C   UNL     1     -22.221 -61.843   1.087  1.00  0.00     0.000 C 
ENDROOT
BRANCH   1   2
ATOM      2  C   UNL     1     -23.071 -62.847   1.889  1.00  0.00     0.000 C 
BRANCH   2   3
ATOM      3  C   UNL     1     -24.301 -62.205   2.553  1.00  0.00     0.000 C 
BRANCH   3   4
ATOM      4  C   UNL     1     -24.265 -62.314   4.089  1.00  0.00     0.000 C 
BRANCH   4   5
ATOM      5  C   UNL     1     -22.942 -61.855   4.730  1.00  0.00     0.000 C 
BRANCH   5   6
ATOM      6  C   UNL     1     -23.116 -60.596   5.599  1.00  0.00     0.000 C 
BRANCH   6   7
ATOM      7  C   UNL     1     -23.402 -59.327   4.775  1.00  0.00     0.000 C 
BRANCH   7   8
ATOM      8  C   UNL     1     -22.531 -58.103   5.124  1.00  0.00     0.000 C 
BRANCH   8   9
ATOM      9  C   UNL     1     -22.711 -56.883   4.199  1.00  0.00     0.000 C 
BRANCH   9  10
ATOM     10  C   UNL     1     -23.441 -57.180   2.875  1.00  0.00     0.000 C 
BRANCH  10  11
ATOM     11  C   UNL     1     -24.075 -55.954   2.189  1.00  0.00     0.000 C 
BRANCH  11  12
ATOM     12  C   UNL     1     -25.051 -55.148   3.067  1.00  0.00     0.006 C 
BRANCH  12  13
ATOM     13  C   UNL     1     -26.450 -55.033   2.448  1.00  0.00     0.053 C 
BRANCH  13  14
ATOM     14  C   UNL     1     -26.544 -53.816   1.583  1.00  0.00     0.041 C 
ATOM     15  O   UNL     1     -27.474 -53.706   0.744  1.00  0.00    -0.550 OA
ATOM     16  O   UNL     1     -25.609 -52.795   1.713  1.00  0.00    -0.550 OA
ENDBRANCH  13  14
ENDBRANCH  12  13
ENDBRANCH  11  12
ENDBRANCH  10  11
ENDBRANCH   9  10
ENDBRANCH   8   9
ENDBRANCH   7   8
ENDBRANCH   6   7
ENDBRANCH   5   6
ENDBRANCH   4   5
ENDBRANCH   3   4
ENDBRANCH   2   3
ENDBRANCH   1   2
BRANCH   1  17
ATOM     17  C   UNL     1     -22.535 -60.355   1.338  1.00  0.00     0.000 C 
BRANCH  17  18
ATOM     18  C   UNL     1     -21.956 -59.421   0.264  1.00  0.00     0.000 C 
BRANCH  18  19
ATOM     19  C   UNL     1     -23.043 -58.663  -0.518  1.00  0.00     0.000 C 
BRANCH  19  20
ATOM     20  C   UNL     1     -23.996 -59.575  -1.322  1.00  0.00     0.000 C 
BRANCH  20  21
ATOM     21  C   UNL     1     -25.497 -59.375  -1.016  1.00  0.00     0.000 C 
BRANCH  21  22
ATOM     22  C   UNL     1     -25.823 -58.653   0.310  1.00  0.00    -0.000 C 
BRANCH  22  23
ATOM     23  C   UNL     1     -26.124 -59.573   1.506  1.00  0.00    -0.000 C 
BRANCH  23  24
ATOM     24  C   UNL     1     -26.480 -58.793   2.780  1.00  0.00    -0.000 C 
BRANCH  24  25
ATOM     25  C   UNL     1     -26.990 -59.737   3.876  1.00  0.00    -0.000 C 
BRANCH  25  26
ATOM     26  C   UNL     1     -27.074 -59.020   5.228  1.00  0.00    -0.000 C 
BRANCH  26  27
ATOM     27  C   UNL     1     -27.368 -57.525   5.038  1.00  0.00    -0.000 C 
BRANCH  27  28
ATOM     28  C   UNL     1     -27.014 -56.689   6.277  1.00  0.00    -0.000 C 
BRANCH  28  29
ATOM     29  C   UNL     1     -25.499 -56.507   6.454  1.00  0.00    -0.003 C 
ATOM     30  C   UNL     1     -25.001 -57.232   7.701  1.00  0.00     0.004 C 
ENDBRANCH  28  29
ENDBRANCH  27  28
ENDBRANCH  26  27
ENDBRANCH  25  26
ENDBRANCH  24  25
ENDBRANCH  23  24
ENDBRANCH  22  23
ENDBRANCH  21  22
ENDBRANCH  20  21
ENDBRANCH  19  20
ENDBRANCH  18  19
ENDBRANCH  17  18
ENDBRANCH   1  17
TORSDOF 26
ENDMDL
