MODEL 1
REMARK VINA RESULT:    -2.895      0.000      0.000
REMARK INTER + INTRA:          -7.067
REMARK INTER:                  -4.926
REMARK INTRA:                  -2.141
REMARK UNBOUND:                -2.141
REMARK SMILES CCCCCCCCCCCCCC(=O)[O-]
REMARK SMILES IDX 8 1 9 2 10 3 11 4 12 5 13 6 14 7 15 8 16 9 7 10 6 11 5 12
REMARK SMILES IDX 4 13 3 14 2 15 1 16
REMARK H PARENT
REMARK Flexibility Score: inf
ROOT
ATOM      1  C   UNL     1     -18.876  41.395  93.862  1.00  0.00     0.000 C 
ENDROOT
BRANCH   1   2
ATOM      2  C   UNL     1     -18.873  41.167  95.380  1.00  0.00     0.000 C 
BRANCH   2   3
ATOM      3  C   UNL     1     -17.442  41.148  95.929  1.00  0.00     0.000 C 
BRANCH   3   4
ATOM      4  C   UNL     1     -16.416  41.131  94.789  1.00  0.00     0.000 C 
BRANCH   4   5
ATOM      5  C   UNL     1     -15.175  40.316  95.177  1.00  0.00     0.006 C 
BRANCH   5   6
ATOM      6  C   UNL     1     -14.427  39.829  93.932  1.00  0.00     0.053 C 
BRANCH   6   7
ATOM      7  C   UNL     1     -13.054  40.422  93.882  1.00  0.00     0.041 C 
ATOM      8  O   UNL     1     -12.877  41.632  94.179  1.00  0.00    -0.550 OA
ATOM      9  O   UNL     1     -11.965  39.626  93.552  1.00  0.00    -0.550 OA
ENDBRANCH   6   7
ENDBRANCH   5   6
ENDBRANCH   4   5
ENDBRANCH   3   4
ENDBRANCH   2   3
ENDBRANCH   1   2
BRANCH   1  10
ATOM     10  C   UNL     1     -20.121  40.806  93.178  1.00  0.00     0.000 C 
BRANCH  10  11
ATOM     11  C   UNL     1     -19.907  39.355  92.712  1.00  0.00    -0.000 C 
BRANCH  11  12
ATOM     12  C   UNL     1     -18.564  39.160  91.990  1.00  0.00    -0.000 C 
BRANCH  12  13
ATOM     13  C   UNL     1     -17.618  38.216  92.751  1.00  0.00    -0.000 C 
BRANCH  13  14
ATOM     14  C   UNL     1     -18.245  37.665  94.041  1.00  0.00    -0.000 C 
BRANCH  14  15
ATOM     15  C   UNL     1     -17.192  37.183  95.049  1.00  0.00    -0.003 C 
ATOM     16  C   UNL     1     -17.589  37.550  96.477  1.00  0.00     0.004 C 
ENDBRANCH  14  15
ENDBRANCH  13  14
ENDBRANCH  12  13
ENDBRANCH  11  12
ENDBRANCH  10  11
ENDBRANCH   1  10
TORSDOF 12
ENDMDL
MODEL 2
REMARK VINA RESULT:    -2.841      2.306      4.136
REMARK INTER + INTRA:          -6.974
REMARK INTER:                  -5.544
REMARK INTRA:                  -1.430
REMARK UNBOUND:                -2.141
REMARK SMILES CCCCCCCCCCCCCC(=O)[O-]
REMARK SMILES IDX 8 1 9 2 10 3 11 4 12 5 13 6 14 7 15 8 16 9 7 10 6 11 5 12
REMARK SMILES IDX 4 13 3 14 2 15 1 16
REMARK H PARENT
REMARK Flexibility Score: inf
ROOT
ATOM      1  C   UNL     1     -20.307  37.700  92.642  1.00  0.00     0.000 C 
ENDROOT
BRANCH   1   2
ATOM      2  C   UNL     1     -19.992  39.142  92.218  1.00  0.00     0.000 C 
BRANCH   2   3
ATOM      3  C   UNL     1     -21.026  40.119  92.790  1.00  0.00     0.000 C 
BRANCH   3   4
ATOM      4  C   UNL     1     -20.359  41.424  93.242  1.00  0.00     0.000 C 
BRANCH   4   5
ATOM      5  C   UNL     1     -18.880  41.198  93.582  1.00  0.00     0.006 C 
BRANCH   5   6
ATOM      6  C   UNL     1     -18.643  41.289  95.092  1.00  0.00     0.053 C 
BRANCH   6   7
ATOM      7  C   UNL     1     -17.259  40.835  95.433  1.00  0.00     0.041 C 
ATOM      8  O   UNL     1     -16.262  41.388  94.899  1.00  0.00    -0.550 OA
ATOM      9  O   UNL     1     -17.068  39.833  96.376  1.00  0.00    -0.550 OA
ENDBRANCH   6   7
ENDBRANCH   5   6
ENDBRANCH   4   5
ENDBRANCH   3   4
ENDBRANCH   2   3
ENDBRANCH   1   2
BRANCH   1  10
ATOM     10  C   UNL     1     -20.062  36.685  91.513  1.00  0.00     0.000 C 
BRANCH  10  11
ATOM     11  C   UNL     1     -19.219  37.270  90.366  1.00  0.00    -0.000 C 
BRANCH  11  12
ATOM     12  C   UNL     1     -18.023  36.377  89.999  1.00  0.00    -0.000 C 
BRANCH  12  13
ATOM     13  C   UNL     1     -16.720  36.829  90.681  1.00  0.00    -0.000 C 
BRANCH  13  14
ATOM     14  C   UNL     1     -16.706  38.334  90.989  1.00  0.00    -0.000 C 
BRANCH  14  15
ATOM     15  C   UNL     1     -16.384  38.631  92.461  1.00  0.00    -0.003 C 
ATOM     16  C   UNL     1     -14.920  39.025  92.635  1.00  0.00     0.004 C 
ENDBRANCH  14  15
ENDBRANCH  13  14
ENDBRANCH  12  13
ENDBRANCH  11  12
ENDBRANCH  10  11
ENDBRANCH   1  10
TORSDOF 12
ENDMDL
MODEL 3
REMARK VINA RESULT:    -2.820      1.548      2.674
REMARK INTER + INTRA:          -6.939
REMARK INTER:                  -4.639
REMARK INTRA:                  -2.300
REMARK UNBOUND:                -2.141
REMARK SMILES CCCCCCCCCCCCCC(=O)[O-]
REMARK SMILES IDX 8 1 9 2 10 3 11 4 12 5 13 6 14 7 15 8 16 9 7 10 6 11 5 12
REMARK SMILES IDX 4 13 3 14 2 15 1 16
REMARK H PARENT
REMARK Flexibility Score: inf
ROOT
ATOM      1  C   UNL     1     -20.108  39.507  92.282  1.00  0.00     0.000 C 
ENDROOT
BRANCH   1   2
ATOM      2  C   UNL     1     -20.198  40.709  93.234  1.00  0.00     0.000 C 
BRANCH   2   3
ATOM      3  C   UNL     1     -18.813  41.088  93.770  1.00  0.00     0.000 C 
BRANCH   3   4
ATOM      4  C   UNL     1     -18.845  41.278  95.291  1.00  0.00     0.000 C 
BRANCH   4   5
ATOM      5  C   UNL     1     -17.461  41.032  95.906  1.00  0.00     0.006 C 
BRANCH   5   6
ATOM      6  C   UNL     1     -16.360  41.156  94.848  1.00  0.00     0.053 C 
BRANCH   6   7
ATOM      7  C   UNL     1     -15.291  40.137  95.084  1.00  0.00     0.041 C 
ATOM      8  O   UNL     1     -15.486  39.189  95.889  1.00  0.00    -0.550 OA
ATOM      9  O   UNL     1     -14.096  40.208  94.378  1.00  0.00    -0.550 OA
ENDBRANCH   6   7
ENDBRANCH   5   6
ENDBRANCH   4   5
ENDBRANCH   3   4
ENDBRANCH   2   3
ENDBRANCH   1   2
BRANCH   1  10
ATOM     10  C   UNL     1     -18.705  39.333  91.680  1.00  0.00     0.000 C 
BRANCH  10  11
ATOM     11  C   UNL     1     -18.151  37.911  91.874  1.00  0.00    -0.000 C 
BRANCH  11  12
ATOM     12  C   UNL     1     -17.425  37.740  93.218  1.00  0.00    -0.000 C 
BRANCH  12  13
ATOM     13  C   UNL     1     -18.191  36.824  94.189  1.00  0.00    -0.000 C 
BRANCH  13  14
ATOM     14  C   UNL     1     -18.589  37.541  95.488  1.00  0.00    -0.000 C 
BRANCH  14  15
ATOM     15  C   UNL     1     -20.097  37.821  95.568  1.00  0.00    -0.003 C 
ATOM     16  C   UNL     1     -20.892  36.782  94.782  1.00  0.00     0.004 C 
ENDBRANCH  14  15
ENDBRANCH  13  14
ENDBRANCH  12  13
ENDBRANCH  11  12
ENDBRANCH  10  11
ENDBRANCH   1  10
TORSDOF 12
ENDMDL
MODEL 4
REMARK VINA RESULT:    -2.788      3.450      4.585
REMARK INTER + INTRA:          -6.884
REMARK INTER:                  -5.581
REMARK INTRA:                  -1.303
REMARK UNBOUND:                -2.141
REMARK SMILES CCCCCCCCCCCCCC(=O)[O-]
REMARK SMILES IDX 8 1 9 2 10 3 11 4 12 5 13 6 14 7 15 8 16 9 7 10 6 11 5 12
REMARK SMILES IDX 4 13 3 14 2 15 1 16
REMARK H PARENT
REMARK Flexibility Score: inf
ROOT
ATOM      1  C   UNL     1     -20.980  39.877  93.016  1.00  0.00     0.000 C 
ENDROOT
BRANCH   1   2
ATOM      2  C   UNL     1     -19.582  40.457  92.754  1.00  0.00     0.000 C 
BRANCH   2   3
ATOM      3  C   UNL     1     -19.120  41.326  93.930  1.00  0.00     0.000 C 
BRANCH   3   4
ATOM      4  C   UNL     1     -17.614  41.168  94.172  1.00  0.00     0.000 C 
BRANCH   4   5
ATOM      5  C   UNL     1     -17.301  41.113  95.673  1.00  0.00     0.006 C 
BRANCH   5   6
ATOM      6  C   UNL     1     -18.495  41.597  96.501  1.00  0.00     0.053 C 
BRANCH   6   7
ATOM      7  C   UNL     1     -18.869  40.574  97.527  1.00  0.00     0.041 C 
ATOM      8  O   UNL     1     -18.647  39.353  97.314  1.00  0.00    -0.550 OA
ATOM      9  O   UNL     1     -19.420  40.973  98.738  1.00  0.00    -0.550 OA
ENDBRANCH   6   7
ENDBRANCH   5   6
ENDBRANCH   4   5
ENDBRANCH   3   4
ENDBRANCH   2   3
ENDBRANCH   1   2
BRANCH   1  10
ATOM     10  C   UNL     1     -21.080  39.164  94.373  1.00  0.00     0.000 C 
BRANCH  10  11
ATOM     11  C   UNL     1     -20.599  37.703  94.310  1.00  0.00    -0.000 C 
BRANCH  11  12
ATOM     12  C   UNL     1     -21.088  36.976  93.048  1.00  0.00    -0.000 C 
BRANCH  12  13
ATOM     13  C   UNL     1     -19.933  36.369  92.232  1.00  0.00    -0.000 C 
BRANCH  13  14
ATOM     14  C   UNL     1     -19.617  37.178  90.965  1.00  0.00    -0.000 C 
BRANCH  14  15
ATOM     15  C   UNL     1     -18.124  37.155  90.607  1.00  0.00    -0.003 C 
ATOM     16  C   UNL     1     -17.559  35.740  90.697  1.00  0.00     0.004 C 
ENDBRANCH  14  15
ENDBRANCH  13  14
ENDBRANCH  12  13
ENDBRANCH  11  12
ENDBRANCH  10  11
ENDBRANCH   1  10
TORSDOF 12
ENDMDL
MODEL 5
REMARK VINA RESULT:    -2.740      2.007      2.673
REMARK INTER + INTRA:          -6.803
REMARK INTER:                  -5.116
REMARK INTRA:                  -1.687
REMARK UNBOUND:                -2.141
REMARK SMILES CCCCCCCCCCCCCC(=O)[O-]
REMARK SMILES IDX 8 1 9 2 10 3 11 4 12 5 13 6 14 7 15 8 16 9 7 10 6 11 5 12
REMARK SMILES IDX 4 13 3 14 2 15 1 16
REMARK H PARENT
REMARK Flexibility Score: inf
ROOT
ATOM      1  C   UNL     1     -20.669  39.380  94.292  1.00  0.00     0.000 C 
ENDROOT
BRANCH   1   2
ATOM      2  C   UNL     1     -19.265  39.398  94.914  1.00  0.00     0.000 C 
BRANCH   2   3
ATOM      3  C   UNL     1     -19.228  40.291  96.160  1.00  0.00     0.000 C 
BRANCH   3   4
ATOM      4  C   UNL     1     -17.908  41.067  96.242  1.00  0.00     0.000 C 
BRANCH   4   5
ATOM      5  C   UNL     1     -17.234  41.155  94.867  1.00  0.00     0.006 C 
BRANCH   5   6
ATOM      6  C   UNL     1     -15.718  40.969  94.985  1.00  0.00     0.053 C 
BRANCH   6   7
ATOM      7  C   UNL     1     -15.300  39.672  94.368  1.00  0.00     0.041 C 
ATOM      8  O   UNL     1     -14.232  39.114  94.732  1.00  0.00    -0.550 OA
ATOM      9  O   UNL     1     -16.114  39.056  93.426  1.00  0.00    -0.550 OA
ENDBRANCH   6   7
ENDBRANCH   5   6
ENDBRANCH   4   5
ENDBRANCH   3   4
ENDBRANCH   2   3
ENDBRANCH   1   2
BRANCH   1  10
ATOM     10  C   UNL     1     -20.659  39.743  92.799  1.00  0.00     0.000 C 
BRANCH  10  11
ATOM     11  C   UNL     1     -19.254  39.653  92.178  1.00  0.00    -0.000 C 
BRANCH  11  12
ATOM     12  C   UNL     1     -19.241  38.858  90.862  1.00  0.00    -0.000 C 
BRANCH  12  13
ATOM     13  C   UNL     1     -19.697  37.400  91.050  1.00  0.00    -0.000 C 
BRANCH  13  14
ATOM     14  C   UNL     1     -18.765  36.605  91.977  1.00  0.00    -0.000 C 
BRANCH  14  15
ATOM     15  C   UNL     1     -19.491  36.058  93.215  1.00  0.00    -0.003 C 
ATOM     16  C   UNL     1     -20.995  35.956  92.969  1.00  0.00     0.004 C 
ENDBRANCH  14  15
ENDBRANCH  13  14
ENDBRANCH  12  13
ENDBRANCH  11  12
ENDBRANCH  10  11
ENDBRANCH   1  10
TORSDOF 12
ENDMDL
MODEL 6
REMARK VINA RESULT:    -2.701     16.922     18.709
REMARK INTER + INTRA:          -6.737
REMARK INTER:                  -4.627
REMARK INTRA:                  -2.110
REMARK UNBOUND:                -2.141
REMARK SMILES CCCCCCCCCCCCCC(=O)[O-]
REMARK SMILES IDX 8 1 9 2 10 3 11 4 12 5 13 6 14 7 15 8 16 9 7 10 6 11 5 12
REMARK SMILES IDX 4 13 3 14 2 15 1 16
REMARK H PARENT
REMARK Flexibility Score: inf
ROOT
ATOM      1  C   UNL     1      -6.127  30.063 108.895  1.00  0.00     0.000 C 
ENDROOT
BRANCH   1   2
ATOM      2  C   UNL     1      -5.012  31.115 108.800  1.00  0.00     0.000 C 
BRANCH   2   3
ATOM      3  C   UNL     1      -4.147  30.885 107.555  1.00  0.00     0.000 C 
BRANCH   3   4
ATOM      4  C   UNL     1      -3.916  32.197 106.796  1.00  0.00     0.000 C 
BRANCH   4   5
ATOM      5  C   UNL     1      -4.755  33.334 107.393  1.00  0.00     0.006 C 
BRANCH   5   6
ATOM      6  C   UNL     1      -5.479  34.118 106.294  1.00  0.00     0.053 C 
BRANCH   6   7
ATOM      7  C   UNL     1      -4.493  34.822 105.417  1.00  0.00     0.041 C 
ATOM      8  O   UNL     1      -4.549  34.688 104.166  1.00  0.00    -0.550 OA
ATOM      9  O   UNL     1      -3.541  35.664 105.978  1.00  0.00    -0.550 OA
ENDBRANCH   6   7
ENDBRANCH   5   6
ENDBRANCH   4   5
ENDBRANCH   3   4
ENDBRANCH   2   3
ENDBRANCH   1   2
BRANCH   1  10
ATOM     10  C   UNL     1      -6.020  28.987 107.803  1.00  0.00     0.000 C 
BRANCH  10  11
ATOM     11  C   UNL     1      -7.278  28.913 106.920  1.00  0.00    -0.000 C 
BRANCH  11  12
ATOM     12  C   UNL     1      -8.090  30.218 106.942  1.00  0.00    -0.000 C 
BRANCH  12  13
ATOM     13  C   UNL     1      -7.733  31.153 105.773  1.00  0.00    -0.000 C 
BRANCH  13  14
ATOM     14  C   UNL     1      -6.929  30.443 104.673  1.00  0.00    -0.000 C 
BRANCH  14  15
ATOM     15  C   UNL     1      -6.031  31.406 103.884  1.00  0.00    -0.003 C 
ATOM     16  C   UNL     1      -4.693  30.755 103.544  1.00  0.00     0.004 C 
ENDBRANCH  14  15
ENDBRANCH  13  14
ENDBRANCH  12  13
ENDBRANCH  11  12
ENDBRANCH  10  11
ENDBRANCH   1  10
TORSDOF 12
ENDMDL
MODEL 7
REMARK VINA RESULT:    -2.688      9.716     11.524
REMARK INTER + INTRA:          -6.716
REMARK INTER:                  -4.617
REMARK INTRA:                  -2.099
REMARK UNBOUND:                -2.141
REMARK SMILES CCCCCCCCCCCCCC(=O)[O-]
REMARK SMILES IDX 8 1 9 2 10 3 11 4 12 5 13 6 14 7 15 8 16 9 7 10 6 11 5 12
REMARK SMILES IDX 4 13 3 14 2 15 1 16
REMARK H PARENT
REMARK Flexibility Score: inf
ROOT
ATOM      1  C   UNL     1     -17.703  30.221  92.055  1.00  0.00     0.000 C 
ENDROOT
BRANCH   1   2
ATOM      2  C   UNL     1     -16.685  31.012  91.222  1.00  0.00     0.000 C 
BRANCH   2   3
ATOM      3  C   UNL     1     -15.833  30.073  90.360  1.00  0.00     0.000 C 
BRANCH   3   4
ATOM      4  C   UNL     1     -16.079  28.606  90.737  1.00  0.00     0.000 C 
BRANCH   4   5
ATOM      5  C   UNL     1     -14.768  27.809  90.733  1.00  0.00     0.006 C 
BRANCH   5   6
ATOM      6  C   UNL     1     -13.563  28.736  90.546  1.00  0.00     0.053 C 
BRANCH   6   7
ATOM      7  C   UNL     1     -12.297  28.030  90.916  1.00  0.00     0.041 C 
ATOM      8  O   UNL     1     -11.643  27.402  90.042  1.00  0.00    -0.550 OA
ATOM      9  O   UNL     1     -11.814  28.104  92.216  1.00  0.00    -0.550 OA
ENDBRANCH   6   7
ENDBRANCH   5   6
ENDBRANCH   4   5
ENDBRANCH   3   4
ENDBRANCH   2   3
ENDBRANCH   1   2
BRANCH   1  10
ATOM     10  C   UNL     1     -18.017  30.894  93.401  1.00  0.00     0.000 C 
BRANCH  10  11
ATOM     11  C   UNL     1     -18.543  29.899  94.450  1.00  0.00    -0.000 C 
BRANCH  11  12
ATOM     12  C   UNL     1     -18.175  28.444  94.119  1.00  0.00    -0.000 C 
BRANCH  12  13
ATOM     13  C   UNL     1     -17.037  27.907  95.004  1.00  0.00    -0.000 C 
BRANCH  13  14
ATOM     14  C   UNL     1     -15.862  27.354  94.184  1.00  0.00    -0.000 C 
BRANCH  14  15
ATOM     15  C   UNL     1     -14.534  28.051  94.513  1.00  0.00    -0.003 C 
ATOM     16  C   UNL     1     -14.564  29.519  94.096  1.00  0.00     0.004 C 
ENDBRANCH  14  15
ENDBRANCH  13  14
ENDBRANCH  12  13
ENDBRANCH  11  12
ENDBRANCH  10  11
ENDBRANCH   1  10
TORSDOF 12
ENDMDL
MODEL 8
REMARK VINA RESULT:    -2.674     12.101     14.537
REMARK INTER + INTRA:          -6.691
REMARK INTER:                  -4.742
REMARK INTRA:                  -1.950
REMARK UNBOUND:                -2.141
REMARK SMILES CCCCCCCCCCCCCC(=O)[O-]
REMARK SMILES IDX 8 1 9 2 10 3 11 4 12 5 13 6 14 7 15 8 16 9 7 10 6 11 5 12
REMARK SMILES IDX 4 13 3 14 2 15 1 16
REMARK H PARENT
REMARK Flexibility Score: inf
ROOT
ATOM      1  C   UNL     1      -2.482  40.715  97.074  1.00  0.00     0.000 C 
ENDROOT
BRANCH   1   2
ATOM      2  C   UNL     1      -3.936  41.201  97.175  1.00  0.00     0.000 C 
BRANCH   2   3
ATOM      3  C   UNL     1      -4.064  42.651  96.694  1.00  0.00     0.000 C 
BRANCH   3   4
ATOM      4  C   UNL     1      -2.916  43.020  95.746  1.00  0.00     0.000 C 
BRANCH   4   5
ATOM      5  C   UNL     1      -3.290  44.224  94.871  1.00  0.00     0.006 C 
BRANCH   5   6
ATOM      6  C   UNL     1      -3.364  45.507  95.705  1.00  0.00     0.053 C 
BRANCH   6   7
ATOM      7  C   UNL     1      -1.990  45.982  96.056  1.00  0.00     0.041 C 
ATOM      8  O   UNL     1      -1.725  46.335  97.235  1.00  0.00    -0.550 OA
ATOM      9  O   UNL     1      -0.989  45.990  95.093  1.00  0.00    -0.550 OA
ENDBRANCH   6   7
ENDBRANCH   5   6
ENDBRANCH   4   5
ENDBRANCH   3   4
ENDBRANCH   2   3
ENDBRANCH   1   2
BRANCH   1  10
ATOM     10  C   UNL     1      -2.366  39.330  96.417  1.00  0.00     0.000 C 
BRANCH  10  11
ATOM     11  C   UNL     1      -1.178  39.237  95.443  1.00  0.00    -0.000 C 
BRANCH  11  12
ATOM     12  C   UNL     1      -1.596  39.468  93.982  1.00  0.00    -0.000 C 
BRANCH  12  13
ATOM     13  C   UNL     1      -3.103  39.252  93.758  1.00  0.00    -0.000 C 
BRANCH  13  14
ATOM     14  C   UNL     1      -3.795  40.488  93.163  1.00  0.00    -0.000 C 
BRANCH  14  15
ATOM     15  C   UNL     1      -5.221  40.681  93.699  1.00  0.00    -0.003 C 
ATOM     16  C   UNL     1      -5.690  39.449  94.468  1.00  0.00     0.004 C 
ENDBRANCH  14  15
ENDBRANCH  13  14
ENDBRANCH  12  13
ENDBRANCH  11  12
ENDBRANCH  10  11
ENDBRANCH   1  10
TORSDOF 12
ENDMDL
