MODEL 1
REMARK VINA RESULT:    -7.401      0.000      0.000
REMARK INTER + INTRA:          -8.357
REMARK INTER:                  -8.266
REMARK INTRA:                  -0.091
REMARK UNBOUND:                -0.091
REMARK SMILES CC1(C)CC[C@]2(CO)CC=C3[C@](C)(CC[C@@H]4[C@@]5(C)CC[C@H](O)C(C)(C)[C@H]5CC[C@]34C)[C@@H]2C1
REMARK SMILES IDX 1 1 2 2 4 3 5 4 6 5 9 6 10 7 11 8 29 9 28 10 27 11 26 12
REMARK SMILES IDX 23 13 21 14 20 15 19 16 17 17 16 18 15 19 14 20 12 21 31 22
REMARK SMILES IDX 32 23 13 24 18 25 24 26 25 27 30 28 3 29 7 30 8 31 22 33
REMARK H PARENT 8 32 22 34
REMARK Flexibility Score: inf
ROOT
ATOM      1  C   UNL     1     139.423 134.106 150.994  1.00  0.00     0.011 C 
ATOM      2  C   UNL     1     140.117 133.207 149.948  1.00  0.00    -0.035 C 
ATOM      3  C   UNL     1     140.613 131.932 150.653  1.00  0.00     0.007 C 
ATOM      4  C   UNL     1     141.510 131.072 149.758  1.00  0.00     0.010 C 
ATOM      5  C   UNL     1     142.722 131.823 149.119  1.00  0.00     0.001 C 
ATOM      6  C   UNL     1     143.742 132.204 150.203  1.00  0.00     0.037 C 
ATOM      7  C   UNL     1     144.850 133.082 149.695  1.00  0.00    -0.026 C 
ATOM      8  C   UNL     1     144.749 134.006 148.687  1.00  0.00    -0.062 C 
ATOM      9  C   UNL     1     145.942 135.019 148.383  1.00  0.00    -0.008 C 
ATOM     10  C   UNL     1     146.747 134.526 147.166  1.00  0.00     0.012 C 
ATOM     11  C   UNL     1     147.916 135.441 146.804  1.00  0.00     0.006 C 
ATOM     12  C   UNL     1     147.509 136.909 146.462  1.00  0.00     0.003 C 
ATOM     13  C   UNL     1     148.794 137.805 146.127  1.00  0.00    -0.006 C 
ATOM     14  C   UNL     1     149.440 138.321 147.452  1.00  0.00     0.120 C 
ATOM     15  C   UNL     1     148.452 139.078 148.349  1.00  0.00     0.033 C 
ATOM     16  C   UNL     1     147.216 138.249 148.719  1.00  0.00     0.010 C 
ATOM     17  C   UNL     1     146.490 137.555 147.512  1.00  0.00    -0.025 C 
ATOM     18  C   UNL     1     145.402 136.480 148.048  1.00  0.00     0.005 C 
ATOM     19  C   UNL     1     144.178 136.384 147.082  1.00  0.00     0.006 C 
ATOM     20  C   UNL     1     143.067 135.471 147.592  1.00  0.00     0.012 C 
ATOM     21  C   UNL     1     143.478 133.992 147.789  1.00  0.00    -0.008 C 
ATOM     22  C   UNL     1     142.253 133.148 148.413  1.00  0.00     0.008 C 
ATOM     23  C   UNL     1     141.321 133.984 149.352  1.00  0.00     0.011 C 
ATOM     24  C   UNL     1     143.803 133.377 146.378  1.00  0.00     0.016 C 
ATOM     25  C   UNL     1     145.731 138.735 146.810  1.00  0.00     0.012 C 
ATOM     26  C   UNL     1     149.870 136.975 145.361  1.00  0.00     0.014 C 
ATOM     27  C   UNL     1     148.441 138.991 145.173  1.00  0.00     0.014 C 
ATOM     28  C   UNL     1     146.916 135.053 149.608  1.00  0.00     0.016 C 
ATOM     29  C   UNL     1     139.075 132.866 148.856  1.00  0.00     0.011 C 
ENDROOT
BRANCH   5  30
ATOM     30  C   UNL     1     143.396 130.823 148.123  1.00  0.00     0.163 C 
BRANCH  30  31
ATOM     31  O   UNL     1     143.575 129.558 148.707  1.00  0.00    -0.396 OA
ATOM     32  H   UNL     1     142.849 129.452 149.376  1.00  0.00     0.210 HD
ENDBRANCH  30  31
ENDBRANCH   5  30
BRANCH  14  33
ATOM     33  O   UNL     1     150.521 139.179 147.173  1.00  0.00    -0.393 OA
ATOM     34  H   UNL     1     151.007 138.802 146.391  1.00  0.00     0.210 HD
ENDBRANCH  14  33
TORSDOF 3
ENDMDL
MODEL 2
REMARK VINA RESULT:    -7.123      1.934      3.353
REMARK INTER + INTRA:          -8.047
REMARK INTER:                  -7.944
REMARK INTRA:                  -0.102
REMARK UNBOUND:                -0.091
REMARK SMILES CC1(C)CC[C@]2(CO)CC=C3[C@](C)(CC[C@@H]4[C@@]5(C)CC[C@H](O)C(C)(C)[C@H]5CC[C@]34C)[C@@H]2C1
REMARK SMILES IDX 1 1 2 2 4 3 5 4 6 5 9 6 10 7 11 8 29 9 28 10 27 11 26 12
REMARK SMILES IDX 23 13 21 14 20 15 19 16 17 17 16 18 15 19 14 20 12 21 31 22
REMARK SMILES IDX 32 23 13 24 18 25 24 26 25 27 30 28 3 29 7 30 8 31 22 33
REMARK H PARENT 8 32 22 34
REMARK Flexibility Score: inf
ROOT
ATOM      1  C   UNL     1     137.969 134.316 145.402  1.00  0.00     0.011 C 
ATOM      2  C   UNL     1     138.543 133.265 146.377  1.00  0.00    -0.035 C 
ATOM      3  C   UNL     1     137.759 133.348 147.699  1.00  0.00     0.007 C 
ATOM      4  C   UNL     1     138.387 132.506 148.812  1.00  0.00     0.010 C 
ATOM      5  C   UNL     1     139.900 132.787 149.082  1.00  0.00     0.001 C 
ATOM      6  C   UNL     1     140.080 134.185 149.694  1.00  0.00     0.037 C 
ATOM      7  C   UNL     1     141.518 134.599 149.819  1.00  0.00    -0.026 C 
ATOM      8  C   UNL     1     142.539 134.232 148.980  1.00  0.00    -0.062 C 
ATOM      9  C   UNL     1     143.979 134.906 149.101  1.00  0.00    -0.008 C 
ATOM     10  C   UNL     1     144.934 133.962 149.854  1.00  0.00     0.012 C 
ATOM     11  C   UNL     1     146.343 134.531 150.017  1.00  0.00     0.006 C 
ATOM     12  C   UNL     1     147.067 134.865 148.675  1.00  0.00     0.003 C 
ATOM     13  C   UNL     1     148.520 135.485 148.936  1.00  0.00    -0.006 C 
ATOM     14  C   UNL     1     148.399 137.017 149.220  1.00  0.00     0.120 C 
ATOM     15  C   UNL     1     147.660 137.778 148.112  1.00  0.00     0.033 C 
ATOM     16  C   UNL     1     146.251 137.236 147.844  1.00  0.00     0.010 C 
ATOM     17  C   UNL     1     146.161 135.681 147.640  1.00  0.00    -0.025 C 
ATOM     18  C   UNL     1     144.613 135.196 147.668  1.00  0.00     0.005 C 
ATOM     19  C   UNL     1     144.389 133.967 146.730  1.00  0.00     0.006 C 
ATOM     20  C   UNL     1     142.929 133.535 146.628  1.00  0.00     0.012 C 
ATOM     21  C   UNL     1     142.289 133.083 147.961  1.00  0.00    -0.008 C 
ATOM     22  C   UNL     1     140.728 132.738 147.746  1.00  0.00     0.008 C 
ATOM     23  C   UNL     1     140.039 133.591 146.628  1.00  0.00     0.011 C 
ATOM     24  C   UNL     1     143.002 131.761 148.430  1.00  0.00     0.016 C 
ATOM     25  C   UNL     1     146.732 135.463 146.195  1.00  0.00     0.012 C 
ATOM     26  C   UNL     1     149.197 134.822 150.175  1.00  0.00     0.014 C 
ATOM     27  C   UNL     1     149.493 135.208 147.745  1.00  0.00     0.014 C 
ATOM     28  C   UNL     1     143.865 136.225 149.936  1.00  0.00     0.016 C 
ATOM     29  C   UNL     1     138.375 131.874 145.720  1.00  0.00     0.011 C 
ENDROOT
BRANCH   5  30
ATOM     30  C   UNL     1     140.378 131.719 150.119  1.00  0.00     0.163 C 
BRANCH  30  31
ATOM     31  O   UNL     1     139.754 131.895 151.365  1.00  0.00    -0.396 OA
ATOM     32  H   UNL     1     140.319 131.423 152.031  1.00  0.00     0.210 HD
ENDBRANCH  30  31
ENDBRANCH   5  30
BRANCH  14  33
ATOM     33  O   UNL     1     149.674 137.593 149.369  1.00  0.00    -0.393 OA
ATOM     34  H   UNL     1     149.646 138.176 150.174  1.00  0.00     0.210 HD
ENDBRANCH  14  33
TORSDOF 3
ENDMDL
MODEL 3
REMARK VINA RESULT:    -6.979      2.261      8.421
REMARK INTER + INTRA:          -7.886
REMARK INTER:                  -7.801
REMARK INTRA:                  -0.085
REMARK UNBOUND:                -0.091
REMARK SMILES CC1(C)CC[C@]2(CO)CC=C3[C@](C)(CC[C@@H]4[C@@]5(C)CC[C@H](O)C(C)(C)[C@H]5CC[C@]34C)[C@@H]2C1
REMARK SMILES IDX 1 1 2 2 4 3 5 4 6 5 9 6 10 7 11 8 29 9 28 10 27 11 26 12
REMARK SMILES IDX 23 13 21 14 20 15 19 16 17 17 16 18 15 19 14 20 12 21 31 22
REMARK SMILES IDX 32 23 13 24 18 25 24 26 25 27 30 28 3 29 7 30 8 31 22 33
REMARK H PARENT 8 32 22 34
REMARK Flexibility Score: inf
ROOT
ATOM      1  C   UNL     1     149.050 135.115 151.432  1.00  0.00     0.011 C 
ATOM      2  C   UNL     1     148.607 135.164 149.954  1.00  0.00    -0.035 C 
ATOM      3  C   UNL     1     148.671 136.624 149.473  1.00  0.00     0.007 C 
ATOM      4  C   UNL     1     148.042 136.820 148.091  1.00  0.00     0.010 C 
ATOM      5  C   UNL     1     146.581 136.286 147.947  1.00  0.00     0.001 C 
ATOM      6  C   UNL     1     145.617 137.141 148.785  1.00  0.00     0.037 C 
ATOM      7  C   UNL     1     144.223 136.585 148.839  1.00  0.00    -0.026 C 
ATOM      8  C   UNL     1     143.882 135.257 148.794  1.00  0.00    -0.062 C 
ATOM      9  C   UNL     1     142.383 134.789 149.069  1.00  0.00    -0.008 C 
ATOM     10  C   UNL     1     141.675 134.496 147.733  1.00  0.00     0.012 C 
ATOM     11  C   UNL     1     140.226 134.040 147.904  1.00  0.00     0.006 C 
ATOM     12  C   UNL     1     140.051 132.744 148.756  1.00  0.00     0.003 C 
ATOM     13  C   UNL     1     138.505 132.356 148.912  1.00  0.00    -0.006 C 
ATOM     14  C   UNL     1     137.867 133.176 150.078  1.00  0.00     0.120 C 
ATOM     15  C   UNL     1     138.618 133.017 151.407  1.00  0.00     0.033 C 
ATOM     16  C   UNL     1     140.099 133.404 151.313  1.00  0.00     0.010 C 
ATOM     17  C   UNL     1     140.886 132.752 150.120  1.00  0.00    -0.025 C 
ATOM     18  C   UNL     1     142.335 133.459 149.945  1.00  0.00     0.005 C 
ATOM     19  C   UNL     1     143.400 132.442 149.425  1.00  0.00     0.006 C 
ATOM     20  C   UNL     1     144.810 133.021 149.348  1.00  0.00     0.012 C 
ATOM     21  C   UNL     1     144.969 134.222 148.386  1.00  0.00    -0.008 C 
ATOM     22  C   UNL     1     146.473 134.802 148.456  1.00  0.00     0.008 C 
ATOM     23  C   UNL     1     147.149 134.640 149.860  1.00  0.00     0.011 C 
ATOM     24  C   UNL     1     144.729 133.716 146.916  1.00  0.00     0.016 C 
ATOM     25  C   UNL     1     141.100 131.269 150.584  1.00  0.00     0.012 C 
ATOM     26  C   UNL     1     137.712 132.682 147.609  1.00  0.00     0.014 C 
ATOM     27  C   UNL     1     138.311 130.821 149.131  1.00  0.00     0.014 C 
ATOM     28  C   UNL     1     141.599 135.947 149.773  1.00  0.00     0.016 C 
ATOM     29  C   UNL     1     149.576 134.271 149.143  1.00  0.00     0.011 C 
ENDROOT
BRANCH   5  30
ATOM     30  C   UNL     1     146.197 136.427 146.438  1.00  0.00     0.163 C 
BRANCH  30  31
ATOM     31  O   UNL     1     146.707 137.614 145.886  1.00  0.00    -0.396 OA
ATOM     32  H   UNL     1     147.507 137.852 146.423  1.00  0.00     0.210 HD
ENDBRANCH  30  31
ENDBRANCH   5  30
BRANCH  14  33
ATOM     33  O   UNL     1     136.530 132.786 150.283  1.00  0.00    -0.393 OA
ATOM     34  H   UNL     1     135.951 133.462 149.840  1.00  0.00     0.210 HD
ENDBRANCH  14  33
TORSDOF 3
ENDMDL
MODEL 4
REMARK VINA RESULT:    -6.830      1.660      8.138
REMARK INTER + INTRA:          -7.720
REMARK INTER:                  -7.640
REMARK INTRA:                  -0.080
REMARK UNBOUND:                -0.091
REMARK SMILES CC1(C)CC[C@]2(CO)CC=C3[C@](C)(CC[C@@H]4[C@@]5(C)CC[C@H](O)C(C)(C)[C@H]5CC[C@]34C)[C@@H]2C1
REMARK SMILES IDX 1 1 2 2 4 3 5 4 6 5 9 6 10 7 11 8 29 9 28 10 27 11 26 12
REMARK SMILES IDX 23 13 21 14 20 15 19 16 17 17 16 18 15 19 14 20 12 21 31 22
REMARK SMILES IDX 32 23 13 24 18 25 24 26 25 27 30 28 3 29 7 30 8 31 22 33
REMARK H PARENT 8 32 22 34
REMARK Flexibility Score: inf
ROOT
ATOM      1  C   UNL     1     147.805 139.647 145.796  1.00  0.00     0.011 C 
ATOM      2  C   UNL     1     148.323 138.602 146.807  1.00  0.00    -0.035 C 
ATOM      3  C   UNL     1     149.300 137.662 146.078  1.00  0.00     0.007 C 
ATOM      4  C   UNL     1     149.703 136.454 146.928  1.00  0.00     0.010 C 
ATOM      5  C   UNL     1     148.513 135.625 147.508  1.00  0.00     0.001 C 
ATOM      6  C   UNL     1     147.770 134.898 146.377  1.00  0.00     0.037 C 
ATOM      7  C   UNL     1     146.508 134.222 146.833  1.00  0.00    -0.026 C 
ATOM      8  C   UNL     1     145.686 134.647 147.845  1.00  0.00    -0.062 C 
ATOM      9  C   UNL     1     144.271 133.957 148.092  1.00  0.00    -0.008 C 
ATOM     10  C   UNL     1     144.371 132.968 149.269  1.00  0.00     0.012 C 
ATOM     11  C   UNL     1     143.053 132.258 149.576  1.00  0.00     0.006 C 
ATOM     12  C   UNL     1     141.871 133.212 149.938  1.00  0.00     0.003 C 
ATOM     13  C   UNL     1     140.524 132.390 150.212  1.00  0.00    -0.006 C 
ATOM     14  C   UNL     1     139.814 132.069 148.858  1.00  0.00     0.120 C 
ATOM     15  C   UNL     1     139.541 133.318 148.010  1.00  0.00     0.033 C 
ATOM     16  C   UNL     1     140.808 134.124 147.698  1.00  0.00     0.010 C 
ATOM     17  C   UNL     1     141.715 134.451 148.939  1.00  0.00    -0.025 C 
ATOM     18  C   UNL     1     143.150 135.030 148.454  1.00  0.00     0.005 C 
ATOM     19  C   UNL     1     143.717 136.064 149.477  1.00  0.00     0.006 C 
ATOM     20  C   UNL     1     145.013 136.729 149.020  1.00  0.00     0.012 C 
ATOM     21  C   UNL     1     146.199 135.760 148.803  1.00  0.00    -0.008 C 
ATOM     22  C   UNL     1     147.480 136.561 148.238  1.00  0.00     0.008 C 
ATOM     23  C   UNL     1     147.113 137.794 147.345  1.00  0.00     0.011 C 
ATOM     24  C   UNL     1     146.603 135.151 150.196  1.00  0.00     0.016 C 
ATOM     25  C   UNL     1     140.933 135.593 149.677  1.00  0.00     0.012 C 
ATOM     26  C   UNL     1     140.830 131.036 150.924  1.00  0.00     0.014 C 
ATOM     27  C   UNL     1     139.567 133.152 151.183  1.00  0.00     0.014 C 
ATOM     28  C   UNL     1     143.866 133.136 146.822  1.00  0.00     0.016 C 
ATOM     29  C   UNL     1     149.039 139.366 147.947  1.00  0.00     0.011 C 
ENDROOT
BRANCH   5  30
ATOM     30  C   UNL     1     149.134 134.560 148.470  1.00  0.00     0.163 C 
BRANCH  30  31
ATOM     31  O   UNL     1     150.513 134.764 148.643  1.00  0.00    -0.396 OA
ATOM     32  H   UNL     1     150.915 134.743 147.735  1.00  0.00     0.210 HD
ENDBRANCH  30  31
ENDBRANCH   5  30
BRANCH  14  33
ATOM     33  O   UNL     1     138.586 131.420 149.086  1.00  0.00    -0.393 OA
ATOM     34  H   UNL     1     138.687 130.477 148.787  1.00  0.00     0.210 HD
ENDBRANCH  14  33
TORSDOF 3
ENDMDL
MODEL 5
REMARK VINA RESULT:    -6.779      1.677      8.563
REMARK INTER + INTRA:          -7.663
REMARK INTER:                  -7.585
REMARK INTRA:                  -0.077
REMARK UNBOUND:                -0.091
REMARK SMILES CC1(C)CC[C@]2(CO)CC=C3[C@](C)(CC[C@@H]4[C@@]5(C)CC[C@H](O)C(C)(C)[C@H]5CC[C@]34C)[C@@H]2C1
REMARK SMILES IDX 1 1 2 2 4 3 5 4 6 5 9 6 10 7 11 8 29 9 28 10 27 11 26 12
REMARK SMILES IDX 23 13 21 14 20 15 19 16 17 17 16 18 15 19 14 20 12 21 31 22
REMARK SMILES IDX 32 23 13 24 18 25 24 26 25 27 30 28 3 29 7 30 8 31 22 33
REMARK H PARENT 8 32 22 34
REMARK Flexibility Score: inf
ROOT
ATOM      1  C   UNL     1     151.171 137.844 143.992  1.00  0.00     0.011 C 
ATOM      2  C   UNL     1     150.518 138.696 145.101  1.00  0.00    -0.035 C 
ATOM      3  C   UNL     1     151.455 138.709 146.322  1.00  0.00     0.007 C 
ATOM      4  C   UNL     1     150.807 139.340 147.558  1.00  0.00     0.010 C 
ATOM      5  C   UNL     1     149.426 138.733 147.964  1.00  0.00     0.001 C 
ATOM      6  C   UNL     1     149.607 137.298 148.482  1.00  0.00     0.037 C 
ATOM      7  C   UNL     1     148.307 136.585 148.726  1.00  0.00    -0.026 C 
ATOM      8  C   UNL     1     147.140 136.775 148.030  1.00  0.00    -0.062 C 
ATOM      9  C   UNL     1     145.892 135.809 148.251  1.00  0.00    -0.008 C 
ATOM     10  C   UNL     1     144.862 136.489 149.172  1.00  0.00     0.012 C 
ATOM     11  C   UNL     1     143.627 135.629 149.438  1.00  0.00     0.006 C 
ATOM     12  C   UNL     1     142.831 135.224 148.159  1.00  0.00     0.003 C 
ATOM     13  C   UNL     1     141.575 134.300 148.524  1.00  0.00    -0.006 C 
ATOM     14  C   UNL     1     142.036 132.815 148.674  1.00  0.00     0.120 C 
ATOM     15  C   UNL     1     142.775 132.286 147.438  1.00  0.00     0.033 C 
ATOM     16  C   UNL     1     144.004 133.125 147.065  1.00  0.00     0.010 C 
ATOM     17  C   UNL     1     143.753 134.673 146.974  1.00  0.00    -0.025 C 
ATOM     18  C   UNL     1     145.162 135.470 146.875  1.00  0.00     0.005 C 
ATOM     19  C   UNL     1     145.019 136.767 146.017  1.00  0.00     0.006 C 
ATOM     20  C   UNL     1     146.339 137.500 145.794  1.00  0.00     0.012 C 
ATOM     21  C   UNL     1     147.030 138.004 147.083  1.00  0.00    -0.008 C 
ATOM     22  C   UNL     1     148.451 138.680 146.730  1.00  0.00     0.008 C 
ATOM     23  C   UNL     1     149.159 138.051 145.483  1.00  0.00     0.011 C 
ATOM     24  C   UNL     1     146.125 139.120 147.726  1.00  0.00     0.016 C 
ATOM     25  C   UNL     1     142.981 134.843 145.619  1.00  0.00     0.012 C 
ATOM     26  C   UNL     1     140.931 134.739 149.875  1.00  0.00     0.014 C 
ATOM     27  C   UNL     1     140.431 134.431 147.468  1.00  0.00     0.014 C 
ATOM     28  C   UNL     1     146.369 134.500 148.965  1.00  0.00     0.016 C 
ATOM     29  C   UNL     1     150.321 140.125 144.540  1.00  0.00     0.011 C 
ENDROOT
BRANCH   5  30
ATOM     30  C   UNL     1     148.869 139.621 149.125  1.00  0.00     0.163 C 
BRANCH  30  31
ATOM     31  O   UNL     1     149.878 140.413 149.697  1.00  0.00    -0.396 OA
ATOM     32  H   UNL     1     150.527 140.607 148.971  1.00  0.00     0.210 HD
ENDBRANCH  30  31
ENDBRANCH   5  30
BRANCH  14  33
ATOM     33  O   UNL     1     140.931 131.976 148.913  1.00  0.00    -0.393 OA
ATOM     34  H   UNL     1     141.284 131.080 149.158  1.00  0.00     0.210 HD
ENDBRANCH  14  33
TORSDOF 3
ENDMDL
MODEL 6
REMARK VINA RESULT:    -6.719      2.652      3.585
REMARK INTER + INTRA:          -7.596
REMARK INTER:                  -7.477
REMARK INTRA:                  -0.119
REMARK UNBOUND:                -0.091
REMARK SMILES CC1(C)CC[C@]2(CO)CC=C3[C@](C)(CC[C@@H]4[C@@]5(C)CC[C@H](O)C(C)(C)[C@H]5CC[C@]34C)[C@@H]2C1
REMARK SMILES IDX 1 1 2 2 4 3 5 4 6 5 9 6 10 7 11 8 29 9 28 10 27 11 26 12
REMARK SMILES IDX 23 13 21 14 20 15 19 16 17 17 16 18 15 19 14 20 12 21 31 22
REMARK SMILES IDX 32 23 13 24 18 25 24 26 25 27 30 28 3 29 7 30 8 31 22 33
REMARK H PARENT 8 32 22 34
REMARK Flexibility Score: inf
ROOT
ATOM      1  C   UNL     1     136.964 136.050 145.003  1.00  0.00     0.011 C 
ATOM      2  C   UNL     1     137.780 134.740 144.962  1.00  0.00    -0.035 C 
ATOM      3  C   UNL     1     137.258 133.806 146.069  1.00  0.00     0.007 C 
ATOM      4  C   UNL     1     138.139 132.570 146.264  1.00  0.00     0.010 C 
ATOM      5  C   UNL     1     139.654 132.868 146.503  1.00  0.00     0.001 C 
ATOM      6  C   UNL     1     139.855 133.538 147.872  1.00  0.00     0.037 C 
ATOM      7  C   UNL     1     141.261 134.015 148.099  1.00  0.00    -0.026 C 
ATOM      8  C   UNL     1     142.126 134.466 147.135  1.00  0.00    -0.062 C 
ATOM      9  C   UNL     1     143.515 135.139 147.533  1.00  0.00    -0.008 C 
ATOM     10  C   UNL     1     144.656 134.118 147.363  1.00  0.00     0.012 C 
ATOM     11  C   UNL     1     146.030 134.681 147.725  1.00  0.00     0.006 C 
ATOM     12  C   UNL     1     146.462 135.925 146.888  1.00  0.00     0.003 C 
ATOM     13  C   UNL     1     147.895 136.469 147.353  1.00  0.00    -0.006 C 
ATOM     14  C   UNL     1     147.730 137.398 148.598  1.00  0.00     0.120 C 
ATOM     15  C   UNL     1     146.747 138.551 148.363  1.00  0.00     0.033 C 
ATOM     16  C   UNL     1     145.351 138.077 147.941  1.00  0.00     0.010 C 
ATOM     17  C   UNL     1     145.325 137.042 146.761  1.00  0.00    -0.025 C 
ATOM     18  C   UNL     1     143.846 136.394 146.609  1.00  0.00     0.005 C 
ATOM     19  C   UNL     1     143.529 136.053 145.118  1.00  0.00     0.006 C 
ATOM     20  C   UNL     1     142.107 135.545 144.897  1.00  0.00     0.012 C 
ATOM     21  C   UNL     1     141.762 134.232 145.640  1.00  0.00    -0.008 C 
ATOM     22  C   UNL     1     140.214 133.843 145.404  1.00  0.00     0.008 C 
ATOM     23  C   UNL     1     139.272 135.080 145.218  1.00  0.00     0.011 C 
ATOM     24  C   UNL     1     142.636 133.074 145.032  1.00  0.00     0.016 C 
ATOM     25  C   UNL     1     145.624 137.918 145.494  1.00  0.00     0.012 C 
ATOM     26  C   UNL     1     148.837 135.293 147.756  1.00  0.00     0.014 C 
ATOM     27  C   UNL     1     148.640 137.207 146.194  1.00  0.00     0.014 C 
ATOM     28  C   UNL     1     143.476 135.554 149.042  1.00  0.00     0.016 C 
ATOM     29  C   UNL     1     137.582 134.106 143.565  1.00  0.00     0.011 C 
ENDROOT
BRANCH   5  30
ATOM     30  C   UNL     1     140.389 131.488 146.505  1.00  0.00     0.163 C 
BRANCH  30  31
ATOM     31  O   UNL     1     139.994 130.693 145.417  1.00  0.00    -0.396 OA
ATOM     32  H   UNL     1     139.700 131.319 144.705  1.00  0.00     0.210 HD
ENDBRANCH  30  31
ENDBRANCH   5  30
BRANCH  14  33
ATOM     33  O   UNL     1     148.971 137.951 148.969  1.00  0.00    -0.393 OA
ATOM     34  H   UNL     1     149.347 138.405 148.167  1.00  0.00     0.210 HD
ENDBRANCH  14  33
TORSDOF 3
ENDMDL
MODEL 7
REMARK VINA RESULT:    -6.702      7.067      9.555
REMARK INTER + INTRA:          -7.577
REMARK INTER:                  -7.487
REMARK INTRA:                  -0.091
REMARK UNBOUND:                -0.091
REMARK SMILES CC1(C)CC[C@]2(CO)CC=C3[C@](C)(CC[C@@H]4[C@@]5(C)CC[C@H](O)C(C)(C)[C@H]5CC[C@]34C)[C@@H]2C1
REMARK SMILES IDX 1 1 2 2 4 3 5 4 6 5 9 6 10 7 11 8 29 9 28 10 27 11 26 12
REMARK SMILES IDX 23 13 21 14 20 15 19 16 17 17 16 18 15 19 14 20 12 21 31 22
REMARK SMILES IDX 32 23 13 24 18 25 24 26 25 27 30 28 3 29 7 30 8 31 22 33
REMARK H PARENT 8 32 22 34
REMARK Flexibility Score: inf
ROOT
ATOM      1  C   UNL     1     135.163 129.269 149.771  1.00  0.00     0.011 C 
ATOM      2  C   UNL     1     136.568 129.911 149.731  1.00  0.00    -0.035 C 
ATOM      3  C   UNL     1     136.538 131.201 150.569  1.00  0.00     0.007 C 
ATOM      4  C   UNL     1     137.814 132.034 150.417  1.00  0.00     0.010 C 
ATOM      5  C   UNL     1     138.212 132.374 148.945  1.00  0.00     0.001 C 
ATOM      6  C   UNL     1     137.199 133.355 148.334  1.00  0.00     0.037 C 
ATOM      7  C   UNL     1     137.413 133.593 146.867  1.00  0.00    -0.026 C 
ATOM      8  C   UNL     1     137.910 132.686 145.966  1.00  0.00    -0.062 C 
ATOM      9  C   UNL     1     137.893 132.994 144.402  1.00  0.00    -0.008 C 
ATOM     10  C   UNL     1     139.290 133.453 143.946  1.00  0.00     0.012 C 
ATOM     11  C   UNL     1     139.365 133.771 142.453  1.00  0.00     0.006 C 
ATOM     12  C   UNL     1     138.997 132.578 141.516  1.00  0.00     0.003 C 
ATOM     13  C   UNL     1     139.069 133.006 139.975  1.00  0.00    -0.006 C 
ATOM     14  C   UNL     1     137.738 133.708 139.557  1.00  0.00     0.120 C 
ATOM     15  C   UNL     1     136.493 132.858 139.841  1.00  0.00     0.033 C 
ATOM     16  C   UNL     1     136.367 132.446 141.313  1.00  0.00     0.010 C 
ATOM     17  C   UNL     1     137.659 131.814 141.943  1.00  0.00    -0.025 C 
ATOM     18  C   UNL     1     137.506 131.702 143.554  1.00  0.00     0.005 C 
ATOM     19  C   UNL     1     138.267 130.456 144.109  1.00  0.00     0.006 C 
ATOM     20  C   UNL     1     138.067 130.233 145.605  1.00  0.00     0.012 C 
ATOM     21  C   UNL     1     138.570 131.385 146.507  1.00  0.00    -0.008 C 
ATOM     22  C   UNL     1     138.224 131.079 148.053  1.00  0.00     0.008 C 
ATOM     23  C   UNL     1     136.914 130.245 148.256  1.00  0.00     0.011 C 
ATOM     24  C   UNL     1     140.136 131.464 146.382  1.00  0.00     0.016 C 
ATOM     25  C   UNL     1     137.694 130.367 141.338  1.00  0.00     0.012 C 
ATOM     26  C   UNL     1     140.237 134.009 139.726  1.00  0.00     0.014 C 
ATOM     27  C   UNL     1     139.377 131.786 139.048  1.00  0.00     0.014 C 
ATOM     28  C   UNL     1     136.896 134.166 144.116  1.00  0.00     0.016 C 
ATOM     29  C   UNL     1     137.567 128.889 150.324  1.00  0.00     0.011 C 
ENDROOT
BRANCH   5  30
ATOM     30  C   UNL     1     139.611 133.069 149.007  1.00  0.00     0.163 C 
BRANCH  30  31
ATOM     31  O   UNL     1     139.655 134.050 150.010  1.00  0.00    -0.396 OA
ATOM     32  H   UNL     1     140.334 133.749 150.668  1.00  0.00     0.210 HD
ENDBRANCH  30  31
ENDBRANCH   5  30
BRANCH  14  33
ATOM     33  O   UNL     1     137.751 134.016 138.184  1.00  0.00    -0.393 OA
ATOM     34  H   UNL     1     136.809 134.155 137.899  1.00  0.00     0.210 HD
ENDBRANCH  14  33
TORSDOF 3
ENDMDL
MODEL 8
REMARK VINA RESULT:    -6.583      5.393      9.380
REMARK INTER + INTRA:          -7.444
REMARK INTER:                  -7.345
REMARK INTRA:                  -0.100
REMARK UNBOUND:                -0.091
REMARK SMILES CC1(C)CC[C@]2(CO)CC=C3[C@](C)(CC[C@@H]4[C@@]5(C)CC[C@H](O)C(C)(C)[C@H]5CC[C@]34C)[C@@H]2C1
REMARK SMILES IDX 1 1 2 2 4 3 5 4 6 5 9 6 10 7 11 8 29 9 28 10 27 11 26 12
REMARK SMILES IDX 23 13 21 14 20 15 19 16 17 17 16 18 15 19 14 20 12 21 31 22
REMARK SMILES IDX 32 23 13 24 18 25 24 26 25 27 30 28 3 29 7 30 8 31 22 33
REMARK H PARENT 8 32 22 34
REMARK Flexibility Score: inf
ROOT
ATOM      1  C   UNL     1     139.262 132.011 138.621  1.00  0.00     0.011 C 
ATOM      2  C   UNL     1     139.782 133.340 139.209  1.00  0.00    -0.035 C 
ATOM      3  C   UNL     1     141.272 133.481 138.850  1.00  0.00     0.007 C 
ATOM      4  C   UNL     1     141.945 134.654 139.570  1.00  0.00     0.010 C 
ATOM      5  C   UNL     1     141.778 134.660 141.123  1.00  0.00     0.001 C 
ATOM      6  C   UNL     1     142.565 133.497 141.748  1.00  0.00     0.037 C 
ATOM      7  C   UNL     1     142.312 133.331 143.219  1.00  0.00    -0.026 C 
ATOM      8  C   UNL     1     141.141 133.615 143.873  1.00  0.00    -0.062 C 
ATOM      9  C   UNL     1     140.935 133.199 145.398  1.00  0.00    -0.008 C 
ATOM     10  C   UNL     1     141.151 134.423 146.307  1.00  0.00     0.012 C 
ATOM     11  C   UNL     1     140.973 134.113 147.793  1.00  0.00     0.006 C 
ATOM     12  C   UNL     1     139.565 133.559 148.175  1.00  0.00     0.003 C 
ATOM     13  C   UNL     1     139.475 133.231 149.741  1.00  0.00    -0.006 C 
ATOM     14  C   UNL     1     140.077 131.817 150.020  1.00  0.00     0.120 C 
ATOM     15  C   UNL     1     139.428 130.709 149.181  1.00  0.00     0.033 C 
ATOM     16  C   UNL     1     139.513 130.967 147.672  1.00  0.00     0.010 C 
ATOM     17  C   UNL     1     139.047 132.394 147.210  1.00  0.00    -0.025 C 
ATOM     18  C   UNL     1     139.462 132.652 145.664  1.00  0.00     0.005 C 
ATOM     19  C   UNL     1     138.420 133.565 144.944  1.00  0.00     0.006 C 
ATOM     20  C   UNL     1     138.696 133.751 143.454  1.00  0.00     0.012 C 
ATOM     21  C   UNL     1     140.047 134.428 143.123  1.00  0.00    -0.008 C 
ATOM     22  C   UNL     1     140.267 134.489 141.526  1.00  0.00     0.008 C 
ATOM     23  C   UNL     1     139.611 133.297 140.751  1.00  0.00     0.011 C 
ATOM     24  C   UNL     1     140.000 135.910 143.648  1.00  0.00     0.016 C 
ATOM     25  C   UNL     1     137.483 132.321 147.308  1.00  0.00     0.012 C 
ATOM     26  C   UNL     1     140.284 134.269 150.577  1.00  0.00     0.014 C 
ATOM     27  C   UNL     1     138.010 133.335 150.272  1.00  0.00     0.014 C 
ATOM     28  C   UNL     1     142.006 132.127 145.792  1.00  0.00     0.016 C 
ATOM     29  C   UNL     1     138.951 134.487 138.585  1.00  0.00     0.011 C 
ENDROOT
BRANCH   5  30
ATOM     30  C   UNL     1     142.382 136.009 141.634  1.00  0.00     0.163 C 
BRANCH  30  31
ATOM     31  O   UNL     1     143.739 136.127 141.293  1.00  0.00    -0.396 OA
ATOM     32  H   UNL     1     143.766 136.441 140.352  1.00  0.00     0.210 HD
ENDBRANCH  30  31
ENDBRANCH   5  30
BRANCH  14  33
ATOM     33  O   UNL     1     139.930 131.478 151.379  1.00  0.00    -0.393 OA
ATOM     34  H   UNL     1     140.843 131.367 151.759  1.00  0.00     0.210 HD
ENDBRANCH  14  33
TORSDOF 3
ENDMDL
MODEL 9
REMARK VINA RESULT:    -6.424      4.552      9.574
REMARK INTER + INTRA:          -7.266
REMARK INTER:                  -7.171
REMARK INTRA:                  -0.096
REMARK UNBOUND:                -0.091
REMARK SMILES CC1(C)CC[C@]2(CO)CC=C3[C@](C)(CC[C@@H]4[C@@]5(C)CC[C@H](O)C(C)(C)[C@H]5CC[C@]34C)[C@@H]2C1
REMARK SMILES IDX 1 1 2 2 4 3 5 4 6 5 9 6 10 7 11 8 29 9 28 10 27 11 26 12
REMARK SMILES IDX 23 13 21 14 20 15 19 16 17 17 16 18 15 19 14 20 12 21 31 22
REMARK SMILES IDX 32 23 13 24 18 25 24 26 25 27 30 28 3 29 7 30 8 31 22 33
REMARK H PARENT 8 32 22 34
REMARK Flexibility Score: inf
ROOT
ATOM      1  C   UNL     1     142.028 139.410 144.258  1.00  0.00     0.011 C 
ATOM      2  C   UNL     1     142.541 138.019 143.826  1.00  0.00    -0.035 C 
ATOM      3  C   UNL     1     142.085 137.759 142.379  1.00  0.00     0.007 C 
ATOM      4  C   UNL     1     142.348 136.320 141.925  1.00  0.00     0.010 C 
ATOM      5  C   UNL     1     141.767 135.214 142.864  1.00  0.00     0.001 C 
ATOM      6  C   UNL     1     140.232 135.219 142.804  1.00  0.00     0.037 C 
ATOM      7  C   UNL     1     139.595 134.304 143.811  1.00  0.00    -0.026 C 
ATOM      8  C   UNL     1     140.096 133.994 145.050  1.00  0.00    -0.062 C 
ATOM      9  C   UNL     1     139.223 133.175 146.102  1.00  0.00    -0.008 C 
ATOM     10  C   UNL     1     139.665 131.700 146.111  1.00  0.00     0.012 C 
ATOM     11  C   UNL     1     138.876 130.838 147.096  1.00  0.00     0.006 C 
ATOM     12  C   UNL     1     138.967 131.304 148.583  1.00  0.00     0.003 C 
ATOM     13  C   UNL     1     138.088 130.368 149.541  1.00  0.00    -0.006 C 
ATOM     14  C   UNL     1     136.597 130.835 149.514  1.00  0.00     0.120 C 
ATOM     15  C   UNL     1     136.423 132.316 149.872  1.00  0.00     0.033 C 
ATOM     16  C   UNL     1     137.227 133.255 148.963  1.00  0.00     0.010 C 
ATOM     17  C   UNL     1     138.740 132.875 148.780  1.00  0.00    -0.025 C 
ATOM     18  C   UNL     1     139.400 133.743 147.580  1.00  0.00     0.005 C 
ATOM     19  C   UNL     1     140.909 134.035 147.858  1.00  0.00     0.006 C 
ATOM     20  C   UNL     1     141.557 134.945 146.819  1.00  0.00     0.012 C 
ATOM     21  C   UNL     1     141.566 134.383 145.377  1.00  0.00    -0.008 C 
ATOM     22  C   UNL     1     142.192 135.465 144.357  1.00  0.00     0.008 C 
ATOM     23  C   UNL     1     141.930 136.952 144.772  1.00  0.00     0.011 C 
ATOM     24  C   UNL     1     142.496 133.115 145.346  1.00  0.00     0.016 C 
ATOM     25  C   UNL     1     139.396 133.309 150.137  1.00  0.00     0.012 C 
ATOM     26  C   UNL     1     138.132 128.883 149.066  1.00  0.00     0.014 C 
ATOM     27  C   UNL     1     138.645 130.345 151.000  1.00  0.00     0.014 C 
ATOM     28  C   UNL     1     137.719 133.213 145.669  1.00  0.00     0.016 C 
ATOM     29  C   UNL     1     144.085 138.036 143.925  1.00  0.00     0.011 C 
ENDROOT
BRANCH   5  30
ATOM     30  C   UNL     1     142.288 133.844 142.319  1.00  0.00     0.163 C 
BRANCH  30  31
ATOM     31  O   UNL     1     143.500 133.993 141.625  1.00  0.00    -0.396 OA
ATOM     32  H   UNL     1     143.532 133.261 140.956  1.00  0.00     0.210 HD
ENDBRANCH  30  31
ENDBRANCH   5  30
BRANCH  14  33
ATOM     33  O   UNL     1     135.826 130.076 150.414  1.00  0.00    -0.393 OA
ATOM     34  H   UNL     1     134.915 129.988 150.027  1.00  0.00     0.210 HD
ENDBRANCH  14  33
TORSDOF 3
ENDMDL
