MODEL 1
REMARK VINA RESULT:    -4.871      0.000      0.000
REMARK INTER + INTRA:          -8.143
REMARK INTER:                  -7.577
REMARK INTRA:                  -0.566
REMARK UNBOUND:                -0.566
REMARK SMILES COc1cc(CNC(=O)CCCCC=CC(C)C)ccc1O
REMARK SMILES IDX 11 1 12 2 13 3 14 4 15 5 16 6 17 7 18 8 10 9 8 10 9 11 7 12
REMARK SMILES IDX 6 14 5 15 4 16 19 17 3 18 20 19 21 20 2 21 1 22 22 23
REMARK H PARENT 7 13 22 24
REMARK Flexibility Score: inf
ROOT
ATOM      1  C   UNL     1      -9.396 -51.806  29.835  1.00  0.00     0.010 C 
ENDROOT
BRANCH   1   2
ATOM      2  C   UNL     1      -9.226 -51.045  28.509  1.00  0.00     0.005 C 
BRANCH   2   3
ATOM      3  C   UNL     1      -8.204 -49.905  28.617  1.00  0.00     0.027 C 
BRANCH   3   4
ATOM      4  C   UNL     1      -8.806 -48.526  28.477  1.00  0.00    -0.031 C 
ATOM      5  C   UNL     1      -8.177 -47.328  28.472  1.00  0.00    -0.028 C 
BRANCH   5   6
ATOM      6  C   UNL     1      -6.692 -47.000  28.486  1.00  0.00     0.005 C 
ATOM      7  C   UNL     1      -5.967 -47.652  27.303  1.00  0.00     0.012 C 
ATOM      8  C   UNL     1      -5.961 -47.234  29.811  1.00  0.00     0.012 C 
ENDBRANCH   5   6
ENDBRANCH   3   4
ENDBRANCH   2   3
ENDBRANCH   1   2
BRANCH   1   9
ATOM      9  C   UNL     1     -10.323 -53.020  29.696  1.00  0.00     0.100 C 
BRANCH   9  10
ATOM     10  C   UNL     1     -11.387 -53.030  30.756  1.00  0.00     0.220 C 
ATOM     11  O   UNL     1     -12.374 -53.804  30.633  1.00  0.00    -0.275 OA
ATOM     12  N   UNL     1     -11.300 -52.136  31.874  1.00  0.00    -0.352 N 
ATOM     13  H   UNL     1     -10.480 -51.494  31.949  1.00  0.00     0.163 HD
BRANCH  12  14
ATOM     14  C   UNL     1     -12.348 -52.042  32.888  1.00  0.00     0.151 C 
BRANCH  14  15
ATOM     15  C   UNL     1     -11.811 -52.427  34.241  1.00  0.00    -0.025 A 
ATOM     16  C   UNL     1     -12.650 -52.392  35.366  1.00  0.00     0.056 A 
ATOM     17  C   UNL     1     -10.472 -52.818  34.390  1.00  0.00     0.009 A 
ATOM     18  C   UNL     1     -12.159 -52.749  36.638  1.00  0.00     0.160 A 
ATOM     19  C   UNL     1      -9.980 -53.174  35.649  1.00  0.00     0.050 A 
ATOM     20  C   UNL     1     -10.820 -53.140  36.771  1.00  0.00     0.157 A 
BRANCH  18  21
ATOM     21  O   UNL     1     -12.968 -52.727  37.786  1.00  0.00    -0.493 OA
ATOM     22  C   UNL     1     -13.952 -51.734  38.059  1.00  0.00     0.278 C 
ENDBRANCH  18  21
BRANCH  20  23
ATOM     23  O   UNL     1     -10.327 -53.496  38.026  1.00  0.00    -0.504 OA
ATOM     24  H   UNL     1      -9.666 -52.910  38.523  1.00  0.00     0.293 HD
ENDBRANCH  20  23
ENDBRANCH  14  15
ENDBRANCH  12  14
ENDBRANCH   9  10
ENDBRANCH   1   9
TORSDOF 10
ENDMDL
MODEL 2
REMARK VINA RESULT:    -4.689      5.348      9.270
REMARK INTER + INTRA:          -7.859
REMARK INTER:                  -7.277
REMARK INTRA:                  -0.582
REMARK UNBOUND:                -0.566
REMARK SMILES COc1cc(CNC(=O)CCCCC=CC(C)C)ccc1O
REMARK SMILES IDX 11 1 12 2 13 3 14 4 15 5 16 6 17 7 18 8 10 9 8 10 9 11 7 12
REMARK SMILES IDX 6 14 5 15 4 16 19 17 3 18 20 19 21 20 2 21 1 22 22 23
REMARK H PARENT 7 13 22 24
REMARK Flexibility Score: inf
ROOT
ATOM      1  C   UNL     1      -9.575 -52.135  29.463  1.00  0.00     0.010 C 
ENDROOT
BRANCH   1   2
ATOM      2  C   UNL     1      -8.904 -50.790  29.793  1.00  0.00     0.005 C 
BRANCH   2   3
ATOM      3  C   UNL     1      -8.379 -50.077  28.540  1.00  0.00     0.027 C 
BRANCH   3   4
ATOM      4  C   UNL     1      -8.886 -48.663  28.381  1.00  0.00    -0.031 C 
ATOM      5  C   UNL     1      -8.178 -47.510  28.366  1.00  0.00    -0.028 C 
BRANCH   5   6
ATOM      6  C   UNL     1      -6.675 -47.281  28.386  1.00  0.00     0.005 C 
ATOM      7  C   UNL     1      -5.993 -47.961  27.193  1.00  0.00     0.012 C 
ATOM      8  C   UNL     1      -5.964 -47.586  29.708  1.00  0.00     0.012 C 
ENDBRANCH   5   6
ENDBRANCH   3   4
ENDBRANCH   2   3
ENDBRANCH   1   2
BRANCH   1   9
ATOM      9  C   UNL     1      -9.532 -52.458  27.965  1.00  0.00     0.100 C 
BRANCH   9  10
ATOM     10  C   UNL     1     -10.802 -53.110  27.500  1.00  0.00     0.220 C 
ATOM     11  O   UNL     1     -11.066 -54.285  27.872  1.00  0.00    -0.275 OA
ATOM     12  N   UNL     1     -11.684 -52.415  26.609  1.00  0.00    -0.352 N 
ATOM     13  H   UNL     1     -11.440 -51.446  26.303  1.00  0.00     0.163 HD
BRANCH  12  14
ATOM     14  C   UNL     1     -12.889 -53.032  26.057  1.00  0.00     0.151 C 
BRANCH  14  15
ATOM     15  C   UNL     1     -12.637 -53.524  24.657  1.00  0.00    -0.025 A 
ATOM     16  C   UNL     1     -13.497 -53.146  23.613  1.00  0.00     0.056 A 
ATOM     17  C   UNL     1     -11.547 -54.364  24.383  1.00  0.00     0.009 A 
ATOM     18  C   UNL     1     -13.272 -53.601  22.298  1.00  0.00     0.160 A 
ATOM     19  C   UNL     1     -11.319 -54.817  23.081  1.00  0.00     0.050 A 
ATOM     20  C   UNL     1     -12.178 -54.438  22.040  1.00  0.00     0.157 A 
BRANCH  18  21
ATOM     21  O   UNL     1     -14.110 -53.243  21.229  1.00  0.00    -0.493 OA
ATOM     22  C   UNL     1     -15.354 -52.565  21.373  1.00  0.00     0.278 C 
ENDBRANCH  18  21
BRANCH  20  23
ATOM     23  O   UNL     1     -11.948 -54.890  20.741  1.00  0.00    -0.504 OA
ATOM     24  H   UNL     1     -11.069 -55.321  20.477  1.00  0.00     0.293 HD
ENDBRANCH  20  23
ENDBRANCH  14  15
ENDBRANCH  12  14
ENDBRANCH   9  10
ENDBRANCH   1   9
TORSDOF 10
ENDMDL
MODEL 3
REMARK VINA RESULT:    -4.676      5.345      9.244
REMARK INTER + INTRA:          -7.839
REMARK INTER:                  -7.148
REMARK INTRA:                  -0.691
REMARK UNBOUND:                -0.566
REMARK SMILES COc1cc(CNC(=O)CCCCC=CC(C)C)ccc1O
REMARK SMILES IDX 11 1 12 2 13 3 14 4 15 5 16 6 17 7 18 8 10 9 8 10 9 11 7 12
REMARK SMILES IDX 6 14 5 15 4 16 19 17 3 18 20 19 21 20 2 21 1 22 22 23
REMARK H PARENT 7 13 22 24
REMARK Flexibility Score: inf
ROOT
ATOM      1  C   UNL     1      -9.723 -52.140  29.362  1.00  0.00     0.010 C 
ENDROOT
BRANCH   1   2
ATOM      2  C   UNL     1      -8.883 -50.921  29.778  1.00  0.00     0.005 C 
BRANCH   2   3
ATOM      3  C   UNL     1      -8.326 -50.155  28.570  1.00  0.00     0.027 C 
BRANCH   3   4
ATOM      4  C   UNL     1      -8.882 -48.759  28.419  1.00  0.00    -0.031 C 
ATOM      5  C   UNL     1      -8.212 -47.584  28.368  1.00  0.00    -0.028 C 
BRANCH   5   6
ATOM      6  C   UNL     1      -6.716 -47.310  28.330  1.00  0.00     0.005 C 
ATOM      7  C   UNL     1      -6.073 -47.910  27.075  1.00  0.00     0.012 C 
ATOM      8  C   UNL     1      -5.934 -47.655  29.601  1.00  0.00     0.012 C 
ENDBRANCH   5   6
ENDBRANCH   3   4
ENDBRANCH   2   3
ENDBRANCH   1   2
BRANCH   1   9
ATOM      9  C   UNL     1      -9.659 -52.406  27.853  1.00  0.00     0.100 C 
BRANCH   9  10
ATOM     10  C   UNL     1     -10.893 -53.104  27.359  1.00  0.00     0.220 C 
ATOM     11  O   UNL     1     -11.203 -54.227  27.842  1.00  0.00    -0.275 OA
ATOM     12  N   UNL     1     -11.687 -52.517  26.320  1.00  0.00    -0.352 N 
ATOM     13  H   UNL     1     -11.405 -51.592  25.925  1.00  0.00     0.163 HD
BRANCH  12  14
ATOM     14  C   UNL     1     -12.848 -53.191  25.742  1.00  0.00     0.151 C 
BRANCH  14  15
ATOM     15  C   UNL     1     -12.509 -53.761  24.390  1.00  0.00    -0.025 A 
ATOM     16  C   UNL     1     -11.791 -54.964  24.294  1.00  0.00     0.056 A 
ATOM     17  C   UNL     1     -12.905 -53.098  23.219  1.00  0.00     0.009 A 
ATOM     18  C   UNL     1     -11.467 -55.507  23.035  1.00  0.00     0.160 A 
ATOM     19  C   UNL     1     -12.587 -53.633  21.968  1.00  0.00     0.050 A 
ATOM     20  C   UNL     1     -11.870 -54.834  21.873  1.00  0.00     0.157 A 
BRANCH  18  21
ATOM     21  O   UNL     1     -10.750 -56.707  22.899  1.00  0.00    -0.493 OA
ATOM     22  C   UNL     1     -10.314 -57.512  23.990  1.00  0.00     0.278 C 
ENDBRANCH  18  21
BRANCH  20  23
ATOM     23  O   UNL     1     -11.556 -55.366  20.624  1.00  0.00    -0.504 OA
ATOM     24  H   UNL     1     -11.949 -54.986  19.770  1.00  0.00     0.293 HD
ENDBRANCH  20  23
ENDBRANCH  14  15
ENDBRANCH  12  14
ENDBRANCH   9  10
ENDBRANCH   1   9
TORSDOF 10
ENDMDL
MODEL 4
REMARK VINA RESULT:    -4.346      6.254     10.023
REMARK INTER + INTRA:          -7.326
REMARK INTER:                  -6.507
REMARK INTRA:                  -0.819
REMARK UNBOUND:                -0.566
REMARK SMILES COc1cc(CNC(=O)CCCCC=CC(C)C)ccc1O
REMARK SMILES IDX 11 1 12 2 13 3 14 4 15 5 16 6 17 7 18 8 10 9 8 10 9 11 7 12
REMARK SMILES IDX 6 14 5 15 4 16 19 17 3 18 20 19 21 20 2 21 1 22 22 23
REMARK H PARENT 7 13 22 24
REMARK Flexibility Score: inf
ROOT
ATOM      1  C   UNL     1      -9.385 -53.139  28.169  1.00  0.00     0.010 C 
ENDROOT
BRANCH   1   2
ATOM      2  C   UNL     1     -10.443 -52.060  27.883  1.00  0.00     0.005 C 
BRANCH   2   3
ATOM      3  C   UNL     1      -9.847 -50.646  27.870  1.00  0.00     0.027 C 
BRANCH   3   4
ATOM      4  C   UNL     1      -8.719 -50.447  28.857  1.00  0.00    -0.031 C 
ATOM      5  C   UNL     1      -7.815 -49.442  28.912  1.00  0.00    -0.028 C 
BRANCH   5   6
ATOM      6  C   UNL     1      -7.718 -48.164  28.094  1.00  0.00     0.005 C 
ATOM      7  C   UNL     1      -6.333 -48.018  27.453  1.00  0.00     0.012 C 
ATOM      8  C   UNL     1      -8.168 -46.878  28.794  1.00  0.00     0.012 C 
ENDBRANCH   5   6
ENDBRANCH   3   4
ENDBRANCH   2   3
ENDBRANCH   1   2
BRANCH   1   9
ATOM      9  C   UNL     1      -8.813 -53.752  26.885  1.00  0.00     0.100 C 
BRANCH   9  10
ATOM     10  C   UNL     1      -9.822 -54.613  26.183  1.00  0.00     0.220 C 
ATOM     11  O   UNL     1     -10.504 -55.437  26.852  1.00  0.00    -0.275 OA
ATOM     12  N   UNL     1      -9.978 -54.528  24.760  1.00  0.00    -0.352 N 
ATOM     13  H   UNL     1      -9.394 -53.848  24.224  1.00  0.00     0.163 HD
BRANCH  12  14
ATOM     14  C   UNL     1     -10.882 -55.402  24.016  1.00  0.00     0.151 C 
BRANCH  14  15
ATOM     15  C   UNL     1     -12.040 -54.616  23.460  1.00  0.00    -0.025 A 
ATOM     16  C   UNL     1     -12.227 -54.527  22.071  1.00  0.00     0.056 A 
ATOM     17  C   UNL     1     -12.936 -53.966  24.321  1.00  0.00     0.009 A 
ATOM     18  C   UNL     1     -13.306 -53.793  21.539  1.00  0.00     0.160 A 
ATOM     19  C   UNL     1     -14.008 -53.237  23.799  1.00  0.00     0.050 A 
ATOM     20  C   UNL     1     -14.195 -53.150  22.412  1.00  0.00     0.157 A 
BRANCH  18  21
ATOM     21  O   UNL     1     -13.527 -53.682  20.157  1.00  0.00    -0.493 OA
ATOM     22  C   UNL     1     -13.917 -54.762  19.315  1.00  0.00     0.278 C 
ENDBRANCH  18  21
BRANCH  20  23
ATOM     23  O   UNL     1     -15.267 -52.424  21.893  1.00  0.00    -0.504 OA
ATOM     24  H   UNL     1     -15.148 -51.788  21.113  1.00  0.00     0.293 HD
ENDBRANCH  20  23
ENDBRANCH  14  15
ENDBRANCH  12  14
ENDBRANCH   9  10
ENDBRANCH   1   9
TORSDOF 10
ENDMDL
MODEL 5
REMARK VINA RESULT:    -4.229      3.643      8.945
REMARK INTER + INTRA:          -7.144
REMARK INTER:                  -6.003
REMARK INTRA:                  -1.141
REMARK UNBOUND:                -0.566
REMARK SMILES COc1cc(CNC(=O)CCCCC=CC(C)C)ccc1O
REMARK SMILES IDX 11 1 12 2 13 3 14 4 15 5 16 6 17 7 18 8 10 9 8 10 9 11 7 12
REMARK SMILES IDX 6 14 5 15 4 16 19 17 3 18 20 19 21 20 2 21 1 22 22 23
REMARK H PARENT 7 13 22 24
REMARK Flexibility Score: inf
ROOT
ATOM      1  C   UNL     1     -10.569 -53.656  33.758  1.00  0.00     0.010 C 
ENDROOT
BRANCH   1   2
ATOM      2  C   UNL     1     -10.031 -52.854  34.955  1.00  0.00     0.005 C 
BRANCH   2   3
ATOM      3  C   UNL     1      -9.895 -53.712  36.220  1.00  0.00     0.027 C 
BRANCH   3   4
ATOM      4  C   UNL     1     -10.573 -53.124  37.436  1.00  0.00    -0.031 C 
ATOM      5  C   UNL     1     -11.881 -52.822  37.609  1.00  0.00    -0.028 C 
BRANCH   5   6
ATOM      6  C   UNL     1     -13.075 -53.080  36.704  1.00  0.00     0.005 C 
ATOM      7  C   UNL     1     -13.630 -51.772  36.129  1.00  0.00     0.012 C 
ATOM      8  C   UNL     1     -14.179 -53.971  37.280  1.00  0.00     0.012 C 
ENDBRANCH   5   6
ENDBRANCH   3   4
ENDBRANCH   2   3
ENDBRANCH   1   2
BRANCH   1   9
ATOM      9  C   UNL     1     -11.788 -52.990  33.109  1.00  0.00     0.100 C 
BRANCH   9  10
ATOM     10  C   UNL     1     -11.484 -52.508  31.720  1.00  0.00     0.220 C 
ATOM     11  O   UNL     1     -12.434 -52.195  30.952  1.00  0.00    -0.275 OA
ATOM     12  N   UNL     1     -10.128 -52.444  31.260  1.00  0.00    -0.352 N 
ATOM     13  H   UNL     1      -9.356 -52.720  31.908  1.00  0.00     0.163 HD
BRANCH  12  14
ATOM     14  C   UNL     1      -9.779 -52.065  29.892  1.00  0.00     0.151 C 
BRANCH  14  15
ATOM     15  C   UNL     1      -9.549 -53.290  29.047  1.00  0.00    -0.025 A 
ATOM     16  C   UNL     1      -9.677 -53.214  27.650  1.00  0.00     0.056 A 
ATOM     17  C   UNL     1      -9.208 -54.513  29.643  1.00  0.00     0.009 A 
ATOM     18  C   UNL     1      -9.465 -54.353  26.848  1.00  0.00     0.160 A 
ATOM     19  C   UNL     1      -8.996 -55.645  28.853  1.00  0.00     0.050 A 
ATOM     20  C   UNL     1      -9.123 -55.568  27.459  1.00  0.00     0.157 A 
BRANCH  18  21
ATOM     21  O   UNL     1      -9.584 -54.317  25.450  1.00  0.00    -0.493 OA
ATOM     22  C   UNL     1     -10.817 -54.415  24.743  1.00  0.00     0.278 C 
ENDBRANCH  18  21
BRANCH  20  23
ATOM     23  O   UNL     1      -8.909 -56.699  26.672  1.00  0.00    -0.504 OA
ATOM     24  H   UNL     1      -7.981 -57.082  26.534  1.00  0.00     0.293 HD
ENDBRANCH  20  23
ENDBRANCH  14  15
ENDBRANCH  12  14
ENDBRANCH   9  10
ENDBRANCH   1   9
TORSDOF 10
ENDMDL
MODEL 6
REMARK VINA RESULT:    -4.198      5.473      7.610
REMARK INTER + INTRA:          -7.095
REMARK INTER:                  -6.446
REMARK INTRA:                  -0.648
REMARK UNBOUND:                -0.566
REMARK SMILES COc1cc(CNC(=O)CCCCC=CC(C)C)ccc1O
REMARK SMILES IDX 11 1 12 2 13 3 14 4 15 5 16 6 17 7 18 8 10 9 8 10 9 11 7 12
REMARK SMILES IDX 6 14 5 15 4 16 19 17 3 18 20 19 21 20 2 21 1 22 22 23
REMARK H PARENT 7 13 22 24
REMARK Flexibility Score: inf
ROOT
ATOM      1  C   UNL     1      -9.621 -52.185  29.298  1.00  0.00     0.010 C 
ENDROOT
BRANCH   1   2
ATOM      2  C   UNL     1      -8.983 -50.877  29.796  1.00  0.00     0.005 C 
BRANCH   2   3
ATOM      3  C   UNL     1      -8.310 -50.088  28.665  1.00  0.00     0.027 C 
BRANCH   3   4
ATOM      4  C   UNL     1      -8.887 -48.707  28.454  1.00  0.00    -0.031 C 
ATOM      5  C   UNL     1      -8.234 -47.524  28.375  1.00  0.00    -0.028 C 
BRANCH   5   6
ATOM      6  C   UNL     1      -6.743 -47.225  28.356  1.00  0.00     0.005 C 
ATOM      7  C   UNL     1      -6.067 -47.849  27.129  1.00  0.00     0.012 C 
ATOM      8  C   UNL     1      -5.979 -47.522  29.649  1.00  0.00     0.012 C 
ENDBRANCH   5   6
ENDBRANCH   3   4
ENDBRANCH   2   3
ENDBRANCH   1   2
BRANCH   1   9
ATOM      9  C   UNL     1      -9.337 -52.445  27.813  1.00  0.00     0.100 C 
BRANCH   9  10
ATOM     10  C   UNL     1      -9.774 -53.820  27.397  1.00  0.00     0.220 C 
ATOM     11  O   UNL     1     -11.001 -54.110  27.412  1.00  0.00    -0.275 OA
ATOM     12  N   UNL     1      -8.800 -54.805  27.027  1.00  0.00    -0.352 N 
ATOM     13  H   UNL     1      -7.787 -54.547  27.034  1.00  0.00     0.163 HD
BRANCH  12  14
ATOM     14  C   UNL     1      -9.161 -56.182  26.697  1.00  0.00     0.151 C 
BRANCH  14  15
ATOM     15  C   UNL     1      -8.523 -57.142  27.665  1.00  0.00    -0.025 A 
ATOM     16  C   UNL     1      -7.802 -58.248  27.186  1.00  0.00     0.056 A 
ATOM     17  C   UNL     1      -8.643 -56.944  29.048  1.00  0.00     0.009 A 
ATOM     18  C   UNL     1      -7.201 -59.155  28.081  1.00  0.00     0.160 A 
ATOM     19  C   UNL     1      -8.048 -57.839  29.941  1.00  0.00     0.050 A 
ATOM     20  C   UNL     1      -7.328 -58.943  29.461  1.00  0.00     0.157 A 
BRANCH  18  21
ATOM     21  O   UNL     1      -6.472 -60.271  27.640  1.00  0.00    -0.493 OA
ATOM     22  C   UNL     1      -5.943 -60.419  26.326  1.00  0.00     0.278 C 
ENDBRANCH  18  21
BRANCH  20  23
ATOM     23  O   UNL     1      -6.734 -59.834  30.354  1.00  0.00    -0.504 OA
ATOM     24  H   UNL     1      -6.185 -59.510  31.142  1.00  0.00     0.293 HD
ENDBRANCH  20  23
ENDBRANCH  14  15
ENDBRANCH  12  14
ENDBRANCH   9  10
ENDBRANCH   1   9
TORSDOF 10
ENDMDL
MODEL 7
REMARK VINA RESULT:    -4.140      7.059     11.607
REMARK INTER + INTRA:          -7.005
REMARK INTER:                  -5.566
REMARK INTRA:                  -1.439
REMARK UNBOUND:                -0.566
REMARK SMILES COc1cc(CNC(=O)CCCCC=CC(C)C)ccc1O
REMARK SMILES IDX 11 1 12 2 13 3 14 4 15 5 16 6 17 7 18 8 10 9 8 10 9 11 7 12
REMARK SMILES IDX 6 14 5 15 4 16 19 17 3 18 20 19 21 20 2 21 1 22 22 23
REMARK H PARENT 7 13 22 24
REMARK Flexibility Score: inf
ROOT
ATOM      1  C   UNL     1      -9.534 -54.064  28.191  1.00  0.00     0.010 C 
ENDROOT
BRANCH   1   2
ATOM      2  C   UNL     1      -8.990 -54.792  26.950  1.00  0.00     0.005 C 
BRANCH   2   3
ATOM      3  C   UNL     1      -9.688 -56.137  26.708  1.00  0.00     0.027 C 
BRANCH   3   4
ATOM      4  C   UNL     1      -8.741 -57.311  26.615  1.00  0.00    -0.031 C 
ATOM      5  C   UNL     1      -8.673 -58.265  25.658  1.00  0.00    -0.028 C 
BRANCH   5   6
ATOM      6  C   UNL     1      -9.428 -58.393  24.344  1.00  0.00     0.005 C 
ATOM      7  C   UNL     1     -10.802 -59.038  24.553  1.00  0.00     0.012 C 
ATOM      8  C   UNL     1      -8.659 -59.033  23.184  1.00  0.00     0.012 C 
ENDBRANCH   5   6
ENDBRANCH   3   4
ENDBRANCH   2   3
ENDBRANCH   1   2
BRANCH   1   9
ATOM      9  C   UNL     1     -10.250 -52.756  27.834  1.00  0.00     0.100 C 
BRANCH   9  10
ATOM     10  C   UNL     1     -11.535 -53.009  27.100  1.00  0.00     0.220 C 
ATOM     11  O   UNL     1     -12.527 -53.467  27.730  1.00  0.00    -0.275 OA
ATOM     12  N   UNL     1     -11.619 -52.770  25.689  1.00  0.00    -0.352 N 
ATOM     13  H   UNL     1     -10.781 -52.403  25.184  1.00  0.00     0.163 HD
BRANCH  12  14
ATOM     14  C   UNL     1     -12.816 -53.079  24.910  1.00  0.00     0.151 C 
BRANCH  14  15
ATOM     15  C   UNL     1     -12.454 -53.852  23.669  1.00  0.00    -0.025 A 
ATOM     16  C   UNL     1     -12.998 -53.483  22.428  1.00  0.00     0.056 A 
ATOM     17  C   UNL     1     -11.576 -54.944  23.741  1.00  0.00     0.009 A 
ATOM     18  C   UNL     1     -12.668 -54.199  21.259  1.00  0.00     0.160 A 
ATOM     19  C   UNL     1     -11.245 -55.656  22.586  1.00  0.00     0.050 A 
ATOM     20  C   UNL     1     -11.788 -55.287  21.347  1.00  0.00     0.157 A 
BRANCH  18  21
ATOM     21  O   UNL     1     -13.191 -53.860  20.001  1.00  0.00    -0.493 OA
ATOM     22  C   UNL     1     -14.545 -54.065  19.610  1.00  0.00     0.278 C 
ENDBRANCH  18  21
BRANCH  20  23
ATOM     23  O   UNL     1     -11.455 -55.998  20.195  1.00  0.00    -0.504 OA
ATOM     24  H   UNL     1     -11.952 -56.840  19.929  1.00  0.00     0.293 HD
ENDBRANCH  20  23
ENDBRANCH  14  15
ENDBRANCH  12  14
ENDBRANCH   9  10
ENDBRANCH   1   9
TORSDOF 10
ENDMDL
MODEL 8
REMARK VINA RESULT:    -4.024      5.228      7.850
REMARK INTER + INTRA:          -6.824
REMARK INTER:                  -4.759
REMARK INTRA:                  -2.065
REMARK UNBOUND:                -0.566
REMARK SMILES COc1cc(CNC(=O)CCCCC=CC(C)C)ccc1O
REMARK SMILES IDX 11 1 12 2 13 3 14 4 15 5 16 6 17 7 18 8 10 9 8 10 9 11 7 12
REMARK SMILES IDX 6 14 5 15 4 16 19 17 3 18 20 19 21 20 2 21 1 22 22 23
REMARK H PARENT 7 13 22 24
REMARK Flexibility Score: inf
ROOT
ATOM      1  C   UNL     1     -13.988 -54.405  23.749  1.00  0.00     0.010 C 
ENDROOT
BRANCH   1   2
ATOM      2  C   UNL     1     -12.884 -54.417  22.679  1.00  0.00     0.005 C 
BRANCH   2   3
ATOM      3  C   UNL     1     -11.614 -55.133  23.158  1.00  0.00     0.027 C 
BRANCH   3   4
ATOM      4  C   UNL     1     -10.868 -54.398  24.247  1.00  0.00    -0.031 C 
ATOM      5  C   UNL     1     -10.404 -54.878  25.424  1.00  0.00    -0.028 C 
BRANCH   5   6
ATOM      6  C   UNL     1     -10.382 -56.301  25.962  1.00  0.00     0.005 C 
ATOM      7  C   UNL     1     -11.744 -56.696  26.544  1.00  0.00     0.012 C 
ATOM      8  C   UNL     1      -9.228 -56.646  26.908  1.00  0.00     0.012 C 
ENDBRANCH   5   6
ENDBRANCH   3   4
ENDBRANCH   2   3
ENDBRANCH   1   2
BRANCH   1   9
ATOM      9  C   UNL     1     -14.718 -53.058  23.822  1.00  0.00     0.100 C 
BRANCH   9  10
ATOM     10  C   UNL     1     -14.544 -52.404  25.161  1.00  0.00     0.220 C 
ATOM     11  O   UNL     1     -15.338 -51.488  25.510  1.00  0.00    -0.275 OA
ATOM     12  N   UNL     1     -13.460 -52.789  26.017  1.00  0.00    -0.352 N 
ATOM     13  H   UNL     1     -12.806 -53.541  25.703  1.00  0.00     0.163 HD
BRANCH  12  14
ATOM     14  C   UNL     1     -13.192 -52.128  27.292  1.00  0.00     0.151 C 
BRANCH  14  15
ATOM     15  C   UNL     1     -11.988 -52.736  27.961  1.00  0.00    -0.025 A 
ATOM     16  C   UNL     1     -12.137 -53.862  28.787  1.00  0.00     0.056 A 
ATOM     17  C   UNL     1     -10.713 -52.186  27.769  1.00  0.00     0.009 A 
ATOM     18  C   UNL     1     -11.019 -54.440  29.420  1.00  0.00     0.160 A 
ATOM     19  C   UNL     1      -9.600 -52.756  28.393  1.00  0.00     0.050 A 
ATOM     20  C   UNL     1      -9.750 -53.880  29.216  1.00  0.00     0.157 A 
BRANCH  18  21
ATOM     21  O   UNL     1     -11.129 -55.566  30.252  1.00  0.00    -0.493 OA
ATOM     22  C   UNL     1     -11.622 -55.535  31.588  1.00  0.00     0.278 C 
ENDBRANCH  18  21
BRANCH  20  23
ATOM     23  O   UNL     1      -8.638 -54.448  29.837  1.00  0.00    -0.504 OA
ATOM     24  H   UNL     1      -7.812 -54.709  29.311  1.00  0.00     0.293 HD
ENDBRANCH  20  23
ENDBRANCH  14  15
ENDBRANCH  12  14
ENDBRANCH   9  10
ENDBRANCH   1   9
TORSDOF 10
ENDMDL
MODEL 9
REMARK VINA RESULT:    -3.980      3.817      8.605
REMARK INTER + INTRA:          -6.756
REMARK INTER:                  -4.252
REMARK INTRA:                  -2.504
REMARK UNBOUND:                -0.566
REMARK SMILES COc1cc(CNC(=O)CCCCC=CC(C)C)ccc1O
REMARK SMILES IDX 11 1 12 2 13 3 14 4 15 5 16 6 17 7 18 8 10 9 8 10 9 11 7 12
REMARK SMILES IDX 6 14 5 15 4 16 19 17 3 18 20 19 21 20 2 21 1 22 22 23
REMARK H PARENT 7 13 22 24
REMARK Flexibility Score: inf
ROOT
ATOM      1  C   UNL     1     -12.314 -53.668  33.519  1.00  0.00     0.010 C 
ENDROOT
BRANCH   1   2
ATOM      2  C   UNL     1     -12.703 -55.143  33.319  1.00  0.00     0.005 C 
BRANCH   2   3
ATOM      3  C   UNL     1     -13.928 -55.306  32.411  1.00  0.00     0.027 C 
BRANCH   3   4
ATOM      4  C   UNL     1     -13.786 -54.639  31.063  1.00  0.00    -0.031 C 
ATOM      5  C   UNL     1     -13.013 -55.009  30.016  1.00  0.00    -0.028 C 
BRANCH   5   6
ATOM      6  C   UNL     1     -12.150 -56.247  29.823  1.00  0.00     0.005 C 
ATOM      7  C   UNL     1     -10.710 -55.998  30.283  1.00  0.00     0.012 C 
ATOM      8  C   UNL     1     -12.210 -56.901  28.439  1.00  0.00     0.012 C 
ENDBRANCH   5   6
ENDBRANCH   3   4
ENDBRANCH   2   3
ENDBRANCH   1   2
BRANCH   1   9
ATOM      9  C   UNL     1     -10.891 -53.368  33.033  1.00  0.00     0.100 C 
BRANCH   9  10
ATOM     10  C   UNL     1     -10.894 -52.491  31.814  1.00  0.00     0.220 C 
ATOM     11  O   UNL     1     -11.905 -51.778  31.568  1.00  0.00    -0.275 OA
ATOM     12  N   UNL     1      -9.774 -52.497  30.919  1.00  0.00    -0.352 N 
ATOM     13  H   UNL     1      -8.952 -53.105  31.135  1.00  0.00     0.163 HD
BRANCH  12  14
ATOM     14  C   UNL     1      -9.759 -51.730  29.675  1.00  0.00     0.151 C 
BRANCH  14  15
ATOM     15  C   UNL     1     -10.174 -52.596  28.515  1.00  0.00    -0.025 A 
ATOM     16  C   UNL     1      -9.316 -53.604  28.048  1.00  0.00     0.056 A 
ATOM     17  C   UNL     1     -11.415 -52.402  27.891  1.00  0.00     0.009 A 
ATOM     18  C   UNL     1      -9.692 -54.420  26.962  1.00  0.00     0.160 A 
ATOM     19  C   UNL     1     -11.794 -53.209  26.815  1.00  0.00     0.050 A 
ATOM     20  C   UNL     1     -10.937 -54.216  26.350  1.00  0.00     0.157 A 
BRANCH  18  21
ATOM     21  O   UNL     1      -8.861 -55.438  26.468  1.00  0.00    -0.493 OA
ATOM     22  C   UNL     1      -8.748 -56.736  27.044  1.00  0.00     0.278 C 
ENDBRANCH  18  21
BRANCH  20  23
ATOM     23  O   UNL     1     -11.317 -55.021  25.277  1.00  0.00    -0.504 OA
ATOM     24  H   UNL     1     -12.206 -55.509  25.268  1.00  0.00     0.293 HD
ENDBRANCH  20  23
ENDBRANCH  14  15
ENDBRANCH  12  14
ENDBRANCH   9  10
ENDBRANCH   1   9
TORSDOF 10
ENDMDL
