MODEL 1
REMARK VINA RESULT:    -1.315      0.000      0.000
REMARK INTER + INTRA:          -2.869
REMARK INTER:                  -2.238
REMARK INTRA:                  -0.631
REMARK UNBOUND:                -0.631
REMARK SMILES CCCCCCCCCCCCCC(=O)[O-]
REMARK SMILES IDX 8 1 9 2 10 3 11 4 12 5 13 6 14 7 15 8 16 9 7 10 6 11 5 12
REMARK SMILES IDX 4 13 3 14 2 15 1 16
REMARK H PARENT
REMARK Flexibility Score: inf
ROOT
ATOM      1  C   UNL     1       3.985  44.750  11.013  1.00  0.00     0.000 C 
ENDROOT
BRANCH   1   2
ATOM      2  C   UNL     1       5.061  44.767   9.913  1.00  0.00     0.000 C 
BRANCH   2   3
ATOM      3  C   UNL     1       5.968  43.524   9.959  1.00  0.00     0.000 C 
BRANCH   3   4
ATOM      4  C   UNL     1       7.447  43.880  10.180  1.00  0.00     0.000 C 
BRANCH   4   5
ATOM      5  C   UNL     1       7.861  43.807  11.659  1.00  0.00     0.006 C 
BRANCH   5   6
ATOM      6  C   UNL     1       7.724  42.388  12.229  1.00  0.00     0.053 C 
BRANCH   6   7
ATOM      7  C   UNL     1       6.857  42.359  13.451  1.00  0.00     0.041 C 
ATOM      8  O   UNL     1       7.081  41.525  14.367  1.00  0.00    -0.550 OA
ATOM      9  O   UNL     1       5.784  43.234  13.565  1.00  0.00    -0.550 OA
ENDBRANCH   6   7
ENDBRANCH   5   6
ENDBRANCH   4   5
ENDBRANCH   3   4
ENDBRANCH   2   3
ENDBRANCH   1   2
BRANCH   1  10
ATOM     10  C   UNL     1       2.672  44.102  10.542  1.00  0.00     0.000 C 
BRANCH  10  11
ATOM     11  C   UNL     1       1.875  43.460  11.693  1.00  0.00    -0.000 C 
BRANCH  11  12
ATOM     12  C   UNL     1       1.314  44.451  12.731  1.00  0.00    -0.000 C 
BRANCH  12  13
ATOM     13  C   UNL     1       0.006  44.012  13.413  1.00  0.00    -0.000 C 
BRANCH  13  14
ATOM     14  C   UNL     1      -0.657  45.119  14.261  1.00  0.00    -0.000 C 
BRANCH  14  15
ATOM     15  C   UNL     1      -2.074  44.742  14.716  1.00  0.00    -0.003 C 
ATOM     16  C   UNL     1      -2.293  43.233  14.639  1.00  0.00     0.004 C 
ENDBRANCH  14  15
ENDBRANCH  13  14
ENDBRANCH  12  13
ENDBRANCH  11  12
ENDBRANCH  10  11
ENDBRANCH   1  10
TORSDOF 12
ENDMDL
MODEL 2
REMARK VINA RESULT:    -1.060      3.273      7.336
REMARK INTER + INTRA:          -2.435
REMARK INTER:                  -1.845
REMARK INTRA:                  -0.590
REMARK UNBOUND:                -0.631
REMARK SMILES CCCCCCCCCCCCCC(=O)[O-]
REMARK SMILES IDX 8 1 9 2 10 3 11 4 12 5 13 6 14 7 15 8 16 9 7 10 6 11 5 12
REMARK SMILES IDX 4 13 3 14 2 15 1 16
REMARK H PARENT
REMARK Flexibility Score: inf
ROOT
ATOM      1  C   UNL     1       3.730  43.944  11.913  1.00  0.00     0.000 C 
ENDROOT
BRANCH   1   2
ATOM      2  C   UNL     1       2.841  43.092  10.990  1.00  0.00     0.000 C 
BRANCH   2   3
ATOM      3  C   UNL     1       1.344  43.409  11.159  1.00  0.00     0.000 C 
BRANCH   3   4
ATOM      4  C   UNL     1       1.055  44.242  12.418  1.00  0.00     0.000 C 
BRANCH   4   5
ATOM      5  C   UNL     1      -0.166  43.730  13.202  1.00  0.00     0.006 C 
BRANCH   5   6
ATOM      6  C   UNL     1      -0.846  44.846  14.006  1.00  0.00     0.053 C 
BRANCH   6   7
ATOM      7  C   UNL     1      -2.069  44.353  14.720  1.00  0.00     0.041 C 
ATOM      8  O   UNL     1      -2.714  45.125  15.476  1.00  0.00    -0.550 OA
ATOM      9  O   UNL     1      -2.478  43.034  14.572  1.00  0.00    -0.550 OA
ENDBRANCH   6   7
ENDBRANCH   5   6
ENDBRANCH   4   5
ENDBRANCH   3   4
ENDBRANCH   2   3
ENDBRANCH   1   2
BRANCH   1  10
ATOM     10  C   UNL     1       4.441  45.081  11.159  1.00  0.00     0.000 C 
BRANCH  10  11
ATOM     11  C   UNL     1       5.156  44.597   9.883  1.00  0.00    -0.000 C 
BRANCH  11  12
ATOM     12  C   UNL     1       6.688  44.486   9.996  1.00  0.00    -0.000 C 
BRANCH  12  13
ATOM     13  C   UNL     1       7.224  44.270  11.423  1.00  0.00    -0.000 C 
BRANCH  13  14
ATOM     14  C   UNL     1       7.796  42.857  11.666  1.00  0.00    -0.000 C 
BRANCH  14  15
ATOM     15  C   UNL     1       7.477  42.328  13.072  1.00  0.00    -0.003 C 
ATOM     16  C   UNL     1       6.139  42.866  13.572  1.00  0.00     0.004 C 
ENDBRANCH  14  15
ENDBRANCH  13  14
ENDBRANCH  12  13
ENDBRANCH  11  12
ENDBRANCH  10  11
ENDBRANCH   1  10
TORSDOF 12
ENDMDL
MODEL 3
REMARK VINA RESULT:    -0.864      1.286      1.981
REMARK INTER + INTRA:          -2.101
REMARK INTER:                  -1.507
REMARK INTRA:                  -0.594
REMARK UNBOUND:                -0.631
REMARK SMILES CCCCCCCCCCCCCC(=O)[O-]
REMARK SMILES IDX 8 1 9 2 10 3 11 4 12 5 13 6 14 7 15 8 16 9 7 10 6 11 5 12
REMARK SMILES IDX 4 13 3 14 2 15 1 16
REMARK H PARENT
REMARK Flexibility Score: inf
ROOT
ATOM      1  C   UNL     1       2.174  43.171  10.673  1.00  0.00     0.000 C 
ENDROOT
BRANCH   1   2
ATOM      2  C   UNL     1       3.437  43.565   9.887  1.00  0.00     0.000 C 
BRANCH   2   3
ATOM      3  C   UNL     1       4.086  44.853  10.425  1.00  0.00     0.000 C 
BRANCH   3   4
ATOM      4  C   UNL     1       5.553  45.000   9.991  1.00  0.00     0.000 C 
BRANCH   4   5
ATOM      5  C   UNL     1       6.532  44.929  11.175  1.00  0.00     0.006 C 
BRANCH   5   6
ATOM      6  C   UNL     1       7.671  43.930  10.925  1.00  0.00     0.053 C 
BRANCH   6   7
ATOM      7  C   UNL     1       7.455  42.642  11.659  1.00  0.00     0.041 C 
ATOM      8  O   UNL     1       7.213  42.650  12.894  1.00  0.00    -0.550 OA
ATOM      9  O   UNL     1       7.550  41.431  10.985  1.00  0.00    -0.550 OA
ENDBRANCH   6   7
ENDBRANCH   5   6
ENDBRANCH   4   5
ENDBRANCH   3   4
ENDBRANCH   2   3
ENDBRANCH   1   2
BRANCH   1  10
ATOM     10  C   UNL     1       2.005  43.989  11.964  1.00  0.00     0.000 C 
BRANCH  10  11
ATOM     11  C   UNL     1       0.622  43.801  12.616  1.00  0.00    -0.000 C 
BRANCH  11  12
ATOM     12  C   UNL     1       0.183  44.939  13.557  1.00  0.00    -0.000 C 
BRANCH  12  13
ATOM     13  C   UNL     1      -0.701  44.504  14.740  1.00  0.00    -0.000 C 
BRANCH  13  14
ATOM     14  C   UNL     1      -2.173  44.950  14.615  1.00  0.00    -0.000 C 
BRANCH  14  15
ATOM     15  C   UNL     1      -3.158  43.856  15.049  1.00  0.00    -0.003 C 
ATOM     16  C   UNL     1      -2.666  42.474  14.627  1.00  0.00     0.004 C 
ENDBRANCH  14  15
ENDBRANCH  13  14
ENDBRANCH  12  13
ENDBRANCH  11  12
ENDBRANCH  10  11
ENDBRANCH   1  10
TORSDOF 12
ENDMDL
MODEL 4
REMARK VINA RESULT:    -0.401      3.323      6.738
REMARK INTER + INTRA:          -1.314
REMARK INTER:                  -1.215
REMARK INTRA:                  -0.099
REMARK UNBOUND:                -0.631
REMARK SMILES CCCCCCCCCCCCCC(=O)[O-]
REMARK SMILES IDX 8 1 9 2 10 3 11 4 12 5 13 6 14 7 15 8 16 9 7 10 6 11 5 12
REMARK SMILES IDX 4 13 3 14 2 15 1 16
REMARK H PARENT
REMARK Flexibility Score: inf
ROOT
ATOM      1  C   UNL     1       5.345  43.070  13.128  1.00  0.00     0.000 C 
ENDROOT
BRANCH   1   2
ATOM      2  C   UNL     1       5.366  44.606  13.037  1.00  0.00     0.000 C 
BRANCH   2   3
ATOM      3  C   UNL     1       4.973  45.118  11.640  1.00  0.00     0.000 C 
BRANCH   3   4
ATOM      4  C   UNL     1       3.517  44.786  11.278  1.00  0.00     0.000 C 
BRANCH   4   5
ATOM      5  C   UNL     1       3.332  43.322  10.842  1.00  0.00     0.006 C 
BRANCH   5   6
ATOM      6  C   UNL     1       2.096  43.135   9.951  1.00  0.00     0.053 C 
BRANCH   6   7
ATOM      7  C   UNL     1       0.864  42.854  10.757  1.00  0.00     0.041 C 
ATOM      8  O   UNL     1      -0.069  42.166  10.268  1.00  0.00    -0.550 OA
ATOM      9  O   UNL     1       0.736  43.378  12.037  1.00  0.00    -0.550 OA
ENDBRANCH   6   7
ENDBRANCH   5   6
ENDBRANCH   4   5
ENDBRANCH   3   4
ENDBRANCH   2   3
ENDBRANCH   1   2
BRANCH   1  10
ATOM     10  C   UNL     1       6.535  42.511  13.926  1.00  0.00     0.000 C 
BRANCH  10  11
ATOM     11  C   UNL     1       7.700  42.058  13.024  1.00  0.00    -0.000 C 
BRANCH  11  12
ATOM     12  C   UNL     1       8.224  43.130  12.049  1.00  0.00    -0.000 C 
BRANCH  12  13
ATOM     13  C   UNL     1       8.028  42.807  10.556  1.00  0.00    -0.000 C 
BRANCH  13  14
ATOM     14  C   UNL     1       6.551  42.801  10.109  1.00  0.00    -0.000 C 
BRANCH  14  15
ATOM     15  C   UNL     1       6.014  41.381   9.875  1.00  0.00    -0.003 C 
ATOM     16  C   UNL     1       7.145  40.357   9.885  1.00  0.00     0.004 C 
ENDBRANCH  14  15
ENDBRANCH  13  14
ENDBRANCH  12  13
ENDBRANCH  11  12
ENDBRANCH  10  11
ENDBRANCH   1  10
TORSDOF 12
ENDMDL
MODEL 5
REMARK VINA RESULT:    -0.312      1.498      2.772
REMARK INTER + INTRA:          -1.162
REMARK INTER:                  -0.772
REMARK INTRA:                  -0.390
REMARK UNBOUND:                -0.631
REMARK SMILES CCCCCCCCCCCCCC(=O)[O-]
REMARK SMILES IDX 8 1 9 2 10 3 11 4 12 5 13 6 14 7 15 8 16 9 7 10 6 11 5 12
REMARK SMILES IDX 4 13 3 14 2 15 1 16
REMARK H PARENT
REMARK Flexibility Score: inf
ROOT
ATOM      1  C   UNL     1       5.881  43.736  10.010  1.00  0.00     0.000 C 
ENDROOT
BRANCH   1   2
ATOM      2  C   UNL     1       7.389  44.044  10.016  1.00  0.00     0.000 C 
BRANCH   2   3
ATOM      3  C   UNL     1       8.176  43.108  10.951  1.00  0.00     0.000 C 
BRANCH   3   4
ATOM      4  C   UNL     1       7.268  42.119  11.698  1.00  0.00     0.000 C 
BRANCH   4   5
ATOM      5  C   UNL     1       7.585  42.040  13.201  1.00  0.00     0.006 C 
BRANCH   5   6
ATOM      6  C   UNL     1       6.379  42.427  14.068  1.00  0.00     0.053 C 
BRANCH   6   7
ATOM      7  C   UNL     1       5.548  43.495  13.423  1.00  0.00     0.041 C 
ATOM      8  O   UNL     1       4.384  43.236  13.023  1.00  0.00    -0.550 OA
ATOM      9  O   UNL     1       6.072  44.768  13.239  1.00  0.00    -0.550 OA
ENDBRANCH   6   7
ENDBRANCH   5   6
ENDBRANCH   4   5
ENDBRANCH   3   4
ENDBRANCH   2   3
ENDBRANCH   1   2
BRANCH   1  10
ATOM     10  C   UNL     1       5.022  45.007   9.892  1.00  0.00     0.000 C 
BRANCH  10  11
ATOM     11  C   UNL     1       3.512  44.719   9.987  1.00  0.00    -0.000 C 
BRANCH  11  12
ATOM     12  C   UNL     1       3.123  43.232   9.876  1.00  0.00    -0.000 C 
BRANCH  12  13
ATOM     13  C   UNL     1       2.061  42.758  10.885  1.00  0.00    -0.000 C 
BRANCH  13  14
ATOM     14  C   UNL     1       1.698  43.814  11.950  1.00  0.00    -0.000 C 
BRANCH  14  15
ATOM     15  C   UNL     1       0.356  43.521  12.636  1.00  0.00    -0.003 C 
ATOM     16  C   UNL     1      -0.013  44.629  13.619  1.00  0.00     0.004 C 
ENDBRANCH  14  15
ENDBRANCH  13  14
ENDBRANCH  12  13
ENDBRANCH  11  12
ENDBRANCH  10  11
ENDBRANCH   1  10
TORSDOF 12
ENDMDL
MODEL 6
REMARK VINA RESULT:    -0.264      2.013      3.480
REMARK INTER + INTRA:          -1.079
REMARK INTER:                  -0.550
REMARK INTRA:                  -0.529
REMARK UNBOUND:                -0.631
REMARK SMILES CCCCCCCCCCCCCC(=O)[O-]
REMARK SMILES IDX 8 1 9 2 10 3 11 4 12 5 13 6 14 7 15 8 16 9 7 10 6 11 5 12
REMARK SMILES IDX 4 13 3 14 2 15 1 16
REMARK H PARENT
REMARK Flexibility Score: inf
ROOT
ATOM      1  C   UNL     1       4.619  43.460  12.445  1.00  0.00     0.000 C 
ENDROOT
BRANCH   1   2
ATOM      2  C   UNL     1       5.624  43.595  13.602  1.00  0.00     0.000 C 
BRANCH   2   3
ATOM      3  C   UNL     1       6.130  42.231  14.103  1.00  0.00     0.000 C 
BRANCH   3   4
ATOM      4  C   UNL     1       7.528  41.886  13.565  1.00  0.00     0.000 C 
BRANCH   4   5
ATOM      5  C   UNL     1       7.621  42.005  12.034  1.00  0.00     0.006 C 
BRANCH   5   6
ATOM      6  C   UNL     1       8.398  43.255  11.597  1.00  0.00     0.053 C 
BRANCH   6   7
ATOM      7  C   UNL     1       7.747  43.937  10.432  1.00  0.00     0.041 C 
ATOM      8  O   UNL     1       6.737  43.425   9.882  1.00  0.00    -0.550 OA
ATOM      9  O   UNL     1       8.275  45.122   9.935  1.00  0.00    -0.550 OA
ENDBRANCH   6   7
ENDBRANCH   5   6
ENDBRANCH   4   5
ENDBRANCH   3   4
ENDBRANCH   2   3
ENDBRANCH   1   2
BRANCH   1  10
ATOM     10  C   UNL     1       4.153  44.825  11.909  1.00  0.00     0.000 C 
BRANCH  10  11
ATOM     11  C   UNL     1       3.657  44.758  10.452  1.00  0.00    -0.000 C 
BRANCH  11  12
ATOM     12  C   UNL     1       2.992  43.427  10.050  1.00  0.00    -0.000 C 
BRANCH  12  13
ATOM     13  C   UNL     1       1.463  43.488   9.875  1.00  0.00    -0.000 C 
BRANCH  13  14
ATOM     14  C   UNL     1       0.675  43.012  11.114  1.00  0.00    -0.000 C 
BRANCH  14  15
ATOM     15  C   UNL     1       1.040  43.800  12.381  1.00  0.00    -0.003 C 
ATOM     16  C   UNL     1      -0.133  43.847  13.356  1.00  0.00     0.004 C 
ENDBRANCH  14  15
ENDBRANCH  13  14
ENDBRANCH  12  13
ENDBRANCH  11  12
ENDBRANCH  10  11
ENDBRANCH   1  10
TORSDOF 12
ENDMDL
MODEL 7
REMARK VINA RESULT:    -0.179      3.389      5.959
REMARK INTER + INTRA:          -0.935
REMARK INTER:                   0.380
REMARK INTRA:                  -1.315
REMARK UNBOUND:                -0.631
REMARK SMILES CCCCCCCCCCCCCC(=O)[O-]
REMARK SMILES IDX 8 1 9 2 10 3 11 4 12 5 13 6 14 7 15 8 16 9 7 10 6 11 5 12
REMARK SMILES IDX 4 13 3 14 2 15 1 16
REMARK H PARENT
REMARK Flexibility Score: inf
ROOT
ATOM      1  C   UNL     1       7.570  43.886  10.263  1.00  0.00     0.000 C 
ENDROOT
BRANCH   1   2
ATOM      2  C   UNL     1       6.705  45.026  10.828  1.00  0.00     0.000 C 
BRANCH   2   3
ATOM      3  C   UNL     1       5.335  45.125  10.133  1.00  0.00     0.000 C 
BRANCH   3   4
ATOM      4  C   UNL     1       4.165  45.118  11.130  1.00  0.00     0.000 C 
BRANCH   4   5
ATOM      5  C   UNL     1       3.438  43.763  11.183  1.00  0.00     0.006 C 
BRANCH   5   6
ATOM      6  C   UNL     1       2.301  43.677  10.155  1.00  0.00     0.053 C 
BRANCH   6   7
ATOM      7  C   UNL     1       1.122  42.922  10.690  1.00  0.00     0.041 C 
ATOM      8  O   UNL     1       0.614  41.984  10.021  1.00  0.00    -0.550 OA
ATOM      9  O   UNL     1       0.566  43.273  11.913  1.00  0.00    -0.550 OA
ENDBRANCH   6   7
ENDBRANCH   5   6
ENDBRANCH   4   5
ENDBRANCH   3   4
ENDBRANCH   2   3
ENDBRANCH   1   2
BRANCH   1  10
ATOM     10  C   UNL     1       6.813  42.548  10.203  1.00  0.00     0.000 C 
BRANCH  10  11
ATOM     11  C   UNL     1       7.619  41.377  10.799  1.00  0.00    -0.000 C 
BRANCH  11  12
ATOM     12  C   UNL     1       8.310  41.678  12.142  1.00  0.00    -0.000 C 
BRANCH  12  13
ATOM     13  C   UNL     1       7.379  41.683  13.369  1.00  0.00    -0.000 C 
BRANCH  13  14
ATOM     14  C   UNL     1       6.840  43.082  13.735  1.00  0.00    -0.000 C 
BRANCH  14  15
ATOM     15  C   UNL     1       5.327  43.080  13.995  1.00  0.00    -0.003 C 
ATOM     16  C   UNL     1       4.959  42.085  15.093  1.00  0.00     0.004 C 
ENDBRANCH  14  15
ENDBRANCH  13  14
ENDBRANCH  12  13
ENDBRANCH  11  12
ENDBRANCH  10  11
ENDBRANCH   1  10
TORSDOF 12
ENDMDL
