MODEL 1
REMARK VINA RESULT:    -3.062      0.000      0.000
REMARK INTER + INTRA:          -4.197
REMARK INTER:                  -4.047
REMARK INTRA:                  -0.151
REMARK UNBOUND:                -0.151
REMARK SMILES CCCCCCCO
REMARK SMILES IDX 5 1 4 2 3 3 2 4 1 5 6 6 7 7 8 8
REMARK H PARENT 8 9
REMARK Flexibility Score: inf
ROOT
ATOM      1  C   UNL     1     -29.589  23.962 -20.451  1.00  0.00     0.002 C 
ENDROOT
BRANCH   1   2
ATOM      2  C   UNL     1     -30.257  23.738 -21.819  1.00  0.00     0.000 C 
BRANCH   2   3
ATOM      3  C   UNL     1     -30.862  25.028 -22.397  1.00  0.00    -0.000 C 
BRANCH   3   4
ATOM      4  C   UNL     1     -29.978  26.260 -22.147  1.00  0.00    -0.003 C 
ATOM      5  C   UNL     1     -30.729  27.549 -22.471  1.00  0.00     0.004 C 
ENDBRANCH   3   4
ENDBRANCH   2   3
ENDBRANCH   1   2
BRANCH   1   6
ATOM      6  C   UNL     1     -28.410  23.007 -20.198  1.00  0.00     0.028 C 
BRANCH   6   7
ATOM      7  C   UNL     1     -28.464  22.310 -18.830  1.00  0.00     0.156 C 
BRANCH   7   8
ATOM      8  O   UNL     1     -29.030  21.031 -18.933  1.00  0.00    -0.396 OA
ATOM      9  H   UNL     1     -30.011  21.145 -18.837  1.00  0.00     0.210 HD
ENDBRANCH   7   8
ENDBRANCH   6   7
ENDBRANCH   1   6
TORSDOF 6
ENDMDL
MODEL 2
REMARK VINA RESULT:    -2.972     18.545     20.274
REMARK INTER + INTRA:          -4.078
REMARK INTER:                  -3.916
REMARK INTRA:                  -0.161
REMARK UNBOUND:                -0.151
REMARK SMILES CCCCCCCO
REMARK SMILES IDX 5 1 4 2 3 3 2 4 1 5 6 6 7 7 8 8
REMARK H PARENT 8 9
REMARK Flexibility Score: inf
ROOT
ATOM      1  C   UNL     1     -16.765   8.303 -19.578  1.00  0.00     0.002 C 
ENDROOT
BRANCH   1   2
ATOM      2  C   UNL     1     -15.971   7.883 -20.827  1.00  0.00     0.000 C 
BRANCH   2   3
ATOM      3  C   UNL     1     -16.598   8.411 -22.128  1.00  0.00    -0.000 C 
BRANCH   3   4
ATOM      4  C   UNL     1     -15.662   9.359 -22.894  1.00  0.00    -0.003 C 
ATOM      5  C   UNL     1     -14.413   8.625 -23.375  1.00  0.00     0.004 C 
ENDBRANCH   3   4
ENDBRANCH   2   3
ENDBRANCH   1   2
BRANCH   1   6
ATOM      6  C   UNL     1     -16.370   9.697 -19.059  1.00  0.00     0.028 C 
BRANCH   6   7
ATOM      7  C   UNL     1     -17.558  10.517 -18.531  1.00  0.00     0.156 C 
BRANCH   7   8
ATOM      8  O   UNL     1     -18.234   9.833 -17.511  1.00  0.00    -0.396 OA
ATOM      9  H   UNL     1     -17.679   9.921 -16.693  1.00  0.00     0.210 HD
ENDBRANCH   7   8
ENDBRANCH   6   7
ENDBRANCH   1   6
TORSDOF 6
ENDMDL
MODEL 3
REMARK VINA RESULT:    -2.832     16.680     17.491
REMARK INTER + INTRA:          -3.894
REMARK INTER:                  -3.648
REMARK INTRA:                  -0.245
REMARK UNBOUND:                -0.151
REMARK SMILES CCCCCCCO
REMARK SMILES IDX 5 1 4 2 3 3 2 4 1 5 6 6 7 7 8 8
REMARK H PARENT 8 9
REMARK Flexibility Score: inf
ROOT
ATOM      1  C   UNL     1     -25.234  13.876 -32.625  1.00  0.00     0.002 C 
ENDROOT
BRANCH   1   2
ATOM      2  C   UNL     1     -26.417  13.630 -33.577  1.00  0.00     0.000 C 
BRANCH   2   3
ATOM      3  C   UNL     1     -26.977  12.202 -33.462  1.00  0.00    -0.000 C 
BRANCH   3   4
ATOM      4  C   UNL     1     -27.104  11.503 -34.825  1.00  0.00    -0.003 C 
ATOM      5  C   UNL     1     -26.242  12.195 -35.877  1.00  0.00     0.004 C 
ENDBRANCH   3   4
ENDBRANCH   2   3
ENDBRANCH   1   2
BRANCH   1   6
ATOM      6  C   UNL     1     -24.216  12.723 -32.626  1.00  0.00     0.028 C 
BRANCH   6   7
ATOM      7  C   UNL     1     -23.145  12.846 -31.530  1.00  0.00     0.156 C 
BRANCH   7   8
ATOM      8  O   UNL     1     -23.486  12.092 -30.399  1.00  0.00    -0.396 OA
ATOM      9  H   UNL     1     -22.655  11.982 -29.868  1.00  0.00     0.210 HD
ENDBRANCH   7   8
ENDBRANCH   6   7
ENDBRANCH   1   6
TORSDOF 6
ENDMDL
MODEL 4
REMARK VINA RESULT:    -2.792      3.864      4.386
REMARK INTER + INTRA:          -3.841
REMARK INTER:                  -3.457
REMARK INTRA:                  -0.384
REMARK UNBOUND:                -0.151
REMARK SMILES CCCCCCCO
REMARK SMILES IDX 5 1 4 2 3 3 2 4 1 5 6 6 7 7 8 8
REMARK H PARENT 8 9
REMARK Flexibility Score: inf
ROOT
ATOM      1  C   UNL     1     -28.892  27.105 -21.028  1.00  0.00     0.002 C 
ENDROOT
BRANCH   1   2
ATOM      2  C   UNL     1     -29.479  25.908 -21.796  1.00  0.00     0.000 C 
BRANCH   2   3
ATOM      3  C   UNL     1     -30.768  26.269 -22.552  1.00  0.00    -0.000 C 
BRANCH   3   4
ATOM      4  C   UNL     1     -30.763  27.714 -23.075  1.00  0.00    -0.003 C 
ATOM      5  C   UNL     1     -30.189  27.784 -24.488  1.00  0.00     0.004 C 
ENDBRANCH   3   4
ENDBRANCH   2   3
ENDBRANCH   1   2
BRANCH   1   6
ATOM      6  C   UNL     1     -27.403  27.340 -21.335  1.00  0.00     0.028 C 
BRANCH   6   7
ATOM      7  C   UNL     1     -26.932  26.684 -22.642  1.00  0.00     0.156 C 
BRANCH   7   8
ATOM      8  O   UNL     1     -26.733  27.641 -23.647  1.00  0.00    -0.396 OA
ATOM      9  H   UNL     1     -27.573  27.679 -24.175  1.00  0.00     0.210 HD
ENDBRANCH   7   8
ENDBRANCH   6   7
ENDBRANCH   1   6
TORSDOF 6
ENDMDL
MODEL 5
REMARK VINA RESULT:    -2.731      5.840      6.767
REMARK INTER + INTRA:          -3.760
REMARK INTER:                  -3.456
REMARK INTRA:                  -0.305
REMARK UNBOUND:                -0.151
REMARK SMILES CCCCCCCO
REMARK SMILES IDX 5 1 4 2 3 3 2 4 1 5 6 6 7 7 8 8
REMARK H PARENT 8 9
REMARK Flexibility Score: inf
ROOT
ATOM      1  C   UNL     1     -27.035  24.320 -26.286  1.00  0.00     0.002 C 
ENDROOT
BRANCH   1   2
ATOM      2  C   UNL     1     -27.528  24.533 -24.844  1.00  0.00     0.000 C 
BRANCH   2   3
ATOM      3  C   UNL     1     -26.449  25.151 -23.939  1.00  0.00    -0.000 C 
BRANCH   3   4
ATOM      4  C   UNL     1     -27.000  26.265 -23.035  1.00  0.00    -0.003 C 
ATOM      5  C   UNL     1     -27.354  27.506 -23.850  1.00  0.00     0.004 C 
ENDBRANCH   3   4
ENDBRANCH   2   3
ENDBRANCH   1   2
BRANCH   1   6
ATOM      6  C   UNL     1     -27.104  25.600 -27.137  1.00  0.00     0.028 C 
BRANCH   6   7
ATOM      7  C   UNL     1     -25.780  25.948 -27.835  1.00  0.00     0.156 C 
BRANCH   7   8
ATOM      8  O   UNL     1     -24.680  25.536 -27.072  1.00  0.00    -0.396 OA
ATOM      9  H   UNL     1     -24.566  26.207 -26.349  1.00  0.00     0.210 HD
ENDBRANCH   7   8
ENDBRANCH   6   7
ENDBRANCH   1   6
TORSDOF 6
ENDMDL
MODEL 6
REMARK VINA RESULT:    -2.700      5.376      6.443
REMARK INTER + INTRA:          -3.719
REMARK INTER:                  -3.609
REMARK INTRA:                  -0.110
REMARK UNBOUND:                -0.151
REMARK SMILES CCCCCCCO
REMARK SMILES IDX 5 1 4 2 3 3 2 4 1 5 6 6 7 7 8 8
REMARK H PARENT 8 9
REMARK Flexibility Score: inf
ROOT
ATOM      1  C   UNL     1     -27.282  25.999 -25.715  1.00  0.00     0.002 C 
ENDROOT
BRANCH   1   2
ATOM      2  C   UNL     1     -28.556  25.439 -25.059  1.00  0.00     0.000 C 
BRANCH   2   3
ATOM      3  C   UNL     1     -28.894  26.145 -23.735  1.00  0.00    -0.000 C 
BRANCH   3   4
ATOM      4  C   UNL     1     -29.173  27.645 -23.918  1.00  0.00    -0.003 C 
ATOM      5  C   UNL     1     -30.610  27.987 -23.535  1.00  0.00     0.004 C 
ENDBRANCH   3   4
ENDBRANCH   2   3
ENDBRANCH   1   2
BRANCH   1   6
ATOM      6  C   UNL     1     -27.090  25.511 -27.161  1.00  0.00     0.028 C 
BRANCH   6   7
ATOM      7  C   UNL     1     -25.793  26.015 -27.815  1.00  0.00     0.156 C 
BRANCH   7   8
ATOM      8  O   UNL     1     -24.664  25.551 -27.126  1.00  0.00    -0.396 OA
ATOM      9  H   UNL     1     -24.304  24.788 -27.650  1.00  0.00     0.210 HD
ENDBRANCH   7   8
ENDBRANCH   6   7
ENDBRANCH   1   6
TORSDOF 6
ENDMDL
MODEL 7
REMARK VINA RESULT:    -2.698      1.757      2.080
REMARK INTER + INTRA:          -3.716
REMARK INTER:                  -3.508
REMARK INTRA:                  -0.208
REMARK UNBOUND:                -0.151
REMARK SMILES CCCCCCCO
REMARK SMILES IDX 5 1 4 2 3 3 2 4 1 5 6 6 7 7 8 8
REMARK H PARENT 8 9
REMARK Flexibility Score: inf
ROOT
ATOM      1  C   UNL     1     -29.136  24.227 -19.570  1.00  0.00     0.002 C 
ENDROOT
BRANCH   1   2
ATOM      2  C   UNL     1     -29.172  24.625 -21.055  1.00  0.00     0.000 C 
BRANCH   2   3
ATOM      3  C   UNL     1     -29.176  26.150 -21.256  1.00  0.00    -0.000 C 
BRANCH   3   4
ATOM      4  C   UNL     1     -28.605  26.908 -20.047  1.00  0.00    -0.003 C 
ATOM      5  C   UNL     1     -27.237  27.503 -20.368  1.00  0.00     0.004 C 
ENDBRANCH   3   4
ENDBRANCH   2   3
ENDBRANCH   1   2
BRANCH   1   6
ATOM      6  C   UNL     1     -28.033  23.203 -19.252  1.00  0.00     0.028 C 
BRANCH   6   7
ATOM      7  C   UNL     1     -28.329  21.793 -19.786  1.00  0.00     0.156 C 
BRANCH   7   8
ATOM      8  O   UNL     1     -29.023  21.027 -18.840  1.00  0.00    -0.396 OA
ATOM      9  H   UNL     1     -29.745  21.605 -18.478  1.00  0.00     0.210 HD
ENDBRANCH   7   8
ENDBRANCH   6   7
ENDBRANCH   1   6
TORSDOF 6
ENDMDL
MODEL 8
REMARK VINA RESULT:    -2.697     18.671     20.457
REMARK INTER + INTRA:          -3.715
REMARK INTER:                  -3.560
REMARK INTRA:                  -0.155
REMARK UNBOUND:                -0.151
REMARK SMILES CCCCCCCO
REMARK SMILES IDX 5 1 4 2 3 3 2 4 1 5 6 6 7 7 8 8
REMARK H PARENT 8 9
REMARK Flexibility Score: inf
ROOT
ATOM      1  C   UNL     1     -15.800   9.062 -21.194  1.00  0.00     0.002 C 
ENDROOT
BRANCH   1   2
ATOM      2  C   UNL     1     -16.073   7.877 -20.251  1.00  0.00     0.000 C 
BRANCH   2   3
ATOM      3  C   UNL     1     -16.768   8.309 -18.949  1.00  0.00    -0.000 C 
BRANCH   3   4
ATOM      4  C   UNL     1     -16.440   9.757 -18.554  1.00  0.00    -0.003 C 
ATOM      5  C   UNL     1     -17.711  10.593 -18.428  1.00  0.00     0.004 C 
ENDBRANCH   3   4
ENDBRANCH   2   3
ENDBRANCH   1   2
BRANCH   1   6
ATOM      6  C   UNL     1     -16.140   8.749 -22.661  1.00  0.00     0.028 C 
BRANCH   6   7
ATOM      7  C   UNL     1     -15.127   9.326 -23.664  1.00  0.00     0.156 C 
BRANCH   7   8
ATOM      8  O   UNL     1     -15.547  10.572 -24.149  1.00  0.00    -0.396 OA
ATOM      9  H   UNL     1     -15.246  11.251 -23.489  1.00  0.00     0.210 HD
ENDBRANCH   7   8
ENDBRANCH   6   7
ENDBRANCH   1   6
TORSDOF 6
ENDMDL
MODEL 9
REMARK VINA RESULT:    -2.632      3.196      4.921
REMARK INTER + INTRA:          -3.629
REMARK INTER:                  -3.354
REMARK INTRA:                  -0.275
REMARK UNBOUND:                -0.151
REMARK SMILES CCCCCCCO
REMARK SMILES IDX 5 1 4 2 3 3 2 4 1 5 6 6 7 7 8 8
REMARK H PARENT 8 9
REMARK Flexibility Score: inf
ROOT
ATOM      1  C   UNL     1     -30.184  27.474 -23.747  1.00  0.00     0.002 C 
ENDROOT
BRANCH   1   2
ATOM      2  C   UNL     1     -30.691  26.638 -22.559  1.00  0.00     0.000 C 
BRANCH   2   3
ATOM      3  C   UNL     1     -30.841  25.149 -22.910  1.00  0.00    -0.000 C 
BRANCH   3   4
ATOM      4  C   UNL     1     -30.436  24.223 -21.753  1.00  0.00    -0.003 C 
ATOM      5  C   UNL     1     -29.237  24.786 -20.995  1.00  0.00     0.004 C 
ENDBRANCH   3   4
ENDBRANCH   2   3
ENDBRANCH   1   2
BRANCH   1   6
ATOM      6  C   UNL     1     -28.854  26.954 -24.321  1.00  0.00     0.028 C 
BRANCH   6   7
ATOM      7  C   UNL     1     -27.617  27.455 -23.559  1.00  0.00     0.156 C 
BRANCH   7   8
ATOM      8  O   UNL     1     -26.500  26.649 -23.820  1.00  0.00    -0.396 OA
ATOM      9  H   UNL     1     -26.590  25.843 -23.248  1.00  0.00     0.210 HD
ENDBRANCH   7   8
ENDBRANCH   6   7
ENDBRANCH   1   6
TORSDOF 6
ENDMDL
