MODEL 1
REMARK VINA RESULT:    -4.161      0.000      0.000
REMARK INTER + INTRA:          -5.479
REMARK INTER:                  -5.864
REMARK INTRA:                   0.385
REMARK UNBOUND:                 0.385
REMARK SMILES CC1=CCC(=C(C)C)C(=O)CC(C)=CCC1
REMARK SMILES IDX 12 1 14 2 13 3 15 4 16 5 2 6 1 7 3 8 11 10 9 11 10 12 5 13
REMARK SMILES IDX 6 14 7 15 8 16 4 17
REMARK H PARENT
REMARK Flexibility Score: 60.00
ROOT
ATOM      1  C   UNL     1      44.458  60.950  30.722  1.00  0.00    -0.070 C 
ATOM      2  C   UNL     1      43.759  61.028  29.564  1.00  0.00    -0.027 C 
ATOM      3  C   UNL     1      44.271  62.047  31.738  1.00  0.00     0.039 C 
ENDROOT
BRANCH   2   4
ATOM      4  C   UNL     1      43.868  60.053  28.414  1.00  0.00     0.032 C 
BRANCH   4   5
ATOM      5  C   UNL     1      42.790  58.961  28.493  1.00  0.00     0.034 C 
BRANCH   5   6
ATOM      6  C   UNL     1      43.355  57.548  28.496  1.00  0.00    -0.077 C 
ATOM      7  C   UNL     1      43.744  56.918  27.182  1.00  0.00     0.039 C 
ATOM      8  C   UNL     1      43.511  56.811  29.620  1.00  0.00    -0.023 CG0
ATOM      9  G   UNL     1      43.244  57.293  31.027  1.00  0.00     0.000 G0
ENDBRANCH   5   6
ENDBRANCH   4   5
ENDBRANCH   2   4
BRANCH   1  10
ATOM     10  C   UNL     1      45.411  59.812  31.036  1.00  0.00     0.111 C 
BRANCH  10  11
ATOM     11  C   UNL     1      44.873  58.944  32.137  1.00  0.00     0.163 C 
ATOM     12  O   UNL     1      44.780  59.412  33.304  1.00  0.00    -0.294 OA
BRANCH  11  13
ATOM     13  C   UNL     1      44.469  57.537  31.884  1.00  0.00    -0.002 C 
ATOM     14  C   UNL     1      45.201  56.510  32.394  1.00  0.00    -0.069 C 
ATOM     15  C   UNL     1      46.488  56.765  33.146  1.00  0.00     0.039 C 
ATOM     16  C   UNL     1      44.778  55.073  32.191  1.00  0.00     0.039 C 
BRANCH  13  17
ATOM     17  C   UNL     1      43.225  57.261  31.045  1.00  0.00     0.066 CG0
ATOM     18  G   UNL     1      43.530  56.835  29.628  1.00  0.00     0.000 G0
ENDBRANCH  13  17
ENDBRANCH  11  13
ENDBRANCH  10  11
ENDBRANCH   1  10
TORSDOF 0
ENDMDL
MODEL 2
REMARK VINA RESULT:    -3.925      2.470      3.216
REMARK INTER + INTRA:          -5.146
REMARK INTER:                  -5.461
REMARK INTRA:                   0.315
REMARK UNBOUND:                 0.385
REMARK SMILES CC1=CCC(=C(C)C)C(=O)CC(C)=CCC1
REMARK SMILES IDX 12 1 14 2 13 3 15 4 16 5 2 6 1 7 3 8 11 10 9 11 10 12 5 13
REMARK SMILES IDX 6 14 7 15 8 16 4 17
REMARK H PARENT
REMARK Flexibility Score: 60.00
ROOT
ATOM      1  C   UNL     1      47.708  57.799  28.712  1.00  0.00    -0.070 C 
ATOM      2  C   UNL     1      47.438  58.514  27.594  1.00  0.00    -0.027 C 
ATOM      3  C   UNL     1      49.147  57.673  29.143  1.00  0.00     0.039 C 
ENDROOT
BRANCH   2   4
ATOM      4  C   UNL     1      46.066  58.692  26.985  1.00  0.00     0.032 C 
BRANCH   4   5
ATOM      5  C   UNL     1      45.231  59.722  27.762  1.00  0.00     0.034 C 
BRANCH   5   6
ATOM      6  C   UNL     1      43.846  59.218  28.145  1.00  0.00    -0.077 C 
ATOM      7  C   UNL     1      42.893  58.808  27.051  1.00  0.00     0.039 C 
ATOM      8  C   UNL     1      43.413  59.133  29.424  1.00  0.00    -0.023 CG0
ATOM      9  G   UNL     1      44.243  59.429  30.651  1.00  0.00     0.000 G0
ENDBRANCH   5   6
ENDBRANCH   4   5
ENDBRANCH   2   4
BRANCH   1  10
ATOM     10  C   UNL     1      46.632  57.126  29.542  1.00  0.00     0.111 C 
BRANCH  10  11
ATOM     11  C   UNL     1      46.346  57.907  30.793  1.00  0.00     0.163 C 
ATOM     12  O   UNL     1      47.307  58.313  31.501  1.00  0.00    -0.294 OA
BRANCH  11  13
ATOM     13  C   UNL     1      44.954  58.191  31.225  1.00  0.00    -0.002 C 
ATOM     14  C   UNL     1      44.331  57.373  32.117  1.00  0.00    -0.069 C 
ATOM     15  C   UNL     1      44.996  56.110  32.616  1.00  0.00     0.039 C 
ATOM     16  C   UNL     1      42.933  57.674  32.607  1.00  0.00     0.039 C 
BRANCH  13  17
ATOM     17  C   UNL     1      44.233  59.409  30.656  1.00  0.00     0.066 CG0
ATOM     18  G   UNL     1      43.412  59.109  29.424  1.00  0.00     0.000 G0
ENDBRANCH  13  17
ENDBRANCH  11  13
ENDBRANCH  10  11
ENDBRANCH   1  10
TORSDOF 0
ENDMDL
MODEL 3
REMARK VINA RESULT:    -3.859     17.717     19.285
REMARK INTER + INTRA:          -5.053
REMARK INTER:                  -5.508
REMARK INTRA:                   0.454
REMARK UNBOUND:                 0.385
REMARK SMILES CC1=CCC(=C(C)C)C(=O)CC(C)=CCC1
REMARK SMILES IDX 12 1 14 2 13 3 15 4 16 5 2 6 1 7 3 8 11 10 9 11 10 12 5 13
REMARK SMILES IDX 6 14 7 15 8 16 4 17
REMARK H PARENT
REMARK Flexibility Score: 60.00
ROOT
ATOM      1  C   UNL     1      60.743  68.762  31.972  1.00  0.00    -0.070 C 
ATOM      2  C   UNL     1      60.205  67.660  31.397  1.00  0.00    -0.027 C 
ATOM      3  C   UNL     1      60.766  70.039  31.172  1.00  0.00     0.039 C 
ENDROOT
BRANCH   2   4
ATOM      4  C   UNL     1      60.155  66.287  32.027  1.00  0.00     0.032 C 
BRANCH   4   5
ATOM      5  C   UNL     1      59.160  66.237  33.197  1.00  0.00     0.034 C 
BRANCH   5   6
ATOM      6  C   UNL     1      59.749  65.646  34.471  1.00  0.00    -0.077 C 
ATOM      7  C   UNL     1      60.422  64.298  34.404  1.00  0.00     0.039 C 
ATOM      8  C   UNL     1      59.686  66.261  35.675  1.00  0.00    -0.023 CG0
ATOM      9  G   UNL     1      59.117  67.638  35.926  1.00  0.00     0.000 G0
ENDBRANCH   5   6
ENDBRANCH   4   5
ENDBRANCH   2   4
BRANCH   1  10
ATOM     10  C   UNL     1      61.317  68.764  33.376  1.00  0.00     0.111 C 
BRANCH  10  11
ATOM     11  C   UNL     1      60.342  69.350  34.358  1.00  0.00     0.163 C 
ATOM     12  O   UNL     1      59.677  70.370  34.034  1.00  0.00    -0.294 OA
BRANCH  11  13
ATOM     13  C   UNL     1      60.163  68.764  35.711  1.00  0.00    -0.002 C 
ATOM     14  C   UNL     1      60.915  69.207  36.756  1.00  0.00    -0.069 C 
ATOM     15  C   UNL     1      62.010  70.230  36.553  1.00  0.00     0.039 C 
ATOM     16  C   UNL     1      60.711  68.660  38.150  1.00  0.00     0.039 C 
BRANCH  13  17
ATOM     17  C   UNL     1      59.128  67.663  35.913  1.00  0.00     0.066 CG0
ATOM     18  G   UNL     1      59.671  66.270  35.691  1.00  0.00     0.000 G0
ENDBRANCH  13  17
ENDBRANCH  11  13
ENDBRANCH  10  11
ENDBRANCH   1  10
TORSDOF 0
ENDMDL
MODEL 4
REMARK VINA RESULT:    -3.846     16.985     18.873
REMARK INTER + INTRA:          -5.035
REMARK INTER:                  -5.368
REMARK INTRA:                   0.333
REMARK UNBOUND:                 0.385
REMARK SMILES CC1=CCC(=C(C)C)C(=O)CC(C)=CCC1
REMARK SMILES IDX 12 1 14 2 13 3 15 4 16 5 2 6 1 7 3 8 11 10 9 11 10 12 5 13
REMARK SMILES IDX 6 14 7 15 8 16 4 17
REMARK H PARENT
REMARK Flexibility Score: 60.00
ROOT
ATOM      1  C   UNL     1      56.253  69.132  31.619  1.00  0.00    -0.070 C 
ATOM      2  C   UNL     1      57.079  69.139  30.546  1.00  0.00    -0.027 C 
ATOM      3  C   UNL     1      54.785  69.384  31.386  1.00  0.00     0.039 C 
ENDROOT
BRANCH   2   4
ATOM      4  C   UNL     1      58.580  68.966  30.601  1.00  0.00     0.032 C 
BRANCH   4   5
ATOM      5  C   UNL     1      59.295  70.302  30.856  1.00  0.00     0.034 C 
BRANCH   5   6
ATOM      6  C   UNL     1      60.384  70.216  31.916  1.00  0.00    -0.077 C 
ATOM      7  C   UNL     1      61.690  69.549  31.564  1.00  0.00     0.039 C 
ATOM      8  C   UNL     1      60.238  70.691  33.174  1.00  0.00    -0.023 CG0
ATOM      9  G   UNL     1      59.036  71.448  33.690  1.00  0.00     0.000 G0
ENDBRANCH   5   6
ENDBRANCH   4   5
ENDBRANCH   2   4
BRANCH   1  10
ATOM     10  C   UNL     1      56.739  68.879  33.033  1.00  0.00     0.111 C 
BRANCH  10  11
ATOM     11  C   UNL     1      56.790  70.156  33.824  1.00  0.00     0.163 C 
ATOM     12  O   UNL     1      55.755  70.871  33.911  1.00  0.00    -0.294 OA
BRANCH  11  13
ATOM     13  C   UNL     1      58.041  70.605  34.486  1.00  0.00    -0.002 C 
ATOM     14  C   UNL     1      58.300  70.252  35.775  1.00  0.00    -0.069 C 
ATOM     15  C   UNL     1      57.288  69.483  36.594  1.00  0.00     0.039 C 
ATOM     16  C   UNL     1      59.591  70.656  36.449  1.00  0.00     0.039 C 
BRANCH  13  17
ATOM     17  C   UNL     1      59.030  71.463  33.704  1.00  0.00     0.066 CG0
ATOM     18  G   UNL     1      60.223  70.696  33.183  1.00  0.00     0.000 G0
ENDBRANCH  13  17
ENDBRANCH  11  13
ENDBRANCH  10  11
ENDBRANCH   1  10
TORSDOF 0
ENDMDL
MODEL 5
REMARK VINA RESULT:    -3.838      2.241      2.797
REMARK INTER + INTRA:          -5.024
REMARK INTER:                  -5.394
REMARK INTRA:                   0.370
REMARK UNBOUND:                 0.385
REMARK SMILES CC1=CCC(=C(C)C)C(=O)CC(C)=CCC1
REMARK SMILES IDX 12 1 14 2 13 3 15 4 16 5 2 6 1 7 3 8 11 10 9 11 10 12 5 13
REMARK SMILES IDX 6 14 7 15 8 16 4 17
REMARK H PARENT
REMARK Flexibility Score: 60.00
ROOT
ATOM      1  C   UNL     1      44.997  59.567  28.949  1.00  0.00    -0.070 C 
ATOM      2  C   UNL     1      45.545  59.019  27.839  1.00  0.00    -0.027 C 
ATOM      3  C   UNL     1      44.085  60.756  28.777  1.00  0.00     0.039 C 
ENDROOT
BRANCH   2   4
ATOM      4  C   UNL     1      46.525  57.868  27.830  1.00  0.00     0.032 C 
BRANCH   4   5
ATOM      5  C   UNL     1      45.829  56.530  28.123  1.00  0.00     0.034 C 
BRANCH   5   6
ATOM      6  C   UNL     1      46.480  55.740  29.250  1.00  0.00    -0.077 C 
ATOM      7  C   UNL     1      47.934  55.359  29.125  1.00  0.00     0.039 C 
ATOM      8  C   UNL     1      45.816  55.340  30.359  1.00  0.00    -0.023 CG0
ATOM      9  G   UNL     1      44.383  55.684  30.693  1.00  0.00     0.000 G0
ENDBRANCH   5   6
ENDBRANCH   4   5
ENDBRANCH   2   4
BRANCH   1  10
ATOM     10  C   UNL     1      45.257  59.038  30.347  1.00  0.00     0.111 C 
BRANCH  10  11
ATOM     11  C   UNL     1      44.072  58.275  30.867  1.00  0.00     0.163 C 
ATOM     12  O   UNL     1      42.918  58.765  30.739  1.00  0.00    -0.294 OA
BRANCH  11  13
ATOM     13  C   UNL     1      44.235  56.966  31.548  1.00  0.00    -0.002 C 
ATOM     14  C   UNL     1      44.253  56.897  32.908  1.00  0.00    -0.069 C 
ATOM     15  C   UNL     1      44.204  58.149  33.755  1.00  0.00     0.039 C 
ATOM     16  C   UNL     1      44.366  55.569  33.620  1.00  0.00     0.039 C 
BRANCH  13  17
ATOM     17  C   UNL     1      44.382  55.703  30.707  1.00  0.00     0.066 CG0
ATOM     18  G   UNL     1      45.816  55.351  30.384  1.00  0.00     0.000 G0
ENDBRANCH  13  17
ENDBRANCH  11  13
ENDBRANCH  10  11
ENDBRANCH   1  10
TORSDOF 0
ENDMDL
MODEL 6
REMARK VINA RESULT:    -3.801      1.679      2.376
REMARK INTER + INTRA:          -4.972
REMARK INTER:                  -5.269
REMARK INTRA:                   0.297
REMARK UNBOUND:                 0.385
REMARK SMILES CC1=CCC(=C(C)C)C(=O)CC(C)=CCC1
REMARK SMILES IDX 12 1 14 2 13 3 15 4 16 5 2 6 1 7 3 8 11 10 9 11 10 12 5 13
REMARK SMILES IDX 6 14 7 15 8 16 4 17
REMARK H PARENT
REMARK Flexibility Score: 60.00
ROOT
ATOM      1  C   UNL     1      43.894  58.993  29.015  1.00  0.00    -0.070 C 
ATOM      2  C   UNL     1      43.246  58.283  28.061  1.00  0.00    -0.027 C 
ATOM      3  C   UNL     1      43.797  60.497  28.968  1.00  0.00     0.039 C 
ENDROOT
BRANCH   2   4
ATOM      4  C   UNL     1      43.285  56.779  27.919  1.00  0.00     0.032 C 
BRANCH   4   5
ATOM      5  C   UNL     1      42.305  56.093  28.883  1.00  0.00     0.034 C 
BRANCH   5   6
ATOM      6  C   UNL     1      42.903  54.897  29.609  1.00  0.00    -0.077 C 
ATOM      7  C   UNL     1      43.337  53.699  28.802  1.00  0.00     0.039 C 
ATOM      8  C   UNL     1      43.052  54.840  30.953  1.00  0.00    -0.023 CG0
ATOM      9  G   UNL     1      42.742  55.961  31.916  1.00  0.00     0.000 G0
ENDBRANCH   5   6
ENDBRANCH   4   5
ENDBRANCH   2   4
BRANCH   1  10
ATOM     10  C   UNL     1      44.706  58.344  30.119  1.00  0.00     0.111 C 
BRANCH  10  11
ATOM     11  C   UNL     1      43.900  58.216  31.380  1.00  0.00     0.163 C 
ATOM     12  O   UNL     1      43.252  59.211  31.803  1.00  0.00    -0.294 OA
BRANCH  11  13
ATOM     13  C   UNL     1      43.869  56.947  32.152  1.00  0.00    -0.002 C 
ATOM     14  C   UNL     1      44.849  56.670  33.055  1.00  0.00    -0.069 C 
ATOM     15  C   UNL     1      46.036  57.591  33.230  1.00  0.00     0.039 C 
ATOM     16  C   UNL     1      44.807  55.408  33.887  1.00  0.00     0.039 C 
BRANCH  13  17
ATOM     17  C   UNL     1      42.729  55.963  31.917  1.00  0.00     0.066 CG0
ATOM     18  G   UNL     1      43.068  54.861  30.941  1.00  0.00     0.000 G0
ENDBRANCH  13  17
ENDBRANCH  11  13
ENDBRANCH  10  11
ENDBRANCH   1  10
TORSDOF 0
ENDMDL
MODEL 7
REMARK VINA RESULT:    -3.775     17.755     19.317
REMARK INTER + INTRA:          -4.935
REMARK INTER:                  -5.191
REMARK INTRA:                   0.256
REMARK UNBOUND:                 0.385
REMARK SMILES CC1=CCC(=C(C)C)C(=O)CC(C)=CCC1
REMARK SMILES IDX 12 1 14 2 13 3 15 4 16 5 2 6 1 7 3 8 11 10 9 11 10 12 5 13
REMARK SMILES IDX 6 14 7 15 8 16 4 17
REMARK H PARENT
REMARK Flexibility Score: 60.00
ROOT
ATOM      1  C   UNL     1      59.677  65.983  32.965  1.00  0.00    -0.070 C 
ATOM      2  C   UNL     1      60.278  66.394  31.823  1.00  0.00    -0.027 C 
ATOM      3  C   UNL     1      59.911  64.565  33.419  1.00  0.00     0.039 C 
ENDROOT
BRANCH   2   4
ATOM      4  C   UNL     1      60.105  67.756  31.190  1.00  0.00     0.032 C 
BRANCH   4   5
ATOM      5  C   UNL     1      61.056  68.792  31.809  1.00  0.00     0.034 C 
BRANCH   5   6
ATOM      6  C   UNL     1      60.373  70.102  32.175  1.00  0.00    -0.077 C 
ATOM      7  C   UNL     1      59.833  70.974  31.068  1.00  0.00     0.039 C 
ATOM      8  C   UNL     1      60.237  70.542  33.447  1.00  0.00    -0.023 CG0
ATOM      9  G   UNL     1      60.649  69.779  34.685  1.00  0.00     0.000 G0
ENDBRANCH   5   6
ENDBRANCH   4   5
ENDBRANCH   2   4
BRANCH   1  10
ATOM     10  C   UNL     1      58.786  66.883  33.799  1.00  0.00     0.111 C 
BRANCH  10  11
ATOM     11  C   UNL     1      59.534  67.447  34.974  1.00  0.00     0.163 C 
ATOM     12  O   UNL     1      60.170  66.668  35.733  1.00  0.00    -0.294 OA
BRANCH  11  13
ATOM     13  C   UNL     1      59.521  68.902  35.270  1.00  0.00    -0.002 C 
ATOM     14  C   UNL     1      58.532  69.438  36.036  1.00  0.00    -0.069 C 
ATOM     15  C   UNL     1      57.376  68.594  36.524  1.00  0.00     0.039 C 
ATOM     16  C   UNL     1      58.530  70.907  36.392  1.00  0.00     0.039 C 
BRANCH  13  17
ATOM     17  C   UNL     1      60.629  69.785  34.706  1.00  0.00     0.066 CG0
ATOM     18  G   UNL     1      60.232  70.534  33.454  1.00  0.00     0.000 G0
ENDBRANCH  13  17
ENDBRANCH  11  13
ENDBRANCH  10  11
ENDBRANCH   1  10
TORSDOF 0
ENDMDL
MODEL 8
REMARK VINA RESULT:    -3.651      2.018      4.072
REMARK INTER + INTRA:          -4.760
REMARK INTER:                  -5.294
REMARK INTRA:                   0.534
REMARK UNBOUND:                 0.385
REMARK SMILES CC1=CCC(=C(C)C)C(=O)CC(C)=CCC1
REMARK SMILES IDX 12 1 14 2 13 3 15 4 16 5 2 6 1 7 3 8 11 10 9 11 10 12 5 13
REMARK SMILES IDX 6 14 7 15 8 16 4 17
REMARK H PARENT
REMARK Flexibility Score: 60.00
ROOT
ATOM      1  C   UNL     1      42.922  54.294  30.195  1.00  0.00    -0.070 C 
ATOM      2  C   UNL     1      42.525  54.679  28.959  1.00  0.00    -0.027 C 
ATOM      3  C   UNL     1      42.241  53.102  30.820  1.00  0.00     0.039 C 
ENDROOT
BRANCH   2   4
ATOM      4  C   UNL     1      43.052  55.881  28.211  1.00  0.00     0.032 C 
BRANCH   4   5
ATOM      5  C   UNL     1      42.165  57.117  28.428  1.00  0.00     0.034 C 
BRANCH   5   6
ATOM      6  C   UNL     1      42.941  58.353  28.864  1.00  0.00    -0.077 C 
ATOM      7  C   UNL     1      43.586  59.216  27.809  1.00  0.00     0.039 C 
ATOM      8  C   UNL     1      43.101  58.713  30.159  1.00  0.00    -0.023 CG0
ATOM      9  G   UNL     1      42.474  58.017  31.345  1.00  0.00     0.000 G0
ENDBRANCH   5   6
ENDBRANCH   4   5
ENDBRANCH   2   4
BRANCH   1  10
ATOM     10  C   UNL     1      44.015  55.005  30.970  1.00  0.00     0.111 C 
BRANCH  10  11
ATOM     11  C   UNL     1      43.448  55.750  32.146  1.00  0.00     0.163 C 
ATOM     12  O   UNL     1      42.932  55.103  33.097  1.00  0.00    -0.294 OA
BRANCH  11  13
ATOM     13  C   UNL     1      43.463  57.234  32.198  1.00  0.00    -0.002 C 
ATOM     14  C   UNL     1      44.353  57.884  32.998  1.00  0.00    -0.069 C 
ATOM     15  C   UNL     1      45.279  57.121  33.918  1.00  0.00     0.039 C 
ATOM     16  C   UNL     1      44.418  59.393  33.026  1.00  0.00     0.039 C 
BRANCH  13  17
ATOM     17  C   UNL     1      42.469  58.018  31.348  1.00  0.00     0.066 CG0
ATOM     18  G   UNL     1      43.100  58.719  30.167  1.00  0.00     0.000 G0
ENDBRANCH  13  17
ENDBRANCH  11  13
ENDBRANCH  10  11
ENDBRANCH   1  10
TORSDOF 0
ENDMDL
MODEL 9
REMARK VINA RESULT:    -3.601     17.563     19.118
REMARK INTER + INTRA:          -4.690
REMARK INTER:                  -5.113
REMARK INTRA:                   0.423
REMARK UNBOUND:                 0.385
REMARK SMILES CC1=CCC(=C(C)C)C(=O)CC(C)=CCC1
REMARK SMILES IDX 12 1 14 2 13 3 15 4 16 5 2 6 1 7 3 8 11 10 9 11 10 12 5 13
REMARK SMILES IDX 6 14 7 15 8 16 4 17
REMARK H PARENT
REMARK Flexibility Score: 60.00
ROOT
ATOM      1  C   UNL     1      59.204  67.917  31.880  1.00  0.00    -0.070 C 
ATOM      2  C   UNL     1      58.396  68.486  30.954  1.00  0.00    -0.027 C 
ATOM      3  C   UNL     1      60.373  67.099  31.394  1.00  0.00     0.039 C 
ENDROOT
BRANCH   2   4
ATOM      4  C   UNL     1      57.149  69.284  31.260  1.00  0.00     0.032 C 
BRANCH   4   5
ATOM      5  C   UNL     1      57.490  70.690  31.779  1.00  0.00     0.034 C 
BRANCH   5   6
ATOM      6  C   UNL     1      56.829  71.023  33.109  1.00  0.00    -0.077 C 
ATOM      7  C   UNL     1      55.324  71.011  33.197  1.00  0.00     0.039 C 
ATOM      8  C   UNL     1      57.523  71.351  34.223  1.00  0.00    -0.023 CG0
ATOM      9  G   UNL     1      59.029  71.349  34.349  1.00  0.00     0.000 G0
ENDBRANCH   5   6
ENDBRANCH   4   5
ENDBRANCH   2   4
BRANCH   1  10
ATOM     10  C   UNL     1      58.985  68.070  33.373  1.00  0.00     0.111 C 
BRANCH  10  11
ATOM     11  C   UNL     1      60.013  68.982  33.981  1.00  0.00     0.163 C 
ATOM     12  O   UNL     1      61.231  68.808  33.708  1.00  0.00    -0.294 OA
BRANCH  11  13
ATOM     13  C   UNL     1      59.625  70.069  34.915  1.00  0.00    -0.002 C 
ATOM     14  C   UNL     1      59.792  69.914  36.257  1.00  0.00    -0.069 C 
ATOM     15  C   UNL     1      60.284  68.607  36.838  1.00  0.00     0.039 C 
ATOM     16  C   UNL     1      59.452  71.029  37.219  1.00  0.00     0.039 C 
BRANCH  13  17
ATOM     17  C   UNL     1      59.037  71.358  34.351  1.00  0.00     0.066 CG0
ATOM     18  G   UNL     1      57.531  71.339  34.230  1.00  0.00     0.000 G0
ENDBRANCH  13  17
ENDBRANCH  11  13
ENDBRANCH  10  11
ENDBRANCH   1  10
TORSDOF 0
ENDMDL
