MODEL 1
REMARK VINA RESULT:     0.256      0.000      0.000
REMARK INTER + INTRA:          -0.067
REMARK INTER:                   0.466
REMARK INTRA:                  -0.533
REMARK UNBOUND:                -0.533
REMARK SMILES CCCCCC=CCC=CCCCCCCCC(=O)[O-]
REMARK SMILES IDX 11 1 12 2 13 3 14 4 15 5 16 6 17 7 18 8 19 9 20 10 10 11
REMARK SMILES IDX 9 12 8 13 7 14 6 15 5 16 4 17 3 18 2 19 1 20
REMARK H PARENT
REMARK Flexibility Score: inf
ROOT
ATOM      1  C   UNL     1      44.409 -24.496   0.577  1.00  0.00     0.027 C 
ENDROOT
BRANCH   1   2
ATOM      2  C   UNL     1      45.608 -25.121   1.302  1.00  0.00     0.004 C 
BRANCH   2   3
ATOM      3  C   UNL     1      45.255 -26.444   2.004  1.00  0.00     0.000 C 
BRANCH   3   4
ATOM      4  C   UNL     1      46.053 -26.690   3.303  1.00  0.00     0.000 C 
BRANCH   4   5
ATOM      5  C   UNL     1      45.145 -27.096   4.477  1.00  0.00     0.000 C 
BRANCH   5   6
ATOM      6  C   UNL     1      45.908 -27.198   5.811  1.00  0.00     0.006 C 
BRANCH   6   7
ATOM      7  C   UNL     1      46.061 -28.634   6.340  1.00  0.00     0.053 C 
BRANCH   7   8
ATOM      8  C   UNL     1      45.575 -28.769   7.751  1.00  0.00     0.041 C 
ATOM      9  O   UNL     1      45.445 -27.748   8.477  1.00  0.00    -0.550 OA
ATOM     10  O   UNL     1      45.238 -30.019   8.255  1.00  0.00    -0.550 OA
ENDBRANCH   7   8
ENDBRANCH   6   7
ENDBRANCH   5   6
ENDBRANCH   4   5
ENDBRANCH   3   4
ENDBRANCH   2   3
ENDBRANCH   1   2
BRANCH   1  11
ATOM     11  C   UNL     1      44.866 -23.555  -0.509  1.00  0.00    -0.031 C 
ATOM     12  C   UNL     1      45.242 -23.945  -1.740  1.00  0.00    -0.027 C 
BRANCH  12  13
ATOM     13  C   UNL     1      45.287 -25.388  -2.179  1.00  0.00     0.054 C 
BRANCH  13  14
ATOM     14  C   UNL     1      45.977 -25.530  -3.507  1.00  0.00    -0.027 C 
ATOM     15  C   UNL     1      45.401 -25.110  -4.644  1.00  0.00    -0.031 C 
BRANCH  15  16
ATOM     16  C   UNL     1      46.106 -25.221  -5.966  1.00  0.00     0.027 C 
BRANCH  16  17
ATOM     17  C   UNL     1      45.364 -24.435  -7.058  1.00  0.00     0.004 C 
BRANCH  17  18
ATOM     18  C   UNL     1      45.803 -22.957  -7.107  1.00  0.00     0.000 C 
BRANCH  18  19
ATOM     19  C   UNL     1      45.747 -22.349  -8.519  1.00  0.00    -0.003 C 
ATOM     20  C   UNL     1      46.117 -20.867  -8.547  1.00  0.00     0.004 C 
ENDBRANCH  18  19
ENDBRANCH  17  18
ENDBRANCH  16  17
ENDBRANCH  15  16
ENDBRANCH  13  14
ENDBRANCH  12  13
ENDBRANCH   1  11
TORSDOF 14
ENDMDL
MODEL 2
REMARK VINA RESULT:     0.684      2.437      3.681
REMARK INTER + INTRA:           0.711
REMARK INTER:                   0.463
REMARK INTRA:                   0.247
REMARK UNBOUND:                -0.533
REMARK SMILES CCCCCC=CCC=CCCCCCCCC(=O)[O-]
REMARK SMILES IDX 11 1 12 2 13 3 14 4 15 5 16 6 17 7 18 8 19 9 20 10 10 11
REMARK SMILES IDX 9 12 8 13 7 14 6 15 5 16 4 17 3 18 2 19 1 20
REMARK H PARENT
REMARK Flexibility Score: inf
ROOT
ATOM      1  C   UNL     1      44.514 -23.905  -0.893  1.00  0.00     0.027 C 
ENDROOT
BRANCH   1   2
ATOM      2  C   UNL     1      44.638 -23.524   0.588  1.00  0.00     0.004 C 
BRANCH   2   3
ATOM      3  C   UNL     1      45.947 -24.023   1.224  1.00  0.00     0.000 C 
BRANCH   3   4
ATOM      4  C   UNL     1      45.960 -25.540   1.512  1.00  0.00     0.000 C 
BRANCH   4   5
ATOM      5  C   UNL     1      45.448 -25.870   2.925  1.00  0.00     0.000 C 
BRANCH   5   6
ATOM      6  C   UNL     1      45.567 -27.367   3.267  1.00  0.00     0.006 C 
BRANCH   6   7
ATOM      7  C   UNL     1      45.736 -28.280   2.041  1.00  0.00     0.053 C 
BRANCH   7   8
ATOM      8  C   UNL     1      45.794 -29.728   2.422  1.00  0.00     0.041 C 
ATOM      9  O   UNL     1      46.021 -30.062   3.615  1.00  0.00    -0.550 OA
ATOM     10  O   UNL     1      45.568 -30.710   1.465  1.00  0.00    -0.550 OA
ENDBRANCH   7   8
ENDBRANCH   6   7
ENDBRANCH   5   6
ENDBRANCH   4   5
ENDBRANCH   3   4
ENDBRANCH   2   3
ENDBRANCH   1   2
BRANCH   1  11
ATOM     11  C   UNL     1      45.821 -23.701  -1.615  1.00  0.00    -0.031 C 
ATOM     12  C   UNL     1      46.117 -24.238  -2.812  1.00  0.00    -0.027 C 
BRANCH  12  13
ATOM     13  C   UNL     1      45.182 -25.148  -3.571  1.00  0.00     0.054 C 
BRANCH  13  14
ATOM     14  C   UNL     1      45.026 -24.699  -4.997  1.00  0.00    -0.027 C 
ATOM     15  C   UNL     1      46.089 -24.385  -5.752  1.00  0.00    -0.031 C 
BRANCH  15  16
ATOM     16  C   UNL     1      45.934 -23.968  -7.187  1.00  0.00     0.027 C 
BRANCH  16  17
ATOM     17  C   UNL     1      45.291 -25.085  -8.023  1.00  0.00     0.004 C 
BRANCH  17  18
ATOM     18  C   UNL     1      46.106 -26.393  -7.967  1.00  0.00     0.000 C 
BRANCH  18  19
ATOM     19  C   UNL     1      46.125 -27.043  -6.574  1.00  0.00    -0.003 C 
ATOM     20  C   UNL     1      46.017 -28.566  -6.622  1.00  0.00     0.004 C 
ENDBRANCH  18  19
ENDBRANCH  17  18
ENDBRANCH  16  17
ENDBRANCH  15  16
ENDBRANCH  13  14
ENDBRANCH  12  13
ENDBRANCH   1  11
TORSDOF 14
ENDMDL
MODEL 3
REMARK VINA RESULT:     2.751      5.161     10.504
REMARK INTER + INTRA:           4.470
REMARK INTER:                   0.707
REMARK INTRA:                   3.763
REMARK UNBOUND:                -0.533
REMARK SMILES CCCCCC=CCC=CCCCCCCCC(=O)[O-]
REMARK SMILES IDX 11 1 12 2 13 3 14 4 15 5 16 6 17 7 18 8 19 9 20 10 10 11
REMARK SMILES IDX 9 12 8 13 7 14 6 15 5 16 4 17 3 18 2 19 1 20
REMARK H PARENT
REMARK Flexibility Score: inf
ROOT
ATOM      1  C   UNL     1      43.988 -23.986  -0.981  1.00  0.00     0.027 C 
ENDROOT
BRANCH   1   2
ATOM      2  C   UNL     1      45.416 -24.521  -1.150  1.00  0.00     0.004 C 
BRANCH   2   3
ATOM      3  C   UNL     1      46.095 -24.016  -2.435  1.00  0.00     0.000 C 
BRANCH   3   4
ATOM      4  C   UNL     1      46.116 -25.055  -3.577  1.00  0.00     0.000 C 
BRANCH   4   5
ATOM      5  C   UNL     1      44.857 -24.980  -4.457  1.00  0.00     0.000 C 
BRANCH   5   6
ATOM      6  C   UNL     1      45.130 -25.374  -5.921  1.00  0.00     0.006 C 
BRANCH   6   7
ATOM      7  C   UNL     1      46.124 -24.450  -6.645  1.00  0.00     0.053 C 
BRANCH   7   8
ATOM      8  C   UNL     1      45.735 -23.007  -6.533  1.00  0.00     0.041 C 
ATOM      9  O   UNL     1      45.270 -22.558  -5.453  1.00  0.00    -0.550 OA
ATOM     10  O   UNL     1      45.912 -22.152  -7.614  1.00  0.00    -0.550 OA
ENDBRANCH   7   8
ENDBRANCH   6   7
ENDBRANCH   5   6
ENDBRANCH   4   5
ENDBRANCH   3   4
ENDBRANCH   2   3
ENDBRANCH   1   2
BRANCH   1  11
ATOM     11  C   UNL     1      43.978 -22.726  -0.153  1.00  0.00    -0.031 C 
ATOM     12  C   UNL     1      44.931 -22.397   0.737  1.00  0.00    -0.027 C 
BRANCH  12  13
ATOM     13  C   UNL     1      46.121 -23.272   1.045  1.00  0.00     0.054 C 
BRANCH  13  14
ATOM     14  C   UNL     1      45.735 -24.725   1.065  1.00  0.00    -0.027 C 
ATOM     15  C   UNL     1      46.060 -25.522   2.094  1.00  0.00    -0.031 C 
BRANCH  15  16
ATOM     16  C   UNL     1      45.644 -26.965   2.128  1.00  0.00     0.027 C 
BRANCH  16  17
ATOM     17  C   UNL     1      45.850 -27.569   3.526  1.00  0.00     0.004 C 
BRANCH  17  18
ATOM     18  C   UNL     1      46.109 -26.486   4.593  1.00  0.00     0.000 C 
BRANCH  18  19
ATOM     19  C   UNL     1      45.970 -27.002   6.035  1.00  0.00    -0.003 C 
ATOM     20  C   UNL     1      46.088 -25.894   7.081  1.00  0.00     0.004 C 
ENDBRANCH  18  19
ENDBRANCH  17  18
ENDBRANCH  16  17
ENDBRANCH  15  16
ENDBRANCH  13  14
ENDBRANCH  12  13
ENDBRANCH   1  11
TORSDOF 14
ENDMDL
