MODEL 1
REMARK VINA RESULT:    -5.086      0.000      0.000
REMARK INTER + INTRA:          -7.693
REMARK INTER:                  -7.762
REMARK INTRA:                   0.069
REMARK UNBOUND:                 0.069
REMARK SMILES CC1=CCC[C@H](C)C(=O)C[C@H](C(C)C)C(=O)C1
REMARK SMILES IDX 8 1 9 2 6 3 7 4 5 5 4 6 3 7 2 8 1 9 10 11 11 12 15 13 16 14
REMARK SMILES IDX 17 15 12 17 13 18 14 19
REMARK H PARENT
REMARK Flexibility Score: 70.00
ROOT
ATOM      1  C   UNL     1      -4.400 -13.459  27.720  1.00  0.00     0.136 C 
ATOM      2  O   UNL     1      -4.236 -14.477  27.062  1.00  0.00    -0.299 OA
ENDROOT
BRANCH   1   3
ATOM      3  C   UNL     1      -3.452 -12.288  27.535  1.00  0.00     0.053 C 
ATOM      4  C   UNL     1      -3.529 -11.763  26.094  1.00  0.00     0.016 C 
BRANCH   3   5
ATOM      5  C   UNL     1      -3.772 -11.169  28.567  1.00  0.00     0.015 C 
BRANCH   5   6
ATOM      6  C   UNL     1      -2.870 -11.172  29.818  1.00  0.00     0.028 C 
BRANCH   6   7
ATOM      7  C   UNL     1      -3.589 -11.166  31.150  1.00  0.00    -0.028 C 
ATOM      8  C   UNL     1      -4.109 -12.240  31.786  1.00  0.00    -0.070 CG0
ATOM      9  C   UNL     1      -4.916 -11.994  33.037  1.00  0.00     0.039 C 
ATOM     10  G   UNL     1      -3.928 -13.666  31.304  1.00  0.00     0.000 G0
ENDBRANCH   6   7
ENDBRANCH   5   6
ENDBRANCH   3   5
ENDBRANCH   1   3
BRANCH   1  11
ATOM     11  C   UNL     1      -5.570 -13.374  28.677  1.00  0.00     0.087 C 
BRANCH  11  12
ATOM     12  C   UNL     1      -5.741 -14.620  29.599  1.00  0.00     0.066 C 
BRANCH  12  13
ATOM     13  C   UNL     1      -5.242 -14.376  31.023  1.00  0.00     0.140 C 
ATOM     14  O   UNL     1      -5.897 -14.777  31.973  1.00  0.00    -0.299 OA
BRANCH  13  15
ATOM     15  C   UNL     1      -3.930 -13.680  31.305  1.00  0.00     0.106 CG0
ATOM     16  G   UNL     1      -4.114 -12.252  31.779  1.00  0.00     0.000 G0
ENDBRANCH  13  15
ENDBRANCH  12  13
BRANCH  12  17
ATOM     17  C   UNL     1      -7.157 -15.277  29.510  1.00  0.00    -0.006 C 
ATOM     18  C   UNL     1      -7.949 -14.750  28.302  1.00  0.00     0.008 C 
ATOM     19  C   UNL     1      -7.157 -16.814  29.521  1.00  0.00     0.008 C 
ENDBRANCH  12  17
ENDBRANCH  11  12
ENDBRANCH   1  11
TORSDOF 1
ENDMDL
MODEL 2
REMARK VINA RESULT:    -5.009      2.001      3.006
REMARK INTER + INTRA:          -7.575
REMARK INTER:                  -7.637
REMARK INTRA:                   0.062
REMARK UNBOUND:                 0.069
REMARK SMILES CC1=CCC[C@H](C)C(=O)C[C@H](C(C)C)C(=O)C1
REMARK SMILES IDX 8 1 9 2 6 3 7 4 5 5 4 6 3 7 2 8 1 9 10 11 11 12 15 13 16 14
REMARK SMILES IDX 17 15 12 17 13 18 14 19
REMARK H PARENT
REMARK Flexibility Score: 70.00
ROOT
ATOM      1  C   UNL     1      -4.795 -13.956  27.706  1.00  0.00     0.136 C 
ATOM      2  O   UNL     1      -5.489 -14.892  27.337  1.00  0.00    -0.299 OA
ENDROOT
BRANCH   1   3
ATOM      3  C   UNL     1      -3.441 -13.730  27.059  1.00  0.00     0.053 C 
ATOM      4  C   UNL     1      -3.219 -12.234  26.794  1.00  0.00     0.016 C 
BRANCH   3   5
ATOM      5  C   UNL     1      -2.312 -14.324  27.950  1.00  0.00     0.015 C 
BRANCH   5   6
ATOM      6  C   UNL     1      -1.194 -13.329  28.320  1.00  0.00     0.028 C 
BRANCH   6   7
ATOM      7  C   UNL     1      -0.959 -13.120  29.800  1.00  0.00    -0.028 C 
ATOM      8  C   UNL     1      -1.470 -12.125  30.562  1.00  0.00    -0.070 CG0
ATOM      9  C   UNL     1      -0.990 -12.015  31.989  1.00  0.00     0.039 C 
ATOM     10  G   UNL     1      -2.487 -11.122  30.055  1.00  0.00     0.000 G0
ENDBRANCH   6   7
ENDBRANCH   5   6
ENDBRANCH   3   5
ENDBRANCH   1   3
BRANCH   1  11
ATOM     11  C   UNL     1      -5.317 -13.019  28.774  1.00  0.00     0.087 C 
BRANCH  11  12
ATOM     12  C   UNL     1      -4.439 -12.953  30.061  1.00  0.00     0.066 C 
BRANCH  12  13
ATOM     13  C   UNL     1      -3.929 -11.543  30.359  1.00  0.00     0.140 C 
ATOM     14  O   UNL     1      -4.674 -10.726  30.879  1.00  0.00    -0.299 OA
BRANCH  13  15
ATOM     15  C   UNL     1      -2.506 -11.126  30.067  1.00  0.00     0.106 CG0
ATOM     16  G   UNL     1      -1.487 -12.137  30.556  1.00  0.00     0.000 G0
ENDBRANCH  13  15
ENDBRANCH  12  13
BRANCH  12  17
ATOM     17  C   UNL     1      -5.068 -13.690  31.288  1.00  0.00    -0.006 C 
ATOM     18  C   UNL     1      -6.062 -14.776  30.845  1.00  0.00     0.008 C 
ATOM     19  C   UNL     1      -4.051 -14.269  32.284  1.00  0.00     0.008 C 
ENDBRANCH  12  17
ENDBRANCH  11  12
ENDBRANCH   1  11
TORSDOF 1
ENDMDL
MODEL 3
REMARK VINA RESULT:    -4.992      2.037      3.860
REMARK INTER + INTRA:          -7.550
REMARK INTER:                  -7.753
REMARK INTRA:                   0.203
REMARK UNBOUND:                 0.069
REMARK SMILES CC1=CCC[C@H](C)C(=O)C[C@H](C(C)C)C(=O)C1
REMARK SMILES IDX 8 1 9 2 6 3 7 4 5 5 4 6 3 7 2 8 1 9 10 11 11 12 15 13 16 14
REMARK SMILES IDX 17 15 12 17 13 18 14 19
REMARK H PARENT
REMARK Flexibility Score: 70.00
ROOT
ATOM      1  C   UNL     1      -4.824 -11.340  30.619  1.00  0.00     0.136 C 
ATOM      2  O   UNL     1      -5.545 -10.744  29.831  1.00  0.00    -0.299 OA
ENDROOT
BRANCH   1   3
ATOM      3  C   UNL     1      -4.121 -10.567  31.720  1.00  0.00     0.053 C 
ATOM      4  C   UNL     1      -4.887 -10.707  33.043  1.00  0.00     0.016 C 
BRANCH   3   5
ATOM      5  C   UNL     1      -2.648 -11.049  31.861  1.00  0.00     0.015 C 
BRANCH   5   6
ATOM      6  C   UNL     1      -1.793 -10.883  30.589  1.00  0.00     0.028 C 
BRANCH   6   7
ATOM      7  C   UNL     1      -1.171 -12.149  30.041  1.00  0.00    -0.028 C 
ATOM      8  C   UNL     1      -1.635 -12.889  29.008  1.00  0.00    -0.070 CG0
ATOM      9  C   UNL     1      -0.944 -14.200  28.717  1.00  0.00     0.039 C 
ATOM     10  G   UNL     1      -2.805 -12.472  28.140  1.00  0.00     0.000 G0
ENDBRANCH   6   7
ENDBRANCH   5   6
ENDBRANCH   3   5
ENDBRANCH   1   3
BRANCH   1  11
ATOM     11  C   UNL     1      -4.678 -12.842  30.504  1.00  0.00     0.087 C 
BRANCH  11  12
ATOM     12  C   UNL     1      -5.094 -13.426  29.120  1.00  0.00     0.066 C 
BRANCH  12  13
ATOM     13  C   UNL     1      -3.929 -13.504  28.134  1.00  0.00     0.140 C 
ATOM     14  O   UNL     1      -3.901 -14.392  27.296  1.00  0.00    -0.299 OA
BRANCH  13  15
ATOM     15  C   UNL     1      -2.812 -12.485  28.131  1.00  0.00     0.106 CG0
ATOM     16  G   UNL     1      -1.648 -12.890  29.014  1.00  0.00     0.000 G0
ENDBRANCH  13  15
ENDBRANCH  12  13
BRANCH  12  17
ATOM     17  C   UNL     1      -5.948 -14.733  29.221  1.00  0.00    -0.006 C 
ATOM     18  C   UNL     1      -6.266 -15.088  30.683  1.00  0.00     0.008 C 
ATOM     19  C   UNL     1      -7.233 -14.731  28.379  1.00  0.00     0.008 C 
ENDBRANCH  12  17
ENDBRANCH  11  12
ENDBRANCH   1  11
TORSDOF 1
ENDMDL
MODEL 4
REMARK VINA RESULT:    -4.925      2.007      2.525
REMARK INTER + INTRA:          -7.448
REMARK INTER:                  -7.792
REMARK INTRA:                   0.345
REMARK UNBOUND:                 0.069
REMARK SMILES CC1=CCC[C@H](C)C(=O)C[C@H](C(C)C)C(=O)C1
REMARK SMILES IDX 8 1 9 2 6 3 7 4 5 5 4 6 3 7 2 8 1 9 10 11 11 12 15 13 16 14
REMARK SMILES IDX 17 15 12 17 13 18 14 19
REMARK H PARENT
REMARK Flexibility Score: 70.00
ROOT
ATOM      1  C   UNL     1      -2.570 -12.968  28.071  1.00  0.00     0.136 C 
ATOM      2  O   UNL     1      -2.309 -11.962  27.428  1.00  0.00    -0.299 OA
ENDROOT
BRANCH   1   3
ATOM      3  C   UNL     1      -1.544 -13.520  29.044  1.00  0.00     0.053 C 
ATOM      4  C   UNL     1      -0.512 -14.379  28.299  1.00  0.00     0.016 C 
BRANCH   3   5
ATOM      5  C   UNL     1      -0.863 -12.359  29.824  1.00  0.00     0.015 C 
BRANCH   5   6
ATOM      6  C   UNL     1      -1.278 -12.248  31.304  1.00  0.00     0.028 C 
BRANCH   6   7
ATOM      7  C   UNL     1      -2.270 -13.282  31.791  1.00  0.00    -0.028 C 
ATOM      8  C   UNL     1      -3.615 -13.145  31.837  1.00  0.00    -0.070 CG0
ATOM      9  C   UNL     1      -4.411 -14.245  32.497  1.00  0.00     0.039 C 
ATOM     10  G   UNL     1      -4.353 -11.950  31.267  1.00  0.00     0.000 G0
ENDBRANCH   6   7
ENDBRANCH   5   6
ENDBRANCH   3   5
ENDBRANCH   1   3
BRANCH   1  11
ATOM     11  C   UNL     1      -3.927 -13.620  27.913  1.00  0.00     0.087 C 
BRANCH  11  12
ATOM     12  C   UNL     1      -4.823 -13.563  29.188  1.00  0.00     0.066 C 
BRANCH  12  13
ATOM     13  C   UNL     1      -4.835 -12.182  29.842  1.00  0.00     0.140 C 
ATOM     14  O   UNL     1      -5.268 -11.221  29.224  1.00  0.00    -0.299 OA
BRANCH  13  15
ATOM     15  C   UNL     1      -4.361 -11.962  31.260  1.00  0.00     0.106 CG0
ATOM     16  G   UNL     1      -3.614 -13.157  31.820  1.00  0.00     0.000 G0
ENDBRANCH  13  15
ENDBRANCH  12  13
BRANCH  12  17
ATOM     17  C   UNL     1      -6.237 -14.201  28.990  1.00  0.00    -0.006 C 
ATOM     18  C   UNL     1      -6.367 -14.870  27.612  1.00  0.00     0.008 C 
ATOM     19  C   UNL     1      -6.668 -15.173  30.100  1.00  0.00     0.008 C 
ENDBRANCH  12  17
ENDBRANCH  11  12
ENDBRANCH   1  11
TORSDOF 1
ENDMDL
MODEL 5
REMARK VINA RESULT:    -4.809      1.908      4.048
REMARK INTER + INTRA:          -7.270
REMARK INTER:                  -7.897
REMARK INTRA:                   0.627
REMARK UNBOUND:                 0.069
REMARK SMILES CC1=CCC[C@H](C)C(=O)C[C@H](C(C)C)C(=O)C1
REMARK SMILES IDX 8 1 9 2 6 3 7 4 5 5 4 6 3 7 2 8 1 9 10 11 11 12 15 13 16 14
REMARK SMILES IDX 17 15 12 17 13 18 14 19
REMARK H PARENT
REMARK Flexibility Score: 70.00
ROOT
ATOM      1  C   UNL     1      -3.184 -12.226  31.731  1.00  0.00     0.136 C 
ATOM      2  O   UNL     1      -4.102 -11.748  32.382  1.00  0.00    -0.299 OA
ENDROOT
BRANCH   1   3
ATOM      3  C   UNL     1      -1.870 -11.473  31.628  1.00  0.00     0.053 C 
ATOM      4  C   UNL     1      -0.689 -12.452  31.678  1.00  0.00     0.016 C 
BRANCH   3   5
ATOM      5  C   UNL     1      -1.843 -10.612  30.332  1.00  0.00     0.015 C 
BRANCH   5   6
ATOM      6  C   UNL     1      -3.232 -10.276  29.754  1.00  0.00     0.028 C 
BRANCH   6   7
ATOM      7  C   UNL     1      -3.379 -10.429  28.256  1.00  0.00    -0.028 C 
ATOM      8  C   UNL     1      -3.157 -11.554  27.538  1.00  0.00    -0.070 CG0
ATOM      9  C   UNL     1      -3.219 -11.451  26.033  1.00  0.00     0.039 C 
ATOM     10  G   UNL     1      -2.846 -12.899  28.165  1.00  0.00     0.000 G0
ENDBRANCH   6   7
ENDBRANCH   5   6
ENDBRANCH   3   5
ENDBRANCH   1   3
BRANCH   1  11
ATOM     11  C   UNL     1      -3.363 -13.578  31.075  1.00  0.00     0.087 C 
BRANCH  11  12
ATOM     12  C   UNL     1      -4.542 -13.650  30.057  1.00  0.00     0.066 C 
BRANCH  12  13
ATOM     13  C   UNL     1      -4.070 -13.657  28.603  1.00  0.00     0.140 C 
ATOM     14  O   UNL     1      -4.722 -14.250  27.757  1.00  0.00    -0.299 OA
BRANCH  13  15
ATOM     15  C   UNL     1      -2.831 -12.915  28.159  1.00  0.00     0.106 CG0
ATOM     16  G   UNL     1      -3.145 -11.567  27.541  1.00  0.00     0.000 G0
ENDBRANCH  13  15
ENDBRANCH  12  13
BRANCH  12  17
ATOM     17  C   UNL     1      -5.602 -14.747  30.402  1.00  0.00    -0.006 C 
ATOM     18  C   UNL     1      -5.942 -14.752  31.901  1.00  0.00     0.008 C 
ATOM     19  C   UNL     1      -6.888 -14.689  29.562  1.00  0.00     0.008 C 
ENDBRANCH  12  17
ENDBRANCH  11  12
ENDBRANCH   1  11
TORSDOF 1
ENDMDL
MODEL 6
REMARK VINA RESULT:    -4.792      2.448      4.137
REMARK INTER + INTRA:          -7.244
REMARK INTER:                  -6.896
REMARK INTRA:                  -0.349
REMARK UNBOUND:                 0.069
REMARK SMILES CC1=CCC[C@H](C)C(=O)C[C@H](C(C)C)C(=O)C1
REMARK SMILES IDX 8 1 9 2 6 3 7 4 5 5 4 6 3 7 2 8 1 9 10 11 11 12 15 13 16 14
REMARK SMILES IDX 17 15 12 17 13 18 14 19
REMARK H PARENT
REMARK Flexibility Score: 70.00
ROOT
ATOM      1  C   UNL     1      -4.802 -13.006  29.561  1.00  0.00     0.136 C 
ATOM      2  O   UNL     1      -5.391 -13.915  30.130  1.00  0.00    -0.299 OA
ENDROOT
BRANCH   1   3
ATOM      3  C   UNL     1      -4.212 -13.245  28.183  1.00  0.00     0.053 C 
ATOM      4  C   UNL     1      -3.841 -11.910  27.524  1.00  0.00     0.016 C 
BRANCH   3   5
ATOM      5  C   UNL     1      -2.983 -14.194  28.281  1.00  0.00     0.015 C 
BRANCH   5   6
ATOM      6  C   UNL     1      -1.617 -13.479  28.292  1.00  0.00     0.028 C 
BRANCH   6   7
ATOM      7  C   UNL     1      -0.900 -13.443  29.624  1.00  0.00    -0.028 C 
ATOM      8  C   UNL     1      -0.817 -12.385  30.463  1.00  0.00    -0.070 CG0
ATOM      9  C   UNL     1       0.072 -12.518  31.675  1.00  0.00     0.039 C 
ATOM     10  G   UNL     1      -1.563 -11.083  30.244  1.00  0.00     0.000 G0
ENDBRANCH   6   7
ENDBRANCH   5   6
ENDBRANCH   3   5
ENDBRANCH   1   3
BRANCH   1  11
ATOM     11  C   UNL     1      -4.707 -11.651  30.228  1.00  0.00     0.087 C 
BRANCH  11  12
ATOM     12  C   UNL     1      -3.843 -11.628  31.526  1.00  0.00     0.066 C 
BRANCH  12  13
ATOM     13  C   UNL     1      -2.566 -10.802  31.373  1.00  0.00     0.140 C 
ATOM     14  O   UNL     1      -2.318  -9.915  32.176  1.00  0.00    -0.299 OA
BRANCH  13  15
ATOM     15  C   UNL     1      -1.564 -11.070  30.274  1.00  0.00     0.106 CG0
ATOM     16  G   UNL     1      -0.807 -12.369  30.474  1.00  0.00     0.000 G0
ENDBRANCH  13  15
ENDBRANCH  12  13
BRANCH  12  17
ATOM     17  C   UNL     1      -4.664 -11.323  32.821  1.00  0.00    -0.006 C 
ATOM     18  C   UNL     1      -5.648 -10.161  32.605  1.00  0.00     0.008 C 
ATOM     19  C   UNL     1      -5.391 -12.535  33.425  1.00  0.00     0.008 C 
ENDBRANCH  12  17
ENDBRANCH  11  12
ENDBRANCH   1  11
TORSDOF 1
ENDMDL
MODEL 7
REMARK VINA RESULT:    -4.750      2.527      5.362
REMARK INTER + INTRA:          -7.180
REMARK INTER:                  -8.156
REMARK INTRA:                   0.976
REMARK UNBOUND:                 0.069
REMARK SMILES CC1=CCC[C@H](C)C(=O)C[C@H](C(C)C)C(=O)C1
REMARK SMILES IDX 8 1 9 2 6 3 7 4 5 5 4 6 3 7 2 8 1 9 10 11 11 12 15 13 16 14
REMARK SMILES IDX 17 15 12 17 13 18 14 19
REMARK H PARENT
REMARK Flexibility Score: 70.00
ROOT
ATOM      1  C   UNL     1      -4.155 -13.035  31.627  1.00  0.00     0.136 C 
ATOM      2  O   UNL     1      -4.862 -12.095  31.959  1.00  0.00    -0.299 OA
ENDROOT
BRANCH   1   3
ATOM      3  C   UNL     1      -4.800 -14.344  31.209  1.00  0.00     0.053 C 
ATOM      4  C   UNL     1      -5.626 -14.924  32.365  1.00  0.00     0.016 C 
BRANCH   3   5
ATOM      5  C   UNL     1      -5.671 -14.131  29.936  1.00  0.00     0.015 C 
BRANCH   5   6
ATOM      6  C   UNL     1      -5.589 -12.717  29.330  1.00  0.00     0.028 C 
BRANCH   6   7
ATOM      7  C   UNL     1      -4.636 -12.551  28.166  1.00  0.00    -0.028 C 
ATOM      8  C   UNL     1      -3.763 -11.534  27.981  1.00  0.00    -0.070 CG0
ATOM      9  C   UNL     1      -3.007 -11.485  26.676  1.00  0.00     0.039 C 
ATOM     10  G   UNL     1      -3.514 -10.449  29.010  1.00  0.00     0.000 G0
ENDBRANCH   6   7
ENDBRANCH   5   6
ENDBRANCH   3   5
ENDBRANCH   1   3
BRANCH   1  11
ATOM     11  C   UNL     1      -2.651 -12.862  31.602  1.00  0.00     0.087 C 
BRANCH  11  12
ATOM     12  C   UNL     1      -2.088 -12.303  30.260  1.00  0.00     0.066 C 
BRANCH  12  13
ATOM     13  C   UNL     1      -2.465 -10.842  30.021  1.00  0.00     0.140 C 
ATOM     14  O   UNL     1      -1.894  -9.958  30.643  1.00  0.00    -0.299 OA
BRANCH  13  15
ATOM     15  C   UNL     1      -3.506 -10.438  29.003  1.00  0.00     0.106 CG0
ATOM     16  G   UNL     1      -3.773 -11.522  27.977  1.00  0.00     0.000 G0
ENDBRANCH  13  15
ENDBRANCH  12  13
BRANCH  12  17
ATOM     17  C   UNL     1      -0.577 -12.631  30.029  1.00  0.00    -0.006 C 
ATOM     18  C   UNL     1       0.210 -12.632  31.350  1.00  0.00     0.008 C 
ATOM     19  C   UNL     1      -0.309 -13.926  29.245  1.00  0.00     0.008 C 
ENDBRANCH  12  17
ENDBRANCH  11  12
ENDBRANCH   1  11
TORSDOF 1
ENDMDL
MODEL 8
REMARK VINA RESULT:    -4.657      2.069      4.162
REMARK INTER + INTRA:          -7.038
REMARK INTER:                  -6.660
REMARK INTRA:                  -0.378
REMARK UNBOUND:                 0.069
REMARK SMILES CC1=CCC[C@H](C)C(=O)C[C@H](C(C)C)C(=O)C1
REMARK SMILES IDX 8 1 9 2 6 3 7 4 5 5 4 6 3 7 2 8 1 9 10 11 11 12 15 13 16 14
REMARK SMILES IDX 17 15 12 17 13 18 14 19
REMARK H PARENT
REMARK Flexibility Score: 70.00
ROOT
ATOM      1  C   UNL     1      -2.202 -12.269  31.412  1.00  0.00     0.136 C 
ATOM      2  O   UNL     1      -1.063 -12.315  31.853  1.00  0.00    -0.299 OA
ENDROOT
BRANCH   1   3
ATOM      3  C   UNL     1      -2.831 -10.922  31.105  1.00  0.00     0.053 C 
ATOM      4  C   UNL     1      -2.625  -9.957  32.282  1.00  0.00     0.016 C 
BRANCH   3   5
ATOM      5  C   UNL     1      -2.245 -10.343  29.785  1.00  0.00     0.015 C 
BRANCH   5   6
ATOM      6  C   UNL     1      -3.231 -10.319  28.600  1.00  0.00     0.028 C 
BRANCH   6   7
ATOM      7  C   UNL     1      -3.289 -11.579  27.763  1.00  0.00    -0.028 C 
ATOM      8  C   UNL     1      -4.149 -12.610  27.925  1.00  0.00    -0.070 CG0
ATOM      9  C   UNL     1      -3.940 -13.840  27.073  1.00  0.00     0.039 C 
ATOM     10  G   UNL     1      -5.298 -12.595  28.913  1.00  0.00     0.000 G0
ENDBRANCH   6   7
ENDBRANCH   5   6
ENDBRANCH   3   5
ENDBRANCH   1   3
BRANCH   1  11
ATOM     11  C   UNL     1      -2.948 -13.559  31.144  1.00  0.00     0.087 C 
BRANCH  11  12
ATOM     12  C   UNL     1      -4.497 -13.449  31.282  1.00  0.00     0.066 C 
BRANCH  12  13
ATOM     13  C   UNL     1      -5.227 -13.669  29.957  1.00  0.00     0.140 C 
ATOM     14  O   UNL     1      -5.791 -14.732  29.744  1.00  0.00    -0.299 OA
BRANCH  13  15
ATOM     15  C   UNL     1      -5.312 -12.592  28.900  1.00  0.00     0.106 CG0
ATOM     16  G   UNL     1      -4.144 -12.624  27.935  1.00  0.00     0.000 G0
ENDBRANCH  13  15
ENDBRANCH  12  13
BRANCH  12  17
ATOM     17  C   UNL     1      -5.079 -14.258  32.487  1.00  0.00    -0.006 C 
ATOM     18  C   UNL     1      -4.066 -15.285  33.019  1.00  0.00     0.008 C 
ATOM     19  C   UNL     1      -5.625 -13.399  33.638  1.00  0.00     0.008 C 
ENDBRANCH  12  17
ENDBRANCH  11  12
ENDBRANCH   1  11
TORSDOF 1
ENDMDL
MODEL 9
REMARK VINA RESULT:    -4.642      2.340      3.462
REMARK INTER + INTRA:          -7.016
REMARK INTER:                  -7.383
REMARK INTRA:                   0.367
REMARK UNBOUND:                 0.069
REMARK SMILES CC1=CCC[C@H](C)C(=O)C[C@H](C(C)C)C(=O)C1
REMARK SMILES IDX 8 1 9 2 6 3 7 4 5 5 4 6 3 7 2 8 1 9 10 11 11 12 15 13 16 14
REMARK SMILES IDX 17 15 12 17 13 18 14 19
REMARK H PARENT
REMARK Flexibility Score: 70.00
ROOT
ATOM      1  C   UNL     1      -3.630 -12.894  27.864  1.00  0.00     0.136 C 
ATOM      2  O   UNL     1      -4.813 -13.139  27.670  1.00  0.00    -0.299 OA
ENDROOT
BRANCH   1   3
ATOM      3  C   UNL     1      -3.006 -11.668  27.222  1.00  0.00     0.053 C 
ATOM      4  C   UNL     1      -3.411 -11.576  25.744  1.00  0.00     0.016 C 
BRANCH   3   5
ATOM      5  C   UNL     1      -3.410 -10.386  28.005  1.00  0.00     0.015 C 
BRANCH   5   6
ATOM      6  C   UNL     1      -4.613 -10.564  28.954  1.00  0.00     0.028 C 
BRANCH   6   7
ATOM      7  C   UNL     1      -4.358 -10.241  30.410  1.00  0.00    -0.028 C 
ATOM      8  C   UNL     1      -4.490 -11.090  31.455  1.00  0.00    -0.070 CG0
ATOM      9  C   UNL     1      -4.329 -10.524  32.845  1.00  0.00     0.039 C 
ATOM     10  G   UNL     1      -4.794 -12.567  31.300  1.00  0.00     0.000 G0
ENDBRANCH   6   7
ENDBRANCH   5   6
ENDBRANCH   3   5
ENDBRANCH   1   3
BRANCH   1  11
ATOM     11  C   UNL     1      -2.824 -13.797  28.772  1.00  0.00     0.087 C 
BRANCH  11  12
ATOM     12  C   UNL     1      -2.464 -13.170  30.153  1.00  0.00     0.066 C 
BRANCH  12  13
ATOM     13  C   UNL     1      -3.533 -13.422  31.215  1.00  0.00     0.140 C 
ATOM     14  O   UNL     1      -3.375 -14.312  32.036  1.00  0.00    -0.299 OA
BRANCH  13  15
ATOM     15  C   UNL     1      -4.780 -12.573  31.315  1.00  0.00     0.106 CG0
ATOM     16  G   UNL     1      -4.473 -11.095  31.460  1.00  0.00     0.000 G0
ENDBRANCH  13  15
ENDBRANCH  12  13
BRANCH  12  17
ATOM     17  C   UNL     1      -1.002 -13.472  30.617  1.00  0.00    -0.006 C 
ATOM     18  C   UNL     1       0.003 -13.308  29.465  1.00  0.00     0.008 C 
ATOM     19  C   UNL     1      -0.538 -12.678  31.849  1.00  0.00     0.008 C 
ENDBRANCH  12  17
ENDBRANCH  11  12
ENDBRANCH   1  11
TORSDOF 1
ENDMDL
