MODEL 1
REMARK VINA RESULT:    -6.658      0.000      0.000
REMARK INTER + INTRA:          -8.210
REMARK INTER:                  -8.215
REMARK INTRA:                   0.006
REMARK UNBOUND:                 0.006
REMARK SMILES Oc1cc(O)c2cc(O)c(-c3cc(O)c(O)c(O)c3)[o+]c2c1
REMARK SMILES IDX 10 1 20 2 21 3 22 4 2 5 3 6 4 7 6 8 7 9 8 10 11 11 12 12
REMARK SMILES IDX 13 13 19 14 15 15 17 16 14 17 16 19 18 21 9 23 1 25 5 27
REMARK H PARENT 14 18 16 20 18 22 9 24 1 26 5 28
REMARK Flexibility Score: inf
ROOT
ATOM      1  C   UNL     1      29.298 -22.521 -33.117  1.00  0.00     0.402 A 
ATOM      2  O   UNL     1      28.485 -23.129 -32.257  1.00  0.00    -0.202 OA
ATOM      3  C   UNL     1      28.672 -23.116 -30.941  1.00  0.00     0.368 A 
ATOM      4  C   UNL     1      27.761 -23.782 -30.118  1.00  0.00     0.162 A 
ATOM      5  C   UNL     1      27.930 -23.783 -28.733  1.00  0.00     0.128 A 
ATOM      6  C   UNL     1      29.018 -23.112 -28.165  1.00  0.00     0.093 A 
ATOM      7  C   UNL     1      29.946 -22.436 -28.967  1.00  0.00     0.136 A 
ATOM      8  C   UNL     1      29.778 -22.436 -30.377  1.00  0.00     0.125 A 
ATOM      9  C   UNL     1      30.663 -21.798 -31.260  1.00  0.00     0.078 A 
ATOM     10  C   UNL     1      30.435 -21.844 -32.638  1.00  0.00     0.223 A 
ENDROOT
BRANCH   1  11
ATOM     11  C   UNL     1      28.977 -22.599 -34.561  1.00  0.00     0.091 A 
ATOM     12  C   UNL     1      29.098 -21.480 -35.398  1.00  0.00     0.068 A 
ATOM     13  C   UNL     1      28.770 -21.567 -36.753  1.00  0.00     0.162 A 
ATOM     14  C   UNL     1      28.487 -23.800 -35.093  1.00  0.00     0.068 A 
ATOM     15  C   UNL     1      28.301 -22.778 -37.294  1.00  0.00     0.200 A 
ATOM     16  C   UNL     1      28.154 -23.904 -36.449  1.00  0.00     0.162 A 
BRANCH  13  17
ATOM     17  O   UNL     1      28.912 -20.430 -37.550  1.00  0.00    -0.504 OA
ATOM     18  H   UNL     1      28.185 -20.118 -38.183  1.00  0.00     0.293 HD
ENDBRANCH  13  17
BRANCH  15  19
ATOM     19  O   UNL     1      27.992 -22.824 -38.657  1.00  0.00    -0.502 OA
ATOM     20  H   UNL     1      28.616 -22.524 -39.390  1.00  0.00     0.293 HD
ENDBRANCH  15  19
BRANCH  16  21
ATOM     21  O   UNL     1      27.684 -25.137 -36.908  1.00  0.00    -0.504 OA
ATOM     22  H   UNL     1      26.805 -25.266 -37.388  1.00  0.00     0.293 HD
ENDBRANCH  16  21
ENDBRANCH   1  11
BRANCH  10  23
ATOM     23  O   UNL     1      31.341 -21.253 -33.518  1.00  0.00    -0.500 OA
ATOM     24  H   UNL     1      31.785 -21.781 -34.261  1.00  0.00     0.294 HD
ENDBRANCH  10  23
BRANCH   5  25
ATOM     25  O   UNL     1      27.010 -24.454 -27.930  1.00  0.00    -0.507 OA
ATOM     26  H   UNL     1      26.640 -24.033 -27.085  1.00  0.00     0.293 HD
ENDBRANCH   5  25
BRANCH   7  27
ATOM     27  O   UNL     1      31.003 -21.787 -28.323  1.00  0.00    -0.507 OA
ATOM     28  H   UNL     1      31.040 -20.794 -28.147  1.00  0.00     0.293 HD
ENDBRANCH   7  27
TORSDOF 7
ENDMDL
MODEL 2
REMARK VINA RESULT:    -6.625      1.669      2.572
REMARK INTER + INTRA:          -8.169
REMARK INTER:                  -7.915
REMARK INTRA:                  -0.254
REMARK UNBOUND:                 0.006
REMARK SMILES Oc1cc(O)c2cc(O)c(-c3cc(O)c(O)c(O)c3)[o+]c2c1
REMARK SMILES IDX 10 1 20 2 21 3 22 4 2 5 3 6 4 7 6 8 7 9 8 10 11 11 12 12
REMARK SMILES IDX 13 13 19 14 15 15 17 16 14 17 16 19 18 21 9 23 1 25 5 27
REMARK H PARENT 14 18 16 20 18 22 9 24 1 26 5 28
REMARK Flexibility Score: inf
ROOT
ATOM      1  C   UNL     1      29.849 -22.946 -33.124  1.00  0.00     0.402 A 
ATOM      2  O   UNL     1      29.302 -22.179 -32.183  1.00  0.00    -0.202 OA
ATOM      3  C   UNL     1      29.732 -22.149 -30.925  1.00  0.00     0.368 A 
ATOM      4  C   UNL     1      29.095 -21.309 -30.009  1.00  0.00     0.162 A 
ATOM      5  C   UNL     1      29.525 -21.254 -28.683  1.00  0.00     0.128 A 
ATOM      6  C   UNL     1      30.603 -22.045 -28.269  1.00  0.00     0.093 A 
ATOM      7  C   UNL     1      31.259 -22.895 -29.167  1.00  0.00     0.136 A 
ATOM      8  C   UNL     1      30.821 -22.956 -30.516  1.00  0.00     0.125 A 
ATOM      9  C   UNL     1      31.409 -23.787 -31.482  1.00  0.00     0.078 A 
ATOM     10  C   UNL     1      30.920 -23.796 -32.792  1.00  0.00     0.223 A 
ENDROOT
BRANCH   1  11
ATOM     11  C   UNL     1      29.287 -22.883 -34.492  1.00  0.00     0.091 A 
ATOM     12  C   UNL     1      28.604 -23.973 -35.052  1.00  0.00     0.068 A 
ATOM     13  C   UNL     1      28.099 -23.904 -36.353  1.00  0.00     0.162 A 
ATOM     14  C   UNL     1      29.489 -21.733 -35.268  1.00  0.00     0.068 A 
ATOM     15  C   UNL     1      28.280 -22.741 -37.124  1.00  0.00     0.200 A 
ATOM     16  C   UNL     1      28.989 -21.647 -36.573  1.00  0.00     0.162 A 
BRANCH  13  17
ATOM     17  O   UNL     1      27.420 -25.010 -36.867  1.00  0.00    -0.504 OA
ATOM     18  H   UNL     1      26.438 -24.978 -37.110  1.00  0.00     0.293 HD
ENDBRANCH  13  17
BRANCH  15  19
ATOM     19  O   UNL     1      27.751 -22.711 -38.418  1.00  0.00    -0.502 OA
ATOM     20  H   UNL     1      28.306 -22.621 -39.256  1.00  0.00     0.293 HD
ENDBRANCH  15  19
BRANCH  16  21
ATOM     21  O   UNL     1      29.220 -20.464 -37.279  1.00  0.00    -0.504 OA
ATOM     22  H   UNL     1      29.758 -19.687 -36.924  1.00  0.00     0.293 HD
ENDBRANCH  16  21
ENDBRANCH   1  11
BRANCH  10  23
ATOM     23  O   UNL     1      31.471 -24.658 -33.739  1.00  0.00    -0.500 OA
ATOM     24  H   UNL     1      31.181 -25.627 -33.810  1.00  0.00     0.294 HD
ENDBRANCH  10  23
BRANCH   5  25
ATOM     25  O   UNL     1      28.876 -20.410 -27.785  1.00  0.00    -0.507 OA
ATOM     26  H   UNL     1      27.911 -20.131 -27.924  1.00  0.00     0.293 HD
ENDBRANCH   5  25
BRANCH   7  27
ATOM     27  O   UNL     1      32.328 -23.650 -28.676  1.00  0.00    -0.507 OA
ATOM     28  H   UNL     1      32.712 -24.462 -29.136  1.00  0.00     0.293 HD
ENDBRANCH   7  27
TORSDOF 7
ENDMDL
MODEL 3
REMARK VINA RESULT:    -6.567      1.857      7.306
REMARK INTER + INTRA:          -8.097
REMARK INTER:                  -7.729
REMARK INTRA:                  -0.368
REMARK UNBOUND:                 0.006
REMARK SMILES Oc1cc(O)c2cc(O)c(-c3cc(O)c(O)c(O)c3)[o+]c2c1
REMARK SMILES IDX 10 1 20 2 21 3 22 4 2 5 3 6 4 7 6 8 7 9 8 10 11 11 12 12
REMARK SMILES IDX 13 13 19 14 15 15 17 16 14 17 16 19 18 21 9 23 1 25 5 27
REMARK H PARENT 14 18 16 20 18 22 9 24 1 26 5 28
REMARK Flexibility Score: inf
ROOT
ATOM      1  C   UNL     1      28.448 -22.431 -31.840  1.00  0.00     0.402 A 
ATOM      2  O   UNL     1      29.003 -21.916 -32.935  1.00  0.00    -0.202 OA
ATOM      3  C   UNL     1      28.427 -21.957 -34.133  1.00  0.00     0.368 A 
ATOM      4  C   UNL     1      29.086 -21.387 -35.224  1.00  0.00     0.162 A 
ATOM      5  C   UNL     1      28.505 -21.413 -36.492  1.00  0.00     0.128 A 
ATOM      6  C   UNL     1      27.254 -22.013 -36.672  1.00  0.00     0.093 A 
ATOM      7  C   UNL     1      26.572 -22.592 -35.595  1.00  0.00     0.136 A 
ATOM      8  C   UNL     1      27.162 -22.570 -34.304  1.00  0.00     0.125 A 
ATOM      9  C   UNL     1      26.559 -23.136 -33.170  1.00  0.00     0.078 A 
ATOM     10  C   UNL     1      27.203 -23.080 -31.931  1.00  0.00     0.223 A 
ENDROOT
BRANCH   1  11
ATOM     11  C   UNL     1      29.185 -22.312 -30.561  1.00  0.00     0.091 A 
ATOM     12  C   UNL     1      28.852 -21.332 -29.614  1.00  0.00     0.068 A 
ATOM     13  C   UNL     1      29.571 -21.221 -28.422  1.00  0.00     0.162 A 
ATOM     14  C   UNL     1      30.275 -23.158 -30.312  1.00  0.00     0.068 A 
ATOM     15  C   UNL     1      30.650 -22.085 -28.161  1.00  0.00     0.200 A 
ATOM     16  C   UNL     1      31.006 -23.061 -29.123  1.00  0.00     0.162 A 
BRANCH  13  17
ATOM     17  O   UNL     1      29.201 -20.236 -27.506  1.00  0.00    -0.504 OA
ATOM     18  H   UNL     1      28.490 -20.390 -26.802  1.00  0.00     0.293 HD
ENDBRANCH  13  17
BRANCH  15  19
ATOM     19  O   UNL     1      31.338 -21.945 -26.952  1.00  0.00    -0.502 OA
ATOM     20  H   UNL     1      31.309 -22.619 -26.201  1.00  0.00     0.293 HD
ENDBRANCH  15  19
BRANCH  16  21
ATOM     21  O   UNL     1      32.071 -23.947 -28.942  1.00  0.00    -0.504 OA
ATOM     22  H   UNL     1      32.977 -23.841 -29.375  1.00  0.00     0.293 HD
ENDBRANCH  16  21
ENDBRANCH   1  11
BRANCH  10  23
ATOM     23  O   UNL     1      26.628 -23.686 -30.814  1.00  0.00    -0.500 OA
ATOM     24  H   UNL     1      26.799 -23.345 -29.875  1.00  0.00     0.294 HD
ENDBRANCH  10  23
BRANCH   5  25
ATOM     25  O   UNL     1      29.179 -20.838 -37.568  1.00  0.00    -0.507 OA
ATOM     26  H   UNL     1      28.756 -20.779 -38.487  1.00  0.00     0.293 HD
ENDBRANCH   5  25
BRANCH   7  27
ATOM     27  O   UNL     1      25.326 -23.168 -35.857  1.00  0.00    -0.507 OA
ATOM     28  H   UNL     1      24.575 -22.706 -36.348  1.00  0.00     0.293 HD
ENDBRANCH   7  27
TORSDOF 7
ENDMDL
MODEL 4
REMARK VINA RESULT:    -6.559      1.844      7.435
REMARK INTER + INTRA:          -8.087
REMARK INTER:                  -7.742
REMARK INTRA:                  -0.345
REMARK UNBOUND:                 0.006
REMARK SMILES Oc1cc(O)c2cc(O)c(-c3cc(O)c(O)c(O)c3)[o+]c2c1
REMARK SMILES IDX 10 1 20 2 21 3 22 4 2 5 3 6 4 7 6 8 7 9 8 10 11 11 12 12
REMARK SMILES IDX 13 13 19 14 15 15 17 16 14 17 16 19 18 21 9 23 1 25 5 27
REMARK H PARENT 14 18 16 20 18 22 9 24 1 26 5 28
REMARK Flexibility Score: inf
ROOT
ATOM      1  C   UNL     1      28.527 -22.420 -31.798  1.00  0.00     0.402 A 
ATOM      2  O   UNL     1      29.057 -21.901 -32.903  1.00  0.00    -0.202 OA
ATOM      3  C   UNL     1      28.464 -21.955 -34.091  1.00  0.00     0.368 A 
ATOM      4  C   UNL     1      29.097 -21.378 -35.194  1.00  0.00     0.162 A 
ATOM      5  C   UNL     1      28.498 -21.417 -36.453  1.00  0.00     0.128 A 
ATOM      6  C   UNL     1      27.253 -22.036 -36.612  1.00  0.00     0.093 A 
ATOM      7  C   UNL     1      26.597 -22.622 -35.523  1.00  0.00     0.136 A 
ATOM      8  C   UNL     1      27.206 -22.587 -34.241  1.00  0.00     0.125 A 
ATOM      9  C   UNL     1      26.629 -23.159 -33.097  1.00  0.00     0.078 A 
ATOM     10  C   UNL     1      27.290 -23.089 -31.867  1.00  0.00     0.223 A 
ENDROOT
BRANCH   1  11
ATOM     11  C   UNL     1      29.281 -22.287 -30.530  1.00  0.00     0.091 A 
ATOM     12  C   UNL     1      30.356 -23.135 -30.226  1.00  0.00     0.068 A 
ATOM     13  C   UNL     1      31.042 -23.009 -29.016  1.00  0.00     0.162 A 
ATOM     14  C   UNL     1      28.879 -21.330 -29.587  1.00  0.00     0.068 A 
ATOM     15  C   UNL     1      30.655 -22.033 -28.079  1.00  0.00     0.200 A 
ATOM     16  C   UNL     1      29.556 -21.189 -28.370  1.00  0.00     0.162 A 
BRANCH  13  17
ATOM     17  O   UNL     1      32.109 -23.871 -28.758  1.00  0.00    -0.504 OA
ATOM     18  H   UNL     1      32.716 -23.757 -27.956  1.00  0.00     0.293 HD
ENDBRANCH  13  17
BRANCH  15  19
ATOM     19  O   UNL     1      31.374 -21.935 -26.884  1.00  0.00    -0.502 OA
ATOM     20  H   UNL     1      31.102 -22.379 -26.020  1.00  0.00     0.293 HD
ENDBRANCH  15  19
BRANCH  16  21
ATOM     21  O   UNL     1      29.105 -20.206 -27.487  1.00  0.00    -0.504 OA
ATOM     22  H   UNL     1      28.489 -20.384 -26.707  1.00  0.00     0.293 HD
ENDBRANCH  16  21
ENDBRANCH   1  11
BRANCH  10  23
ATOM     23  O   UNL     1      26.741 -23.700 -30.740  1.00  0.00    -0.500 OA
ATOM     24  H   UNL     1      26.001 -23.262 -30.204  1.00  0.00     0.294 HD
ENDBRANCH  10  23
BRANCH   5  25
ATOM     25  O   UNL     1      29.146 -20.835 -37.540  1.00  0.00    -0.507 OA
ATOM     26  H   UNL     1      30.147 -20.673 -37.535  1.00  0.00     0.293 HD
ENDBRANCH   5  25
BRANCH   7  27
ATOM     27  O   UNL     1      25.356 -23.218 -35.764  1.00  0.00    -0.507 OA
ATOM     28  H   UNL     1      25.192 -23.937 -36.454  1.00  0.00     0.293 HD
ENDBRANCH   7  27
TORSDOF 7
ENDMDL
MODEL 5
REMARK VINA RESULT:    -6.406      1.807      2.589
REMARK INTER + INTRA:          -7.899
REMARK INTER:                  -7.910
REMARK INTRA:                   0.011
REMARK UNBOUND:                 0.006
REMARK SMILES Oc1cc(O)c2cc(O)c(-c3cc(O)c(O)c(O)c3)[o+]c2c1
REMARK SMILES IDX 10 1 20 2 21 3 22 4 2 5 3 6 4 7 6 8 7 9 8 10 11 11 12 12
REMARK SMILES IDX 13 13 19 14 15 15 17 16 14 17 16 19 18 21 9 23 1 25 5 27
REMARK H PARENT 14 18 16 20 18 22 9 24 1 26 5 28
REMARK Flexibility Score: inf
ROOT
ATOM      1  C   UNL     1      28.462 -22.110 -31.436  1.00  0.00     0.402 A 
ATOM      2  O   UNL     1      28.146 -23.257 -30.840  1.00  0.00    -0.202 OA
ATOM      3  C   UNL     1      28.279 -23.461 -29.532  1.00  0.00     0.368 A 
ATOM      4  C   UNL     1      27.918 -24.699 -28.997  1.00  0.00     0.162 A 
ATOM      5  C   UNL     1      28.045 -24.941 -27.629  1.00  0.00     0.128 A 
ATOM      6  C   UNL     1      28.535 -23.936 -26.787  1.00  0.00     0.093 A 
ATOM      7  C   UNL     1      28.904 -22.686 -27.298  1.00  0.00     0.136 A 
ATOM      8  C   UNL     1      28.780 -22.438 -28.691  1.00  0.00     0.125 A 
ATOM      9  C   UNL     1      29.136 -21.221 -29.293  1.00  0.00     0.078 A 
ATOM     10  C   UNL     1      28.990 -21.052 -30.673  1.00  0.00     0.223 A 
ENDROOT
BRANCH   1  11
ATOM     11  C   UNL     1      28.258 -22.003 -32.899  1.00  0.00     0.091 A 
ATOM     12  C   UNL     1      27.070 -22.437 -33.505  1.00  0.00     0.068 A 
ATOM     13  C   UNL     1      26.904 -22.348 -34.889  1.00  0.00     0.162 A 
ATOM     14  C   UNL     1      29.294 -21.510 -33.704  1.00  0.00     0.068 A 
ATOM     15  C   UNL     1      27.933 -21.831 -35.696  1.00  0.00     0.200 A 
ATOM     16  C   UNL     1      29.144 -21.413 -35.093  1.00  0.00     0.162 A 
BRANCH  13  17
ATOM     17  O   UNL     1      25.702 -22.786 -35.449  1.00  0.00    -0.504 OA
ATOM     18  H   UNL     1      25.042 -23.357 -34.935  1.00  0.00     0.293 HD
ENDBRANCH  13  17
BRANCH  15  19
ATOM     19  O   UNL     1      27.722 -21.752 -37.076  1.00  0.00    -0.502 OA
ATOM     20  H   UNL     1      27.910 -22.503 -37.723  1.00  0.00     0.293 HD
ENDBRANCH  15  19
BRANCH  16  21
ATOM     21  O   UNL     1      30.216 -20.900 -35.827  1.00  0.00    -0.504 OA
ATOM     22  H   UNL     1      30.361 -19.918 -36.009  1.00  0.00     0.293 HD
ENDBRANCH  16  21
ENDBRANCH   1  11
BRANCH  10  23
ATOM     23  O   UNL     1      29.391 -19.862 -31.279  1.00  0.00    -0.500 OA
ATOM     24  H   UNL     1      30.357 -19.694 -31.535  1.00  0.00     0.294 HD
ENDBRANCH  10  23
BRANCH   5  25
ATOM     25  O   UNL     1      27.679 -26.183 -27.115  1.00  0.00    -0.507 OA
ATOM     26  H   UNL     1      27.186 -26.266 -26.233  1.00  0.00     0.293 HD
ENDBRANCH   5  25
BRANCH   7  27
ATOM     27  O   UNL     1      29.381 -21.735 -26.392  1.00  0.00    -0.507 OA
ATOM     28  H   UNL     1      29.928 -20.926 -26.649  1.00  0.00     0.293 HD
ENDBRANCH   7  27
TORSDOF 7
ENDMDL
MODEL 6
REMARK VINA RESULT:    -6.352      2.119      2.955
REMARK INTER + INTRA:          -7.832
REMARK INTER:                  -7.447
REMARK INTRA:                  -0.385
REMARK UNBOUND:                 0.006
REMARK SMILES Oc1cc(O)c2cc(O)c(-c3cc(O)c(O)c(O)c3)[o+]c2c1
REMARK SMILES IDX 10 1 20 2 21 3 22 4 2 5 3 6 4 7 6 8 7 9 8 10 11 11 12 12
REMARK SMILES IDX 13 13 19 14 15 15 17 16 14 17 16 19 18 21 9 23 1 25 5 27
REMARK H PARENT 14 18 16 20 18 22 9 24 1 26 5 28
REMARK Flexibility Score: inf
ROOT
ATOM      1  C   UNL     1      29.210 -21.858 -31.995  1.00  0.00     0.402 A 
ATOM      2  O   UNL     1      29.990 -22.870 -31.623  1.00  0.00    -0.202 OA
ATOM      3  C   UNL     1      30.522 -22.974 -30.409  1.00  0.00     0.368 A 
ATOM      4  C   UNL     1      31.326 -24.076 -30.110  1.00  0.00     0.162 A 
ATOM      5  C   UNL     1      31.895 -24.213 -28.844  1.00  0.00     0.128 A 
ATOM      6  C   UNL     1      31.657 -23.241 -27.866  1.00  0.00     0.093 A 
ATOM      7  C   UNL     1      30.855 -22.127 -28.139  1.00  0.00     0.136 A 
ATOM      8  C   UNL     1      30.278 -21.983 -29.428  1.00  0.00     0.125 A 
ATOM      9  C   UNL     1      29.471 -20.894 -29.795  1.00  0.00     0.078 A 
ATOM     10  C   UNL     1      28.940 -20.818 -31.086  1.00  0.00     0.223 A 
ENDROOT
BRANCH   1  11
ATOM     11  C   UNL     1      28.669 -21.860 -33.373  1.00  0.00     0.091 A 
ATOM     12  C   UNL     1      27.421 -22.428 -33.667  1.00  0.00     0.068 A 
ATOM     13  C   UNL     1      26.936 -22.442 -34.977  1.00  0.00     0.162 A 
ATOM     14  C   UNL     1      29.443 -21.336 -34.418  1.00  0.00     0.068 A 
ATOM     15  C   UNL     1      27.701 -21.894 -36.023  1.00  0.00     0.200 A 
ATOM     16  C   UNL     1      28.972 -21.341 -35.736  1.00  0.00     0.162 A 
BRANCH  13  17
ATOM     17  O   UNL     1      25.685 -23.011 -35.222  1.00  0.00    -0.504 OA
ATOM     18  H   UNL     1      24.840 -22.457 -35.285  1.00  0.00     0.293 HD
ENDBRANCH  13  17
BRANCH  15  19
ATOM     19  O   UNL     1      27.174 -21.920 -37.318  1.00  0.00    -0.502 OA
ATOM     20  H   UNL     1      26.696 -21.145 -37.752  1.00  0.00     0.293 HD
ENDBRANCH  15  19
BRANCH  16  21
ATOM     21  O   UNL     1      29.795 -20.790 -36.721  1.00  0.00    -0.504 OA
ATOM     22  H   UNL     1      30.694 -20.369 -36.539  1.00  0.00     0.293 HD
ENDBRANCH  16  21
ENDBRANCH   1  11
BRANCH  10  23
ATOM     23  O   UNL     1      28.180 -19.712 -31.466  1.00  0.00    -0.500 OA
ATOM     24  H   UNL     1      27.333 -19.811 -32.015  1.00  0.00     0.294 HD
ENDBRANCH  10  23
BRANCH   5  25
ATOM     25  O   UNL     1      32.694 -25.320 -28.567  1.00  0.00    -0.507 OA
ATOM     26  H   UNL     1      32.337 -26.115 -28.049  1.00  0.00     0.293 HD
ENDBRANCH   5  25
BRANCH   7  27
ATOM     27  O   UNL     1      30.664 -21.203 -27.108  1.00  0.00    -0.507 OA
ATOM     28  H   UNL     1      30.495 -21.450 -26.144  1.00  0.00     0.293 HD
ENDBRANCH   7  27
TORSDOF 7
ENDMDL
MODEL 7
REMARK VINA RESULT:    -6.298      2.115      2.599
REMARK INTER + INTRA:          -7.765
REMARK INTER:                  -7.388
REMARK INTRA:                  -0.377
REMARK UNBOUND:                 0.006
REMARK SMILES Oc1cc(O)c2cc(O)c(-c3cc(O)c(O)c(O)c3)[o+]c2c1
REMARK SMILES IDX 10 1 20 2 21 3 22 4 2 5 3 6 4 7 6 8 7 9 8 10 11 11 12 12
REMARK SMILES IDX 13 13 19 14 15 15 17 16 14 17 16 19 18 21 9 23 1 25 5 27
REMARK H PARENT 14 18 16 20 18 22 9 24 1 26 5 28
REMARK Flexibility Score: inf
ROOT
ATOM      1  C   UNL     1      29.214 -21.881 -31.928  1.00  0.00     0.402 A 
ATOM      2  O   UNL     1      30.043 -22.849 -31.545  1.00  0.00    -0.202 OA
ATOM      3  C   UNL     1      30.554 -22.930 -30.321  1.00  0.00     0.368 A 
ATOM      4  C   UNL     1      31.414 -23.986 -30.011  1.00  0.00     0.162 A 
ATOM      5  C   UNL     1      31.964 -24.098 -28.734  1.00  0.00     0.128 A 
ATOM      6  C   UNL     1      31.651 -23.147 -27.756  1.00  0.00     0.093 A 
ATOM      7  C   UNL     1      30.792 -22.079 -28.040  1.00  0.00     0.136 A 
ATOM      8  C   UNL     1      30.233 -21.961 -29.340  1.00  0.00     0.125 A 
ATOM      9  C   UNL     1      29.374 -20.917 -29.719  1.00  0.00     0.078 A 
ATOM     10  C   UNL     1      28.866 -20.864 -31.020  1.00  0.00     0.223 A 
ENDROOT
BRANCH   1  11
ATOM     11  C   UNL     1      28.703 -21.906 -33.318  1.00  0.00     0.091 A 
ATOM     12  C   UNL     1      29.414 -21.307 -34.369  1.00  0.00     0.068 A 
ATOM     13  C   UNL     1      28.906 -21.321 -35.671  1.00  0.00     0.162 A 
ATOM     14  C   UNL     1      27.456 -22.489 -33.584  1.00  0.00     0.068 A 
ATOM     15  C   UNL     1      27.666 -21.928 -35.942  1.00  0.00     0.200 A 
ATOM     16  C   UNL     1      26.933 -22.513 -34.881  1.00  0.00     0.162 A 
BRANCH  13  17
ATOM     17  O   UNL     1      29.650 -20.719 -36.686  1.00  0.00    -0.504 OA
ATOM     18  H   UNL     1      30.266 -21.247 -37.292  1.00  0.00     0.293 HD
ENDBRANCH  13  17
BRANCH  15  19
ATOM     19  O   UNL     1      27.199 -21.927 -37.260  1.00  0.00    -0.502 OA
ATOM     20  H   UNL     1      27.304 -22.701 -37.899  1.00  0.00     0.293 HD
ENDBRANCH  15  19
BRANCH  16  21
ATOM     21  O   UNL     1      25.690 -23.123 -35.069  1.00  0.00    -0.504 OA
ATOM     22  H   UNL     1      25.160 -23.567 -34.334  1.00  0.00     0.293 HD
ENDBRANCH  16  21
ENDBRANCH   1  11
BRANCH  10  23
ATOM     23  O   UNL     1      28.052 -19.801 -31.411  1.00  0.00    -0.500 OA
ATOM     24  H   UNL     1      27.224 -19.944 -31.978  1.00  0.00     0.294 HD
ENDBRANCH  10  23
BRANCH   5  25
ATOM     25  O   UNL     1      32.819 -25.159 -28.446  1.00  0.00    -0.507 OA
ATOM     26  H   UNL     1      32.497 -25.976 -27.939  1.00  0.00     0.293 HD
ENDBRANCH   5  25
BRANCH   7  27
ATOM     27  O   UNL     1      30.526 -21.174 -27.009  1.00  0.00    -0.507 OA
ATOM     28  H   UNL     1      30.352 -21.437 -26.050  1.00  0.00     0.293 HD
ENDBRANCH   7  27
TORSDOF 7
ENDMDL
MODEL 8
REMARK VINA RESULT:    -6.259      1.731      7.060
REMARK INTER + INTRA:          -7.717
REMARK INTER:                  -7.363
REMARK INTRA:                  -0.354
REMARK UNBOUND:                 0.006
REMARK SMILES Oc1cc(O)c2cc(O)c(-c3cc(O)c(O)c(O)c3)[o+]c2c1
REMARK SMILES IDX 10 1 20 2 21 3 22 4 2 5 3 6 4 7 6 8 7 9 8 10 11 11 12 12
REMARK SMILES IDX 13 13 19 14 15 15 17 16 14 17 16 19 18 21 9 23 1 25 5 27
REMARK H PARENT 14 18 16 20 18 22 9 24 1 26 5 28
REMARK Flexibility Score: inf
ROOT
ATOM      1  C   UNL     1      29.225 -22.112 -32.084  1.00  0.00     0.402 A 
ATOM      2  O   UNL     1      28.071 -22.519 -32.607  1.00  0.00    -0.202 OA
ATOM      3  C   UNL     1      27.777 -22.411 -33.899  1.00  0.00     0.368 A 
ATOM      4  C   UNL     1      26.539 -22.869 -34.356  1.00  0.00     0.162 A 
ATOM      5  C   UNL     1      26.204 -22.771 -35.706  1.00  0.00     0.128 A 
ATOM      6  C   UNL     1      27.114 -22.211 -36.610  1.00  0.00     0.093 A 
ATOM      7  C   UNL     1      28.362 -21.744 -36.179  1.00  0.00     0.136 A 
ATOM      8  C   UNL     1      28.704 -21.839 -34.804  1.00  0.00     0.125 A 
ATOM      9  C   UNL     1      29.925 -21.386 -34.280  1.00  0.00     0.078 A 
ATOM     10  C   UNL     1      30.190 -21.510 -32.913  1.00  0.00     0.223 A 
ENDROOT
BRANCH   1  11
ATOM     11  C   UNL     1      29.439 -22.297 -30.630  1.00  0.00     0.091 A 
ATOM     12  C   UNL     1      29.813 -23.540 -30.099  1.00  0.00     0.068 A 
ATOM     13  C   UNL     1      29.989 -23.702 -28.722  1.00  0.00     0.162 A 
ATOM     14  C   UNL     1      29.208 -21.225 -29.758  1.00  0.00     0.068 A 
ATOM     15  C   UNL     1      29.781 -22.620 -27.849  1.00  0.00     0.200 A 
ATOM     16  C   UNL     1      29.380 -21.369 -28.377  1.00  0.00     0.162 A 
BRANCH  13  17
ATOM     17  O   UNL     1      30.368 -24.955 -28.239  1.00  0.00    -0.504 OA
ATOM     18  H   UNL     1      30.527 -25.130 -27.254  1.00  0.00     0.293 HD
ENDBRANCH  13  17
BRANCH  15  19
ATOM     19  O   UNL     1      29.976 -22.822 -26.479  1.00  0.00    -0.502 OA
ATOM     20  H   UNL     1      30.642 -22.311 -25.919  1.00  0.00     0.293 HD
ENDBRANCH  15  19
BRANCH  16  21
ATOM     21  O   UNL     1      29.142 -20.251 -27.573  1.00  0.00    -0.504 OA
ATOM     22  H   UNL     1      29.429 -19.312 -27.808  1.00  0.00     0.293 HD
ENDBRANCH  16  21
ENDBRANCH   1  11
BRANCH  10  23
ATOM     23  O   UNL     1      31.382 -21.015 -32.383  1.00  0.00    -0.500 OA
ATOM     24  H   UNL     1      31.614 -20.029 -32.425  1.00  0.00     0.294 HD
ENDBRANCH  10  23
BRANCH   5  25
ATOM     25  O   UNL     1      24.964 -23.234 -36.141  1.00  0.00    -0.507 OA
ATOM     26  H   UNL     1      24.598 -22.988 -37.054  1.00  0.00     0.293 HD
ENDBRANCH   5  25
BRANCH   7  27
ATOM     27  O   UNL     1      29.215 -21.201 -37.143  1.00  0.00    -0.507 OA
ATOM     28  H   UNL     1      29.792 -21.747 -37.766  1.00  0.00     0.293 HD
ENDBRANCH   7  27
TORSDOF 7
ENDMDL
MODEL 9
REMARK VINA RESULT:    -6.143      1.816      3.357
REMARK INTER + INTRA:          -7.574
REMARK INTER:                  -7.643
REMARK INTRA:                   0.069
REMARK UNBOUND:                 0.006
REMARK SMILES Oc1cc(O)c2cc(O)c(-c3cc(O)c(O)c(O)c3)[o+]c2c1
REMARK SMILES IDX 10 1 20 2 21 3 22 4 2 5 3 6 4 7 6 8 7 9 8 10 11 11 12 12
REMARK SMILES IDX 13 13 19 14 15 15 17 16 14 17 16 19 18 21 9 23 1 25 5 27
REMARK H PARENT 14 18 16 20 18 22 9 24 1 26 5 28
REMARK Flexibility Score: inf
ROOT
ATOM      1  C   UNL     1      27.935 -22.870 -31.673  1.00  0.00     0.402 A 
ATOM      2  O   UNL     1      28.469 -21.942 -30.883  1.00  0.00    -0.202 OA
ATOM      3  C   UNL     1      28.657 -22.115 -29.578  1.00  0.00     0.368 A 
ATOM      4  C   UNL     1      29.229 -21.082 -28.831  1.00  0.00     0.162 A 
ATOM      5  C   UNL     1      29.441 -21.237 -27.461  1.00  0.00     0.128 A 
ATOM      6  C   UNL     1      29.080 -22.433 -26.831  1.00  0.00     0.093 A 
ATOM      7  C   UNL     1      28.506 -23.484 -27.557  1.00  0.00     0.136 A 
ATOM      8  C   UNL     1      28.286 -23.328 -28.951  1.00  0.00     0.125 A 
ATOM      9  C   UNL     1      27.705 -24.321 -29.756  1.00  0.00     0.078 A 
ATOM     10  C   UNL     1      27.516 -24.095 -31.122  1.00  0.00     0.223 A 
ENDROOT
BRANCH   1  11
ATOM     11  C   UNL     1      27.786 -22.561 -33.114  1.00  0.00     0.091 A 
ATOM     12  C   UNL     1      26.628 -22.917 -33.822  1.00  0.00     0.068 A 
ATOM     13  C   UNL     1      26.514 -22.637 -35.186  1.00  0.00     0.162 A 
ATOM     14  C   UNL     1      28.845 -21.951 -33.801  1.00  0.00     0.068 A 
ATOM     15  C   UNL     1      27.566 -22.004 -35.871  1.00  0.00     0.200 A 
ATOM     16  C   UNL     1      28.747 -21.663 -35.167  1.00  0.00     0.162 A 
BRANCH  13  17
ATOM     17  O   UNL     1      25.341 -23.004 -35.848  1.00  0.00    -0.504 OA
ATOM     18  H   UNL     1      24.978 -22.480 -36.635  1.00  0.00     0.293 HD
ENDBRANCH  13  17
BRANCH  15  19
ATOM     19  O   UNL     1      27.407 -21.734 -37.234  1.00  0.00    -0.502 OA
ATOM     20  H   UNL     1      26.855 -20.974 -37.601  1.00  0.00     0.293 HD
ENDBRANCH  15  19
BRANCH  16  21
ATOM     21  O   UNL     1      29.839 -21.044 -35.780  1.00  0.00    -0.504 OA
ATOM     22  H   UNL     1      30.519 -20.480 -35.291  1.00  0.00     0.293 HD
ENDBRANCH  16  21
ENDBRANCH   1  11
BRANCH  10  23
ATOM     23  O   UNL     1      26.893 -25.061 -31.912  1.00  0.00    -0.500 OA
ATOM     24  H   UNL     1      25.928 -25.334 -31.759  1.00  0.00     0.294 HD
ENDBRANCH  10  23
BRANCH   5  25
ATOM     25  O   UNL     1      30.012 -20.195 -26.733  1.00  0.00    -0.507 OA
ATOM     26  H   UNL     1      30.973 -19.909 -26.883  1.00  0.00     0.293 HD
ENDBRANCH   5  25
BRANCH   7  27
ATOM     27  O   UNL     1      28.178 -24.647 -26.856  1.00  0.00    -0.507 OA
ATOM     28  H   UNL     1      28.850 -25.253 -26.409  1.00  0.00     0.293 HD
ENDBRANCH   7  27
TORSDOF 7
ENDMDL
