MODEL 1
REMARK VINA RESULT:    -5.313      0.000      0.000
REMARK INTER + INTRA:         -10.023
REMARK INTER:                  -9.041
REMARK INTRA:                  -0.982
REMARK UNBOUND:                -0.982
REMARK SMILES CCCCCCCCCCCCCC(=O)[O-]
REMARK SMILES IDX 8 1 9 2 10 3 11 4 12 5 13 6 14 7 15 8 16 9 7 10 6 11 5 12
REMARK SMILES IDX 4 13 3 14 2 15 1 16
REMARK H PARENT
REMARK Flexibility Score: inf
ROOT
ATOM      1  C   UNL     1       4.122  44.022   9.573  1.00  0.00     0.000 C 
ENDROOT
BRANCH   1   2
ATOM      2  C   UNL     1       2.843  43.180   9.448  1.00  0.00     0.000 C 
BRANCH   2   3
ATOM      3  C   UNL     1       1.851  43.432  10.597  1.00  0.00     0.000 C 
BRANCH   3   4
ATOM      4  C   UNL     1       2.338  42.858  11.938  1.00  0.00     0.000 C 
BRANCH   4   5
ATOM      5  C   UNL     1       2.653  41.354  11.856  1.00  0.00     0.006 C 
BRANCH   5   6
ATOM      6  C   UNL     1       4.060  41.028  12.375  1.00  0.00     0.053 C 
BRANCH   6   7
ATOM      7  C   UNL     1       4.143  39.638  12.927  1.00  0.00     0.041 C 
ATOM      8  O   UNL     1       5.098  39.312  13.680  1.00  0.00    -0.550 OA
ATOM      9  O   UNL     1       3.183  38.694  12.585  1.00  0.00    -0.550 OA
ENDBRANCH   6   7
ENDBRANCH   5   6
ENDBRANCH   4   5
ENDBRANCH   3   4
ENDBRANCH   2   3
ENDBRANCH   1   2
BRANCH   1  10
ATOM     10  C   UNL     1       3.865  45.523   9.347  1.00  0.00     0.000 C 
BRANCH  10  11
ATOM     11  C   UNL     1       4.052  46.353  10.627  1.00  0.00    -0.000 C 
BRANCH  11  12
ATOM     12  C   UNL     1       3.443  47.762  10.515  1.00  0.00    -0.000 C 
BRANCH  12  13
ATOM     13  C   UNL     1       4.511  48.866  10.445  1.00  0.00    -0.000 C 
BRANCH  13  14
ATOM     14  C   UNL     1       5.040  49.084   9.018  1.00  0.00    -0.000 C 
BRANCH  14  15
ATOM     15  C   UNL     1       6.573  49.008   8.942  1.00  0.00    -0.003 C 
ATOM     16  C   UNL     1       7.119  47.632   9.322  1.00  0.00     0.004 C 
ENDBRANCH  14  15
ENDBRANCH  13  14
ENDBRANCH  12  13
ENDBRANCH  11  12
ENDBRANCH  10  11
ENDBRANCH   1  10
TORSDOF 12
ENDMDL
MODEL 2
REMARK VINA RESULT:    -5.059      1.933      3.694
REMARK INTER + INTRA:          -9.590
REMARK INTER:                  -8.123
REMARK INTRA:                  -1.467
REMARK UNBOUND:                -0.982
REMARK SMILES CCCCCCCCCCCCCC(=O)[O-]
REMARK SMILES IDX 8 1 9 2 10 3 11 4 12 5 13 6 14 7 15 8 16 9 7 10 6 11 5 12
REMARK SMILES IDX 4 13 3 14 2 15 1 16
REMARK H PARENT
REMARK Flexibility Score: inf
ROOT
ATOM      1  C   UNL     1       5.530  47.040   9.013  1.00  0.00     0.000 C 
ENDROOT
BRANCH   1   2
ATOM      2  C   UNL     1       4.871  46.412  10.251  1.00  0.00     0.000 C 
BRANCH   2   3
ATOM      3  C   UNL     1       3.660  45.530   9.897  1.00  0.00     0.000 C 
BRANCH   3   4
ATOM      4  C   UNL     1       4.069  44.141   9.381  1.00  0.00     0.000 C 
BRANCH   4   5
ATOM      5  C   UNL     1       2.884  43.161   9.325  1.00  0.00     0.006 C 
BRANCH   5   6
ATOM      6  C   UNL     1       1.815  43.485  10.377  1.00  0.00     0.053 C 
BRANCH   6   7
ATOM      7  C   UNL     1       1.911  42.582  11.568  1.00  0.00     0.041 C 
ATOM      8  O   UNL     1       1.070  42.671  12.500  1.00  0.00    -0.550 OA
ATOM      9  O   UNL     1       2.948  41.662  11.663  1.00  0.00    -0.550 OA
ENDBRANCH   6   7
ENDBRANCH   5   6
ENDBRANCH   4   5
ENDBRANCH   3   4
ENDBRANCH   2   3
ENDBRANCH   1   2
BRANCH   1  10
ATOM     10  C   UNL     1       6.708  47.962   9.374  1.00  0.00     0.000 C 
BRANCH  10  11
ATOM     11  C   UNL     1       6.384  49.447   9.152  1.00  0.00    -0.000 C 
BRANCH  11  12
ATOM     12  C   UNL     1       5.652  50.081  10.349  1.00  0.00    -0.000 C 
BRANCH  12  13
ATOM     13  C   UNL     1       4.239  50.569   9.989  1.00  0.00    -0.000 C 
BRANCH  13  14
ATOM     14  C   UNL     1       3.138  49.692  10.609  1.00  0.00    -0.000 C 
BRANCH  14  15
ATOM     15  C   UNL     1       2.282  48.985   9.546  1.00  0.00    -0.003 C 
ATOM     16  C   UNL     1       2.728  49.302   8.118  1.00  0.00     0.004 C 
ENDBRANCH  14  15
ENDBRANCH  13  14
ENDBRANCH  12  13
ENDBRANCH  11  12
ENDBRANCH  10  11
ENDBRANCH   1  10
TORSDOF 12
ENDMDL
MODEL 3
REMARK VINA RESULT:    -5.021      0.970      1.696
REMARK INTER + INTRA:          -9.527
REMARK INTER:                  -8.664
REMARK INTRA:                  -0.863
REMARK UNBOUND:                -0.982
REMARK SMILES CCCCCCCCCCCCCC(=O)[O-]
REMARK SMILES IDX 8 1 9 2 10 3 11 4 12 5 13 6 14 7 15 8 16 9 7 10 6 11 5 12
REMARK SMILES IDX 4 13 3 14 2 15 1 16
REMARK H PARENT
REMARK Flexibility Score: inf
ROOT
ATOM      1  C   UNL     1       3.932  43.715   9.358  1.00  0.00     0.000 C 
ENDROOT
BRANCH   1   2
ATOM      2  C   UNL     1       2.559  43.045   9.523  1.00  0.00     0.000 C 
BRANCH   2   3
ATOM      3  C   UNL     1       2.196  42.788  10.997  1.00  0.00     0.000 C 
BRANCH   3   4
ATOM      4  C   UNL     1       3.417  42.861  11.928  1.00  0.00     0.000 C 
BRANCH   4   5
ATOM      5  C   UNL     1       4.031  41.478  12.207  1.00  0.00     0.006 C 
BRANCH   5   6
ATOM      6  C   UNL     1       2.963  40.381  12.309  1.00  0.00     0.053 C 
BRANCH   6   7
ATOM      7  C   UNL     1       3.548  39.071  12.740  1.00  0.00     0.041 C 
ATOM      8  O   UNL     1       4.619  39.043  13.400  1.00  0.00    -0.550 OA
ATOM      9  O   UNL     1       2.926  37.880  12.385  1.00  0.00    -0.550 OA
ENDBRANCH   6   7
ENDBRANCH   5   6
ENDBRANCH   4   5
ENDBRANCH   3   4
ENDBRANCH   2   3
ENDBRANCH   1   2
BRANCH   1  10
ATOM     10  C   UNL     1       3.826  45.235   9.143  1.00  0.00     0.000 C 
BRANCH  10  11
ATOM     11  C   UNL     1       4.568  46.037  10.224  1.00  0.00    -0.000 C 
BRANCH  11  12
ATOM     12  C   UNL     1       5.617  46.998   9.635  1.00  0.00    -0.000 C 
BRANCH  12  13
ATOM     13  C   UNL     1       5.020  47.964   8.599  1.00  0.00    -0.000 C 
BRANCH  13  14
ATOM     14  C   UNL     1       5.185  49.439   9.004  1.00  0.00    -0.000 C 
BRANCH  14  15
ATOM     15  C   UNL     1       4.718  49.708  10.444  1.00  0.00    -0.003 C 
ATOM     16  C   UNL     1       3.203  49.591  10.607  1.00  0.00     0.004 C 
ENDBRANCH  14  15
ENDBRANCH  13  14
ENDBRANCH  12  13
ENDBRANCH  11  12
ENDBRANCH  10  11
ENDBRANCH   1  10
TORSDOF 12
ENDMDL
MODEL 4
REMARK VINA RESULT:    -5.018      2.666      4.825
REMARK INTER + INTRA:          -9.521
REMARK INTER:                  -7.524
REMARK INTRA:                  -1.998
REMARK UNBOUND:                -0.982
REMARK SMILES CCCCCCCCCCCCCC(=O)[O-]
REMARK SMILES IDX 8 1 9 2 10 3 11 4 12 5 13 6 14 7 15 8 16 9 7 10 6 11 5 12
REMARK SMILES IDX 4 13 3 14 2 15 1 16
REMARK H PARENT
REMARK Flexibility Score: inf
ROOT
ATOM      1  C   UNL     1       6.395  49.448   9.082  1.00  0.00     0.000 C 
ENDROOT
BRANCH   1   2
ATOM      2  C   UNL     1       6.734  47.979   9.377  1.00  0.00     0.000 C 
BRANCH   2   3
ATOM      3  C   UNL     1       5.609  47.014   8.962  1.00  0.00     0.000 C 
BRANCH   3   4
ATOM      4  C   UNL     1       4.953  46.317  10.165  1.00  0.00     0.000 C 
BRANCH   4   5
ATOM      5  C   UNL     1       4.008  45.178   9.744  1.00  0.00     0.006 C 
BRANCH   5   6
ATOM      6  C   UNL     1       2.663  45.240  10.479  1.00  0.00     0.053 C 
BRANCH   6   7
ATOM      7  C   UNL     1       2.441  44.036  11.341  1.00  0.00     0.041 C 
ATOM      8  O   UNL     1       1.553  43.196  11.040  1.00  0.00    -0.550 OA
ATOM      9  O   UNL     1       3.195  43.857  12.495  1.00  0.00    -0.550 OA
ENDBRANCH   6   7
ENDBRANCH   5   6
ENDBRANCH   4   5
ENDBRANCH   3   4
ENDBRANCH   2   3
ENDBRANCH   1   2
BRANCH   1  10
ATOM     10  C   UNL     1       5.785  50.170  10.297  1.00  0.00     0.000 C 
BRANCH  10  11
ATOM     11  C   UNL     1       4.315  50.558  10.076  1.00  0.00    -0.000 C 
BRANCH  11  12
ATOM     12  C   UNL     1       3.336  49.607  10.787  1.00  0.00    -0.000 C 
BRANCH  12  13
ATOM     13  C   UNL     1       2.358  48.928   9.815  1.00  0.00    -0.000 C 
BRANCH  13  14
ATOM     14  C   UNL     1       2.723  49.178   8.342  1.00  0.00    -0.000 C 
BRANCH  14  15
ATOM     15  C   UNL     1       2.442  47.958   7.451  1.00  0.00    -0.003 C 
ATOM     16  C   UNL     1       1.108  47.284   7.772  1.00  0.00     0.004 C 
ENDBRANCH  14  15
ENDBRANCH  13  14
ENDBRANCH  12  13
ENDBRANCH  11  12
ENDBRANCH  10  11
ENDBRANCH   1  10
TORSDOF 12
ENDMDL
MODEL 5
REMARK VINA RESULT:    -5.012      2.075      3.648
REMARK INTER + INTRA:          -9.510
REMARK INTER:                  -7.863
REMARK INTRA:                  -1.647
REMARK UNBOUND:                -0.982
REMARK SMILES CCCCCCCCCCCCCC(=O)[O-]
REMARK SMILES IDX 8 1 9 2 10 3 11 4 12 5 13 6 14 7 15 8 16 9 7 10 6 11 5 12
REMARK SMILES IDX 4 13 3 14 2 15 1 16
REMARK H PARENT
REMARK Flexibility Score: inf
ROOT
ATOM      1  C   UNL     1       3.031  47.718   7.870  1.00  0.00     0.000 C 
ENDROOT
BRANCH   1   2
ATOM      2  C   UNL     1       2.512  47.475   9.296  1.00  0.00     0.000 C 
BRANCH   2   3
ATOM      3  C   UNL     1       3.450  46.578  10.124  1.00  0.00     0.000 C 
BRANCH   3   4
ATOM      4  C   UNL     1       4.175  45.528   9.266  1.00  0.00     0.000 C 
BRANCH   4   5
ATOM      5  C   UNL     1       4.160  44.130   9.908  1.00  0.00     0.006 C 
BRANCH   5   6
ATOM      6  C   UNL     1       2.834  43.396   9.665  1.00  0.00     0.053 C 
BRANCH   6   7
ATOM      7  C   UNL     1       2.267  42.834  10.932  1.00  0.00     0.041 C 
ATOM      8  O   UNL     1       1.333  43.433  11.529  1.00  0.00    -0.550 OA
ATOM      9  O   UNL     1       2.790  41.666  11.472  1.00  0.00    -0.550 OA
ENDBRANCH   6   7
ENDBRANCH   5   6
ENDBRANCH   4   5
ENDBRANCH   3   4
ENDBRANCH   2   3
ENDBRANCH   1   2
BRANCH   1  10
ATOM     10  C   UNL     1       3.077  49.213   7.505  1.00  0.00     0.000 C 
BRANCH  10  11
ATOM     11  C   UNL     1       2.836  50.124   8.719  1.00  0.00    -0.000 C 
BRANCH  11  12
ATOM     12  C   UNL     1       4.105  50.879   9.156  1.00  0.00    -0.000 C 
BRANCH  12  13
ATOM     13  C   UNL     1       4.802  50.221  10.358  1.00  0.00    -0.000 C 
BRANCH  13  14
ATOM     14  C   UNL     1       6.284  49.912  10.082  1.00  0.00    -0.000 C 
BRANCH  14  15
ATOM     15  C   UNL     1       6.470  48.906   8.936  1.00  0.00    -0.003 C 
ATOM     16  C   UNL     1       7.157  47.616   9.385  1.00  0.00     0.004 C 
ENDBRANCH  14  15
ENDBRANCH  13  14
ENDBRANCH  12  13
ENDBRANCH  11  12
ENDBRANCH  10  11
ENDBRANCH   1  10
TORSDOF 12
ENDMDL
MODEL 6
REMARK VINA RESULT:    -5.011      3.199      3.941
REMARK INTER + INTRA:          -9.509
REMARK INTER:                  -7.837
REMARK INTRA:                  -1.672
REMARK UNBOUND:                -0.982
REMARK SMILES CCCCCCCCCCCCCC(=O)[O-]
REMARK SMILES IDX 8 1 9 2 10 3 11 4 12 5 13 6 14 7 15 8 16 9 7 10 6 11 5 12
REMARK SMILES IDX 4 13 3 14 2 15 1 16
REMARK H PARENT
REMARK Flexibility Score: inf
ROOT
ATOM      1  C   UNL     1       4.324  45.785   9.414  1.00  0.00     0.000 C 
ENDROOT
BRANCH   1   2
ATOM      2  C   UNL     1       3.932  45.800  10.900  1.00  0.00     0.000 C 
BRANCH   2   3
ATOM      3  C   UNL     1       4.078  44.420  11.567  1.00  0.00     0.000 C 
BRANCH   3   4
ATOM      4  C   UNL     1       3.802  43.261  10.596  1.00  0.00     0.000 C 
BRANCH   4   5
ATOM      5  C   UNL     1       2.298  42.986  10.418  1.00  0.00     0.006 C 
BRANCH   5   6
ATOM      6  C   UNL     1       1.834  43.219   8.974  1.00  0.00     0.053 C 
BRANCH   6   7
ATOM      7  C   UNL     1       0.829  44.326   8.883  1.00  0.00     0.041 C 
ATOM      8  O   UNL     1       0.561  45.024   9.896  1.00  0.00    -0.550 OA
ATOM      9  O   UNL     1       0.164  44.567   7.687  1.00  0.00    -0.550 OA
ENDBRANCH   6   7
ENDBRANCH   5   6
ENDBRANCH   4   5
ENDBRANCH   3   4
ENDBRANCH   2   3
ENDBRANCH   1   2
BRANCH   1  10
ATOM     10  C   UNL     1       3.638  46.904   8.611  1.00  0.00     0.000 C 
BRANCH  10  11
ATOM     11  C   UNL     1       2.768  47.815   9.492  1.00  0.00    -0.000 C 
BRANCH  11  12
ATOM     12  C   UNL     1       3.325  49.246   9.599  1.00  0.00    -0.000 C 
BRANCH  12  13
ATOM     13  C   UNL     1       4.497  49.353  10.589  1.00  0.00    -0.000 C 
BRANCH  13  14
ATOM     14  C   UNL     1       5.712  50.080   9.988  1.00  0.00    -0.000 C 
BRANCH  14  15
ATOM     15  C   UNL     1       6.404  49.257   8.891  1.00  0.00    -0.003 C 
ATOM     16  C   UNL     1       7.114  48.018   9.437  1.00  0.00     0.004 C 
ENDBRANCH  14  15
ENDBRANCH  13  14
ENDBRANCH  12  13
ENDBRANCH  11  12
ENDBRANCH  10  11
ENDBRANCH   1  10
TORSDOF 12
ENDMDL
MODEL 7
REMARK VINA RESULT:    -4.945      4.362      7.678
REMARK INTER + INTRA:          -9.397
REMARK INTER:                  -7.843
REMARK INTRA:                  -1.554
REMARK UNBOUND:                -0.982
REMARK SMILES CCCCCCCCCCCCCC(=O)[O-]
REMARK SMILES IDX 8 1 9 2 10 3 11 4 12 5 13 6 14 7 15 8 16 9 7 10 6 11 5 12
REMARK SMILES IDX 4 13 3 14 2 15 1 16
REMARK H PARENT
REMARK Flexibility Score: inf
ROOT
ATOM      1  C   UNL     1       3.671  47.398  10.514  1.00  0.00     0.000 C 
ENDROOT
BRANCH   1   2
ATOM      2  C   UNL     1       2.727  47.965   9.442  1.00  0.00     0.000 C 
BRANCH   2   3
ATOM      3  C   UNL     1       3.259  47.760   8.013  1.00  0.00     0.000 C 
BRANCH   3   4
ATOM      4  C   UNL     1       3.515  49.087   7.280  1.00  0.00     0.000 C 
BRANCH   4   5
ATOM      5  C   UNL     1       3.656  50.277   8.245  1.00  0.00     0.006 C 
BRANCH   5   6
ATOM      6  C   UNL     1       5.094  50.808   8.304  1.00  0.00     0.053 C 
BRANCH   6   7
ATOM      7  C   UNL     1       5.956  49.988   9.214  1.00  0.00     0.041 C 
ATOM      8  O   UNL     1       6.701  49.089   8.742  1.00  0.00    -0.550 OA
ATOM      9  O   UNL     1       5.914  50.195  10.587  1.00  0.00    -0.550 OA
ENDBRANCH   6   7
ENDBRANCH   5   6
ENDBRANCH   4   5
ENDBRANCH   3   4
ENDBRANCH   2   3
ENDBRANCH   1   2
BRANCH   1  10
ATOM     10  C   UNL     1       4.679  46.388   9.938  1.00  0.00     0.000 C 
BRANCH  10  11
ATOM     11  C   UNL     1       4.456  44.964  10.471  1.00  0.00    -0.000 C 
BRANCH  11  12
ATOM     12  C   UNL     1       4.088  43.964   9.360  1.00  0.00    -0.000 C 
BRANCH  12  13
ATOM     13  C   UNL     1       2.644  43.450   9.481  1.00  0.00    -0.000 C 
BRANCH  13  14
ATOM     14  C   UNL     1       2.366  42.790  10.843  1.00  0.00    -0.000 C 
BRANCH  14  15
ATOM     15  C   UNL     1       1.327  43.565  11.669  1.00  0.00    -0.003 C 
ATOM     16  C   UNL     1       0.667  44.697  10.881  1.00  0.00     0.004 C 
ENDBRANCH  14  15
ENDBRANCH  13  14
ENDBRANCH  12  13
ENDBRANCH  11  12
ENDBRANCH  10  11
ENDBRANCH   1  10
TORSDOF 12
ENDMDL
MODEL 8
REMARK VINA RESULT:    -4.906      4.431      7.803
REMARK INTER + INTRA:          -9.331
REMARK INTER:                  -7.980
REMARK INTRA:                  -1.351
REMARK UNBOUND:                -0.982
REMARK SMILES CCCCCCCCCCCCCC(=O)[O-]
REMARK SMILES IDX 8 1 9 2 10 3 11 4 12 5 13 6 14 7 15 8 16 9 7 10 6 11 5 12
REMARK SMILES IDX 4 13 3 14 2 15 1 16
REMARK H PARENT
REMARK Flexibility Score: inf
ROOT
ATOM      1  C   UNL     1       4.942  46.799   9.179  1.00  0.00     0.000 C 
ENDROOT
BRANCH   1   2
ATOM      2  C   UNL     1       6.351  47.361   9.423  1.00  0.00     0.000 C 
BRANCH   2   3
ATOM      3  C   UNL     1       6.491  48.827   8.979  1.00  0.00     0.000 C 
BRANCH   3   4
ATOM      4  C   UNL     1       6.280  49.819  10.134  1.00  0.00     0.000 C 
BRANCH   4   5
ATOM      5  C   UNL     1       4.832  50.331  10.214  1.00  0.00     0.006 C 
BRANCH   5   6
ATOM      6  C   UNL     1       4.314  50.819   8.855  1.00  0.00     0.053 C 
BRANCH   6   7
ATOM      7  C   UNL     1       3.119  50.039   8.400  1.00  0.00     0.041 C 
ATOM      8  O   UNL     1       2.347  49.513   9.244  1.00  0.00    -0.550 OA
ATOM      9  O   UNL     1       2.875  49.866   7.043  1.00  0.00    -0.550 OA
ENDBRANCH   6   7
ENDBRANCH   5   6
ENDBRANCH   4   5
ENDBRANCH   3   4
ENDBRANCH   2   3
ENDBRANCH   1   2
BRANCH   1  10
ATOM     10  C   UNL     1       4.160  46.576  10.486  1.00  0.00     0.000 C 
BRANCH  10  11
ATOM     11  C   UNL     1       4.293  45.139  11.014  1.00  0.00    -0.000 C 
BRANCH  11  12
ATOM     12  C   UNL     1       4.131  44.081   9.908  1.00  0.00    -0.000 C 
BRANCH  12  13
ATOM     13  C   UNL     1       2.930  43.152  10.148  1.00  0.00    -0.000 C 
BRANCH  13  14
ATOM     14  C   UNL     1       1.889  43.229   9.019  1.00  0.00    -0.000 C 
BRANCH  14  15
ATOM     15  C   UNL     1       1.019  44.493   9.108  1.00  0.00    -0.003 C 
ATOM     16  C   UNL     1       0.533  44.779  10.528  1.00  0.00     0.004 C 
ENDBRANCH  14  15
ENDBRANCH  13  14
ENDBRANCH  12  13
ENDBRANCH  11  12
ENDBRANCH  10  11
ENDBRANCH   1  10
TORSDOF 12
ENDMDL
MODEL 9
REMARK VINA RESULT:    -4.888      2.579      3.985
REMARK INTER + INTRA:          -9.300
REMARK INTER:                  -7.608
REMARK INTRA:                  -1.692
REMARK UNBOUND:                -0.982
REMARK SMILES CCCCCCCCCCCCCC(=O)[O-]
REMARK SMILES IDX 8 1 9 2 10 3 11 4 12 5 13 6 14 7 15 8 16 9 7 10 6 11 5 12
REMARK SMILES IDX 4 13 3 14 2 15 1 16
REMARK H PARENT
REMARK Flexibility Score: inf
ROOT
ATOM      1  C   UNL     1       4.142  46.963  10.320  1.00  0.00     0.000 C 
ENDROOT
BRANCH   1   2
ATOM      2  C   UNL     1       2.722  47.444   9.985  1.00  0.00     0.000 C 
BRANCH   2   3
ATOM      3  C   UNL     1       2.198  46.868   8.657  1.00  0.00     0.000 C 
BRANCH   3   4
ATOM      4  C   UNL     1       0.975  45.957   8.848  1.00  0.00     0.000 C 
BRANCH   4   5
ATOM      5  C   UNL     1       1.201  44.885   9.928  1.00  0.00     0.006 C 
BRANCH   5   6
ATOM      6  C   UNL     1       1.800  43.596   9.348  1.00  0.00     0.053 C 
BRANCH   6   7
ATOM      7  C   UNL     1       3.201  43.367   9.827  1.00  0.00     0.041 C 
ATOM      8  O   UNL     1       4.178  43.620   9.074  1.00  0.00    -0.550 OA
ATOM      9  O   UNL     1       3.427  42.844  11.094  1.00  0.00    -0.550 OA
ENDBRANCH   6   7
ENDBRANCH   5   6
ENDBRANCH   4   5
ENDBRANCH   3   4
ENDBRANCH   2   3
ENDBRANCH   1   2
BRANCH   1  10
ATOM     10  C   UNL     1       5.081  46.996   9.100  1.00  0.00     0.000 C 
BRANCH  10  11
ATOM     11  C   UNL     1       6.447  47.621   9.424  1.00  0.00    -0.000 C 
BRANCH  11  12
ATOM     12  C   UNL     1       6.516  49.116   9.065  1.00  0.00    -0.000 C 
BRANCH  12  13
ATOM     13  C   UNL     1       5.974  50.020  10.185  1.00  0.00    -0.000 C 
BRANCH  13  14
ATOM     14  C   UNL     1       4.677  50.742   9.784  1.00  0.00    -0.000 C 
BRANCH  14  15
ATOM     15  C   UNL     1       4.559  50.936   8.264  1.00  0.00    -0.003 C 
ATOM     16  C   UNL     1       3.268  50.352   7.690  1.00  0.00     0.004 C 
ENDBRANCH  14  15
ENDBRANCH  13  14
ENDBRANCH  12  13
ENDBRANCH  11  12
ENDBRANCH  10  11
ENDBRANCH   1  10
TORSDOF 12
ENDMDL
