MODEL 1
REMARK VINA RESULT:    -3.248      0.000      0.000
REMARK INTER + INTRA:          -4.489
REMARK INTER:                  -4.198
REMARK INTRA:                  -0.291
REMARK UNBOUND:                -0.291
REMARK SMILES CCCCCCC(=O)[O-]
REMARK SMILES IDX 5 1 6 2 7 3 8 4 9 5 4 6 3 7 2 8 1 9
REMARK H PARENT
REMARK Flexibility Score: inf
ROOT
ATOM      1  C   UNL     1       9.875  36.640  37.661  1.00  0.00     0.006 C 
ENDROOT
BRANCH   1   2
ATOM      2  C   UNL     1      10.931  35.936  36.798  1.00  0.00     0.053 C 
BRANCH   2   3
ATOM      3  C   UNL     1      10.691  36.157  35.337  1.00  0.00     0.041 C 
ATOM      4  O   UNL     1      10.953  37.272  34.814  1.00  0.00    -0.550 OA
ATOM      5  O   UNL     1      10.149  35.143  34.558  1.00  0.00    -0.550 OA
ENDBRANCH   2   3
ENDBRANCH   1   2
BRANCH   1   6
ATOM      6  C   UNL     1      10.505  37.620  38.667  1.00  0.00     0.000 C 
BRANCH   6   7
ATOM      7  C   UNL     1      11.933  38.034  38.261  1.00  0.00    -0.000 C 
BRANCH   7   8
ATOM      8  C   UNL     1      12.928  38.045  39.433  1.00  0.00    -0.003 C 
ATOM      9  C   UNL     1      13.839  36.819  39.458  1.00  0.00     0.004 C 
ENDBRANCH   7   8
ENDBRANCH   6   7
ENDBRANCH   1   6
TORSDOF 5
ENDMDL
MODEL 2
REMARK VINA RESULT:    -3.033     17.281     18.803
REMARK INTER + INTRA:          -4.210
REMARK INTER:                  -3.943
REMARK INTRA:                  -0.268
REMARK UNBOUND:                -0.291
REMARK SMILES CCCCCCC(=O)[O-]
REMARK SMILES IDX 5 1 6 2 7 3 8 4 9 5 4 6 3 7 2 8 1 9
REMARK H PARENT
REMARK Flexibility Score: inf
ROOT
ATOM      1  C   UNL     1      28.863  37.893  43.710  1.00  0.00     0.006 C 
ENDROOT
BRANCH   1   2
ATOM      2  C   UNL     1      27.880  37.014  42.924  1.00  0.00     0.053 C 
BRANCH   2   3
ATOM      3  C   UNL     1      28.183  37.020  41.458  1.00  0.00     0.041 C 
ATOM      4  O   UNL     1      27.245  36.998  40.618  1.00  0.00    -0.550 OA
ATOM      5  O   UNL     1      29.501  37.017  41.018  1.00  0.00    -0.550 OA
ENDBRANCH   2   3
ENDBRANCH   1   2
BRANCH   1   6
ATOM      6  C   UNL     1      29.770  37.066  44.638  1.00  0.00     0.000 C 
BRANCH   6   7
ATOM      7  C   UNL     1      29.436  35.561  44.589  1.00  0.00    -0.000 C 
BRANCH   7   8
ATOM      8  C   UNL     1      29.510  34.869  45.960  1.00  0.00    -0.003 C 
ATOM      9  C   UNL     1      29.564  35.853  47.127  1.00  0.00     0.004 C 
ENDBRANCH   7   8
ENDBRANCH   6   7
ENDBRANCH   1   6
TORSDOF 5
ENDMDL
MODEL 3
REMARK VINA RESULT:    -3.001     18.106     20.067
REMARK INTER + INTRA:          -4.168
REMARK INTER:                  -3.965
REMARK INTRA:                  -0.203
REMARK UNBOUND:                -0.291
REMARK SMILES CCCCCCC(=O)[O-]
REMARK SMILES IDX 5 1 6 2 7 3 8 4 9 5 4 6 3 7 2 8 1 9
REMARK H PARENT
REMARK Flexibility Score: inf
ROOT
ATOM      1  C   UNL     1      29.349  35.597  44.541  1.00  0.00     0.006 C 
ENDROOT
BRANCH   1   2
ATOM      2  C   UNL     1      29.430  36.481  45.794  1.00  0.00     0.053 C 
BRANCH   2   3
ATOM      3  C   UNL     1      29.760  35.682  47.016  1.00  0.00     0.041 C 
ATOM      4  O   UNL     1      29.954  36.260  48.117  1.00  0.00    -0.550 OA
ATOM      5  O   UNL     1      29.885  34.301  46.933  1.00  0.00    -0.550 OA
ENDBRANCH   2   3
ENDBRANCH   1   2
BRANCH   1   6
ATOM      6  C   UNL     1      30.125  36.196  43.355  1.00  0.00     0.000 C 
BRANCH   6   7
ATOM      7  C   UNL     1      29.609  37.597  42.970  1.00  0.00    -0.000 C 
BRANCH   7   8
ATOM      8  C   UNL     1      28.826  37.623  41.647  1.00  0.00    -0.003 C 
ATOM      9  C   UNL     1      27.380  37.154  41.797  1.00  0.00     0.004 C 
ENDBRANCH   7   8
ENDBRANCH   6   7
ENDBRANCH   1   6
TORSDOF 5
ENDMDL
MODEL 4
REMARK VINA RESULT:    -2.861      3.495      5.041
REMARK INTER + INTRA:          -3.988
REMARK INTER:                  -3.868
REMARK INTRA:                  -0.120
REMARK UNBOUND:                -0.291
REMARK SMILES CCCCCCC(=O)[O-]
REMARK SMILES IDX 5 1 6 2 7 3 8 4 9 5 4 6 3 7 2 8 1 9
REMARK H PARENT
REMARK Flexibility Score: inf
ROOT
ATOM      1  C   UNL     1      11.977  37.447  38.328  1.00  0.00     0.006 C 
ENDROOT
BRANCH   1   2
ATOM      2  C   UNL     1      11.152  38.063  39.466  1.00  0.00     0.053 C 
BRANCH   2   3
ATOM      3  C   UNL     1      11.752  37.772  40.807  1.00  0.00     0.041 C 
ATOM      4  O   UNL     1      13.002  37.762  40.952  1.00  0.00    -0.550 OA
ATOM      5  O   UNL     1      10.931  37.480  41.889  1.00  0.00    -0.550 OA
ENDBRANCH   2   3
ENDBRANCH   1   2
BRANCH   1   6
ATOM      6  C   UNL     1      11.172  37.332  37.021  1.00  0.00     0.000 C 
BRANCH   6   7
ATOM      7  C   UNL     1      10.767  35.877  36.712  1.00  0.00    -0.000 C 
BRANCH   7   8
ATOM      8  C   UNL     1      10.628  35.583  35.209  1.00  0.00    -0.003 C 
ATOM      9  C   UNL     1      10.877  36.809  34.332  1.00  0.00     0.004 C 
ENDBRANCH   7   8
ENDBRANCH   6   7
ENDBRANCH   1   6
TORSDOF 5
ENDMDL
MODEL 5
REMARK VINA RESULT:    -2.660      1.465      1.953
REMARK INTER + INTRA:          -3.728
REMARK INTER:                  -3.584
REMARK INTRA:                  -0.145
REMARK UNBOUND:                -0.291
REMARK SMILES CCCCCCC(=O)[O-]
REMARK SMILES IDX 5 1 6 2 7 3 8 4 9 5 4 6 3 7 2 8 1 9
REMARK H PARENT
REMARK Flexibility Score: inf
ROOT
ATOM      1  C   UNL     1      10.028  37.635  38.065  1.00  0.00     0.006 C 
ENDROOT
BRANCH   1   2
ATOM      2  C   UNL     1       9.944  36.275  37.359  1.00  0.00     0.053 C 
BRANCH   2   3
ATOM      3  C   UNL     1      10.804  36.232  36.133  1.00  0.00     0.041 C 
ATOM      4  O   UNL     1      11.372  35.161  35.795  1.00  0.00    -0.550 OA
ATOM      5  O   UNL     1      11.002  37.383  35.381  1.00  0.00    -0.550 OA
ENDBRANCH   2   3
ENDBRANCH   1   2
BRANCH   1   6
ATOM      6  C   UNL     1      10.508  37.507  39.521  1.00  0.00     0.000 C 
BRANCH   6   7
ATOM      7  C   UNL     1      12.004  37.851  39.674  1.00  0.00    -0.000 C 
BRANCH   7   8
ATOM      8  C   UNL     1      12.427  38.125  41.127  1.00  0.00    -0.003 C 
ATOM      9  C   UNL     1      11.503  37.474  42.154  1.00  0.00     0.004 C 
ENDBRANCH   7   8
ENDBRANCH   6   7
ENDBRANCH   1   6
TORSDOF 5
ENDMDL
MODEL 6
REMARK VINA RESULT:    -2.574      3.396      5.020
REMARK INTER + INTRA:          -3.617
REMARK INTER:                  -3.456
REMARK INTRA:                  -0.161
REMARK UNBOUND:                -0.291
REMARK SMILES CCCCCCC(=O)[O-]
REMARK SMILES IDX 5 1 6 2 7 3 8 4 9 5 4 6 3 7 2 8 1 9
REMARK H PARENT
REMARK Flexibility Score: inf
ROOT
ATOM      1  C   UNL     1      12.312  38.049  38.679  1.00  0.00     0.006 C 
ENDROOT
BRANCH   1   2
ATOM      2  C   UNL     1      13.651  37.985  39.426  1.00  0.00     0.053 C 
BRANCH   2   3
ATOM      3  C   UNL     1      13.661  36.895  40.454  1.00  0.00     0.041 C 
ATOM      4  O   UNL     1      14.447  35.919  40.335  1.00  0.00    -0.550 OA
ATOM      5  O   UNL     1      12.779  36.941  41.526  1.00  0.00    -0.550 OA
ENDBRANCH   2   3
ENDBRANCH   1   2
BRANCH   1   6
ATOM      6  C   UNL     1      12.010  36.749  37.912  1.00  0.00     0.000 C 
BRANCH   6   7
ATOM      7  C   UNL     1      10.639  36.793  37.208  1.00  0.00    -0.000 C 
BRANCH   7   8
ATOM      8  C   UNL     1      10.562  35.906  35.955  1.00  0.00    -0.003 C 
ATOM      9  C   UNL     1      11.076  36.601  34.695  1.00  0.00     0.004 C 
ENDBRANCH   7   8
ENDBRANCH   6   7
ENDBRANCH   1   6
TORSDOF 5
ENDMDL
MODEL 7
REMARK VINA RESULT:    -2.433     16.563     17.432
REMARK INTER + INTRA:          -3.435
REMARK INTER:                  -3.202
REMARK INTRA:                  -0.233
REMARK UNBOUND:                -0.291
REMARK SMILES CCCCCCC(=O)[O-]
REMARK SMILES IDX 5 1 6 2 7 3 8 4 9 5 4 6 3 7 2 8 1 9
REMARK H PARENT
REMARK Flexibility Score: inf
ROOT
ATOM      1  C   UNL     1      22.488  29.656  48.275  1.00  0.00     0.006 C 
ENDROOT
BRANCH   1   2
ATOM      2  C   UNL     1      23.761  29.966  47.475  1.00  0.00     0.053 C 
BRANCH   2   3
ATOM      3  C   UNL     1      23.759  31.369  46.951  1.00  0.00     0.041 C 
ATOM      4  O   UNL     1      22.753  32.107  47.121  1.00  0.00    -0.550 OA
ATOM      5  O   UNL     1      24.855  31.852  46.249  1.00  0.00    -0.550 OA
ENDBRANCH   2   3
ENDBRANCH   1   2
BRANCH   1   6
ATOM      6  C   UNL     1      22.765  29.526  49.783  1.00  0.00     0.000 C 
BRANCH   6   7
ATOM      7  C   UNL     1      21.531  29.887  50.635  1.00  0.00    -0.000 C 
BRANCH   7   8
ATOM      8  C   UNL     1      21.526  31.345  51.124  1.00  0.00    -0.003 C 
ATOM      9  C   UNL     1      20.762  32.287  50.196  1.00  0.00     0.004 C 
ENDBRANCH   7   8
ENDBRANCH   6   7
ENDBRANCH   1   6
TORSDOF 5
ENDMDL
MODEL 8
REMARK VINA RESULT:    -2.405     16.559     17.727
REMARK INTER + INTRA:          -3.399
REMARK INTER:                  -2.997
REMARK INTRA:                  -0.402
REMARK UNBOUND:                -0.291
REMARK SMILES CCCCCCC(=O)[O-]
REMARK SMILES IDX 5 1 6 2 7 3 8 4 9 5 4 6 3 7 2 8 1 9
REMARK H PARENT
REMARK Flexibility Score: inf
ROOT
ATOM      1  C   UNL     1      21.374  29.803  51.098  1.00  0.00     0.006 C 
ENDROOT
BRANCH   1   2
ATOM      2  C   UNL     1      21.494  31.333  51.117  1.00  0.00     0.053 C 
BRANCH   2   3
ATOM      3  C   UNL     1      20.639  31.969  50.065  1.00  0.00     0.041 C 
ATOM      4  O   UNL     1      19.799  31.280  49.430  1.00  0.00    -0.550 OA
ATOM      5  O   UNL     1      20.791  33.317  49.765  1.00  0.00    -0.550 OA
ENDBRANCH   2   3
ENDBRANCH   1   2
BRANCH   1   6
ATOM      6  C   UNL     1      22.648  29.126  50.561  1.00  0.00     0.000 C 
BRANCH   6   7
ATOM      7  C   UNL     1      22.542  28.790  49.060  1.00  0.00    -0.000 C 
BRANCH   7   8
ATOM      8  C   UNL     1      23.564  29.538  48.188  1.00  0.00    -0.003 C 
ATOM      9  C   UNL     1      22.957  30.719  47.431  1.00  0.00     0.004 C 
ENDBRANCH   7   8
ENDBRANCH   6   7
ENDBRANCH   1   6
TORSDOF 5
ENDMDL
