MODEL 1
REMARK VINA RESULT:    -4.132      0.000      0.000
REMARK INTER + INTRA:         -10.064
REMARK INTER:                  -7.997
REMARK INTRA:                  -2.066
REMARK UNBOUND:                -2.066
REMARK SMILES CCCCCCCCCCCCCCCCCC(=O)[O-]
REMARK SMILES IDX 10 1 11 2 12 3 13 4 14 5 15 6 16 7 17 8 18 9 19 10 20 11
REMARK SMILES IDX 9 12 8 13 7 14 6 15 5 16 4 17 3 18 2 19 1 20
REMARK H PARENT
REMARK Flexibility Score: inf
ROOT
ATOM      1  C   UNL     1      21.280   0.943  16.433  1.00  0.00     0.000 C 
ENDROOT
BRANCH   1   2
ATOM      2  C   UNL     1      20.808  -0.431  16.924  1.00  0.00     0.000 C 
BRANCH   2   3
ATOM      3  C   UNL     1      20.216  -1.256  15.774  1.00  0.00     0.000 C 
BRANCH   3   4
ATOM      4  C   UNL     1      21.014  -2.549  15.557  1.00  0.00     0.000 C 
BRANCH   4   5
ATOM      5  C   UNL     1      22.190  -2.366  14.583  1.00  0.00     0.000 C 
BRANCH   5   6
ATOM      6  C   UNL     1      23.557  -2.490  15.278  1.00  0.00     0.000 C 
BRANCH   6   7
ATOM      7  C   UNL     1      23.648  -3.725  16.194  1.00  0.00     0.006 C 
BRANCH   7   8
ATOM      8  C   UNL     1      24.313  -3.460  17.554  1.00  0.00     0.053 C 
BRANCH   8   9
ATOM      9  C   UNL     1      23.515  -2.512  18.395  1.00  0.00     0.041 C 
ATOM     10  O   UNL     1      23.932  -1.342  18.601  1.00  0.00    -0.550 OA
ATOM     11  O   UNL     1      22.294  -2.911  18.925  1.00  0.00    -0.550 OA
ENDBRANCH   8   9
ENDBRANCH   7   8
ENDBRANCH   6   7
ENDBRANCH   5   6
ENDBRANCH   4   5
ENDBRANCH   3   4
ENDBRANCH   2   3
ENDBRANCH   1   2
BRANCH   1  12
ATOM     12  C   UNL     1      22.802   0.964  16.237  1.00  0.00     0.000 C 
BRANCH  12  13
ATOM     13  C   UNL     1      23.218   1.243  14.782  1.00  0.00    -0.000 C 
BRANCH  13  14
ATOM     14  C   UNL     1      22.059   1.323  13.771  1.00  0.00    -0.000 C 
BRANCH  14  15
ATOM     15  C   UNL     1      22.038   2.646  12.988  1.00  0.00    -0.000 C 
BRANCH  15  16
ATOM     16  C   UNL     1      23.061   3.670  13.514  1.00  0.00    -0.000 C 
BRANCH  16  17
ATOM     17  C   UNL     1      23.545   4.711  12.482  1.00  0.00    -0.000 C 
BRANCH  17  18
ATOM     18  C   UNL     1      24.983   5.217  12.689  1.00  0.00    -0.000 C 
BRANCH  18  19
ATOM     19  C   UNL     1      25.203   5.835  14.078  1.00  0.00    -0.003 C 
ATOM     20  C   UNL     1      25.696   7.275  13.966  1.00  0.00     0.004 C 
ENDBRANCH  18  19
ENDBRANCH  17  18
ENDBRANCH  16  17
ENDBRANCH  15  16
ENDBRANCH  14  15
ENDBRANCH  13  14
ENDBRANCH  12  13
ENDBRANCH   1  12
TORSDOF 16
ENDMDL
MODEL 2
REMARK VINA RESULT:    -4.124      2.448      3.375
REMARK INTER + INTRA:         -10.047
REMARK INTER:                  -7.932
REMARK INTRA:                  -2.115
REMARK UNBOUND:                -2.066
REMARK SMILES CCCCCCCCCCCCCCCCCC(=O)[O-]
REMARK SMILES IDX 10 1 11 2 12 3 13 4 14 5 15 6 16 7 17 8 18 9 19 10 20 11
REMARK SMILES IDX 9 12 8 13 7 14 6 15 5 16 4 17 3 18 2 19 1 20
REMARK H PARENT
REMARK Flexibility Score: inf
ROOT
ATOM      1  C   UNL     1      22.942   0.803  16.652  1.00  0.00     0.000 C 
ENDROOT
BRANCH   1   2
ATOM      2  C   UNL     1      23.481  -0.119  17.753  1.00  0.00     0.000 C 
BRANCH   2   3
ATOM      3  C   UNL     1      22.706  -1.441  17.796  1.00  0.00     0.000 C 
BRANCH   3   4
ATOM      4  C   UNL     1      23.348  -2.485  16.870  1.00  0.00     0.000 C 
BRANCH   4   5
ATOM      5  C   UNL     1      22.419  -2.912  15.722  1.00  0.00     0.000 C 
BRANCH   5   6
ATOM      6  C   UNL     1      23.027  -2.633  14.336  1.00  0.00     0.000 C 
BRANCH   6   7
ATOM      7  C   UNL     1      22.183  -1.649  13.504  1.00  0.00     0.006 C 
BRANCH   7   8
ATOM      8  C   UNL     1      20.809  -1.319  14.111  1.00  0.00     0.053 C 
BRANCH   8   9
ATOM      9  C   UNL     1      19.702  -2.071  13.440  1.00  0.00     0.041 C 
ATOM     10  O   UNL     1      19.382  -3.221  13.841  1.00  0.00    -0.550 OA
ATOM     11  O   UNL     1      19.001  -1.488  12.391  1.00  0.00    -0.550 OA
ENDBRANCH   8   9
ENDBRANCH   7   8
ENDBRANCH   6   7
ENDBRANCH   5   6
ENDBRANCH   4   5
ENDBRANCH   3   4
ENDBRANCH   2   3
ENDBRANCH   1   2
BRANCH   1  12
ATOM     12  C   UNL     1      23.927   0.890  15.477  1.00  0.00     0.000 C 
BRANCH  12  13
ATOM     13  C   UNL     1      23.728   2.152  14.619  1.00  0.00    -0.000 C 
BRANCH  13  14
ATOM     14  C   UNL     1      22.430   2.187  13.792  1.00  0.00    -0.000 C 
BRANCH  14  15
ATOM     15  C   UNL     1      21.958   3.617  13.479  1.00  0.00    -0.000 C 
BRANCH  15  16
ATOM     16  C   UNL     1      22.610   4.198  12.210  1.00  0.00    -0.000 C 
BRANCH  16  17
ATOM     17  C   UNL     1      23.448   5.476  12.424  1.00  0.00    -0.000 C 
BRANCH  17  18
ATOM     18  C   UNL     1      24.924   5.238  12.785  1.00  0.00    -0.000 C 
BRANCH  18  19
ATOM     19  C   UNL     1      25.419   6.160  13.909  1.00  0.00    -0.003 C 
ATOM     20  C   UNL     1      24.742   5.823  15.234  1.00  0.00     0.004 C 
ENDBRANCH  18  19
ENDBRANCH  17  18
ENDBRANCH  16  17
ENDBRANCH  15  16
ENDBRANCH  14  15
ENDBRANCH  13  14
ENDBRANCH  12  13
ENDBRANCH   1  12
TORSDOF 16
ENDMDL
MODEL 3
REMARK VINA RESULT:    -4.114      3.519      7.697
REMARK INTER + INTRA:         -10.029
REMARK INTER:                  -7.849
REMARK INTRA:                  -2.180
REMARK UNBOUND:                -2.066
REMARK SMILES CCCCCCCCCCCCCCCCCC(=O)[O-]
REMARK SMILES IDX 10 1 11 2 12 3 13 4 14 5 15 6 16 7 17 8 18 9 19 10 20 11
REMARK SMILES IDX 9 12 8 13 7 14 6 15 5 16 4 17 3 18 2 19 1 20
REMARK H PARENT
REMARK Flexibility Score: inf
ROOT
ATOM      1  C   UNL     1      21.254   0.402  16.015  1.00  0.00     0.000 C 
ENDROOT
BRANCH   1   2
ATOM      2  C   UNL     1      22.683   0.750  16.450  1.00  0.00     0.000 C 
BRANCH   2   3
ATOM      3  C   UNL     1      23.602   0.925  15.235  1.00  0.00     0.000 C 
BRANCH   3   4
ATOM      4  C   UNL     1      24.727   1.927  15.536  1.00  0.00     0.000 C 
BRANCH   4   5
ATOM      5  C   UNL     1      24.410   3.345  15.035  1.00  0.00     0.000 C 
BRANCH   5   6
ATOM      6  C   UNL     1      23.422   3.348  13.856  1.00  0.00     0.000 C 
BRANCH   6   7
ATOM      7  C   UNL     1      23.724   4.459  12.832  1.00  0.00     0.006 C 
BRANCH   7   8
ATOM      8  C   UNL     1      24.980   5.287  13.143  1.00  0.00     0.053 C 
BRANCH   8   9
ATOM      9  C   UNL     1      24.654   6.721  13.427  1.00  0.00     0.041 C 
ATOM     10  O   UNL     1      23.454   7.088  13.537  1.00  0.00    -0.550 OA
ATOM     11  O   UNL     1      25.676   7.646  13.603  1.00  0.00    -0.550 OA
ENDBRANCH   8   9
ENDBRANCH   7   8
ENDBRANCH   6   7
ENDBRANCH   5   6
ENDBRANCH   4   5
ENDBRANCH   3   4
ENDBRANCH   2   3
ENDBRANCH   1   2
BRANCH   1  12
ATOM     12  C   UNL     1      21.230  -0.124  14.573  1.00  0.00     0.000 C 
BRANCH  12  13
ATOM     13  C   UNL     1      20.374  -1.393  14.409  1.00  0.00    -0.000 C 
BRANCH  13  14
ATOM     14  C   UNL     1      21.160  -2.679  14.092  1.00  0.00    -0.000 C 
BRANCH  14  15
ATOM     15  C   UNL     1      22.671  -2.437  13.948  1.00  0.00    -0.000 C 
BRANCH  15  16
ATOM     16  C   UNL     1      23.473  -2.900  15.178  1.00  0.00    -0.000 C 
BRANCH  16  17
ATOM     17  C   UNL     1      22.645  -3.584  16.286  1.00  0.00    -0.000 C 
BRANCH  17  18
ATOM     18  C   UNL     1      22.422  -2.740  17.553  1.00  0.00    -0.000 C 
BRANCH  18  19
ATOM     19  C   UNL     1      23.732  -2.403  18.282  1.00  0.00    -0.003 C 
ATOM     20  C   UNL     1      24.470  -3.672  18.700  1.00  0.00     0.004 C 
ENDBRANCH  18  19
ENDBRANCH  17  18
ENDBRANCH  16  17
ENDBRANCH  15  16
ENDBRANCH  14  15
ENDBRANCH  13  14
ENDBRANCH  12  13
ENDBRANCH   1  12
TORSDOF 16
ENDMDL
MODEL 4
REMARK VINA RESULT:    -4.107      1.622      2.221
REMARK INTER + INTRA:         -10.015
REMARK INTER:                  -7.831
REMARK INTRA:                  -2.184
REMARK UNBOUND:                -2.066
REMARK SMILES CCCCCCCCCCCCCCCCCC(=O)[O-]
REMARK SMILES IDX 10 1 11 2 12 3 13 4 14 5 15 6 16 7 17 8 18 9 19 10 20 11
REMARK SMILES IDX 9 12 8 13 7 14 6 15 5 16 4 17 3 18 2 19 1 20
REMARK H PARENT
REMARK Flexibility Score: inf
ROOT
ATOM      1  C   UNL     1      20.919   0.766  17.001  1.00  0.00     0.000 C 
ENDROOT
BRANCH   1   2
ATOM      2  C   UNL     1      20.273  -0.519  16.469  1.00  0.00     0.000 C 
BRANCH   2   3
ATOM      3  C   UNL     1      20.544  -0.693  14.970  1.00  0.00     0.000 C 
BRANCH   3   4
ATOM      4  C   UNL     1      20.106  -2.085  14.490  1.00  0.00     0.000 C 
BRANCH   4   5
ATOM      5  C   UNL     1      21.256  -2.884  13.855  1.00  0.00     0.000 C 
BRANCH   5   6
ATOM      6  C   UNL     1      22.608  -2.158  13.960  1.00  0.00     0.000 C 
BRANCH   6   7
ATOM      7  C   UNL     1      23.634  -2.933  14.808  1.00  0.00     0.006 C 
BRANCH   7   8
ATOM      8  C   UNL     1      23.416  -2.825  16.326  1.00  0.00     0.053 C 
BRANCH   8   9
ATOM      9  C   UNL     1      23.198  -4.164  16.960  1.00  0.00     0.041 C 
ATOM     10  O   UNL     1      22.034  -4.628  17.079  1.00  0.00    -0.550 OA
ATOM     11  O   UNL     1      24.285  -4.915  17.390  1.00  0.00    -0.550 OA
ENDBRANCH   8   9
ENDBRANCH   7   8
ENDBRANCH   6   7
ENDBRANCH   5   6
ENDBRANCH   4   5
ENDBRANCH   3   4
ENDBRANCH   2   3
ENDBRANCH   1   2
BRANCH   1  12
ATOM     12  C   UNL     1      22.208   0.454  17.775  1.00  0.00     0.000 C 
BRANCH  12  13
ATOM     13  C   UNL     1      23.443   1.175  17.204  1.00  0.00    -0.000 C 
BRANCH  13  14
ATOM     14  C   UNL     1      23.808   0.803  15.755  1.00  0.00    -0.000 C 
BRANCH  14  15
ATOM     15  C   UNL     1      23.978   2.032  14.846  1.00  0.00    -0.000 C 
BRANCH  15  16
ATOM     16  C   UNL     1      22.653   2.771  14.584  1.00  0.00    -0.000 C 
BRANCH  16  17
ATOM     17  C   UNL     1      22.165   2.754  13.120  1.00  0.00    -0.000 C 
BRANCH  17  18
ATOM     18  C   UNL     1      22.336   4.079  12.358  1.00  0.00    -0.000 C 
BRANCH  18  19
ATOM     19  C   UNL     1      23.720   4.712  12.567  1.00  0.00    -0.003 C 
ATOM     20  C   UNL     1      23.598   6.180  12.963  1.00  0.00     0.004 C 
ENDBRANCH  18  19
ENDBRANCH  17  18
ENDBRANCH  16  17
ENDBRANCH  15  16
ENDBRANCH  14  15
ENDBRANCH  13  14
ENDBRANCH  12  13
ENDBRANCH   1  12
TORSDOF 16
ENDMDL
MODEL 5
REMARK VINA RESULT:    -4.103      3.007      4.952
REMARK INTER + INTRA:         -10.006
REMARK INTER:                  -6.819
REMARK INTRA:                  -3.187
REMARK UNBOUND:                -2.066
REMARK SMILES CCCCCCCCCCCCCCCCCC(=O)[O-]
REMARK SMILES IDX 10 1 11 2 12 3 13 4 14 5 15 6 16 7 17 8 18 9 19 10 20 11
REMARK SMILES IDX 9 12 8 13 7 14 6 15 5 16 4 17 3 18 2 19 1 20
REMARK H PARENT
REMARK Flexibility Score: inf
ROOT
ATOM      1  C   UNL     1      22.888  -2.842  14.724  1.00  0.00     0.000 C 
ENDROOT
BRANCH   1   2
ATOM      2  C   UNL     1      24.003  -3.312  15.666  1.00  0.00     0.000 C 
BRANCH   2   3
ATOM      3  C   UNL     1      23.868  -2.663  17.049  1.00  0.00     0.000 C 
BRANCH   3   4
ATOM      4  C   UNL     1      24.289  -3.638  18.158  1.00  0.00     0.000 C 
BRANCH   4   5
ATOM      5  C   UNL     1      24.116  -5.111  17.752  1.00  0.00     0.000 C 
BRANCH   5   6
ATOM      6  C   UNL     1      22.978  -5.805  18.519  1.00  0.00     0.000 C 
BRANCH   6   7
ATOM      7  C   UNL     1      21.603  -5.603  17.855  1.00  0.00     0.006 C 
BRANCH   7   8
ATOM      8  C   UNL     1      20.684  -4.610  18.585  1.00  0.00     0.053 C 
BRANCH   8   9
ATOM      9  C   UNL     1      19.303  -4.593  18.008  1.00  0.00     0.041 C 
ATOM     10  O   UNL     1      19.102  -4.988  16.830  1.00  0.00    -0.550 OA
ATOM     11  O   UNL     1      18.230  -4.172  18.785  1.00  0.00    -0.550 OA
ENDBRANCH   8   9
ENDBRANCH   7   8
ENDBRANCH   6   7
ENDBRANCH   5   6
ENDBRANCH   4   5
ENDBRANCH   3   4
ENDBRANCH   2   3
ENDBRANCH   1   2
BRANCH   1  12
ATOM     12  C   UNL     1      21.532  -2.821  15.444  1.00  0.00     0.000 C 
BRANCH  12  13
ATOM     13  C   UNL     1      20.584  -1.732  14.910  1.00  0.00    -0.000 C 
BRANCH  13  14
ATOM     14  C   UNL     1      20.101  -0.712  15.957  1.00  0.00    -0.000 C 
BRANCH  14  15
ATOM     15  C   UNL     1      20.499  -1.093  17.393  1.00  0.00    -0.000 C 
BRANCH  15  16
ATOM     16  C   UNL     1      21.479  -0.089  18.029  1.00  0.00    -0.000 C 
BRANCH  16  17
ATOM     17  C   UNL     1      21.916   1.076  17.116  1.00  0.00    -0.000 C 
BRANCH  17  18
ATOM     18  C   UNL     1      23.398   1.065  16.705  1.00  0.00    -0.000 C 
BRANCH  18  19
ATOM     19  C   UNL     1      23.613   0.572  15.266  1.00  0.00    -0.003 C 
ATOM     20  C   UNL     1      22.808   1.405  14.273  1.00  0.00     0.004 C 
ENDBRANCH  18  19
ENDBRANCH  17  18
ENDBRANCH  16  17
ENDBRANCH  15  16
ENDBRANCH  14  15
ENDBRANCH  13  14
ENDBRANCH  12  13
ENDBRANCH   1  12
TORSDOF 16
ENDMDL
MODEL 6
REMARK VINA RESULT:    -4.059      4.439      7.501
REMARK INTER + INTRA:          -9.921
REMARK INTER:                  -7.390
REMARK INTRA:                  -2.532
REMARK UNBOUND:                -2.066
REMARK SMILES CCCCCCCCCCCCCCCCCC(=O)[O-]
REMARK SMILES IDX 10 1 11 2 12 3 13 4 14 5 15 6 16 7 17 8 18 9 19 10 20 11
REMARK SMILES IDX 9 12 8 13 7 14 6 15 5 16 4 17 3 18 2 19 1 20
REMARK H PARENT
REMARK Flexibility Score: inf
ROOT
ATOM      1  C   UNL     1      23.025   0.382  14.821  1.00  0.00     0.000 C 
ENDROOT
BRANCH   1   2
ATOM      2  C   UNL     1      21.989   0.958  13.848  1.00  0.00     0.000 C 
BRANCH   2   3
ATOM      3  C   UNL     1      21.604  -0.072  12.779  1.00  0.00     0.000 C 
BRANCH   3   4
ATOM      4  C   UNL     1      21.991  -1.492  13.219  1.00  0.00     0.000 C 
BRANCH   4   5
ATOM      5  C   UNL     1      20.808  -2.474  13.166  1.00  0.00     0.000 C 
BRANCH   5   6
ATOM      6  C   UNL     1      19.446  -1.759  13.175  1.00  0.00     0.000 C 
BRANCH   6   7
ATOM      7  C   UNL     1      18.480  -2.310  12.109  1.00  0.00     0.006 C 
BRANCH   7   8
ATOM      8  C   UNL     1      17.790  -1.231  11.258  1.00  0.00     0.053 C 
BRANCH   8   9
ATOM      9  C   UNL     1      17.492  -1.713   9.872  1.00  0.00     0.041 C 
ATOM     10  O   UNL     1      17.525  -2.944   9.608  1.00  0.00    -0.550 OA
ATOM     11  O   UNL     1      17.145  -0.806   8.879  1.00  0.00    -0.550 OA
ENDBRANCH   8   9
ENDBRANCH   7   8
ENDBRANCH   6   7
ENDBRANCH   5   6
ENDBRANCH   4   5
ENDBRANCH   3   4
ENDBRANCH   2   3
ENDBRANCH   1   2
BRANCH   1  12
ATOM     12  C   UNL     1      22.546   0.510  16.274  1.00  0.00     0.000 C 
BRANCH  12  13
ATOM     13  C   UNL     1      21.013   0.585  16.397  1.00  0.00    -0.000 C 
BRANCH  13  14
ATOM     14  C   UNL     1      20.327  -0.713  16.859  1.00  0.00    -0.000 C 
BRANCH  14  15
ATOM     15  C   UNL     1      21.319  -1.753  17.407  1.00  0.00    -0.000 C 
BRANCH  15  16
ATOM     16  C   UNL     1      21.278  -3.084  16.634  1.00  0.00    -0.000 C 
BRANCH  16  17
ATOM     17  C   UNL     1      22.649  -3.618  16.165  1.00  0.00    -0.000 C 
BRANCH  17  18
ATOM     18  C   UNL     1      23.869  -2.864  16.721  1.00  0.00    -0.000 C 
BRANCH  18  19
ATOM     19  C   UNL     1      24.483  -3.550  17.951  1.00  0.00    -0.003 C 
ATOM     20  C   UNL     1      24.326  -5.066  17.871  1.00  0.00     0.004 C 
ENDBRANCH  18  19
ENDBRANCH  17  18
ENDBRANCH  16  17
ENDBRANCH  15  16
ENDBRANCH  14  15
ENDBRANCH  13  14
ENDBRANCH  12  13
ENDBRANCH   1  12
TORSDOF 16
ENDMDL
MODEL 7
REMARK VINA RESULT:    -4.056      2.887      6.566
REMARK INTER + INTRA:          -9.917
REMARK INTER:                  -6.697
REMARK INTRA:                  -3.220
REMARK UNBOUND:                -2.066
REMARK SMILES CCCCCCCCCCCCCCCCCC(=O)[O-]
REMARK SMILES IDX 10 1 11 2 12 3 13 4 14 5 15 6 16 7 17 8 18 9 19 10 20 11
REMARK SMILES IDX 9 12 8 13 7 14 6 15 5 16 4 17 3 18 2 19 1 20
REMARK H PARENT
REMARK Flexibility Score: inf
ROOT
ATOM      1  C   UNL     1      20.290  -0.051  16.660  1.00  0.00     0.000 C 
ENDROOT
BRANCH   1   2
ATOM      2  C   UNL     1      21.470   0.915  16.497  1.00  0.00     0.000 C 
BRANCH   2   3
ATOM      3  C   UNL     1      21.961   0.947  15.044  1.00  0.00     0.000 C 
BRANCH   3   4
ATOM      4  C   UNL     1      23.496   0.956  14.983  1.00  0.00     0.000 C 
BRANCH   4   5
ATOM      5  C   UNL     1      24.141   1.424  16.297  1.00  0.00     0.000 C 
BRANCH   5   6
ATOM      6  C   UNL     1      24.748   2.834  16.188  1.00  0.00     0.000 C 
BRANCH   6   7
ATOM      7  C   UNL     1      24.597   3.437  14.779  1.00  0.00     0.006 C 
BRANCH   7   8
ATOM      8  C   UNL     1      23.800   4.750  14.731  1.00  0.00     0.053 C 
BRANCH   8   9
ATOM      9  C   UNL     1      22.333   4.512  14.545  1.00  0.00     0.041 C 
ATOM     10  O   UNL     1      21.878   4.213  13.409  1.00  0.00    -0.550 OA
ATOM     11  O   UNL     1      21.472   4.587  15.633  1.00  0.00    -0.550 OA
ENDBRANCH   8   9
ENDBRANCH   7   8
ENDBRANCH   6   7
ENDBRANCH   5   6
ENDBRANCH   4   5
ENDBRANCH   3   4
ENDBRANCH   2   3
ENDBRANCH   1   2
BRANCH   1  12
ATOM     12  C   UNL     1      20.703  -1.293  17.463  1.00  0.00     0.000 C 
BRANCH  12  13
ATOM     13  C   UNL     1      22.082  -1.147  18.130  1.00  0.00    -0.000 C 
BRANCH  13  14
ATOM     14  C   UNL     1      23.194  -2.036  17.543  1.00  0.00    -0.000 C 
BRANCH  14  15
ATOM     15  C   UNL     1      22.688  -2.973  16.434  1.00  0.00    -0.000 C 
BRANCH  15  16
ATOM     16  C   UNL     1      23.486  -2.837  15.124  1.00  0.00    -0.000 C 
BRANCH  16  17
ATOM     17  C   UNL     1      22.645  -2.524  13.868  1.00  0.00    -0.000 C 
BRANCH  17  18
ATOM     18  C   UNL     1      21.123  -2.645  14.053  1.00  0.00    -0.000 C 
BRANCH  18  19
ATOM     19  C   UNL     1      20.338  -1.632  13.205  1.00  0.00    -0.003 C 
ATOM     20  C   UNL     1      21.173  -1.137  12.028  1.00  0.00     0.004 C 
ENDBRANCH  18  19
ENDBRANCH  17  18
ENDBRANCH  16  17
ENDBRANCH  15  16
ENDBRANCH  14  15
ENDBRANCH  13  14
ENDBRANCH  12  13
ENDBRANCH   1  12
TORSDOF 16
ENDMDL
MODEL 8
REMARK VINA RESULT:    -4.050      1.909      3.188
REMARK INTER + INTRA:          -9.904
REMARK INTER:                  -7.228
REMARK INTRA:                  -2.676
REMARK UNBOUND:                -2.066
REMARK SMILES CCCCCCCCCCCCCCCCCC(=O)[O-]
REMARK SMILES IDX 10 1 11 2 12 3 13 4 14 5 15 6 16 7 17 8 18 9 19 10 20 11
REMARK SMILES IDX 9 12 8 13 7 14 6 15 5 16 4 17 3 18 2 19 1 20
REMARK H PARENT
REMARK Flexibility Score: inf
ROOT
ATOM      1  C   UNL     1      20.150  -1.922  17.070  1.00  0.00     0.000 C 
ENDROOT
BRANCH   1   2
ATOM      2  C   UNL     1      20.137  -0.760  16.069  1.00  0.00     0.000 C 
BRANCH   2   3
ATOM      3  C   UNL     1      20.693  -1.197  14.709  1.00  0.00     0.000 C 
BRANCH   3   4
ATOM      4  C   UNL     1      21.343  -2.586  14.801  1.00  0.00     0.000 C 
BRANCH   4   5
ATOM      5  C   UNL     1      22.764  -2.617  14.214  1.00  0.00     0.000 C 
BRANCH   5   6
ATOM      6  C   UNL     1      23.814  -3.089  15.235  1.00  0.00     0.000 C 
BRANCH   6   7
ATOM      7  C   UNL     1      23.187  -3.826  16.434  1.00  0.00     0.006 C 
BRANCH   7   8
ATOM      8  C   UNL     1      24.206  -4.462  17.393  1.00  0.00     0.053 C 
BRANCH   8   9
ATOM      9  C   UNL     1      23.570  -5.464  18.306  1.00  0.00     0.041 C 
ATOM     10  O   UNL     1      24.173  -6.531  18.595  1.00  0.00    -0.550 OA
ATOM     11  O   UNL     1      22.325  -5.205  18.865  1.00  0.00    -0.550 OA
ENDBRANCH   8   9
ENDBRANCH   7   8
ENDBRANCH   6   7
ENDBRANCH   5   6
ENDBRANCH   4   5
ENDBRANCH   3   4
ENDBRANCH   2   3
ENDBRANCH   1   2
BRANCH   1  12
ATOM     12  C   UNL     1      21.008  -1.582  18.297  1.00  0.00     0.000 C 
BRANCH  12  13
ATOM     13  C   UNL     1      21.676  -0.199  18.199  1.00  0.00    -0.000 C 
BRANCH  13  14
ATOM     14  C   UNL     1      23.175  -0.217  17.847  1.00  0.00    -0.000 C 
BRANCH  14  15
ATOM     15  C   UNL     1      23.601   0.983  16.984  1.00  0.00    -0.000 C 
BRANCH  15  16
ATOM     16  C   UNL     1      23.816   0.611  15.505  1.00  0.00    -0.000 C 
BRANCH  16  17
ATOM     17  C   UNL     1      23.304   1.646  14.482  1.00  0.00    -0.000 C 
BRANCH  17  18
ATOM     18  C   UNL     1      22.384   2.736  15.059  1.00  0.00    -0.000 C 
BRANCH  18  19
ATOM     19  C   UNL     1      22.164   3.905  14.087  1.00  0.00    -0.003 C 
ATOM     20  C   UNL     1      23.350   4.063  13.140  1.00  0.00     0.004 C 
ENDBRANCH  18  19
ENDBRANCH  17  18
ENDBRANCH  16  17
ENDBRANCH  15  16
ENDBRANCH  14  15
ENDBRANCH  13  14
ENDBRANCH  12  13
ENDBRANCH   1  12
TORSDOF 16
ENDMDL
MODEL 9
REMARK VINA RESULT:    -4.047      1.929      2.910
REMARK INTER + INTRA:          -9.898
REMARK INTER:                  -7.416
REMARK INTRA:                  -2.482
REMARK UNBOUND:                -2.066
REMARK SMILES CCCCCCCCCCCCCCCCCC(=O)[O-]
REMARK SMILES IDX 10 1 11 2 12 3 13 4 14 5 15 6 16 7 17 8 18 9 19 10 20 11
REMARK SMILES IDX 9 12 8 13 7 14 6 15 5 16 4 17 3 18 2 19 1 20
REMARK H PARENT
REMARK Flexibility Score: inf
ROOT
ATOM      1  C   UNL     1      20.116  -0.386  16.487  1.00  0.00     0.000 C 
ENDROOT
BRANCH   1   2
ATOM      2  C   UNL     1      21.048  -0.390  17.705  1.00  0.00     0.000 C 
BRANCH   2   3
ATOM      3  C   UNL     1      22.445   0.122  17.334  1.00  0.00     0.000 C 
BRANCH   3   4
ATOM      4  C   UNL     1      23.462  -1.028  17.302  1.00  0.00     0.000 C 
BRANCH   4   5
ATOM      5  C   UNL     1      23.769  -1.510  15.874  1.00  0.00     0.000 C 
BRANCH   5   6
ATOM      6  C   UNL     1      23.879  -3.042  15.779  1.00  0.00     0.000 C 
BRANCH   6   7
ATOM      7  C   UNL     1      23.131  -3.763  16.917  1.00  0.00     0.006 C 
BRANCH   7   8
ATOM      8  C   UNL     1      23.927  -4.897  17.583  1.00  0.00     0.053 C 
BRANCH   8   9
ATOM      9  C   UNL     1      24.100  -4.676  19.053  1.00  0.00     0.041 C 
ATOM     10  O   UNL     1      24.329  -3.520  19.498  1.00  0.00    -0.550 OA
ATOM     11  O   UNL     1      23.976  -5.741  19.937  1.00  0.00    -0.550 OA
ENDBRANCH   8   9
ENDBRANCH   7   8
ENDBRANCH   6   7
ENDBRANCH   5   6
ENDBRANCH   4   5
ENDBRANCH   3   4
ENDBRANCH   2   3
ENDBRANCH   1   2
BRANCH   1  12
ATOM     12  C   UNL     1      20.114  -1.755  15.792  1.00  0.00     0.000 C 
BRANCH  12  13
ATOM     13  C   UNL     1      19.893  -1.658  14.271  1.00  0.00    -0.000 C 
BRANCH  13  14
ATOM     14  C   UNL     1      21.156  -1.364  13.441  1.00  0.00    -0.000 C 
BRANCH  14  15
ATOM     15  C   UNL     1      21.192   0.073  12.894  1.00  0.00    -0.000 C 
BRANCH  15  16
ATOM     16  C   UNL     1      22.014   1.030  13.777  1.00  0.00    -0.000 C 
BRANCH  16  17
ATOM     17  C   UNL     1      22.195   2.455  13.215  1.00  0.00    -0.000 C 
BRANCH  17  18
ATOM     18  C   UNL     1      23.361   3.254  13.822  1.00  0.00    -0.000 C 
BRANCH  18  19
ATOM     19  C   UNL     1      23.592   2.937  15.307  1.00  0.00    -0.003 C 
ATOM     20  C   UNL     1      24.976   2.334  15.532  1.00  0.00     0.004 C 
ENDBRANCH  18  19
ENDBRANCH  17  18
ENDBRANCH  16  17
ENDBRANCH  15  16
ENDBRANCH  14  15
ENDBRANCH  13  14
ENDBRANCH  12  13
ENDBRANCH   1  12
TORSDOF 16
ENDMDL
