MODEL 1
REMARK VINA RESULT:    -5.010      0.000      0.000
REMARK INTER + INTRA:          -8.401
REMARK INTER:                  -7.939
REMARK INTRA:                  -0.462
REMARK UNBOUND:                -0.462
REMARK SMILES CCCCCCCCCCCC(=O)[O-]
REMARK SMILES IDX 7 1 8 2 9 3 10 4 11 5 12 6 13 7 14 8 6 9 5 10 4 11 3 12 2 13
REMARK SMILES IDX 1 14
REMARK H PARENT
REMARK Flexibility Score: inf
ROOT
ATOM      1  C   UNL     1       6.226 -12.339  -4.004  1.00  0.00     0.000 C 
ENDROOT
BRANCH   1   2
ATOM      2  C   UNL     1       5.195 -12.987  -4.940  1.00  0.00     0.000 C 
BRANCH   2   3
ATOM      3  C   UNL     1       4.266 -11.956  -5.601  1.00  0.00     0.000 C 
BRANCH   3   4
ATOM      4  C   UNL     1       5.028 -10.954  -6.486  1.00  0.00     0.006 C 
BRANCH   4   5
ATOM      5  C   UNL     1       4.089  -9.930  -7.138  1.00  0.00     0.053 C 
BRANCH   5   6
ATOM      6  C   UNL     1       4.540  -8.525  -6.883  1.00  0.00     0.041 C 
ATOM      7  O   UNL     1       4.822  -7.764  -7.847  1.00  0.00    -0.550 OA
ATOM      8  O   UNL     1       4.616  -8.044  -5.583  1.00  0.00    -0.550 OA
ENDBRANCH   5   6
ENDBRANCH   4   5
ENDBRANCH   3   4
ENDBRANCH   2   3
ENDBRANCH   1   2
BRANCH   1   9
ATOM      9  C   UNL     1       7.334 -13.334  -3.636  1.00  0.00     0.000 C 
BRANCH   9  10
ATOM     10  C   UNL     1       7.351 -13.605  -2.126  1.00  0.00    -0.000 C 
BRANCH  10  11
ATOM     11  C   UNL     1       7.513 -12.302  -1.334  1.00  0.00    -0.000 C 
BRANCH  11  12
ATOM     12  C   UNL     1       8.668 -12.408  -0.331  1.00  0.00    -0.000 C 
BRANCH  12  13
ATOM     13  C   UNL     1       8.940 -11.056   0.339  1.00  0.00    -0.003 C 
ATOM     14  C   UNL     1       7.968  -9.990  -0.157  1.00  0.00     0.004 C 
ENDBRANCH  12  13
ENDBRANCH  11  12
ENDBRANCH  10  11
ENDBRANCH   9  10
ENDBRANCH   1   9
TORSDOF 10
ENDMDL
MODEL 2
REMARK VINA RESULT:    -5.008      1.700      2.933
REMARK INTER + INTRA:          -8.398
REMARK INTER:                  -7.195
REMARK INTRA:                  -1.203
REMARK UNBOUND:                -0.462
REMARK SMILES CCCCCCCCCCCC(=O)[O-]
REMARK SMILES IDX 7 1 8 2 9 3 10 4 11 5 12 6 13 7 14 8 6 9 5 10 4 11 3 12 2 13
REMARK SMILES IDX 1 14
REMARK H PARENT
REMARK Flexibility Score: inf
ROOT
ATOM      1  C   UNL     1       5.941 -12.889  -1.869  1.00  0.00     0.000 C 
ENDROOT
BRANCH   1   2
ATOM      2  C   UNL     1       7.019 -12.897  -2.963  1.00  0.00     0.000 C 
BRANCH   2   3
ATOM      3  C   UNL     1       6.445 -13.201  -4.356  1.00  0.00     0.000 C 
BRANCH   3   4
ATOM      4  C   UNL     1       4.922 -13.423  -4.334  1.00  0.00     0.006 C 
BRANCH   4   5
ATOM      5  C   UNL     1       4.224 -12.764  -5.531  1.00  0.00     0.053 C 
BRANCH   5   6
ATOM      6  C   UNL     1       4.527 -11.299  -5.611  1.00  0.00     0.041 C 
ATOM      7  O   UNL     1       4.254 -10.541  -4.642  1.00  0.00    -0.550 OA
ATOM      8  O   UNL     1       5.141 -10.777  -6.742  1.00  0.00    -0.550 OA
ENDBRANCH   5   6
ENDBRANCH   4   5
ENDBRANCH   3   4
ENDBRANCH   2   3
ENDBRANCH   1   2
BRANCH   1   9
ATOM      9  C   UNL     1       5.691 -11.466  -1.355  1.00  0.00     0.000 C 
BRANCH   9  10
ATOM     10  C   UNL     1       6.649 -10.466  -2.014  1.00  0.00    -0.000 C 
BRANCH  10  11
ATOM     11  C   UNL     1       7.292  -9.548  -0.967  1.00  0.00    -0.000 C 
BRANCH  11  12
ATOM     12  C   UNL     1       7.650 -10.327   0.304  1.00  0.00    -0.000 C 
BRANCH  12  13
ATOM     13  C   UNL     1       9.080 -10.873   0.231  1.00  0.00    -0.003 C 
ATOM     14  C   UNL     1       9.084 -12.378  -0.013  1.00  0.00     0.004 C 
ENDBRANCH  12  13
ENDBRANCH  11  12
ENDBRANCH  10  11
ENDBRANCH   9  10
ENDBRANCH   1   9
TORSDOF 10
ENDMDL
MODEL 3
REMARK VINA RESULT:    -4.988      1.722      2.851
REMARK INTER + INTRA:          -8.366
REMARK INTER:                  -7.324
REMARK INTRA:                  -1.042
REMARK UNBOUND:                -0.462
REMARK SMILES CCCCCCCCCCCC(=O)[O-]
REMARK SMILES IDX 7 1 8 2 9 3 10 4 11 5 12 6 13 7 14 8 6 9 5 10 4 11 3 12 2 13
REMARK SMILES IDX 1 14
REMARK H PARENT
REMARK Flexibility Score: inf
ROOT
ATOM      1  C   UNL     1       7.785 -13.860  -2.367  1.00  0.00     0.000 C 
ENDROOT
BRANCH   1   2
ATOM      2  C   UNL     1       7.406 -13.161  -3.682  1.00  0.00     0.000 C 
BRANCH   2   3
ATOM      3  C   UNL     1       6.081 -12.391  -3.581  1.00  0.00     0.000 C 
BRANCH   3   4
ATOM      4  C   UNL     1       4.876 -13.220  -4.061  1.00  0.00     0.006 C 
BRANCH   4   5
ATOM      5  C   UNL     1       4.619 -13.048  -5.565  1.00  0.00     0.053 C 
BRANCH   5   6
ATOM      6  C   UNL     1       4.311 -11.625  -5.915  1.00  0.00     0.041 C 
ATOM      7  O   UNL     1       5.066 -10.986  -6.695  1.00  0.00    -0.550 OA
ATOM      8  O   UNL     1       3.172 -11.015  -5.407  1.00  0.00    -0.550 OA
ENDBRANCH   5   6
ENDBRANCH   4   5
ENDBRANCH   3   4
ENDBRANCH   2   3
ENDBRANCH   1   2
BRANCH   1   9
ATOM      9  C   UNL     1       7.449 -12.977  -1.160  1.00  0.00     0.000 C 
BRANCH   9  10
ATOM     10  C   UNL     1       8.713 -12.624  -0.366  1.00  0.00    -0.000 C 
BRANCH  10  11
ATOM     11  C   UNL     1       8.791 -11.117  -0.097  1.00  0.00    -0.000 C 
BRANCH  11  12
ATOM     12  C   UNL     1       7.989 -10.329  -1.139  1.00  0.00    -0.000 C 
BRANCH  12  13
ATOM     13  C   UNL     1       6.990  -9.382  -0.463  1.00  0.00    -0.003 C 
ATOM     14  C   UNL     1       5.557  -9.872  -0.643  1.00  0.00     0.004 C 
ENDBRANCH  12  13
ENDBRANCH  11  12
ENDBRANCH  10  11
ENDBRANCH   9  10
ENDBRANCH   1   9
TORSDOF 10
ENDMDL
MODEL 4
REMARK VINA RESULT:    -4.945      3.699      4.614
REMARK INTER + INTRA:          -8.298
REMARK INTER:                  -7.357
REMARK INTRA:                  -0.941
REMARK UNBOUND:                -0.462
REMARK SMILES CCCCCCCCCCCC(=O)[O-]
REMARK SMILES IDX 7 1 8 2 9 3 10 4 11 5 12 6 13 7 14 8 6 9 5 10 4 11 3 12 2 13
REMARK SMILES IDX 1 14
REMARK H PARENT
REMARK Flexibility Score: inf
ROOT
ATOM      1  C   UNL     1       7.252 -12.548  -2.793  1.00  0.00     0.000 C 
ENDROOT
BRANCH   1   2
ATOM      2  C   UNL     1       6.935 -13.324  -4.080  1.00  0.00     0.000 C 
BRANCH   2   3
ATOM      3  C   UNL     1       5.526 -13.027  -4.617  1.00  0.00     0.000 C 
BRANCH   3   4
ATOM      4  C   UNL     1       4.501 -12.795  -3.494  1.00  0.00     0.006 C 
BRANCH   4   5
ATOM      5  C   UNL     1       3.860 -14.105  -3.016  1.00  0.00     0.053 C 
BRANCH   5   6
ATOM      6  C   UNL     1       3.753 -14.158  -1.523  1.00  0.00     0.041 C 
ATOM      7  O   UNL     1       3.145 -15.109  -0.964  1.00  0.00    -0.550 OA
ATOM      8  O   UNL     1       4.355 -13.175  -0.748  1.00  0.00    -0.550 OA
ENDBRANCH   5   6
ENDBRANCH   4   5
ENDBRANCH   3   4
ENDBRANCH   2   3
ENDBRANCH   1   2
BRANCH   1   9
ATOM      9  C   UNL     1       7.692 -13.499  -1.674  1.00  0.00     0.000 C 
BRANCH   9  10
ATOM     10  C   UNL     1       8.391 -12.734  -0.543  1.00  0.00    -0.000 C 
BRANCH  10  11
ATOM     11  C   UNL     1       8.453 -11.233  -0.850  1.00  0.00    -0.000 C 
BRANCH  11  12
ATOM     12  C   UNL     1       8.035 -10.403   0.369  1.00  0.00    -0.000 C 
BRANCH  12  13
ATOM     13  C   UNL     1       7.404  -9.074  -0.060  1.00  0.00    -0.003 C 
ATOM     14  C   UNL     1       6.659  -9.219  -1.383  1.00  0.00     0.004 C 
ENDBRANCH  12  13
ENDBRANCH  11  12
ENDBRANCH  10  11
ENDBRANCH   9  10
ENDBRANCH   1   9
TORSDOF 10
ENDMDL
MODEL 5
REMARK VINA RESULT:    -4.927      1.112      1.521
REMARK INTER + INTRA:          -8.269
REMARK INTER:                  -7.802
REMARK INTRA:                  -0.467
REMARK UNBOUND:                -0.462
REMARK SMILES CCCCCCCCCCCC(=O)[O-]
REMARK SMILES IDX 7 1 8 2 9 3 10 4 11 5 12 6 13 7 14 8 6 9 5 10 4 11 3 12 2 13
REMARK SMILES IDX 1 14
REMARK H PARENT
REMARK Flexibility Score: inf
ROOT
ATOM      1  C   UNL     1       4.769 -13.212  -3.953  1.00  0.00     0.000 C 
ENDROOT
BRANCH   1   2
ATOM      2  C   UNL     1       4.306 -12.988  -5.401  1.00  0.00     0.000 C 
BRANCH   2   3
ATOM      3  C   UNL     1       4.983 -11.774  -6.057  1.00  0.00     0.000 C 
BRANCH   3   4
ATOM      4  C   UNL     1       3.975 -10.686  -6.470  1.00  0.00     0.006 C 
BRANCH   4   5
ATOM      5  C   UNL     1       4.657  -9.500  -7.164  1.00  0.00     0.053 C 
BRANCH   5   6
ATOM      6  C   UNL     1       3.676  -8.666  -7.929  1.00  0.00     0.041 C 
ATOM      7  O   UNL     1       3.915  -8.340  -9.122  1.00  0.00    -0.550 OA
ATOM      8  O   UNL     1       2.482  -8.278  -7.335  1.00  0.00    -0.550 OA
ENDBRANCH   5   6
ENDBRANCH   4   5
ENDBRANCH   3   4
ENDBRANCH   2   3
ENDBRANCH   1   2
BRANCH   1   9
ATOM      9  C   UNL     1       6.062 -12.439  -3.666  1.00  0.00     0.000 C 
BRANCH   9  10
ATOM     10  C   UNL     1       7.259 -13.392  -3.550  1.00  0.00    -0.000 C 
BRANCH  10  11
ATOM     11  C   UNL     1       7.568 -13.712  -2.082  1.00  0.00    -0.000 C 
BRANCH  11  12
ATOM     12  C   UNL     1       7.574 -12.438  -1.230  1.00  0.00    -0.000 C 
BRANCH  12  13
ATOM     13  C   UNL     1       8.757 -12.433  -0.256  1.00  0.00    -0.003 C 
ATOM     14  C   UNL     1       9.041 -11.026   0.260  1.00  0.00     0.004 C 
ENDBRANCH  12  13
ENDBRANCH  11  12
ENDBRANCH  10  11
ENDBRANCH   9  10
ENDBRANCH   1   9
TORSDOF 10
ENDMDL
MODEL 6
REMARK VINA RESULT:    -4.920      4.313      5.312
REMARK INTER + INTRA:          -8.259
REMARK INTER:                  -7.105
REMARK INTRA:                  -1.154
REMARK UNBOUND:                -0.462
REMARK SMILES CCCCCCCCCCCC(=O)[O-]
REMARK SMILES IDX 7 1 8 2 9 3 10 4 11 5 12 6 13 7 14 8 6 9 5 10 4 11 3 12 2 13
REMARK SMILES IDX 1 14
REMARK H PARENT
REMARK Flexibility Score: inf
ROOT
ATOM      1  C   UNL     1       6.189 -13.357  -4.412  1.00  0.00     0.000 C 
ENDROOT
BRANCH   1   2
ATOM      2  C   UNL     1       4.857 -12.610  -4.257  1.00  0.00     0.000 C 
BRANCH   2   3
ATOM      3  C   UNL     1       3.774 -13.466  -3.582  1.00  0.00     0.000 C 
BRANCH   3   4
ATOM      4  C   UNL     1       3.601 -13.133  -2.089  1.00  0.00     0.006 C 
BRANCH   4   5
ATOM      5  C   UNL     1       4.132 -14.251  -1.183  1.00  0.00     0.053 C 
BRANCH   5   6
ATOM      6  C   UNL     1       3.020 -15.048  -0.575  1.00  0.00     0.041 C 
ATOM      7  O   UNL     1       2.538 -14.717   0.541  1.00  0.00    -0.550 OA
ATOM      8  O   UNL     1       2.491 -16.137  -1.257  1.00  0.00    -0.550 OA
ENDBRANCH   5   6
ENDBRANCH   4   5
ENDBRANCH   3   4
ENDBRANCH   2   3
ENDBRANCH   1   2
BRANCH   1   9
ATOM      9  C   UNL     1       7.255 -12.780  -3.473  1.00  0.00     0.000 C 
BRANCH   9  10
ATOM     10  C   UNL     1       7.545 -13.740  -2.312  1.00  0.00    -0.000 C 
BRANCH  10  11
ATOM     11  C   UNL     1       7.880 -12.968  -1.030  1.00  0.00    -0.000 C 
BRANCH  11  12
ATOM     12  C   UNL     1       7.094 -11.654  -0.957  1.00  0.00    -0.000 C 
BRANCH  12  13
ATOM     13  C   UNL     1       8.021 -10.475  -0.641  1.00  0.00    -0.003 C 
ATOM     14  C   UNL     1       9.078 -10.865   0.387  1.00  0.00     0.004 C 
ENDBRANCH  12  13
ENDBRANCH  11  12
ENDBRANCH  10  11
ENDBRANCH   9  10
ENDBRANCH   1   9
TORSDOF 10
ENDMDL
MODEL 7
REMARK VINA RESULT:    -4.910      3.526      5.758
REMARK INTER + INTRA:          -8.243
REMARK INTER:                  -6.603
REMARK INTRA:                  -1.640
REMARK UNBOUND:                -0.462
REMARK SMILES CCCCCCCCCCCC(=O)[O-]
REMARK SMILES IDX 7 1 8 2 9 3 10 4 11 5 12 6 13 7 14 8 6 9 5 10 4 11 3 12 2 13
REMARK SMILES IDX 1 14
REMARK H PARENT
REMARK Flexibility Score: inf
ROOT
ATOM      1  C   UNL     1       6.122 -13.257  -4.551  1.00  0.00     0.000 C 
ENDROOT
BRANCH   1   2
ATOM      2  C   UNL     1       7.240 -12.712  -3.649  1.00  0.00     0.000 C 
BRANCH   2   3
ATOM      3  C   UNL     1       7.590 -13.668  -2.497  1.00  0.00     0.000 C 
BRANCH   3   4
ATOM      4  C   UNL     1       7.629 -12.960  -1.132  1.00  0.00     0.006 C 
BRANCH   4   5
ATOM      5  C   UNL     1       7.770 -11.438  -1.275  1.00  0.00     0.053 C 
BRANCH   5   6
ATOM      6  C   UNL     1       8.157 -10.794   0.021  1.00  0.00     0.041 C 
ATOM      7  O   UNL     1       9.314 -10.959   0.491  1.00  0.00    -0.550 OA
ATOM      8  O   UNL     1       7.251  -9.982   0.692  1.00  0.00    -0.550 OA
ENDBRANCH   5   6
ENDBRANCH   4   5
ENDBRANCH   3   4
ENDBRANCH   2   3
ENDBRANCH   1   2
BRANCH   1   9
ATOM      9  C   UNL     1       5.104 -12.160  -4.885  1.00  0.00     0.000 C 
BRANCH   9  10
ATOM     10  C   UNL     1       4.912 -11.207  -3.699  1.00  0.00    -0.000 C 
BRANCH  10  11
ATOM     11  C   UNL     1       3.746 -11.658  -2.812  1.00  0.00    -0.000 C 
BRANCH  11  12
ATOM     12  C   UNL     1       4.153 -11.680  -1.334  1.00  0.00    -0.000 C 
BRANCH  12  13
ATOM     13  C   UNL     1       3.881 -13.053  -0.709  1.00  0.00    -0.003 C 
ATOM     14  C   UNL     1       3.905 -14.154  -1.764  1.00  0.00     0.004 C 
ENDBRANCH  12  13
ENDBRANCH  11  12
ENDBRANCH  10  11
ENDBRANCH   9  10
ENDBRANCH   1   9
TORSDOF 10
ENDMDL
MODEL 8
REMARK VINA RESULT:    -4.869      0.819      1.632
REMARK INTER + INTRA:          -8.177
REMARK INTER:                  -7.518
REMARK INTRA:                  -0.659
REMARK UNBOUND:                -0.462
REMARK SMILES CCCCCCCCCCCC(=O)[O-]
REMARK SMILES IDX 7 1 8 2 9 3 10 4 11 5 12 6 13 7 14 8 6 9 5 10 4 11 3 12 2 13
REMARK SMILES IDX 1 14
REMARK H PARENT
REMARK Flexibility Score: inf
ROOT
ATOM      1  C   UNL     1       7.257 -13.134  -3.965  1.00  0.00     0.000 C 
ENDROOT
BRANCH   1   2
ATOM      2  C   UNL     1       5.918 -12.381  -3.955  1.00  0.00     0.000 C 
BRANCH   2   3
ATOM      3  C   UNL     1       4.815 -13.124  -4.726  1.00  0.00     0.000 C 
BRANCH   3   4
ATOM      4  C   UNL     1       4.068 -12.212  -5.715  1.00  0.00     0.006 C 
BRANCH   4   5
ATOM      5  C   UNL     1       5.010 -11.221  -6.411  1.00  0.00     0.053 C 
BRANCH   5   6
ATOM      6  C   UNL     1       4.445  -9.834  -6.423  1.00  0.00     0.041 C 
ATOM      7  O   UNL     1       4.376  -9.169  -5.356  1.00  0.00    -0.550 OA
ATOM      8  O   UNL     1       4.026  -9.264  -7.618  1.00  0.00    -0.550 OA
ENDBRANCH   5   6
ENDBRANCH   4   5
ENDBRANCH   3   4
ENDBRANCH   2   3
ENDBRANCH   1   2
BRANCH   1   9
ATOM      9  C   UNL     1       7.543 -13.763  -2.597  1.00  0.00     0.000 C 
BRANCH   9  10
ATOM     10  C   UNL     1       7.174 -12.801  -1.460  1.00  0.00    -0.000 C 
BRANCH  10  11
ATOM     11  C   UNL     1       8.351 -12.613  -0.494  1.00  0.00    -0.000 C 
BRANCH  11  12
ATOM     12  C   UNL     1       8.787 -11.145  -0.437  1.00  0.00    -0.000 C 
BRANCH  12  13
ATOM     13  C   UNL     1       7.776 -10.300   0.346  1.00  0.00    -0.003 C 
ATOM     14  C   UNL     1       7.196  -9.189  -0.522  1.00  0.00     0.004 C 
ENDBRANCH  12  13
ENDBRANCH  11  12
ENDBRANCH  10  11
ENDBRANCH   9  10
ENDBRANCH   1   9
TORSDOF 10
ENDMDL
MODEL 9
REMARK VINA RESULT:    -4.792      2.236      5.535
REMARK INTER + INTRA:          -8.055
REMARK INTER:                  -7.370
REMARK INTRA:                  -0.685
REMARK UNBOUND:                -0.462
REMARK SMILES CCCCCCCCCCCC(=O)[O-]
REMARK SMILES IDX 7 1 8 2 9 3 10 4 11 5 12 6 13 7 14 8 6 9 5 10 4 11 3 12 2 13
REMARK SMILES IDX 1 14
REMARK H PARENT
REMARK Flexibility Score: inf
ROOT
ATOM      1  C   UNL     1       7.290 -12.849  -1.314  1.00  0.00     0.000 C 
ENDROOT
BRANCH   1   2
ATOM      2  C   UNL     1       8.491 -12.526  -0.412  1.00  0.00     0.000 C 
BRANCH   2   3
ATOM      3  C   UNL     1       8.689 -11.015  -0.211  1.00  0.00     0.000 C 
BRANCH   3   4
ATOM      4  C   UNL     1       7.634 -10.175  -0.953  1.00  0.00     0.006 C 
BRANCH   4   5
ATOM      5  C   UNL     1       7.198  -8.948  -0.142  1.00  0.00     0.053 C 
BRANCH   5   6
ATOM      6  C   UNL     1       6.183  -8.129  -0.878  1.00  0.00     0.041 C 
ATOM      7  O   UNL     1       5.759  -8.506  -2.002  1.00  0.00    -0.550 OA
ATOM      8  O   UNL     1       5.681  -6.967  -0.308  1.00  0.00    -0.550 OA
ENDBRANCH   5   6
ENDBRANCH   4   5
ENDBRANCH   3   4
ENDBRANCH   2   3
ENDBRANCH   1   2
BRANCH   1   9
ATOM      9  C   UNL     1       7.696 -13.793  -2.451  1.00  0.00     0.000 C 
BRANCH   9  10
ATOM     10  C   UNL     1       7.182 -13.282  -3.803  1.00  0.00    -0.000 C 
BRANCH  10  11
ATOM     11  C   UNL     1       5.660 -13.099  -3.779  1.00  0.00    -0.000 C 
BRANCH  11  12
ATOM     12  C   UNL     1       5.082 -13.109  -5.200  1.00  0.00    -0.000 C 
BRANCH  12  13
ATOM     13  C   UNL     1       4.936 -11.684  -5.744  1.00  0.00    -0.003 C 
ATOM     14  C   UNL     1       4.601 -10.699  -4.628  1.00  0.00     0.004 C 
ENDBRANCH  12  13
ENDBRANCH  11  12
ENDBRANCH  10  11
ENDBRANCH   9  10
ENDBRANCH   1   9
TORSDOF 10
ENDMDL
