MODEL 1
REMARK VINA RESULT:    -5.658      0.000      0.000
REMARK INTER + INTRA:          -8.290
REMARK INTER:                  -7.477
REMARK INTRA:                  -0.813
REMARK UNBOUND:                -0.813
REMARK SMILES C=C(CC[C@@H](C)[C@H]1CC[C@@]2(C)[C@H]3CC[C@@H]4C(C)(C)[C@H](O)CC[C@]45C[C@]35CC[C@@]12C)C(C)C
REMARK SMILES IDX 4 1 3 2 2 3 1 4 30 5 31 6 32 7 5 8 6 9 7 10 8 11 28 12 9 13
REMARK SMILES IDX 10 14 27 15 29 16 11 17 12 18 26 19 25 20 13 21 23 22 24 23
REMARK SMILES IDX 14 24 15 25 22 26 16 27 21 28 19 29 17 30 18 31 20 32
REMARK H PARENT 20 33
REMARK Flexibility Score: inf
ROOT
ATOM      1  C   UNL     1      40.787  11.273   0.840  1.00  0.00     0.008 C 
ENDROOT
BRANCH   1   2
ATOM      2  C   UNL     1      41.509  10.728  -0.418  1.00  0.00     0.031 C 
BRANCH   2   3
ATOM      3  C   UNL     1      41.454   9.216  -0.565  1.00  0.00    -0.075 C 
ATOM      4  C   UNL     1      41.140   8.460   0.504  1.00  0.00     0.008 C 
BRANCH   3   5
ATOM      5  C   UNL     1      41.530   8.553  -1.940  1.00  0.00     0.008 C 
ATOM      6  C   UNL     1      40.390   9.054  -2.835  1.00  0.00     0.012 C 
ATOM      7  C   UNL     1      42.889   8.761  -2.624  1.00  0.00     0.012 C 
ENDBRANCH   3   5
ENDBRANCH   2   3
ENDBRANCH   1   2
BRANCH   1   8
ATOM      8  C   UNL     1      41.591  11.157   2.169  1.00  0.00    -0.010 C 
ATOM      9  C   UNL     1      42.795  12.125   2.136  1.00  0.00     0.008 C 
BRANCH   8  10
ATOM     10  C   UNL     1      40.756  11.406   3.489  1.00  0.00    -0.002 C 
ATOM     11  C   UNL     1      39.271  11.757   3.310  1.00  0.00     0.005 C 
ATOM     12  C   UNL     1      40.785  10.318   4.607  1.00  0.00    -0.024 C 
ATOM     13  C   UNL     1      38.552  11.284   4.582  1.00  0.00     0.008 C 
ATOM     14  C   UNL     1      39.628  10.774   5.579  1.00  0.00    -0.024 C 
ATOM     15  C   UNL     1      40.461   8.932   3.980  1.00  0.00     0.008 C 
ATOM     16  C   UNL     1      42.177  10.274   5.296  1.00  0.00     0.012 C 
ATOM     17  C   UNL     1      40.066  11.984   6.468  1.00  0.00     0.012 C 
ATOM     18  C   UNL     1      39.088   9.638   6.561  1.00  0.00     0.002 C 
ATOM     19  C   UNL     1      40.220   7.858   5.014  1.00  0.00     0.008 C 
ATOM     20  C   UNL     1      39.013   8.225   5.893  1.00  0.00    -0.020 C 
ATOM     21  C   UNL     1      37.796  10.124   7.307  1.00  0.00     0.005 C 
ATOM     22  C   UNL     1      37.688   7.425   5.944  1.00  0.00    -0.020 C 
ATOM     23  C   UNL     1      38.825   7.048   6.884  1.00  0.00     0.015 C 
ATOM     24  C   UNL     1      36.798   9.054   7.733  1.00  0.00     0.005 C 
ATOM     25  C   UNL     1      36.445   8.124   6.554  1.00  0.00     0.004 C 
ATOM     26  C   UNL     1      37.405   6.475   4.763  1.00  0.00     0.010 C 
ATOM     27  C   UNL     1      35.296   7.092   6.883  1.00  0.00    -0.006 C 
ATOM     28  C   UNL     1      36.288   5.493   5.116  1.00  0.00     0.033 C 
ATOM     29  C   UNL     1      35.027   6.213   5.617  1.00  0.00     0.120 C 
ATOM     30  C   UNL     1      33.984   7.846   7.220  1.00  0.00     0.014 C 
ATOM     31  C   UNL     1      35.664   6.199   8.100  1.00  0.00     0.014 C 
BRANCH  29  32
ATOM     32  O   UNL     1      34.041   5.242   5.888  1.00  0.00    -0.393 OA
ATOM     33  H   UNL     1      33.695   5.409   6.804  1.00  0.00     0.210 HD
ENDBRANCH  29  32
ENDBRANCH   8  10
ENDBRANCH   1   8
TORSDOF 6
ENDMDL
MODEL 2
REMARK VINA RESULT:    -4.573     13.307     16.275
REMARK INTER + INTRA:          -6.856
REMARK INTER:                  -5.813
REMARK INTRA:                  -1.043
REMARK UNBOUND:                -0.813
REMARK SMILES C=C(CC[C@@H](C)[C@H]1CC[C@@]2(C)[C@H]3CC[C@@H]4C(C)(C)[C@H](O)CC[C@]45C[C@]35CC[C@@]12C)C(C)C
REMARK SMILES IDX 4 1 3 2 2 3 1 4 30 5 31 6 32 7 5 8 6 9 7 10 8 11 28 12 9 13
REMARK SMILES IDX 10 14 27 15 29 16 11 17 12 18 26 19 25 20 13 21 23 22 24 23
REMARK SMILES IDX 14 24 15 25 22 26 16 27 21 28 19 29 17 30 18 31 20 32
REMARK H PARENT 20 33
REMARK Flexibility Score: inf
ROOT
ATOM      1  C   UNL     1      38.722   1.531 -11.254  1.00  0.00     0.008 C 
ENDROOT
BRANCH   1   2
ATOM      2  C   UNL     1      37.818   2.440 -12.124  1.00  0.00     0.031 C 
BRANCH   2   3
ATOM      3  C   UNL     1      37.400   3.737 -11.449  1.00  0.00    -0.075 C 
ATOM      4  C   UNL     1      37.870   4.907 -11.920  1.00  0.00     0.008 C 
BRANCH   3   5
ATOM      5  C   UNL     1      36.293   3.758 -10.396  1.00  0.00     0.008 C 
ATOM      6  C   UNL     1      35.372   2.544 -10.567  1.00  0.00     0.012 C 
ATOM      7  C   UNL     1      36.840   3.827  -8.962  1.00  0.00     0.012 C 
ENDBRANCH   3   5
ENDBRANCH   2   3
ENDBRANCH   1   2
BRANCH   1   8
ATOM      8  C   UNL     1      39.245   2.180  -9.938  1.00  0.00    -0.010 C 
ATOM      9  C   UNL     1      39.220   1.138  -8.797  1.00  0.00     0.008 C 
BRANCH   8  10
ATOM     10  C   UNL     1      40.687   2.822 -10.027  1.00  0.00    -0.002 C 
ATOM     11  C   UNL     1      41.124   3.350 -11.403  1.00  0.00     0.005 C 
ATOM     12  C   UNL     1      41.065   3.951  -9.019  1.00  0.00    -0.024 C 
ATOM     13  C   UNL     1      42.139   4.472 -11.140  1.00  0.00     0.008 C 
ATOM     14  C   UNL     1      42.413   4.522  -9.612  1.00  0.00    -0.024 C 
ATOM     15  C   UNL     1      39.955   5.040  -9.031  1.00  0.00     0.008 C 
ATOM     16  C   UNL     1      41.227   3.377  -7.584  1.00  0.00     0.012 C 
ATOM     17  C   UNL     1      43.622   3.576  -9.312  1.00  0.00     0.012 C 
ATOM     18  C   UNL     1      42.812   5.977  -9.092  1.00  0.00     0.002 C 
ATOM     19  C   UNL     1      40.346   6.290  -8.279  1.00  0.00     0.008 C 
ATOM     20  C   UNL     1      41.585   6.934  -8.922  1.00  0.00    -0.020 C 
ATOM     21  C   UNL     1      44.025   6.542  -9.913  1.00  0.00     0.005 C 
ATOM     22  C   UNL     1      41.599   8.325  -9.603  1.00  0.00    -0.020 C 
ATOM     23  C   UNL     1      41.875   8.221  -8.109  1.00  0.00     0.015 C 
ATOM     24  C   UNL     1      44.125   8.057 -10.048  1.00  0.00     0.005 C 
ATOM     25  C   UNL     1      42.792   8.659 -10.538  1.00  0.00     0.004 C 
ATOM     26  C   UNL     1      40.236   8.902 -10.031  1.00  0.00     0.010 C 
ATOM     27  C   UNL     1      42.872  10.203 -10.853  1.00  0.00    -0.006 C 
ATOM     28  C   UNL     1      40.353  10.396 -10.330  1.00  0.00     0.033 C 
ATOM     29  C   UNL     1      41.469  10.695 -11.341  1.00  0.00     0.120 C 
ATOM     30  C   UNL     1      43.885  10.460 -11.999  1.00  0.00     0.014 C 
ATOM     31  C   UNL     1      43.334  11.015  -9.612  1.00  0.00     0.014 C 
BRANCH  29  32
ATOM     32  O   UNL     1      41.487  12.084 -11.583  1.00  0.00    -0.393 OA
ATOM     33  H   UNL     1      42.428  12.348 -11.763  1.00  0.00     0.210 HD
ENDBRANCH  29  32
ENDBRANCH   8  10
ENDBRANCH   1   8
TORSDOF 6
ENDMDL
MODEL 3
REMARK VINA RESULT:    -4.546      1.552      2.802
REMARK INTER + INTRA:          -6.821
REMARK INTER:                  -5.822
REMARK INTRA:                  -0.999
REMARK UNBOUND:                -0.813
REMARK SMILES C=C(CC[C@@H](C)[C@H]1CC[C@@]2(C)[C@H]3CC[C@@H]4C(C)(C)[C@H](O)CC[C@]45C[C@]35CC[C@@]12C)C(C)C
REMARK SMILES IDX 4 1 3 2 2 3 1 4 30 5 31 6 32 7 5 8 6 9 7 10 8 11 28 12 9 13
REMARK SMILES IDX 10 14 27 15 29 16 11 17 12 18 26 19 25 20 13 21 23 22 24 23
REMARK SMILES IDX 14 24 15 25 22 26 16 27 21 28 19 29 17 30 18 31 20 32
REMARK H PARENT 20 33
REMARK Flexibility Score: inf
ROOT
ATOM      1  C   UNL     1      41.408  11.853   4.104  1.00  0.00     0.008 C 
ENDROOT
BRANCH   1   2
ATOM      2  C   UNL     1      41.929  11.981   2.650  1.00  0.00     0.031 C 
BRANCH   2   3
ATOM      3  C   UNL     1      41.020  11.358   1.602  1.00  0.00    -0.075 C 
ATOM      4  C   UNL     1      39.793  11.876   1.402  1.00  0.00     0.008 C 
BRANCH   3   5
ATOM      5  C   UNL     1      41.544  10.308   0.625  1.00  0.00     0.008 C 
ATOM      6  C   UNL     1      41.140   8.903   1.087  1.00  0.00     0.012 C 
ATOM      7  C   UNL     1      41.083  10.559  -0.818  1.00  0.00     0.012 C 
ENDBRANCH   3   5
ENDBRANCH   2   3
ENDBRANCH   1   2
BRANCH   1   8
ATOM      8  C   UNL     1      42.356  11.102   5.085  1.00  0.00    -0.010 C 
ATOM      9  C   UNL     1      43.271  12.117   5.804  1.00  0.00     0.008 C 
BRANCH   8  10
ATOM     10  C   UNL     1      41.635  10.194   6.160  1.00  0.00    -0.002 C 
ATOM     11  C   UNL     1      40.508  10.849   6.973  1.00  0.00     0.005 C 
ATOM     12  C   UNL     1      41.061   8.815   5.707  1.00  0.00    -0.024 C 
ATOM     13  C   UNL     1      39.554   9.720   7.390  1.00  0.00     0.008 C 
ATOM     14  C   UNL     1      40.182   8.372   6.942  1.00  0.00    -0.024 C 
ATOM     15  C   UNL     1      40.174   9.019   4.446  1.00  0.00     0.008 C 
ATOM     16  C   UNL     1      42.209   7.817   5.390  1.00  0.00     0.012 C 
ATOM     17  C   UNL     1      41.066   7.842   8.119  1.00  0.00     0.012 C 
ATOM     18  C   UNL     1      39.095   7.247   6.624  1.00  0.00     0.002 C 
ATOM     19  C   UNL     1      39.376   7.790   4.080  1.00  0.00     0.008 C 
ATOM     20  C   UNL     1      38.418   7.416   5.224  1.00  0.00    -0.020 C 
ATOM     21  C   UNL     1      38.129   7.054   7.845  1.00  0.00     0.005 C 
ATOM     22  C   UNL     1      36.873   7.448   5.121  1.00  0.00    -0.020 C 
ATOM     23  C   UNL     1      37.622   6.180   4.735  1.00  0.00     0.015 C 
ATOM     24  C   UNL     1      36.715   6.573   7.541  1.00  0.00     0.005 C 
ATOM     25  C   UNL     1      36.061   7.436   6.443  1.00  0.00     0.004 C 
ATOM     26  C   UNL     1      36.270   8.288   3.977  1.00  0.00     0.010 C 
ATOM     27  C   UNL     1      34.540   7.095   6.191  1.00  0.00    -0.006 C 
ATOM     28  C   UNL     1      34.799   7.933   3.764  1.00  0.00     0.033 C 
ATOM     29  C   UNL     1      33.990   8.031   5.065  1.00  0.00     0.120 C 
ATOM     30  C   UNL     1      33.714   7.367   7.475  1.00  0.00     0.014 C 
ATOM     31  C   UNL     1      34.348   5.603   5.802  1.00  0.00     0.014 C 
BRANCH  29  32
ATOM     32  O   UNL     1      32.645   7.721   4.774  1.00  0.00    -0.393 OA
ATOM     33  H   UNL     1      32.146   8.577   4.701  1.00  0.00     0.210 HD
ENDBRANCH  29  32
ENDBRANCH   8  10
ENDBRANCH   1   8
TORSDOF 6
ENDMDL
MODEL 4
REMARK VINA RESULT:    -4.312     12.479     14.713
REMARK INTER + INTRA:          -6.511
REMARK INTER:                  -5.754
REMARK INTRA:                  -0.757
REMARK UNBOUND:                -0.813
REMARK SMILES C=C(CC[C@@H](C)[C@H]1CC[C@@]2(C)[C@H]3CC[C@@H]4C(C)(C)[C@H](O)CC[C@]45C[C@]35CC[C@@]12C)C(C)C
REMARK SMILES IDX 4 1 3 2 2 3 1 4 30 5 31 6 32 7 5 8 6 9 7 10 8 11 28 12 9 13
REMARK SMILES IDX 10 14 27 15 29 16 11 17 12 18 26 19 25 20 13 21 23 22 24 23
REMARK SMILES IDX 14 24 15 25 22 26 16 27 21 28 19 29 17 30 18 31 20 32
REMARK H PARENT 20 33
REMARK Flexibility Score: inf
ROOT
ATOM      1  C   UNL     1      39.528   9.877  -9.634  1.00  0.00     0.008 C 
ENDROOT
BRANCH   1   2
ATOM      2  C   UNL     1      39.767  11.201 -10.403  1.00  0.00     0.031 C 
BRANCH   2   3
ATOM      3  C   UNL     1      41.156  11.331 -11.008  1.00  0.00    -0.075 C 
ATOM      4  C   UNL     1      41.327  12.089 -12.108  1.00  0.00     0.008 C 
BRANCH   3   5
ATOM      5  C   UNL     1      42.389  10.807 -10.275  1.00  0.00     0.008 C 
ATOM      6  C   UNL     1      43.326  10.090 -11.256  1.00  0.00     0.012 C 
ATOM      7  C   UNL     1      43.140  11.910  -9.514  1.00  0.00     0.012 C 
ENDBRANCH   3   5
ENDBRANCH   2   3
ENDBRANCH   1   2
BRANCH   1   8
ATOM      8  C   UNL     1      39.413   8.604 -10.525  1.00  0.00    -0.010 C 
ATOM      9  C   UNL     1      39.033   9.010 -11.966  1.00  0.00     0.008 C 
BRANCH   8  10
ATOM     10  C   UNL     1      40.700   7.686 -10.562  1.00  0.00    -0.002 C 
ATOM     11  C   UNL     1      41.708   7.865  -9.417  1.00  0.00     0.005 C 
ATOM     12  C   UNL     1      40.512   6.143 -10.703  1.00  0.00    -0.024 C 
ATOM     13  C   UNL     1      42.433   6.520  -9.257  1.00  0.00     0.008 C 
ATOM     14  C   UNL     1      41.954   5.579 -10.397  1.00  0.00    -0.024 C 
ATOM     15  C   UNL     1      39.493   5.653  -9.635  1.00  0.00     0.008 C 
ATOM     16  C   UNL     1      40.005   5.777 -12.125  1.00  0.00     0.012 C 
ATOM     17  C   UNL     1      42.919   5.773 -11.613  1.00  0.00     0.012 C 
ATOM     18  C   UNL     1      42.001   4.034  -9.998  1.00  0.00     0.002 C 
ATOM     19  C   UNL     1      39.431   4.148  -9.524  1.00  0.00     0.008 C 
ATOM     20  C   UNL     1      40.799   3.588  -9.101  1.00  0.00    -0.020 C 
ATOM     21  C   UNL     1      43.432   3.640  -9.489  1.00  0.00     0.005 C 
ATOM     22  C   UNL     1      41.073   2.857  -7.764  1.00  0.00    -0.020 C 
ATOM     23  C   UNL     1      40.619   2.054  -8.975  1.00  0.00     0.015 C 
ATOM     24  C   UNL     1      43.521   2.494  -8.489  1.00  0.00     0.005 C 
ATOM     25  C   UNL     1      42.550   2.710  -7.311  1.00  0.00     0.004 C 
ATOM     26  C   UNL     1      40.048   3.070  -6.633  1.00  0.00     0.010 C 
ATOM     27  C   UNL     1      42.704   1.643  -6.158  1.00  0.00    -0.006 C 
ATOM     28  C   UNL     1      40.228   2.021  -5.536  1.00  0.00     0.033 C 
ATOM     29  C   UNL     1      41.675   1.967  -5.025  1.00  0.00     0.120 C 
ATOM     30  C   UNL     1      44.125   1.726  -5.541  1.00  0.00     0.014 C 
ATOM     31  C   UNL     1      42.494   0.198  -6.689  1.00  0.00     0.014 C 
BRANCH  29  32
ATOM     32  O   UNL     1      41.746   1.003  -3.999  1.00  0.00    -0.393 OA
ATOM     33  H   UNL     1      40.873   1.000  -3.525  1.00  0.00     0.210 HD
ENDBRANCH  29  32
ENDBRANCH   8  10
ENDBRANCH   1   8
TORSDOF 6
ENDMDL
MODEL 5
REMARK VINA RESULT:    -4.240      3.580      7.648
REMARK INTER + INTRA:          -6.416
REMARK INTER:                  -5.323
REMARK INTRA:                  -1.093
REMARK UNBOUND:                -0.813
REMARK SMILES C=C(CC[C@@H](C)[C@H]1CC[C@@]2(C)[C@H]3CC[C@@H]4C(C)(C)[C@H](O)CC[C@]45C[C@]35CC[C@@]12C)C(C)C
REMARK SMILES IDX 4 1 3 2 2 3 1 4 30 5 31 6 32 7 5 8 6 9 7 10 8 11 28 12 9 13
REMARK SMILES IDX 10 14 27 15 29 16 11 17 12 18 26 19 25 20 13 21 23 22 24 23
REMARK SMILES IDX 14 24 15 25 22 26 16 27 21 28 19 29 17 30 18 31 20 32
REMARK H PARENT 20 33
REMARK Flexibility Score: inf
ROOT
ATOM      1  C   UNL     1      33.463   6.789   7.258  1.00  0.00     0.008 C 
ENDROOT
BRANCH   1   2
ATOM      2  C   UNL     1      34.322   5.834   8.125  1.00  0.00     0.031 C 
BRANCH   2   3
ATOM      3  C   UNL     1      35.698   5.535   7.551  1.00  0.00    -0.075 C 
ATOM      4  C   UNL     1      36.774   6.167   8.056  1.00  0.00     0.008 C 
BRANCH   3   5
ATOM      5  C   UNL     1      35.912   4.382   6.573  1.00  0.00     0.008 C 
ATOM      6  C   UNL     1      34.755   3.381   6.669  1.00  0.00     0.012 C 
ATOM      7  C   UNL     1      36.099   4.859   5.125  1.00  0.00     0.012 C 
ENDBRANCH   3   5
ENDBRANCH   2   3
ENDBRANCH   1   2
BRANCH   1   8
ATOM      8  C   UNL     1      34.148   7.301   5.956  1.00  0.00    -0.010 C 
ATOM      9  C   UNL     1      33.134   7.282   4.792  1.00  0.00     0.008 C 
BRANCH   8  10
ATOM     10  C   UNL     1      34.803   8.736   6.057  1.00  0.00    -0.002 C 
ATOM     11  C   UNL     1      35.326   9.162   7.438  1.00  0.00     0.005 C 
ATOM     12  C   UNL     1      35.943   9.108   5.058  1.00  0.00    -0.024 C 
ATOM     13  C   UNL     1      36.459  10.167   7.188  1.00  0.00     0.008 C 
ATOM     14  C   UNL     1      36.522  10.448   5.661  1.00  0.00    -0.024 C 
ATOM     15  C   UNL     1      37.021   7.988   5.073  1.00  0.00     0.008 C 
ATOM     16  C   UNL     1      35.380   9.282   3.620  1.00  0.00     0.012 C 
ATOM     17  C   UNL     1      35.589  11.666   5.360  1.00  0.00     0.012 C 
ATOM     18  C   UNL     1      37.985  10.836   5.153  1.00  0.00     0.002 C 
ATOM     19  C   UNL     1      38.280   8.370   4.331  1.00  0.00     0.008 C 
ATOM     20  C   UNL     1      38.931   9.601   4.984  1.00  0.00    -0.020 C 
ATOM     21  C   UNL     1      38.555  12.039   5.983  1.00  0.00     0.005 C 
ATOM     22  C   UNL     1      40.317   9.599   5.675  1.00  0.00    -0.020 C 
ATOM     23  C   UNL     1      40.226   9.882   4.181  1.00  0.00     0.015 C 
ATOM     24  C   UNL     1      40.069  12.125   6.130  1.00  0.00     0.005 C 
ATOM     25  C   UNL     1      40.655  10.784   6.617  1.00  0.00     0.004 C 
ATOM     26  C   UNL     1      40.879   8.228   6.100  1.00  0.00     0.010 C 
ATOM     27  C   UNL     1      42.198  10.849   6.944  1.00  0.00    -0.006 C 
ATOM     28  C   UNL     1      42.372   8.330   6.410  1.00  0.00     0.033 C 
ATOM     29  C   UNL     1      42.674   9.439   7.428  1.00  0.00     0.120 C 
ATOM     30  C   UNL     1      42.457  11.854   8.096  1.00  0.00     0.014 C 
ATOM     31  C   UNL     1      43.023  11.309   5.710  1.00  0.00     0.014 C 
BRANCH  29  32
ATOM     32  O   UNL     1      44.061   9.443   7.680  1.00  0.00    -0.393 OA
ATOM     33  H   UNL     1      44.434   8.590   7.331  1.00  0.00     0.210 HD
ENDBRANCH  29  32
ENDBRANCH   8  10
ENDBRANCH   1   8
TORSDOF 6
ENDMDL
MODEL 6
REMARK VINA RESULT:    -4.061      2.992      4.319
REMARK INTER + INTRA:          -6.179
REMARK INTER:                  -5.756
REMARK INTRA:                  -0.423
REMARK UNBOUND:                -0.813
REMARK SMILES C=C(CC[C@@H](C)[C@H]1CC[C@@]2(C)[C@H]3CC[C@@H]4C(C)(C)[C@H](O)CC[C@]45C[C@]35CC[C@@]12C)C(C)C
REMARK SMILES IDX 4 1 3 2 2 3 1 4 30 5 31 6 32 7 5 8 6 9 7 10 8 11 28 12 9 13
REMARK SMILES IDX 10 14 27 15 29 16 11 17 12 18 26 19 25 20 13 21 23 22 24 23
REMARK SMILES IDX 14 24 15 25 22 26 16 27 21 28 19 29 17 30 18 31 20 32
REMARK H PARENT 20 33
REMARK Flexibility Score: inf
ROOT
ATOM      1  C   UNL     1      41.417   7.440   4.803  1.00  0.00     0.008 C 
ENDROOT
BRANCH   1   2
ATOM      2  C   UNL     1      41.502   8.489   3.666  1.00  0.00     0.031 C 
BRANCH   2   3
ATOM      3  C   UNL     1      40.948   8.012   2.332  1.00  0.00    -0.075 C 
ATOM      4  C   UNL     1      40.217   6.882   2.288  1.00  0.00     0.008 C 
BRANCH   3   5
ATOM      5  C   UNL     1      41.012   8.897   1.089  1.00  0.00     0.008 C 
ATOM      6  C   UNL     1      41.522  10.296   1.457  1.00  0.00     0.012 C 
ATOM      7  C   UNL     1      41.868   8.285  -0.031  1.00  0.00     0.012 C 
ENDBRANCH   3   5
ENDBRANCH   2   3
ENDBRANCH   1   2
BRANCH   1   8
ATOM      8  C   UNL     1      41.275   8.027   6.238  1.00  0.00    -0.010 C 
ATOM      9  C   UNL     1      42.661   8.464   6.762  1.00  0.00     0.008 C 
BRANCH   8  10
ATOM     10  C   UNL     1      40.259   9.231   6.379  1.00  0.00    -0.002 C 
ATOM     11  C   UNL     1      40.232  10.249   5.228  1.00  0.00     0.005 C 
ATOM     12  C   UNL     1      38.761   8.912   6.676  1.00  0.00    -0.024 C 
ATOM     13  C   UNL     1      38.822  10.856   5.213  1.00  0.00     0.008 C 
ATOM     14  C   UNL     1      38.047  10.301   6.440  1.00  0.00    -0.024 C 
ATOM     15  C   UNL     1      38.252   7.853   5.658  1.00  0.00     0.008 C 
ATOM     16  C   UNL     1      38.588   8.379   8.125  1.00  0.00     0.012 C 
ATOM     17  C   UNL     1      38.283  11.281   7.636  1.00  0.00     0.012 C 
ATOM     18  C   UNL     1      36.471  10.215   6.203  1.00  0.00     0.002 C 
ATOM     19  C   UNL     1      36.754   7.663   5.702  1.00  0.00     0.008 C 
ATOM     20  C   UNL     1      36.039   8.978   5.348  1.00  0.00    -0.020 C 
ATOM     21  C   UNL     1      35.906  11.606   5.747  1.00  0.00     0.005 C 
ATOM     22  C   UNL     1      35.153   9.186   4.095  1.00  0.00    -0.020 C 
ATOM     23  C   UNL     1      34.521   8.666   5.380  1.00  0.00     0.015 C 
ATOM     24  C   UNL     1      34.659  11.595   4.871  1.00  0.00     0.005 C 
ATOM     25  C   UNL     1      34.835  10.643   3.670  1.00  0.00     0.004 C 
ATOM     26  C   UNL     1      35.334   8.180   2.942  1.00  0.00     0.010 C 
ATOM     27  C   UNL     1      33.645  10.704   2.635  1.00  0.00    -0.006 C 
ATOM     28  C   UNL     1      34.167   8.268   1.960  1.00  0.00     0.033 C 
ATOM     29  C   UNL     1      33.937   9.704   1.467  1.00  0.00     0.120 C 
ATOM     30  C   UNL     1      33.543  12.125   2.023  1.00  0.00     0.014 C 
ATOM     31  C   UNL     1      32.285  10.372   3.310  1.00  0.00     0.014 C 
BRANCH  29  32
ATOM     32  O   UNL     1      32.869   9.690   0.547  1.00  0.00    -0.393 OA
ATOM     33  H   UNL     1      32.309  10.493   0.721  1.00  0.00     0.210 HD
ENDBRANCH  29  32
ENDBRANCH   8  10
ENDBRANCH   1   8
TORSDOF 6
ENDMDL
MODEL 7
REMARK VINA RESULT:    -4.011      3.364      7.309
REMARK INTER + INTRA:          -6.113
REMARK INTER:                  -5.053
REMARK INTRA:                  -1.060
REMARK UNBOUND:                -0.813
REMARK SMILES C=C(CC[C@@H](C)[C@H]1CC[C@@]2(C)[C@H]3CC[C@@H]4C(C)(C)[C@H](O)CC[C@]45C[C@]35CC[C@@]12C)C(C)C
REMARK SMILES IDX 4 1 3 2 2 3 1 4 30 5 31 6 32 7 5 8 6 9 7 10 8 11 28 12 9 13
REMARK SMILES IDX 10 14 27 15 29 16 11 17 12 18 26 19 25 20 13 21 23 22 24 23
REMARK SMILES IDX 14 24 15 25 22 26 16 27 21 28 19 29 17 30 18 31 20 32
REMARK H PARENT 20 33
REMARK Flexibility Score: inf
ROOT
ATOM      1  C   UNL     1      34.733  11.523   5.865  1.00  0.00     0.008 C 
ENDROOT
BRANCH   1   2
ATOM      2  C   UNL     1      34.796  12.036   4.404  1.00  0.00     0.031 C 
BRANCH   2   3
ATOM      3  C   UNL     1      33.601  11.642   3.550  1.00  0.00    -0.075 C 
ATOM      4  C   UNL     1      32.383  12.124   3.859  1.00  0.00     0.008 C 
BRANCH   3   5
ATOM      5  C   UNL     1      33.786  10.896   2.230  1.00  0.00     0.008 C 
ATOM      6  C   UNL     1      34.258   9.461   2.491  1.00  0.00     0.012 C 
ATOM      7  C   UNL     1      32.517  10.901   1.364  1.00  0.00     0.012 C 
ENDBRANCH   3   5
ENDBRANCH   2   3
ENDBRANCH   1   2
BRANCH   1   8
ATOM      8  C   UNL     1      36.105  11.436   6.598  1.00  0.00    -0.010 C 
ATOM      9  C   UNL     1      35.885  11.504   8.125  1.00  0.00     0.008 C 
BRANCH   8  10
ATOM     10  C   UNL     1      36.977  10.163   6.251  1.00  0.00    -0.002 C 
ATOM     11  C   UNL     1      36.435   9.232   5.155  1.00  0.00     0.005 C 
ATOM     12  C   UNL     1      38.485  10.364   5.906  1.00  0.00    -0.024 C 
ATOM     13  C   UNL     1      37.653   8.541   4.525  1.00  0.00     0.008 C 
ATOM     14  C   UNL     1      38.912   8.954   5.337  1.00  0.00    -0.024 C 
ATOM     15  C   UNL     1      38.618  11.461   4.812  1.00  0.00     0.008 C 
ATOM     16  C   UNL     1      39.289  10.778   7.170  1.00  0.00     0.012 C 
ATOM     17  C   UNL     1      39.108   7.906   6.481  1.00  0.00     0.012 C 
ATOM     18  C   UNL     1      40.249   8.957   4.466  1.00  0.00     0.002 C 
ATOM     19  C   UNL     1      40.010  11.552   4.232  1.00  0.00     0.008 C 
ATOM     20  C   UNL     1      40.396  10.224   3.559  1.00  0.00    -0.020 C 
ATOM     21  C   UNL     1      40.450   7.571   3.759  1.00  0.00     0.005 C 
ATOM     22  C   UNL     1      40.661  10.054   2.043  1.00  0.00    -0.020 C 
ATOM     23  C   UNL     1      41.811  10.436   2.965  1.00  0.00     0.015 C 
ATOM     24  C   UNL     1      41.217   7.568   2.443  1.00  0.00     0.005 C 
ATOM     25  C   UNL     1      40.644   8.614   1.465  1.00  0.00     0.004 C 
ATOM     26  C   UNL     1      40.107  11.151   1.113  1.00  0.00     0.010 C 
ATOM     27  C   UNL     1      41.288   8.555   0.025  1.00  0.00    -0.006 C 
ATOM     28  C   UNL     1      40.751  11.061  -0.270  1.00  0.00     0.033 C 
ATOM     29  C   UNL     1      40.628   9.654  -0.872  1.00  0.00     0.120 C 
ATOM     30  C   UNL     1      41.002   7.178  -0.630  1.00  0.00     0.014 C 
ATOM     31  C   UNL     1      42.828   8.749   0.082  1.00  0.00     0.014 C 
BRANCH  29  32
ATOM     32  O   UNL     1      41.215   9.667  -2.153  1.00  0.00    -0.393 OA
ATOM     33  H   UNL     1      40.482   9.621  -2.823  1.00  0.00     0.210 HD
ENDBRANCH  29  32
ENDBRANCH   8  10
ENDBRANCH   1   8
TORSDOF 6
ENDMDL
MODEL 8
REMARK VINA RESULT:    -2.847      2.213      4.536
REMARK INTER + INTRA:          -4.574
REMARK INTER:                  -3.895
REMARK INTRA:                  -0.679
REMARK UNBOUND:                -0.813
REMARK SMILES C=C(CC[C@@H](C)[C@H]1CC[C@@]2(C)[C@H]3CC[C@@H]4C(C)(C)[C@H](O)CC[C@]45C[C@]35CC[C@@]12C)C(C)C
REMARK SMILES IDX 4 1 3 2 2 3 1 4 30 5 31 6 32 7 5 8 6 9 7 10 8 11 28 12 9 13
REMARK SMILES IDX 10 14 27 15 29 16 11 17 12 18 26 19 25 20 13 21 23 22 24 23
REMARK SMILES IDX 14 24 15 25 22 26 16 27 21 28 19 29 17 30 18 31 20 32
REMARK H PARENT 20 33
REMARK Flexibility Score: inf
ROOT
ATOM      1  C   UNL     1      40.231   9.061  -3.522  1.00  0.00     0.008 C 
ENDROOT
BRANCH   1   2
ATOM      2  C   UNL     1      40.735   9.064  -4.987  1.00  0.00     0.031 C 
BRANCH   2   3
ATOM      3  C   UNL     1      39.841   8.308  -5.958  1.00  0.00    -0.075 C 
ATOM      4  C   UNL     1      38.556   8.080  -5.630  1.00  0.00     0.008 C 
BRANCH   3   5
ATOM      5  C   UNL     1      40.305   7.997  -7.380  1.00  0.00     0.008 C 
ATOM      6  C   UNL     1      41.828   8.139  -7.485  1.00  0.00     0.012 C 
ATOM      7  C   UNL     1      39.854   6.610  -7.861  1.00  0.00     0.012 C 
ENDBRANCH   3   5
ENDBRANCH   2   3
ENDBRANCH   1   2
BRANCH   1   8
ATOM      8  C   UNL     1      41.281   8.620  -2.459  1.00  0.00    -0.010 C 
ATOM      9  C   UNL     1      42.673   8.508  -3.119  1.00  0.00     0.008 C 
BRANCH   8  10
ATOM     10  C   UNL     1      41.380   9.547  -1.182  1.00  0.00    -0.002 C 
ATOM     11  C   UNL     1      40.185  10.472  -0.905  1.00  0.00     0.005 C 
ATOM     12  C   UNL     1      41.713   8.889   0.193  1.00  0.00    -0.024 C 
ATOM     13  C   UNL     1      40.161  10.717   0.610  1.00  0.00     0.008 C 
ATOM     14  C   UNL     1      41.424  10.050   1.223  1.00  0.00    -0.024 C 
ATOM     15  C   UNL     1      40.752   7.691   0.432  1.00  0.00     0.008 C 
ATOM     16  C   UNL     1      43.187   8.400   0.228  1.00  0.00     0.012 C 
ATOM     17  C   UNL     1      42.570  11.115   1.230  1.00  0.00     0.012 C 
ATOM     18  C   UNL     1      41.213   9.574   2.732  1.00  0.00     0.002 C 
ATOM     19  C   UNL     1      40.826   7.145   1.839  1.00  0.00     0.008 C 
ATOM     20  C   UNL     1      40.422   8.229   2.853  1.00  0.00    -0.020 C 
ATOM     21  C   UNL     1      40.702  10.763   3.619  1.00  0.00     0.005 C 
ATOM     22  C   UNL     1      39.173   8.156   3.766  1.00  0.00    -0.020 C 
ATOM     23  C   UNL     1      40.490   7.561   4.250  1.00  0.00     0.015 C 
ATOM     24  C   UNL     1      39.845  10.408   4.828  1.00  0.00     0.005 C 
ATOM     25  C   UNL     1      38.686   9.471   4.430  1.00  0.00     0.004 C 
ATOM     26  C   UNL     1      38.065   7.170   3.349  1.00  0.00     0.010 C 
ATOM     27  C   UNL     1      37.666   9.191   5.601  1.00  0.00    -0.006 C 
ATOM     28  C   UNL     1      37.096   6.925   4.506  1.00  0.00     0.033 C 
ATOM     29  C   UNL     1      36.542   8.238   5.078  1.00  0.00     0.120 C 
ATOM     30  C   UNL     1      36.991  10.515   6.047  1.00  0.00     0.014 C 
ATOM     31  C   UNL     1      38.375   8.573   6.838  1.00  0.00     0.014 C 
BRANCH  29  32
ATOM     32  O   UNL     1      35.638   7.922   6.113  1.00  0.00    -0.393 OA
ATOM     33  H   UNL     1      35.976   7.108   6.573  1.00  0.00     0.210 HD
ENDBRANCH  29  32
ENDBRANCH   8  10
ENDBRANCH   1   8
TORSDOF 6
ENDMDL
