MODEL 1
REMARK VINA RESULT:    -4.710      0.000      0.000
REMARK INTER + INTRA:          -6.003
REMARK INTER:                  -5.674
REMARK INTRA:                  -0.329
REMARK UNBOUND:                -0.329
REMARK SMILES O=c1c(O)c(-c2ccc(O)c(O)c2)oc2cc(O)cc(O)c12
REMARK SMILES IDX 5 1 3 2 2 3 1 4 22 5 20 6 19 7 17 8 16 9 15 10 14 11 6 12
REMARK SMILES IDX 7 13 8 14 9 15 13 16 11 17 10 18 12 20 4 22 21 24 18 26
REMARK H PARENT 10 19 12 21 4 23 21 25 18 27
REMARK Flexibility Score: inf
ROOT
ATOM      1  C   UNL     1      63.844  14.825  46.759  1.00  0.00     0.180 A 
ATOM      2  C   UNL     1      64.126  13.728  47.593  1.00  0.00     0.208 A 
ATOM      3  C   UNL     1      65.465  13.386  47.838  1.00  0.00     0.238 A 
ATOM      4  O   UNL     1      65.709  12.371  48.541  1.00  0.00    -0.285 OA
ATOM      5  C   UNL     1      66.505  14.151  47.260  1.00  0.00     0.111 A 
ATOM      6  C   UNL     1      67.898  13.918  47.473  1.00  0.00     0.134 A 
ATOM      7  C   UNL     1      68.840  14.656  46.747  1.00  0.00     0.093 A 
ATOM      8  C   UNL     1      68.442  15.663  45.865  1.00  0.00     0.123 A 
ATOM      9  C   UNL     1      67.087  15.938  45.695  1.00  0.00     0.094 A 
ATOM     10  C   UNL     1      66.122  15.195  46.378  1.00  0.00     0.146 A 
ATOM     11  O   UNL     1      64.841  15.483  46.180  1.00  0.00    -0.452 OA
ENDROOT
BRANCH   1  12
ATOM     12  C   UNL     1      62.459  15.263  46.474  1.00  0.00     0.025 A 
ATOM     13  C   UNL     1      61.774  16.135  47.339  1.00  0.00     0.016 A 
ATOM     14  C   UNL     1      60.476  16.554  47.037  1.00  0.00     0.051 A 
ATOM     15  C   UNL     1      59.848  16.120  45.862  1.00  0.00     0.157 A 
ATOM     16  C   UNL     1      61.833  14.848  45.287  1.00  0.00     0.062 A 
ATOM     17  C   UNL     1      60.533  15.266  44.981  1.00  0.00     0.158 A 
BRANCH  15  18
ATOM     18  O   UNL     1      58.551  16.538  45.564  1.00  0.00    -0.504 OA
ATOM     19  H   UNL     1      57.954  16.956  46.268  1.00  0.00     0.293 HD
ENDBRANCH  15  18
BRANCH  17  20
ATOM     20  O   UNL     1      59.939  14.822  43.801  1.00  0.00    -0.504 OA
ATOM     21  H   UNL     1      59.317  15.408  43.257  1.00  0.00     0.293 HD
ENDBRANCH  17  20
ENDBRANCH   1  12
BRANCH   2  22
ATOM     22  O   UNL     1      63.082  12.974  48.136  1.00  0.00    -0.502 OA
ATOM     23  H   UNL     1      62.164  13.362  48.310  1.00  0.00     0.293 HD
ENDBRANCH   2  22
BRANCH   6  24
ATOM     24  O   UNL     1      68.402  12.999  48.399  1.00  0.00    -0.507 OA
ATOM     25  H   UNL     1      68.908  13.246  49.236  1.00  0.00     0.293 HD
ENDBRANCH   6  24
BRANCH   8  26
ATOM     26  O   UNL     1      69.387  16.404  45.158  1.00  0.00    -0.508 OA
ATOM     27  H   UNL     1      70.348  16.093  45.074  1.00  0.00     0.293 HD
ENDBRANCH   8  26
TORSDOF 6
ENDMDL
MODEL 2
REMARK VINA RESULT:    -4.685     20.360     22.321
REMARK INTER + INTRA:          -5.973
REMARK INTER:                  -5.661
REMARK INTRA:                  -0.312
REMARK UNBOUND:                -0.329
REMARK SMILES O=c1c(O)c(-c2ccc(O)c(O)c2)oc2cc(O)cc(O)c12
REMARK SMILES IDX 5 1 3 2 2 3 1 4 22 5 20 6 19 7 17 8 16 9 15 10 14 11 6 12
REMARK SMILES IDX 7 13 8 14 9 15 13 16 11 17 10 18 12 20 4 22 21 24 18 26
REMARK H PARENT 10 19 12 21 4 23 21 25 18 27
REMARK Flexibility Score: inf
ROOT
ATOM      1  C   UNL     1      72.272  -0.258  33.379  1.00  0.00     0.180 A 
ATOM      2  C   UNL     1      71.111  -0.794  33.965  1.00  0.00     0.208 A 
ATOM      3  C   UNL     1      69.869  -0.210  33.671  1.00  0.00     0.238 A 
ATOM      4  O   UNL     1      68.841  -0.660  34.241  1.00  0.00    -0.285 OA
ATOM      5  C   UNL     1      69.800   0.891  32.785  1.00  0.00     0.111 A 
ATOM      6  C   UNL     1      68.590   1.535  32.385  1.00  0.00     0.134 A 
ATOM      7  C   UNL     1      68.651   2.696  31.605  1.00  0.00     0.093 A 
ATOM      8  C   UNL     1      69.874   3.200  31.157  1.00  0.00     0.123 A 
ATOM      9  C   UNL     1      71.057   2.544  31.492  1.00  0.00     0.094 A 
ATOM     10  C   UNL     1      71.031   1.403  32.298  1.00  0.00     0.146 A 
ATOM     11  O   UNL     1      72.181   0.815  32.602  1.00  0.00    -0.452 OA
ENDROOT
BRANCH   1  12
ATOM     12  C   UNL     1      73.614  -0.835  33.620  1.00  0.00     0.025 A 
ATOM     13  C   UNL     1      74.054  -1.980  32.932  1.00  0.00     0.016 A 
ATOM     14  C   UNL     1      75.334  -2.492  33.159  1.00  0.00     0.051 A 
ATOM     15  C   UNL     1      76.198  -1.862  34.063  1.00  0.00     0.157 A 
ATOM     16  C   UNL     1      74.492  -0.195  34.510  1.00  0.00     0.062 A 
ATOM     17  C   UNL     1      75.775  -0.705  34.739  1.00  0.00     0.158 A 
BRANCH  15  18
ATOM     18  O   UNL     1      77.474  -2.376  34.289  1.00  0.00    -0.504 OA
ATOM     19  H   UNL     1      77.612  -3.276  34.734  1.00  0.00     0.293 HD
ENDBRANCH  15  18
BRANCH  17  20
ATOM     20  O   UNL     1      76.613  -0.050  35.641  1.00  0.00    -0.504 OA
ATOM     21  H   UNL     1      77.547   0.249  35.388  1.00  0.00     0.293 HD
ENDBRANCH  17  20
ENDBRANCH   1  12
BRANCH   2  22
ATOM     22  O   UNL     1      71.206  -1.867  34.855  1.00  0.00    -0.502 OA
ATOM     23  H   UNL     1      72.023  -2.026  35.431  1.00  0.00     0.293 HD
ENDBRANCH   2  22
BRANCH   6  24
ATOM     24  O   UNL     1      67.313   1.062  32.702  1.00  0.00    -0.507 OA
ATOM     25  H   UNL     1      66.833   0.326  32.207  1.00  0.00     0.293 HD
ENDBRANCH   6  24
BRANCH   8  26
ATOM     26  O   UNL     1      69.925   4.347  30.368  1.00  0.00    -0.508 OA
ATOM     27  H   UNL     1      70.191   4.306  29.391  1.00  0.00     0.293 HD
ENDBRANCH   8  26
TORSDOF 6
ENDMDL
MODEL 3
REMARK VINA RESULT:    -4.512     18.568     19.683
REMARK INTER + INTRA:          -5.765
REMARK INTER:                  -5.445
REMARK INTRA:                  -0.320
REMARK UNBOUND:                -0.329
REMARK SMILES O=c1c(O)c(-c2ccc(O)c(O)c2)oc2cc(O)cc(O)c12
REMARK SMILES IDX 5 1 3 2 2 3 1 4 22 5 20 6 19 7 17 8 16 9 15 10 14 11 6 12
REMARK SMILES IDX 7 13 8 14 9 15 13 16 11 17 10 18 12 20 4 22 21 24 18 26
REMARK H PARENT 10 19 12 21 4 23 21 25 18 27
REMARK Flexibility Score: inf
ROOT
ATOM      1  C   UNL     1      68.900   1.358  33.779  1.00  0.00     0.180 A 
ATOM      2  C   UNL     1      67.668   0.700  33.619  1.00  0.00     0.208 A 
ATOM      3  C   UNL     1      67.362  -0.385  34.456  1.00  0.00     0.238 A 
ATOM      4  O   UNL     1      66.281  -1.003  34.272  1.00  0.00    -0.285 OA
ATOM      5  C   UNL     1      68.284  -0.789  35.451  1.00  0.00     0.111 A 
ATOM      6  C   UNL     1      68.060  -1.850  36.380  1.00  0.00     0.134 A 
ATOM      7  C   UNL     1      69.095  -2.247  37.236  1.00  0.00     0.093 A 
ATOM      8  C   UNL     1      70.322  -1.580  37.240  1.00  0.00     0.123 A 
ATOM      9  C   UNL     1      70.529  -0.505  36.379  1.00  0.00     0.094 A 
ATOM     10  C   UNL     1      69.528  -0.108  35.488  1.00  0.00     0.146 A 
ATOM     11  O   UNL     1      69.771   0.914  34.677  1.00  0.00    -0.452 OA
ENDROOT
BRANCH   1  12
ATOM     12  C   UNL     1      69.283   2.525  32.952  1.00  0.00     0.025 A 
ATOM     13  C   UNL     1      70.013   2.370  31.760  1.00  0.00     0.016 A 
ATOM     14  C   UNL     1      70.341   3.484  30.983  1.00  0.00     0.051 A 
ATOM     15  C   UNL     1      69.935   4.765  31.377  1.00  0.00     0.157 A 
ATOM     16  C   UNL     1      68.860   3.809  33.331  1.00  0.00     0.062 A 
ATOM     17  C   UNL     1      69.187   4.928  32.555  1.00  0.00     0.158 A 
BRANCH  15  18
ATOM     18  O   UNL     1      70.267   5.876  30.600  1.00  0.00    -0.504 OA
ATOM     19  H   UNL     1      70.769   5.780  29.725  1.00  0.00     0.293 HD
ENDBRANCH  15  18
BRANCH  17  20
ATOM     20  O   UNL     1      68.762   6.188  32.971  1.00  0.00    -0.504 OA
ATOM     21  H   UNL     1      68.409   6.356  33.905  1.00  0.00     0.293 HD
ENDBRANCH  17  20
ENDBRANCH   1  12
BRANCH   2  22
ATOM     22  O   UNL     1      66.782   1.102  32.616  1.00  0.00    -0.502 OA
ATOM     23  H   UNL     1      66.617   0.550  31.782  1.00  0.00     0.293 HD
ENDBRANCH   2  22
BRANCH   6  24
ATOM     24  O   UNL     1      66.842  -2.521  36.520  1.00  0.00    -0.507 OA
ATOM     25  H   UNL     1      66.521  -3.262  35.915  1.00  0.00     0.293 HD
ENDBRANCH   6  24
BRANCH   8  26
ATOM     26  O   UNL     1      71.341  -1.972  38.106  1.00  0.00    -0.508 OA
ATOM     27  H   UNL     1      71.225  -1.934  39.112  1.00  0.00     0.293 HD
ENDBRANCH   8  26
TORSDOF 6
ENDMDL
MODEL 4
REMARK VINA RESULT:    -4.487     20.037     22.040
REMARK INTER + INTRA:          -5.735
REMARK INTER:                  -5.414
REMARK INTRA:                  -0.320
REMARK UNBOUND:                -0.329
REMARK SMILES O=c1c(O)c(-c2ccc(O)c(O)c2)oc2cc(O)cc(O)c12
REMARK SMILES IDX 5 1 3 2 2 3 1 4 22 5 20 6 19 7 17 8 16 9 15 10 14 11 6 12
REMARK SMILES IDX 7 13 8 14 9 15 13 16 11 17 10 18 12 20 4 22 21 24 18 26
REMARK H PARENT 10 19 12 21 4 23 21 25 18 27
REMARK Flexibility Score: inf
ROOT
ATOM      1  C   UNL     1      71.266   0.131  33.131  1.00  0.00     0.180 A 
ATOM      2  C   UNL     1      71.052   1.203  32.246  1.00  0.00     0.208 A 
ATOM      3  C   UNL     1      69.755   1.720  32.104  1.00  0.00     0.238 A 
ATOM      4  O   UNL     1      69.561   2.642  31.271  1.00  0.00    -0.285 OA
ATOM      5  C   UNL     1      68.692   1.172  32.860  1.00  0.00     0.111 A 
ATOM      6  C   UNL     1      67.345   1.645  32.826  1.00  0.00     0.134 A 
ATOM      7  C   UNL     1      66.349   0.943  33.517  1.00  0.00     0.093 A 
ATOM      8  C   UNL     1      66.662  -0.176  34.292  1.00  0.00     0.123 A 
ATOM      9  C   UNL     1      67.983  -0.609  34.380  1.00  0.00     0.094 A 
ATOM     10  C   UNL     1      68.993   0.049  33.674  1.00  0.00     0.146 A 
ATOM     11  O   UNL     1      70.237  -0.404  33.776  1.00  0.00    -0.452 OA
ENDROOT
BRANCH   1  12
ATOM     12  C   UNL     1      72.609  -0.451  33.352  1.00  0.00     0.025 A 
ATOM     13  C   UNL     1      73.069  -1.542  32.592  1.00  0.00     0.016 A 
ATOM     14  C   UNL     1      74.350  -2.059  32.802  1.00  0.00     0.051 A 
ATOM     15  C   UNL     1      75.194  -1.488  33.763  1.00  0.00     0.157 A 
ATOM     16  C   UNL     1      73.468   0.131  34.300  1.00  0.00     0.062 A 
ATOM     17  C   UNL     1      74.752  -0.385  34.513  1.00  0.00     0.158 A 
BRANCH  15  18
ATOM     18  O   UNL     1      76.471  -2.008  33.973  1.00  0.00    -0.504 OA
ATOM     19  H   UNL     1      76.868  -2.082  34.902  1.00  0.00     0.293 HD
ENDBRANCH  15  18
BRANCH  17  20
ATOM     20  O   UNL     1      75.570   0.210  35.472  1.00  0.00    -0.504 OA
ATOM     21  H   UNL     1      75.911  -0.298  36.279  1.00  0.00     0.293 HD
ENDBRANCH  17  20
ENDBRANCH   1  12
BRANCH   2  22
ATOM     22  O   UNL     1      72.113   1.715  31.493  1.00  0.00    -0.502 OA
ATOM     23  H   UNL     1      72.965   2.059  31.919  1.00  0.00     0.293 HD
ENDBRANCH   2  22
BRANCH   6  24
ATOM     24  O   UNL     1      66.942   2.803  32.156  1.00  0.00    -0.507 OA
ATOM     25  H   UNL     1      67.287   3.731  32.352  1.00  0.00     0.293 HD
ENDBRANCH   6  24
BRANCH   8  26
ATOM     26  O   UNL     1      65.668  -0.859  34.990  1.00  0.00    -0.508 OA
ATOM     27  H   UNL     1      64.696  -0.577  34.937  1.00  0.00     0.293 HD
ENDBRANCH   8  26
TORSDOF 6
ENDMDL
MODEL 5
REMARK VINA RESULT:    -4.478      1.712      3.564
REMARK INTER + INTRA:          -5.723
REMARK INTER:                  -5.392
REMARK INTRA:                  -0.331
REMARK UNBOUND:                -0.329
REMARK SMILES O=c1c(O)c(-c2ccc(O)c(O)c2)oc2cc(O)cc(O)c12
REMARK SMILES IDX 5 1 3 2 2 3 1 4 22 5 20 6 19 7 17 8 16 9 15 10 14 11 6 12
REMARK SMILES IDX 7 13 8 14 9 15 13 16 11 17 10 18 12 20 4 22 21 24 18 26
REMARK H PARENT 10 19 12 21 4 23 21 25 18 27
REMARK Flexibility Score: inf
ROOT
ATOM      1  C   UNL     1      64.952  14.113  45.975  1.00  0.00     0.180 A 
ATOM      2  C   UNL     1      66.029  14.979  45.716  1.00  0.00     0.208 A 
ATOM      3  C   UNL     1      67.276  14.708  46.302  1.00  0.00     0.238 A 
ATOM      4  O   UNL     1      68.221  15.517  46.110  1.00  0.00    -0.285 OA
ATOM      5  C   UNL     1      67.434  13.569  47.127  1.00  0.00     0.111 A 
ATOM      6  C   UNL     1      68.663  13.177  47.740  1.00  0.00     0.134 A 
ATOM      7  C   UNL     1      68.673  12.105  48.640  1.00  0.00     0.093 A 
ATOM      8  C   UNL     1      67.514  11.371  48.900  1.00  0.00     0.123 A 
ATOM      9  C   UNL     1      66.323  11.708  48.261  1.00  0.00     0.094 A 
ATOM     10  C   UNL     1      66.273  12.795  47.385  1.00  0.00     0.146 A 
ATOM     11  O   UNL     1      65.116  13.089  46.805  1.00  0.00    -0.452 OA
ENDROOT
BRANCH   1  12
ATOM     12  C   UNL     1      63.615  14.317  45.373  1.00  0.00     0.025 A 
ATOM     13  C   UNL     1      63.275  13.750  44.132  1.00  0.00     0.016 A 
ATOM     14  C   UNL     1      61.999  13.937  43.595  1.00  0.00     0.051 A 
ATOM     15  C   UNL     1      61.039  14.680  44.295  1.00  0.00     0.157 A 
ATOM     16  C   UNL     1      62.642  15.044  46.080  1.00  0.00     0.062 A 
ATOM     17  C   UNL     1      61.362  15.233  45.546  1.00  0.00     0.158 A 
BRANCH  15  18
ATOM     18  O   UNL     1      59.767  14.867  43.756  1.00  0.00    -0.504 OA
ATOM     19  H   UNL     1      58.932  14.766  44.321  1.00  0.00     0.293 HD
ENDBRANCH  15  18
BRANCH  17  20
ATOM     20  O   UNL     1      60.428  15.971  46.270  1.00  0.00    -0.504 OA
ATOM     21  H   UNL     1      60.374  16.981  46.207  1.00  0.00     0.293 HD
ENDBRANCH  17  20
ENDBRANCH   1  12
BRANCH   2  22
ATOM     22  O   UNL     1      65.844  16.110  44.916  1.00  0.00    -0.502 OA
ATOM     23  H   UNL     1      66.619  16.647  44.547  1.00  0.00     0.293 HD
ENDBRANCH   2  22
BRANCH   6  24
ATOM     24  O   UNL     1      69.894  13.785  47.479  1.00  0.00    -0.507 OA
ATOM     25  H   UNL     1      70.083  14.388  46.692  1.00  0.00     0.293 HD
ENDBRANCH   6  24
BRANCH   8  26
ATOM     26  O   UNL     1      67.537  10.295  49.786  1.00  0.00    -0.508 OA
ATOM     27  H   UNL     1      68.344   9.687  49.859  1.00  0.00     0.293 HD
ENDBRANCH   8  26
TORSDOF 6
ENDMDL
MODEL 6
REMARK VINA RESULT:    -4.399     17.499     19.530
REMARK INTER + INTRA:          -5.628
REMARK INTER:                  -5.306
REMARK INTRA:                  -0.322
REMARK UNBOUND:                -0.329
REMARK SMILES O=c1c(O)c(-c2ccc(O)c(O)c2)oc2cc(O)cc(O)c12
REMARK SMILES IDX 5 1 3 2 2 3 1 4 22 5 20 6 19 7 17 8 16 9 15 10 14 11 6 12
REMARK SMILES IDX 7 13 8 14 9 15 13 16 11 17 10 18 12 20 4 22 21 24 18 26
REMARK H PARENT 10 19 12 21 4 23 21 25 18 27
REMARK Flexibility Score: inf
ROOT
ATOM      1  C   UNL     1      60.797   3.346  32.129  1.00  0.00     0.180 A 
ATOM      2  C   UNL     1      60.121   2.639  31.119  1.00  0.00     0.208 A 
ATOM      3  C   UNL     1      59.712   1.319  31.369  1.00  0.00     0.238 A 
ATOM      4  O   UNL     1      59.156   0.674  30.442  1.00  0.00    -0.285 OA
ATOM      5  C   UNL     1      59.970   0.728  32.628  1.00  0.00     0.111 A 
ATOM      6  C   UNL     1      59.565  -0.589  33.004  1.00  0.00     0.134 A 
ATOM      7  C   UNL     1      59.987  -1.117  34.230  1.00  0.00     0.093 A 
ATOM      8  C   UNL     1      60.745  -0.354  35.121  1.00  0.00     0.123 A 
ATOM      9  C   UNL     1      61.094   0.953  34.789  1.00  0.00     0.094 A 
ATOM     10  C   UNL     1      60.718   1.496  33.558  1.00  0.00     0.146 A 
ATOM     11  O   UNL     1      61.081   2.742  33.277  1.00  0.00    -0.452 OA
ENDROOT
BRANCH   1  12
ATOM     12  C   UNL     1      61.236   4.748  31.950  1.00  0.00     0.025 A 
ATOM     13  C   UNL     1      62.486   5.057  31.385  1.00  0.00     0.016 A 
ATOM     14  C   UNL     1      62.869   6.389  31.203  1.00  0.00     0.051 A 
ATOM     15  C   UNL     1      62.006   7.429  31.570  1.00  0.00     0.157 A 
ATOM     16  C   UNL     1      60.366   5.795  32.297  1.00  0.00     0.062 A 
ATOM     17  C   UNL     1      60.747   7.130  32.116  1.00  0.00     0.158 A 
BRANCH  15  18
ATOM     18  O   UNL     1      62.392   8.757  31.389  1.00  0.00    -0.504 OA
ATOM     19  H   UNL     1      61.715   9.511  31.394  1.00  0.00     0.293 HD
ENDBRANCH  15  18
BRANCH  17  20
ATOM     20  O   UNL     1      59.862   8.142  32.485  1.00  0.00    -0.504 OA
ATOM     21  H   UNL     1      60.003   9.107  32.211  1.00  0.00     0.293 HD
ENDBRANCH  17  20
ENDBRANCH   1  12
BRANCH   2  22
ATOM     22  O   UNL     1      59.896   3.235  29.875  1.00  0.00    -0.502 OA
ATOM     23  H   UNL     1      58.987   3.233  29.428  1.00  0.00     0.293 HD
ENDBRANCH   2  22
BRANCH   6  24
ATOM     24  O   UNL     1      58.733  -1.400  32.228  1.00  0.00    -0.507 OA
ATOM     25  H   UNL     1      58.587  -2.387  32.380  1.00  0.00     0.293 HD
ENDBRANCH   6  24
BRANCH   8  26
ATOM     26  O   UNL     1      61.148  -0.883  36.346  1.00  0.00    -0.508 OA
ATOM     27  H   UNL     1      60.935  -1.838  36.606  1.00  0.00     0.293 HD
ENDBRANCH   8  26
TORSDOF 6
ENDMDL
MODEL 7
REMARK VINA RESULT:    -4.396     16.786     18.551
REMARK INTER + INTRA:          -5.625
REMARK INTER:                  -5.383
REMARK INTRA:                  -0.242
REMARK UNBOUND:                -0.329
REMARK SMILES O=c1c(O)c(-c2ccc(O)c(O)c2)oc2cc(O)cc(O)c12
REMARK SMILES IDX 5 1 3 2 2 3 1 4 22 5 20 6 19 7 17 8 16 9 15 10 14 11 6 12
REMARK SMILES IDX 7 13 8 14 9 15 13 16 11 17 10 18 12 20 4 22 21 24 18 26
REMARK H PARENT 10 19 12 21 4 23 21 25 18 27
REMARK Flexibility Score: inf
ROOT
ATOM      1  C   UNL     1      70.210  -1.171  41.124  1.00  0.00     0.180 A 
ATOM      2  C   UNL     1      71.491  -0.619  41.304  1.00  0.00     0.208 A 
ATOM      3  C   UNL     1      72.266  -0.315  40.173  1.00  0.00     0.238 A 
ATOM      4  O   UNL     1      73.432   0.128  40.342  1.00  0.00    -0.285 OA
ATOM      5  C   UNL     1      71.747  -0.553  38.879  1.00  0.00     0.111 A 
ATOM      6  C   UNL     1      72.430  -0.247  37.663  1.00  0.00     0.134 A 
ATOM      7  C   UNL     1      71.875  -0.645  36.440  1.00  0.00     0.093 A 
ATOM      8  C   UNL     1      70.633  -1.280  36.386  1.00  0.00     0.123 A 
ATOM      9  C   UNL     1      69.931  -1.530  37.563  1.00  0.00     0.094 A 
ATOM     10  C   UNL     1      70.474  -1.177  38.800  1.00  0.00     0.146 A 
ATOM     11  O   UNL     1      69.777  -1.442  39.899  1.00  0.00    -0.452 OA
ENDROOT
BRANCH   1  12
ATOM     12  C   UNL     1      69.324  -1.493  42.265  1.00  0.00     0.025 A 
ATOM     13  C   UNL     1      69.113  -2.821  42.677  1.00  0.00     0.016 A 
ATOM     14  C   UNL     1      68.292  -3.100  43.772  1.00  0.00     0.051 A 
ATOM     15  C   UNL     1      67.680  -2.057  44.480  1.00  0.00     0.157 A 
ATOM     16  C   UNL     1      68.725  -0.451  42.991  1.00  0.00     0.062 A 
ATOM     17  C   UNL     1      67.902  -0.726  44.090  1.00  0.00     0.158 A 
BRANCH  15  18
ATOM     18  O   UNL     1      66.859  -2.338  45.572  1.00  0.00    -0.504 OA
ATOM     19  H   UNL     1      65.922  -1.957  45.642  1.00  0.00     0.293 HD
ENDBRANCH  15  18
BRANCH  17  20
ATOM     20  O   UNL     1      67.313   0.334  44.777  1.00  0.00    -0.504 OA
ATOM     21  H   UNL     1      67.542   0.544  45.741  1.00  0.00     0.293 HD
ENDBRANCH  17  20
ENDBRANCH   1  12
BRANCH   2  22
ATOM     22  O   UNL     1      71.992  -0.412  42.592  1.00  0.00    -0.502 OA
ATOM     23  H   UNL     1      72.747  -0.966  42.977  1.00  0.00     0.293 HD
ENDBRANCH   2  22
BRANCH   6  24
ATOM     24  O   UNL     1      73.632   0.465  37.601  1.00  0.00    -0.507 OA
ATOM     25  H   UNL     1      73.778   1.300  37.054  1.00  0.00     0.293 HD
ENDBRANCH   6  24
BRANCH   8  26
ATOM     26  O   UNL     1      70.080  -1.659  35.164  1.00  0.00    -0.508 OA
ATOM     27  H   UNL     1      70.658  -1.800  34.343  1.00  0.00     0.293 HD
ENDBRANCH   8  26
TORSDOF 6
ENDMDL
MODEL 8
REMARK VINA RESULT:    -4.391     18.523     19.287
REMARK INTER + INTRA:          -5.619
REMARK INTER:                  -5.290
REMARK INTRA:                  -0.328
REMARK UNBOUND:                -0.329
REMARK SMILES O=c1c(O)c(-c2ccc(O)c(O)c2)oc2cc(O)cc(O)c12
REMARK SMILES IDX 5 1 3 2 2 3 1 4 22 5 20 6 19 7 17 8 16 9 15 10 14 11 6 12
REMARK SMILES IDX 7 13 8 14 9 15 13 16 11 17 10 18 12 20 4 22 21 24 18 26
REMARK H PARENT 10 19 12 21 4 23 21 25 18 27
REMARK Flexibility Score: inf
ROOT
ATOM      1  C   UNL     1      65.418  -1.236  36.586  1.00  0.00     0.180 A 
ATOM      2  C   UNL     1      65.257  -0.665  35.311  1.00  0.00     0.208 A 
ATOM      3  C   UNL     1      66.396  -0.406  34.532  1.00  0.00     0.238 A 
ATOM      4  O   UNL     1      66.249   0.155  33.416  1.00  0.00    -0.285 OA
ATOM      5  C   UNL     1      67.679  -0.736  35.030  1.00  0.00     0.111 A 
ATOM      6  C   UNL     1      68.899  -0.555  34.309  1.00  0.00     0.134 A 
ATOM      7  C   UNL     1      70.121  -0.795  34.950  1.00  0.00     0.093 A 
ATOM      8  C   UNL     1      70.165  -1.271  36.262  1.00  0.00     0.123 A 
ATOM      9  C   UNL     1      68.979  -1.508  36.953  1.00  0.00     0.094 A 
ATOM     10  C   UNL     1      67.745  -1.244  36.353  1.00  0.00     0.146 A 
ATOM     11  O   UNL     1      66.639  -1.474  37.050  1.00  0.00    -0.452 OA
ENDROOT
BRANCH   1  12
ATOM     12  C   UNL     1      64.265  -1.561  37.455  1.00  0.00     0.025 A 
ATOM     13  C   UNL     1      63.664  -2.832  37.430  1.00  0.00     0.016 A 
ATOM     14  C   UNL     1      62.591  -3.124  38.277  1.00  0.00     0.051 A 
ATOM     15  C   UNL     1      62.112  -2.156  39.169  1.00  0.00     0.157 A 
ATOM     16  C   UNL     1      63.794  -0.602  38.367  1.00  0.00     0.062 A 
ATOM     17  C   UNL     1      62.720  -0.891  39.217  1.00  0.00     0.158 A 
BRANCH  15  18
ATOM     18  O   UNL     1      61.040  -2.449  40.012  1.00  0.00    -0.504 OA
ATOM     19  H   UNL     1      61.183  -2.703  40.983  1.00  0.00     0.293 HD
ENDBRANCH  15  18
BRANCH  17  20
ATOM     20  O   UNL     1      62.271   0.092  40.098  1.00  0.00    -0.504 OA
ATOM     21  H   UNL     1      61.311   0.413  40.103  1.00  0.00     0.293 HD
ENDBRANCH  17  20
ENDBRANCH   1  12
BRANCH   2  22
ATOM     22  O   UNL     1      63.982  -0.328  34.849  1.00  0.00    -0.502 OA
ATOM     23  H   UNL     1      63.788  -0.149  33.871  1.00  0.00     0.293 HD
ENDBRANCH   2  22
BRANCH   6  24
ATOM     24  O   UNL     1      68.962  -0.170  32.967  1.00  0.00    -0.507 OA
ATOM     25  H   UNL     1      68.261   0.378  32.492  1.00  0.00     0.293 HD
ENDBRANCH   6  24
BRANCH   8  26
ATOM     26  O   UNL     1      71.385  -1.523  36.886  1.00  0.00    -0.508 OA
ATOM     27  H   UNL     1      71.759  -0.896  37.589  1.00  0.00     0.293 HD
ENDBRANCH   8  26
TORSDOF 6
ENDMDL
MODEL 9
REMARK VINA RESULT:    -4.311      3.656      6.726
REMARK INTER + INTRA:          -5.522
REMARK INTER:                  -5.203
REMARK INTRA:                  -0.319
REMARK UNBOUND:                -0.329
REMARK SMILES O=c1c(O)c(-c2ccc(O)c(O)c2)oc2cc(O)cc(O)c12
REMARK SMILES IDX 5 1 3 2 2 3 1 4 22 5 20 6 19 7 17 8 16 9 15 10 14 11 6 12
REMARK SMILES IDX 7 13 8 14 9 15 13 16 11 17 10 18 12 20 4 22 21 24 18 26
REMARK H PARENT 10 19 12 21 4 23 21 25 18 27
REMARK Flexibility Score: inf
ROOT
ATOM      1  C   UNL     1      67.469  13.189  46.677  1.00  0.00     0.180 A 
ATOM      2  C   UNL     1      68.170  12.624  47.757  1.00  0.00     0.208 A 
ATOM      3  C   UNL     1      67.506  11.721  48.602  1.00  0.00     0.238 A 
ATOM      4  O   UNL     1      68.123  11.260  49.597  1.00  0.00    -0.285 OA
ATOM      5  C   UNL     1      66.155  11.384  48.350  1.00  0.00     0.111 A 
ATOM      6  C   UNL     1      65.396  10.450  49.119  1.00  0.00     0.134 A 
ATOM      7  C   UNL     1      64.029  10.292  48.858  1.00  0.00     0.093 A 
ATOM      8  C   UNL     1      63.409  10.984  47.815  1.00  0.00     0.123 A 
ATOM      9  C   UNL     1      64.155  11.853  47.022  1.00  0.00     0.094 A 
ATOM     10  C   UNL     1      65.513  12.059  47.280  1.00  0.00     0.146 A 
ATOM     11  O   UNL     1      66.184  12.903  46.506  1.00  0.00    -0.452 OA
ENDROOT
BRANCH   1  12
ATOM     12  C   UNL     1      68.109  14.128  45.728  1.00  0.00     0.025 A 
ATOM     13  C   UNL     1      68.054  15.520  45.925  1.00  0.00     0.016 A 
ATOM     14  C   UNL     1      68.686  16.386  45.029  1.00  0.00     0.051 A 
ATOM     15  C   UNL     1      69.392  15.876  43.932  1.00  0.00     0.157 A 
ATOM     16  C   UNL     1      68.836  13.622  44.639  1.00  0.00     0.062 A 
ATOM     17  C   UNL     1      69.470  14.487  43.739  1.00  0.00     0.158 A 
BRANCH  15  18
ATOM     18  O   UNL     1      70.020  16.743  43.038  1.00  0.00    -0.504 OA
ATOM     19  H   UNL     1      70.971  17.061  43.187  1.00  0.00     0.293 HD
ENDBRANCH  15  18
BRANCH  17  20
ATOM     20  O   UNL     1      70.171  13.947  42.661  1.00  0.00    -0.504 OA
ATOM     21  H   UNL     1      69.779  13.912  41.728  1.00  0.00     0.293 HD
ENDBRANCH  17  20
ENDBRANCH   1  12
BRANCH   2  22
ATOM     22  O   UNL     1      69.498  12.987  48.000  1.00  0.00    -0.502 OA
ATOM     23  H   UNL     1      70.202  12.993  47.272  1.00  0.00     0.293 HD
ENDBRANCH   2  22
BRANCH   6  24
ATOM     24  O   UNL     1      65.938   9.642  50.122  1.00  0.00    -0.507 OA
ATOM     25  H   UNL     1      66.034   9.912  51.089  1.00  0.00     0.293 HD
ENDBRANCH   6  24
BRANCH   8  26
ATOM     26  O   UNL     1      62.052  10.809  47.552  1.00  0.00    -0.508 OA
ATOM     27  H   UNL     1      61.437  11.598  47.394  1.00  0.00     0.293 HD
ENDBRANCH   8  26
TORSDOF 6
ENDMDL
