MODEL 1
REMARK VINA RESULT:    -2.631      0.000      0.000
REMARK INTER + INTRA:         -12.718
REMARK INTER:                  -6.631
REMARK INTRA:                  -6.087
REMARK UNBOUND:                -6.087
REMARK SMILES CCCCCCCCCCCCCCCCCCCCCCCCCCCC(=O)[O-]
REMARK SMILES IDX 15 1 16 2 17 3 18 4 19 5 20 6 21 7 22 8 23 9 24 10 25 11
REMARK SMILES IDX 26 12 27 13 28 14 29 15 30 16 14 17 13 18 12 19 11 20 10 21
REMARK SMILES IDX 9 22 8 23 7 24 6 25 5 26 4 27 3 28 2 29 1 30
REMARK H PARENT
REMARK Flexibility Score: inf
ROOT
ATOM      1  C   UNL     1      58.037  28.663  50.334  1.00  0.00     0.000 C 
ENDROOT
BRANCH   1   2
ATOM      2  C   UNL     1      59.105  27.942  49.482  1.00  0.00     0.000 C 
BRANCH   2   3
ATOM      3  C   UNL     1      60.523  27.985  50.086  1.00  0.00     0.000 C 
BRANCH   3   4
ATOM      4  C   UNL     1      60.585  28.254  51.602  1.00  0.00     0.000 C 
BRANCH   4   5
ATOM      5  C   UNL     1      61.569  27.357  52.378  1.00  0.00     0.000 C 
BRANCH   5   6
ATOM      6  C   UNL     1      60.863  26.388  53.338  1.00  0.00     0.000 C 
BRANCH   6   7
ATOM      7  C   UNL     1      59.476  26.922  53.727  1.00  0.00     0.000 C 
BRANCH   7   8
ATOM      8  C   UNL     1      58.388  25.832  53.695  1.00  0.00     0.000 C 
BRANCH   8   9
ATOM      9  C   UNL     1      58.749  24.592  52.855  1.00  0.00     0.000 C 
BRANCH   9  10
ATOM     10  C   UNL     1      58.120  24.546  51.447  1.00  0.00     0.000 C 
BRANCH  10  11
ATOM     11  C   UNL     1      59.154  24.540  50.301  1.00  0.00     0.000 C 
BRANCH  11  12
ATOM     12  C   UNL     1      60.518  23.982  50.748  1.00  0.00     0.006 C 
BRANCH  12  13
ATOM     13  C   UNL     1      60.696  22.507  50.370  1.00  0.00     0.053 C 
BRANCH  13  14
ATOM     14  C   UNL     1      60.647  21.610  51.569  1.00  0.00     0.041 C 
ATOM     15  O   UNL     1      59.568  21.051  51.903  1.00  0.00    -0.550 OA
ATOM     16  O   UNL     1      61.799  21.377  52.310  1.00  0.00    -0.550 OA
ENDBRANCH  13  14
ENDBRANCH  12  13
ENDBRANCH  11  12
ENDBRANCH  10  11
ENDBRANCH   9  10
ENDBRANCH   8   9
ENDBRANCH   7   8
ENDBRANCH   6   7
ENDBRANCH   5   6
ENDBRANCH   4   5
ENDBRANCH   3   4
ENDBRANCH   2   3
ENDBRANCH   1   2
BRANCH   1  17
ATOM     17  C   UNL     1      56.894  27.726  50.760  1.00  0.00     0.000 C 
BRANCH  17  18
ATOM     18  C   UNL     1      55.515  28.400  50.666  1.00  0.00     0.000 C 
BRANCH  18  19
ATOM     19  C   UNL     1      54.399  27.405  50.306  1.00  0.00     0.000 C 
BRANCH  19  20
ATOM     20  C   UNL     1      54.929  25.992  50.000  1.00  0.00     0.000 C 
BRANCH  20  21
ATOM     21  C   UNL     1      54.430  24.888  50.950  1.00  0.00     0.000 C 
BRANCH  21  22
ATOM     22  C   UNL     1      53.910  25.439  52.289  1.00  0.00    -0.000 C 
BRANCH  22  23
ATOM     23  C   UNL     1      54.730  24.942  53.489  1.00  0.00    -0.000 C 
BRANCH  23  24
ATOM     24  C   UNL     1      54.916  26.026  54.566  1.00  0.00    -0.000 C 
BRANCH  24  25
ATOM     25  C   UNL     1      54.631  27.443  54.043  1.00  0.00    -0.000 C 
BRANCH  25  26
ATOM     26  C   UNL     1      55.362  28.529  54.852  1.00  0.00    -0.000 C 
BRANCH  26  27
ATOM     27  C   UNL     1      56.621  29.060  54.140  1.00  0.00    -0.000 C 
BRANCH  27  28
ATOM     28  C   UNL     1      56.573  30.550  53.755  1.00  0.00    -0.000 C 
BRANCH  28  29
ATOM     29  C   UNL     1      57.937  31.098  53.311  1.00  0.00    -0.003 C 
ATOM     30  C   UNL     1      59.067  30.506  54.150  1.00  0.00     0.004 C 
ENDBRANCH  28  29
ENDBRANCH  27  28
ENDBRANCH  26  27
ENDBRANCH  25  26
ENDBRANCH  24  25
ENDBRANCH  23  24
ENDBRANCH  22  23
ENDBRANCH  21  22
ENDBRANCH  20  21
ENDBRANCH  19  20
ENDBRANCH  18  19
ENDBRANCH  17  18
ENDBRANCH   1  17
TORSDOF 26
ENDMDL
MODEL 2
REMARK VINA RESULT:    -2.592      7.685     11.223
REMARK INTER + INTRA:         -12.618
REMARK INTER:                  -7.511
REMARK INTRA:                  -5.107
REMARK UNBOUND:                -6.087
REMARK SMILES CCCCCCCCCCCCCCCCCCCCCCCCCCCC(=O)[O-]
REMARK SMILES IDX 15 1 16 2 17 3 18 4 19 5 20 6 21 7 22 8 23 9 24 10 25 11
REMARK SMILES IDX 26 12 27 13 28 14 29 15 30 16 14 17 13 18 12 19 11 20 10 21
REMARK SMILES IDX 9 22 8 23 7 24 6 25 5 26 4 27 3 28 2 29 1 30
REMARK H PARENT
REMARK Flexibility Score: inf
ROOT
ATOM      1  C   UNL     1      62.690  30.292  61.675  1.00  0.00     0.000 C 
ENDROOT
BRANCH   1   2
ATOM      2  C   UNL     1      62.939  31.622  60.931  1.00  0.00     0.000 C 
BRANCH   2   3
ATOM      3  C   UNL     1      64.425  32.024  60.847  1.00  0.00     0.000 C 
BRANCH   3   4
ATOM      4  C   UNL     1      64.690  33.486  60.439  1.00  0.00     0.000 C 
BRANCH   4   5
ATOM      5  C   UNL     1      63.796  34.526  61.142  1.00  0.00     0.000 C 
BRANCH   5   6
ATOM      6  C   UNL     1      62.906  35.306  60.163  1.00  0.00     0.000 C 
BRANCH   6   7
ATOM      7  C   UNL     1      61.678  35.881  60.886  1.00  0.00     0.000 C 
BRANCH   7   8
ATOM      8  C   UNL     1      60.350  35.349  60.315  1.00  0.00     0.000 C 
BRANCH   8   9
ATOM      9  C   UNL     1      60.096  33.851  60.573  1.00  0.00     0.000 C 
BRANCH   9  10
ATOM     10  C   UNL     1      59.764  33.015  59.319  1.00  0.00     0.000 C 
BRANCH  10  11
ATOM     11  C   UNL     1      58.659  33.630  58.434  1.00  0.00     0.000 C 
BRANCH  11  12
ATOM     12  C   UNL     1      57.806  32.557  57.733  1.00  0.00     0.006 C 
BRANCH  12  13
ATOM     13  C   UNL     1      58.394  31.150  57.892  1.00  0.00     0.053 C 
BRANCH  13  14
ATOM     14  C   UNL     1      57.331  30.094  57.882  1.00  0.00     0.041 C 
ATOM     15  O   UNL     1      56.247  30.287  57.270  1.00  0.00    -0.550 OA
ATOM     16  O   UNL     1      57.545  28.886  58.535  1.00  0.00    -0.550 OA
ENDBRANCH  13  14
ENDBRANCH  12  13
ENDBRANCH  11  12
ENDBRANCH  10  11
ENDBRANCH   9  10
ENDBRANCH   8   9
ENDBRANCH   7   8
ENDBRANCH   6   7
ENDBRANCH   5   6
ENDBRANCH   4   5
ENDBRANCH   3   4
ENDBRANCH   2   3
ENDBRANCH   1   2
BRANCH   1  17
ATOM     17  C   UNL     1      61.221  29.842  61.599  1.00  0.00     0.000 C 
BRANCH  17  18
ATOM     18  C   UNL     1      60.753  29.600  60.154  1.00  0.00     0.000 C 
BRANCH  18  19
ATOM     19  C   UNL     1      60.839  28.119  59.749  1.00  0.00     0.000 C 
BRANCH  19  20
ATOM     20  C   UNL     1      60.281  27.169  60.825  1.00  0.00     0.000 C 
BRANCH  20  21
ATOM     21  C   UNL     1      61.215  26.011  61.221  1.00  0.00     0.000 C 
BRANCH  21  22
ATOM     22  C   UNL     1      62.622  26.487  61.624  1.00  0.00    -0.000 C 
BRANCH  22  23
ATOM     23  C   UNL     1      63.723  25.509  61.184  1.00  0.00    -0.000 C 
BRANCH  23  24
ATOM     24  C   UNL     1      64.888  26.217  60.468  1.00  0.00    -0.000 C 
BRANCH  24  25
ATOM     25  C   UNL     1      64.753  27.748  60.475  1.00  0.00    -0.000 C 
BRANCH  25  26
ATOM     26  C   UNL     1      65.203  28.387  59.150  1.00  0.00    -0.000 C 
BRANCH  26  27
ATOM     27  C   UNL     1      64.021  28.805  58.255  1.00  0.00    -0.000 C 
BRANCH  27  28
ATOM     28  C   UNL     1      64.079  30.253  57.733  1.00  0.00    -0.000 C 
BRANCH  28  29
ATOM     29  C   UNL     1      62.696  30.811  57.363  1.00  0.00    -0.003 C 
ATOM     30  C   UNL     1      62.723  32.335  57.279  1.00  0.00     0.004 C 
ENDBRANCH  28  29
ENDBRANCH  27  28
ENDBRANCH  26  27
ENDBRANCH  25  26
ENDBRANCH  24  25
ENDBRANCH  23  24
ENDBRANCH  22  23
ENDBRANCH  21  22
ENDBRANCH  20  21
ENDBRANCH  19  20
ENDBRANCH  18  19
ENDBRANCH  17  18
ENDBRANCH   1  17
TORSDOF 26
ENDMDL
MODEL 3
REMARK VINA RESULT:    -2.572      7.302     11.106
REMARK INTER + INTRA:         -12.569
REMARK INTER:                  -7.340
REMARK INTRA:                  -5.229
REMARK UNBOUND:                -6.087
REMARK SMILES CCCCCCCCCCCCCCCCCCCCCCCCCCCC(=O)[O-]
REMARK SMILES IDX 15 1 16 2 17 3 18 4 19 5 20 6 21 7 22 8 23 9 24 10 25 11
REMARK SMILES IDX 26 12 27 13 28 14 29 15 30 16 14 17 13 18 12 19 11 20 10 21
REMARK SMILES IDX 9 22 8 23 7 24 6 25 5 26 4 27 3 28 2 29 1 30
REMARK H PARENT
REMARK Flexibility Score: inf
ROOT
ATOM      1  C   UNL     1      65.131  29.896  59.083  1.00  0.00     0.000 C 
ENDROOT
BRANCH   1   2
ATOM      2  C   UNL     1      64.228  28.899  59.841  1.00  0.00     0.000 C 
BRANCH   2   3
ATOM      3  C   UNL     1      63.849  29.353  61.265  1.00  0.00     0.000 C 
BRANCH   3   4
ATOM      4  C   UNL     1      62.363  29.186  61.635  1.00  0.00     0.000 C 
BRANCH   4   5
ATOM      5  C   UNL     1      61.598  30.506  61.852  1.00  0.00     0.000 C 
BRANCH   5   6
ATOM      6  C   UNL     1      61.032  31.090  60.548  1.00  0.00     0.000 C 
BRANCH   6   7
ATOM      7  C   UNL     1      60.544  29.969  59.619  1.00  0.00     0.000 C 
BRANCH   7   8
ATOM      8  C   UNL     1      60.792  30.280  58.131  1.00  0.00     0.000 C 
BRANCH   8   9
ATOM      9  C   UNL     1      60.164  31.598  57.638  1.00  0.00     0.000 C 
BRANCH   9  10
ATOM     10  C   UNL     1      58.695  31.495  57.178  1.00  0.00     0.000 C 
BRANCH  10  11
ATOM     11  C   UNL     1      58.517  31.550  55.645  1.00  0.00     0.000 C 
BRANCH  11  12
ATOM     12  C   UNL     1      59.566  32.450  54.966  1.00  0.00     0.006 C 
BRANCH  12  13
ATOM     13  C   UNL     1      59.487  32.384  53.437  1.00  0.00     0.053 C 
BRANCH  13  14
ATOM     14  C   UNL     1      60.310  33.454  52.786  1.00  0.00     0.041 C 
ATOM     15  O   UNL     1      61.508  33.230  52.468  1.00  0.00    -0.550 OA
ATOM     16  O   UNL     1      59.748  34.695  52.514  1.00  0.00    -0.550 OA
ENDBRANCH  13  14
ENDBRANCH  12  13
ENDBRANCH  11  12
ENDBRANCH  10  11
ENDBRANCH   9  10
ENDBRANCH   8   9
ENDBRANCH   7   8
ENDBRANCH   6   7
ENDBRANCH   5   6
ENDBRANCH   4   5
ENDBRANCH   3   4
ENDBRANCH   2   3
ENDBRANCH   1   2
BRANCH   1  17
ATOM     17  C   UNL     1      64.362  30.695  58.018  1.00  0.00     0.000 C 
BRANCH  17  18
ATOM     18  C   UNL     1      63.957  32.095  58.509  1.00  0.00     0.000 C 
BRANCH  18  19
ATOM     19  C   UNL     1      64.917  32.642  59.578  1.00  0.00     0.000 C 
BRANCH  19  20
ATOM     20  C   UNL     1      64.202  33.027  60.887  1.00  0.00     0.000 C 
BRANCH  20  21
ATOM     21  C   UNL     1      64.416  34.482  61.343  1.00  0.00     0.000 C 
BRANCH  21  22
ATOM     22  C   UNL     1      63.150  35.345  61.204  1.00  0.00    -0.000 C 
BRANCH  22  23
ATOM     23  C   UNL     1      62.000  34.598  60.511  1.00  0.00    -0.000 C 
BRANCH  23  24
ATOM     24  C   UNL     1      60.676  35.383  60.553  1.00  0.00    -0.000 C 
BRANCH  24  25
ATOM     25  C   UNL     1      59.439  34.470  60.551  1.00  0.00    -0.000 C 
BRANCH  25  26
ATOM     26  C   UNL     1      58.675  34.514  59.217  1.00  0.00    -0.000 C 
BRANCH  26  27
ATOM     27  C   UNL     1      59.023  35.752  58.369  1.00  0.00    -0.000 C 
BRANCH  27  28
ATOM     28  C   UNL     1      59.393  35.456  56.904  1.00  0.00    -0.000 C 
BRANCH  28  29
ATOM     29  C   UNL     1      60.821  35.895  56.547  1.00  0.00    -0.003 C 
ATOM     30  C   UNL     1      61.831  34.796  56.868  1.00  0.00     0.004 C 
ENDBRANCH  28  29
ENDBRANCH  27  28
ENDBRANCH  26  27
ENDBRANCH  25  26
ENDBRANCH  24  25
ENDBRANCH  23  24
ENDBRANCH  22  23
ENDBRANCH  21  22
ENDBRANCH  20  21
ENDBRANCH  19  20
ENDBRANCH  18  19
ENDBRANCH  17  18
ENDBRANCH   1  17
TORSDOF 26
ENDMDL
MODEL 4
REMARK VINA RESULT:    -2.566      7.886     11.107
REMARK INTER + INTRA:         -12.554
REMARK INTER:                  -7.657
REMARK INTRA:                  -4.898
REMARK UNBOUND:                -6.087
REMARK SMILES CCCCCCCCCCCCCCCCCCCCCCCCCCCC(=O)[O-]
REMARK SMILES IDX 15 1 16 2 17 3 18 4 19 5 20 6 21 7 22 8 23 9 24 10 25 11
REMARK SMILES IDX 26 12 27 13 28 14 29 15 30 16 14 17 13 18 12 19 11 20 10 21
REMARK SMILES IDX 9 22 8 23 7 24 6 25 5 26 4 27 3 28 2 29 1 30
REMARK H PARENT
REMARK Flexibility Score: inf
ROOT
ATOM      1  C   UNL     1      60.960  28.627  59.285  1.00  0.00     0.000 C 
ENDROOT
BRANCH   1   2
ATOM      2  C   UNL     1      59.814  27.993  58.467  1.00  0.00     0.000 C 
BRANCH   2   3
ATOM      3  C   UNL     1      58.405  28.385  58.954  1.00  0.00     0.000 C 
BRANCH   3   4
ATOM      4  C   UNL     1      57.260  27.485  58.452  1.00  0.00     0.000 C 
BRANCH   4   5
ATOM      5  C   UNL     1      56.461  26.774  59.562  1.00  0.00     0.000 C 
BRANCH   5   6
ATOM      6  C   UNL     1      56.223  27.666  60.790  1.00  0.00     0.000 C 
BRANCH   6   7
ATOM      7  C   UNL     1      56.944  27.099  62.021  1.00  0.00     0.000 C 
BRANCH   7   8
ATOM      8  C   UNL     1      57.518  25.690  61.777  1.00  0.00     0.000 C 
BRANCH   8   9
ATOM      9  C   UNL     1      59.047  25.585  61.938  1.00  0.00     0.000 C 
BRANCH   9  10
ATOM     10  C   UNL     1      59.813  25.144  60.673  1.00  0.00     0.000 C 
BRANCH  10  11
ATOM     11  C   UNL     1      61.308  24.851  60.919  1.00  0.00     0.000 C 
BRANCH  11  12
ATOM     12  C   UNL     1      61.836  25.535  62.193  1.00  0.00     0.006 C 
BRANCH  12  13
ATOM     13  C   UNL     1      62.717  24.602  63.032  1.00  0.00     0.053 C 
BRANCH  13  14
ATOM     14  C   UNL     1      61.942  23.444  63.584  1.00  0.00     0.041 C 
ATOM     15  O   UNL     1      62.388  22.271  63.477  1.00  0.00    -0.550 OA
ATOM     16  O   UNL     1      60.732  23.662  64.232  1.00  0.00    -0.550 OA
ENDBRANCH  13  14
ENDBRANCH  12  13
ENDBRANCH  11  12
ENDBRANCH  10  11
ENDBRANCH   9  10
ENDBRANCH   8   9
ENDBRANCH   7   8
ENDBRANCH   6   7
ENDBRANCH   5   6
ENDBRANCH   4   5
ENDBRANCH   3   4
ENDBRANCH   2   3
ENDBRANCH   1   2
BRANCH   1  17
ATOM     17  C   UNL     1      60.612  28.764  60.777  1.00  0.00     0.000 C 
BRANCH  17  18
ATOM     18  C   UNL     1      61.810  29.229  61.621  1.00  0.00     0.000 C 
BRANCH  18  19
ATOM     19  C   UNL     1      62.994  29.692  60.756  1.00  0.00     0.000 C 
BRANCH  19  20
ATOM     20  C   UNL     1      63.791  30.844  61.395  1.00  0.00     0.000 C 
BRANCH  20  21
ATOM     21  C   UNL     1      64.502  31.778  60.399  1.00  0.00     0.000 C 
BRANCH  21  22
ATOM     22  C   UNL     1      64.423  33.260  60.806  1.00  0.00    -0.000 C 
BRANCH  22  23
ATOM     23  C   UNL     1      64.291  34.196  59.594  1.00  0.00    -0.000 C 
BRANCH  23  24
ATOM     24  C   UNL     1      63.354  35.386  59.869  1.00  0.00    -0.000 C 
BRANCH  24  25
ATOM     25  C   UNL     1      62.294  35.078  60.939  1.00  0.00    -0.000 C 
BRANCH  25  26
ATOM     26  C   UNL     1      60.859  35.302  60.431  1.00  0.00    -0.000 C 
BRANCH  26  27
ATOM     27  C   UNL     1      59.977  34.045  60.554  1.00  0.00    -0.000 C 
BRANCH  27  28
ATOM     28  C   UNL     1      60.728  32.707  60.425  1.00  0.00    -0.000 C 
BRANCH  28  29
ATOM     29  C   UNL     1      60.858  32.232  58.970  1.00  0.00    -0.003 C 
ATOM     30  C   UNL     1      59.487  31.974  58.350  1.00  0.00     0.004 C 
ENDBRANCH  28  29
ENDBRANCH  27  28
ENDBRANCH  26  27
ENDBRANCH  25  26
ENDBRANCH  24  25
ENDBRANCH  23  24
ENDBRANCH  22  23
ENDBRANCH  21  22
ENDBRANCH  20  21
ENDBRANCH  19  20
ENDBRANCH  18  19
ENDBRANCH  17  18
ENDBRANCH   1  17
TORSDOF 26
ENDMDL
MODEL 5
REMARK VINA RESULT:    -2.565      1.310      3.021
REMARK INTER + INTRA:         -12.552
REMARK INTER:                  -7.170
REMARK INTRA:                  -5.382
REMARK UNBOUND:                -6.087
REMARK SMILES CCCCCCCCCCCCCCCCCCCCCCCCCCCC(=O)[O-]
REMARK SMILES IDX 15 1 16 2 17 3 18 4 19 5 20 6 21 7 22 8 23 9 24 10 25 11
REMARK SMILES IDX 26 12 27 13 28 14 29 15 30 16 14 17 13 18 12 19 11 20 10 21
REMARK SMILES IDX 9 22 8 23 7 24 6 25 5 26 4 27 3 28 2 29 1 30
REMARK H PARENT
REMARK Flexibility Score: inf
ROOT
ATOM      1  C   UNL     1      56.783  26.133  52.811  1.00  0.00     0.000 C 
ENDROOT
BRANCH   1   2
ATOM      2  C   UNL     1      57.208  25.032  51.816  1.00  0.00     0.000 C 
BRANCH   2   3
ATOM      3  C   UNL     1      57.597  25.563  50.421  1.00  0.00     0.000 C 
BRANCH   3   4
ATOM      4  C   UNL     1      57.786  27.090  50.327  1.00  0.00     0.000 C 
BRANCH   4   5
ATOM      5  C   UNL     1      59.065  27.539  49.595  1.00  0.00     0.000 C 
BRANCH   5   6
ATOM      6  C   UNL     1      59.610  28.879  50.112  1.00  0.00     0.000 C 
BRANCH   6   7
ATOM      7  C   UNL     1      59.469  28.970  51.639  1.00  0.00     0.000 C 
BRANCH   7   8
ATOM      8  C   UNL     1      60.661  28.341  52.385  1.00  0.00     0.000 C 
BRANCH   8   9
ATOM      9  C   UNL     1      60.370  26.963  53.011  1.00  0.00     0.000 C 
BRANCH   9  10
ATOM     10  C   UNL     1      61.436  25.881  52.743  1.00  0.00     0.000 C 
BRANCH  10  11
ATOM     11  C   UNL     1      61.234  25.122  51.414  1.00  0.00     0.000 C 
BRANCH  11  12
ATOM     12  C   UNL     1      60.667  23.707  51.629  1.00  0.00     0.006 C 
BRANCH  12  13
ATOM     13  C   UNL     1      60.376  22.989  50.306  1.00  0.00     0.053 C 
BRANCH  13  14
ATOM     14  C   UNL     1      60.969  21.613  50.271  1.00  0.00     0.041 C 
ATOM     15  O   UNL     1      60.288  20.636  49.860  1.00  0.00    -0.550 OA
ATOM     16  O   UNL     1      62.283  21.412  50.677  1.00  0.00    -0.550 OA
ENDBRANCH  13  14
ENDBRANCH  12  13
ENDBRANCH  11  12
ENDBRANCH  10  11
ENDBRANCH   9  10
ENDBRANCH   8   9
ENDBRANCH   7   8
ENDBRANCH   6   7
ENDBRANCH   5   6
ENDBRANCH   4   5
ENDBRANCH   3   4
ENDBRANCH   2   3
ENDBRANCH   1   2
BRANCH   1  17
ATOM     17  C   UNL     1      55.360  25.919  53.353  1.00  0.00     0.000 C 
BRANCH  17  18
ATOM     18  C   UNL     1      54.828  24.504  53.069  1.00  0.00     0.000 C 
BRANCH  18  19
ATOM     19  C   UNL     1      53.469  24.522  52.349  1.00  0.00     0.000 C 
BRANCH  19  20
ATOM     20  C   UNL     1      53.598  24.412  50.819  1.00  0.00     0.000 C 
BRANCH  20  21
ATOM     21  C   UNL     1      53.128  25.650  50.033  1.00  0.00     0.000 C 
BRANCH  21  22
ATOM     22  C   UNL     1      54.204  26.746  49.942  1.00  0.00    -0.000 C 
BRANCH  22  23
ATOM     23  C   UNL     1      53.649  28.143  50.261  1.00  0.00    -0.000 C 
BRANCH  23  24
ATOM     24  C   UNL     1      54.527  28.910  51.267  1.00  0.00    -0.000 C 
BRANCH  24  25
ATOM     25  C   UNL     1      53.832  29.131  52.620  1.00  0.00    -0.000 C 
BRANCH  25  26
ATOM     26  C   UNL     1      54.743  29.829  53.645  1.00  0.00    -0.000 C 
BRANCH  26  27
ATOM     27  C   UNL     1      56.224  29.836  53.222  1.00  0.00    -0.000 C 
BRANCH  27  28
ATOM     28  C   UNL     1      57.229  30.057  54.368  1.00  0.00    -0.000 C 
BRANCH  28  29
ATOM     29  C   UNL     1      58.128  31.282  54.147  1.00  0.00    -0.003 C 
ATOM     30  C   UNL     1      57.296  32.546  53.946  1.00  0.00     0.004 C 
ENDBRANCH  28  29
ENDBRANCH  27  28
ENDBRANCH  26  27
ENDBRANCH  25  26
ENDBRANCH  24  25
ENDBRANCH  23  24
ENDBRANCH  22  23
ENDBRANCH  21  22
ENDBRANCH  20  21
ENDBRANCH  19  20
ENDBRANCH  18  19
ENDBRANCH  17  18
ENDBRANCH   1  17
TORSDOF 26
ENDMDL
MODEL 6
REMARK VINA RESULT:    -2.562      1.614      3.251
REMARK INTER + INTRA:         -12.543
REMARK INTER:                  -7.227
REMARK INTRA:                  -5.316
REMARK UNBOUND:                -6.087
REMARK SMILES CCCCCCCCCCCCCCCCCCCCCCCCCCCC(=O)[O-]
REMARK SMILES IDX 15 1 16 2 17 3 18 4 19 5 20 6 21 7 22 8 23 9 24 10 25 11
REMARK SMILES IDX 26 12 27 13 28 14 29 15 30 16 14 17 13 18 12 19 11 20 10 21
REMARK SMILES IDX 9 22 8 23 7 24 6 25 5 26 4 27 3 28 2 29 1 30
REMARK H PARENT
REMARK Flexibility Score: inf
ROOT
ATOM      1  C   UNL     1      56.275  25.597  50.377  1.00  0.00     0.000 C 
ENDROOT
BRANCH   1   2
ATOM      2  C   UNL     1      56.560  26.231  51.756  1.00  0.00     0.000 C 
BRANCH   2   3
ATOM      3  C   UNL     1      57.607  27.361  51.723  1.00  0.00     0.000 C 
BRANCH   3   4
ATOM      4  C   UNL     1      57.585  28.242  50.458  1.00  0.00     0.000 C 
BRANCH   4   5
ATOM      5  C   UNL     1      58.867  28.180  49.604  1.00  0.00     0.000 C 
BRANCH   5   6
ATOM      6  C   UNL     1      60.092  28.766  50.321  1.00  0.00     0.000 C 
BRANCH   6   7
ATOM      7  C   UNL     1      61.226  27.733  50.393  1.00  0.00     0.000 C 
BRANCH   7   8
ATOM      8  C   UNL     1      61.377  27.112  51.795  1.00  0.00     0.000 C 
BRANCH   8   9
ATOM      9  C   UNL     1      62.456  26.017  51.898  1.00  0.00     0.000 C 
BRANCH   9  10
ATOM     10  C   UNL     1      62.533  25.055  50.695  1.00  0.00     0.000 C 
BRANCH  10  11
ATOM     11  C   UNL     1      62.014  23.633  50.999  1.00  0.00     0.000 C 
BRANCH  11  12
ATOM     12  C   UNL     1      60.717  23.309  50.235  1.00  0.00     0.006 C 
BRANCH  12  13
ATOM     13  C   UNL     1      59.499  24.033  50.821  1.00  0.00     0.053 C 
BRANCH  13  14
ATOM     14  C   UNL     1      59.251  23.649  52.248  1.00  0.00     0.041 C 
ATOM     15  O   UNL     1      59.340  24.510  53.164  1.00  0.00    -0.550 OA
ATOM     16  O   UNL     1      58.903  22.342  52.566  1.00  0.00    -0.550 OA
ENDBRANCH  13  14
ENDBRANCH  12  13
ENDBRANCH  11  12
ENDBRANCH  10  11
ENDBRANCH   9  10
ENDBRANCH   8   9
ENDBRANCH   7   8
ENDBRANCH   6   7
ENDBRANCH   5   6
ENDBRANCH   4   5
ENDBRANCH   3   4
ENDBRANCH   2   3
ENDBRANCH   1   2
BRANCH   1  17
ATOM     17  C   UNL     1      54.788  25.671  49.991  1.00  0.00     0.000 C 
BRANCH  17  18
ATOM     18  C   UNL     1      53.991  26.626  50.895  1.00  0.00     0.000 C 
BRANCH  18  19
ATOM     19  C   UNL     1      53.409  27.820  50.119  1.00  0.00     0.000 C 
BRANCH  19  20
ATOM     20  C   UNL     1      54.065  29.160  50.498  1.00  0.00     0.000 C 
BRANCH  20  21
ATOM     21  C   UNL     1      53.731  29.674  51.910  1.00  0.00     0.000 C 
BRANCH  21  22
ATOM     22  C   UNL     1      54.964  29.752  52.827  1.00  0.00    -0.000 C 
BRANCH  22  23
ATOM     23  C   UNL     1      54.950  28.677  53.925  1.00  0.00    -0.000 C 
BRANCH  23  24
ATOM     24  C   UNL     1      55.615  29.156  55.228  1.00  0.00    -0.000 C 
BRANCH  24  25
ATOM     25  C   UNL     1      56.457  28.064  55.907  1.00  0.00    -0.000 C 
BRANCH  25  26
ATOM     26  C   UNL     1      57.960  28.393  55.910  1.00  0.00    -0.000 C 
BRANCH  26  27
ATOM     27  C   UNL     1      58.275  29.756  55.264  1.00  0.00    -0.000 C 
BRANCH  27  28
ATOM     28  C   UNL     1      59.047  29.684  53.934  1.00  0.00    -0.000 C 
BRANCH  28  29
ATOM     29  C   UNL     1      58.827  30.919  53.047  1.00  0.00    -0.003 C 
ATOM     30  C   UNL     1      57.818  31.876  53.677  1.00  0.00     0.004 C 
ENDBRANCH  28  29
ENDBRANCH  27  28
ENDBRANCH  26  27
ENDBRANCH  25  26
ENDBRANCH  24  25
ENDBRANCH  23  24
ENDBRANCH  22  23
ENDBRANCH  21  22
ENDBRANCH  20  21
ENDBRANCH  19  20
ENDBRANCH  18  19
ENDBRANCH  17  18
ENDBRANCH   1  17
TORSDOF 26
ENDMDL
MODEL 7
REMARK VINA RESULT:    -2.561      7.924     11.365
REMARK INTER + INTRA:         -12.541
REMARK INTER:                  -7.505
REMARK INTRA:                  -5.036
REMARK UNBOUND:                -6.087
REMARK SMILES CCCCCCCCCCCCCCCCCCCCCCCCCCCC(=O)[O-]
REMARK SMILES IDX 15 1 16 2 17 3 18 4 19 5 20 6 21 7 22 8 23 9 24 10 25 11
REMARK SMILES IDX 26 12 27 13 28 14 29 15 30 16 14 17 13 18 12 19 11 20 10 21
REMARK SMILES IDX 9 22 8 23 7 24 6 25 5 26 4 27 3 28 2 29 1 30
REMARK H PARENT
REMARK Flexibility Score: inf
ROOT
ATOM      1  C   UNL     1      61.293  31.479  61.288  1.00  0.00     0.000 C 
ENDROOT
BRANCH   1   2
ATOM      2  C   UNL     1      61.878  30.157  61.832  1.00  0.00     0.000 C 
BRANCH   2   3
ATOM      3  C   UNL     1      61.256  28.892  61.207  1.00  0.00     0.000 C 
BRANCH   3   4
ATOM      4  C   UNL     1      62.241  27.738  60.937  1.00  0.00     0.000 C 
BRANCH   4   5
ATOM      5  C   UNL     1      62.075  27.055  59.566  1.00  0.00     0.000 C 
BRANCH   5   6
ATOM      6  C   UNL     1      61.716  28.042  58.445  1.00  0.00     0.000 C 
BRANCH   6   7
ATOM      7  C   UNL     1      60.300  27.771  57.916  1.00  0.00     0.000 C 
BRANCH   7   8
ATOM      8  C   UNL     1      59.765  26.387  58.330  1.00  0.00     0.000 C 
BRANCH   8   9
ATOM      9  C   UNL     1      58.387  26.413  59.019  1.00  0.00     0.000 C 
BRANCH   9  10
ATOM     10  C   UNL     1      58.316  27.242  60.319  1.00  0.00     0.000 C 
BRANCH  10  11
ATOM     11  C   UNL     1      58.335  26.388  61.604  1.00  0.00     0.000 C 
BRANCH  11  12
ATOM     12  C   UNL     1      59.413  25.289  61.561  1.00  0.00     0.006 C 
BRANCH  12  13
ATOM     13  C   UNL     1      60.216  25.210  62.865  1.00  0.00     0.053 C 
BRANCH  13  14
ATOM     14  C   UNL     1      61.504  24.464  62.686  1.00  0.00     0.041 C 
ATOM     15  O   UNL     1      62.584  24.947  63.120  1.00  0.00    -0.550 OA
ATOM     16  O   UNL     1      61.509  23.227  62.055  1.00  0.00    -0.550 OA
ENDBRANCH  13  14
ENDBRANCH  12  13
ENDBRANCH  11  12
ENDBRANCH  10  11
ENDBRANCH   9  10
ENDBRANCH   8   9
ENDBRANCH   7   8
ENDBRANCH   6   7
ENDBRANCH   5   6
ENDBRANCH   4   5
ENDBRANCH   3   4
ENDBRANCH   2   3
ENDBRANCH   1   2
BRANCH   1  17
ATOM     17  C   UNL     1      60.999  31.415  59.779  1.00  0.00     0.000 C 
BRANCH  17  18
ATOM     18  C   UNL     1      60.700  32.799  59.179  1.00  0.00     0.000 C 
BRANCH  18  19
ATOM     19  C   UNL     1      60.471  33.870  60.258  1.00  0.00     0.000 C 
BRANCH  19  20
ATOM     20  C   UNL     1      61.307  35.143  60.028  1.00  0.00     0.000 C 
BRANCH  20  21
ATOM     21  C   UNL     1      62.264  35.512  61.175  1.00  0.00     0.000 C 
BRANCH  21  22
ATOM     22  C   UNL     1      63.746  35.325  60.803  1.00  0.00    -0.000 C 
BRANCH  22  23
ATOM     23  C   UNL     1      64.261  33.914  61.130  1.00  0.00    -0.000 C 
BRANCH  23  24
ATOM     24  C   UNL     1      64.413  33.037  59.874  1.00  0.00    -0.000 C 
BRANCH  24  25
ATOM     25  C   UNL     1      64.760  31.576  60.203  1.00  0.00    -0.000 C 
BRANCH  25  26
ATOM     26  C   UNL     1      64.460  30.620  59.036  1.00  0.00    -0.000 C 
BRANCH  26  27
ATOM     27  C   UNL     1      65.115  29.237  59.211  1.00  0.00    -0.000 C 
BRANCH  27  28
ATOM     28  C   UNL     1      66.322  29.203  60.167  1.00  0.00    -0.000 C 
BRANCH  28  29
ATOM     29  C   UNL     1      66.741  27.776  60.552  1.00  0.00    -0.003 C 
ATOM     30  C   UNL     1      65.762  26.746  59.994  1.00  0.00     0.004 C 
ENDBRANCH  28  29
ENDBRANCH  27  28
ENDBRANCH  26  27
ENDBRANCH  25  26
ENDBRANCH  24  25
ENDBRANCH  23  24
ENDBRANCH  22  23
ENDBRANCH  21  22
ENDBRANCH  20  21
ENDBRANCH  19  20
ENDBRANCH  18  19
ENDBRANCH  17  18
ENDBRANCH   1  17
TORSDOF 26
ENDMDL
MODEL 8
REMARK VINA RESULT:    -2.541      3.326      5.580
REMARK INTER + INTRA:         -12.491
REMARK INTER:                  -6.837
REMARK INTRA:                  -5.654
REMARK UNBOUND:                -6.087
REMARK SMILES CCCCCCCCCCCCCCCCCCCCCCCCCCCC(=O)[O-]
REMARK SMILES IDX 15 1 16 2 17 3 18 4 19 5 20 6 21 7 22 8 23 9 24 10 25 11
REMARK SMILES IDX 26 12 27 13 28 14 29 15 30 16 14 17 13 18 12 19 11 20 10 21
REMARK SMILES IDX 9 22 8 23 7 24 6 25 5 26 4 27 3 28 2 29 1 30
REMARK H PARENT
REMARK Flexibility Score: inf
ROOT
ATOM      1  C   UNL     1      60.411  25.704  51.056  1.00  0.00     0.000 C 
ENDROOT
BRANCH   1   2
ATOM      2  C   UNL     1      60.589  27.082  50.383  1.00  0.00     0.000 C 
BRANCH   2   3
ATOM      3  C   UNL     1      59.412  27.494  49.477  1.00  0.00     0.000 C 
BRANCH   3   4
ATOM      4  C   UNL     1      58.519  28.622  50.030  1.00  0.00     0.000 C 
BRANCH   4   5
ATOM      5  C   UNL     1      58.868  29.082  51.459  1.00  0.00     0.000 C 
BRANCH   5   6
ATOM      6  C   UNL     1      57.653  29.088  52.398  1.00  0.00     0.000 C 
BRANCH   6   7
ATOM      7  C   UNL     1      58.084  28.809  53.846  1.00  0.00     0.000 C 
BRANCH   7   8
ATOM      8  C   UNL     1      57.192  27.763  54.541  1.00  0.00     0.000 C 
BRANCH   8   9
ATOM      9  C   UNL     1      55.745  27.702  54.013  1.00  0.00     0.000 C 
BRANCH   9  10
ATOM     10  C   UNL     1      54.721  27.061  54.972  1.00  0.00     0.000 C 
BRANCH  10  11
ATOM     11  C   UNL     1      53.814  28.082  55.689  1.00  0.00     0.000 C 
BRANCH  11  12
ATOM     12  C   UNL     1      54.314  28.415  57.107  1.00  0.00     0.006 C 
BRANCH  12  13
ATOM     13  C   UNL     1      55.079  29.742  57.158  1.00  0.00     0.053 C 
BRANCH  13  14
ATOM     14  C   UNL     1      56.460  29.573  57.715  1.00  0.00     0.041 C 
ATOM     15  O   UNL     1      56.850  28.444  58.117  1.00  0.00    -0.550 OA
ATOM     16  O   UNL     1      57.324  30.660  57.775  1.00  0.00    -0.550 OA
ENDBRANCH  13  14
ENDBRANCH  12  13
ENDBRANCH  11  12
ENDBRANCH  10  11
ENDBRANCH   9  10
ENDBRANCH   8   9
ENDBRANCH   7   8
ENDBRANCH   6   7
ENDBRANCH   5   6
ENDBRANCH   4   5
ENDBRANCH   3   4
ENDBRANCH   2   3
ENDBRANCH   1   2
BRANCH   1  17
ATOM     17  C   UNL     1      59.015  25.105  50.810  1.00  0.00     0.000 C 
BRANCH  17  18
ATOM     18  C   UNL     1      58.130  25.138  52.068  1.00  0.00     0.000 C 
BRANCH  18  19
ATOM     19  C   UNL     1      56.631  25.071  51.732  1.00  0.00     0.000 C 
BRANCH  19  20
ATOM     20  C   UNL     1      56.304  25.618  50.330  1.00  0.00     0.000 C 
BRANCH  20  21
ATOM     21  C   UNL     1      54.806  25.666  49.981  1.00  0.00     0.000 C 
BRANCH  21  22
ATOM     22  C   UNL     1      54.069  26.834  50.660  1.00  0.00    -0.000 C 
BRANCH  22  23
ATOM     23  C   UNL     1      54.834  28.161  50.542  1.00  0.00    -0.000 C 
BRANCH  23  24
ATOM     24  C   UNL     1      53.910  29.387  50.661  1.00  0.00    -0.000 C 
BRANCH  24  25
ATOM     25  C   UNL     1      53.139  29.427  51.991  1.00  0.00    -0.000 C 
BRANCH  25  26
ATOM     26  C   UNL     1      53.120  30.831  52.620  1.00  0.00    -0.000 C 
BRANCH  26  27
ATOM     27  C   UNL     1      54.167  31.000  53.738  1.00  0.00    -0.000 C 
BRANCH  27  28
ATOM     28  C   UNL     1      55.388  31.860  53.362  1.00  0.00    -0.000 C 
BRANCH  28  29
ATOM     29  C   UNL     1      56.360  32.063  54.535  1.00  0.00    -0.003 C 
ATOM     30  C   UNL     1      55.784  33.032  55.565  1.00  0.00     0.004 C 
ENDBRANCH  28  29
ENDBRANCH  27  28
ENDBRANCH  26  27
ENDBRANCH  25  26
ENDBRANCH  24  25
ENDBRANCH  23  24
ENDBRANCH  22  23
ENDBRANCH  21  22
ENDBRANCH  20  21
ENDBRANCH  19  20
ENDBRANCH  18  19
ENDBRANCH  17  18
ENDBRANCH   1  17
TORSDOF 26
ENDMDL
MODEL 9
REMARK VINA RESULT:    -2.504      3.794      7.233
REMARK INTER + INTRA:         -12.397
REMARK INTER:                  -6.839
REMARK INTRA:                  -5.559
REMARK UNBOUND:                -6.087
REMARK SMILES CCCCCCCCCCCCCCCCCCCCCCCCCCCC(=O)[O-]
REMARK SMILES IDX 15 1 16 2 17 3 18 4 19 5 20 6 21 7 22 8 23 9 24 10 25 11
REMARK SMILES IDX 26 12 27 13 28 14 29 15 30 16 14 17 13 18 12 19 11 20 10 21
REMARK SMILES IDX 9 22 8 23 7 24 6 25 5 26 4 27 3 28 2 29 1 30
REMARK H PARENT
REMARK Flexibility Score: inf
ROOT
ATOM      1  C   UNL     1      54.416  25.194  49.653  1.00  0.00     0.000 C 
ENDROOT
BRANCH   1   2
ATOM      2  C   UNL     1      53.236  26.190  49.644  1.00  0.00     0.000 C 
BRANCH   2   3
ATOM      3  C   UNL     1      53.246  27.187  50.820  1.00  0.00     0.000 C 
BRANCH   3   4
ATOM      4  C   UNL     1      53.622  28.635  50.452  1.00  0.00     0.000 C 
BRANCH   4   5
ATOM      5  C   UNL     1      54.574  29.329  51.445  1.00  0.00     0.000 C 
BRANCH   5   6
ATOM      6  C   UNL     1      53.896  30.463  52.230  1.00  0.00     0.000 C 
BRANCH   6   7
ATOM      7  C   UNL     1      54.509  30.595  53.632  1.00  0.00     0.000 C 
BRANCH   7   8
ATOM      8  C   UNL     1      55.900  31.255  53.613  1.00  0.00     0.000 C 
BRANCH   8   9
ATOM      9  C   UNL     1      56.459  31.611  55.004  1.00  0.00     0.000 C 
BRANCH   9  10
ATOM     10  C   UNL     1      55.721  30.966  56.194  1.00  0.00     0.000 C 
BRANCH  10  11
ATOM     11  C   UNL     1      56.479  29.781  56.830  1.00  0.00     0.000 C 
BRANCH  11  12
ATOM     12  C   UNL     1      58.007  29.945  56.732  1.00  0.00     0.006 C 
BRANCH  12  13
ATOM     13  C   UNL     1      58.643  30.301  58.081  1.00  0.00     0.053 C 
BRANCH  13  14
ATOM     14  C   UNL     1      59.048  31.742  58.147  1.00  0.00     0.041 C 
ATOM     15  O   UNL     1      58.173  32.649  58.177  1.00  0.00    -0.550 OA
ATOM     16  O   UNL     1      60.394  32.084  58.193  1.00  0.00    -0.550 OA
ENDBRANCH  13  14
ENDBRANCH  12  13
ENDBRANCH  11  12
ENDBRANCH  10  11
ENDBRANCH   9  10
ENDBRANCH   8   9
ENDBRANCH   7   8
ENDBRANCH   6   7
ENDBRANCH   5   6
ENDBRANCH   4   5
ENDBRANCH   3   4
ENDBRANCH   2   3
ENDBRANCH   1   2
BRANCH   1  17
ATOM     17  C   UNL     1      55.374  25.429  50.834  1.00  0.00     0.000 C 
BRANCH  17  18
ATOM     18  C   UNL     1      56.785  25.836  50.376  1.00  0.00     0.000 C 
BRANCH  18  19
ATOM     19  C   UNL     1      57.883  24.979  51.027  1.00  0.00     0.000 C 
BRANCH  19  20
ATOM     20  C   UNL     1      59.298  25.351  50.548  1.00  0.00     0.000 C 
BRANCH  20  21
ATOM     21  C   UNL     1      59.367  26.548  49.583  1.00  0.00     0.000 C 
BRANCH  21  22
ATOM     22  C   UNL     1      59.883  27.832  50.257  1.00  0.00    -0.000 C 
BRANCH  22  23
ATOM     23  C   UNL     1      58.814  28.934  50.321  1.00  0.00    -0.000 C 
BRANCH  23  24
ATOM     24  C   UNL     1      58.304  29.178  51.753  1.00  0.00    -0.000 C 
BRANCH  24  25
ATOM     25  C   UNL     1      59.189  28.519  52.823  1.00  0.00    -0.000 C 
BRANCH  25  26
ATOM     26  C   UNL     1      58.398  27.574  53.744  1.00  0.00    -0.000 C 
BRANCH  26  27
ATOM     27  C   UNL     1      56.877  27.637  53.503  1.00  0.00    -0.000 C 
BRANCH  27  28
ATOM     28  C   UNL     1      56.011  27.090  54.652  1.00  0.00    -0.000 C 
BRANCH  28  29
ATOM     29  C   UNL     1      54.665  26.526  54.171  1.00  0.00    -0.003 C 
ATOM     30  C   UNL     1      53.498  27.327  54.741  1.00  0.00     0.004 C 
ENDBRANCH  28  29
ENDBRANCH  27  28
ENDBRANCH  26  27
ENDBRANCH  25  26
ENDBRANCH  24  25
ENDBRANCH  23  24
ENDBRANCH  22  23
ENDBRANCH  21  22
ENDBRANCH  20  21
ENDBRANCH  19  20
ENDBRANCH  18  19
ENDBRANCH  17  18
ENDBRANCH   1  17
TORSDOF 26
ENDMDL
