MODEL 1
REMARK VINA RESULT:    -4.141      0.000      0.000
REMARK INTER + INTRA:          -5.985
REMARK INTER:                  -5.594
REMARK INTRA:                  -0.391
REMARK UNBOUND:                -0.391
REMARK SMILES [NH3+]CCCC[C@H]([NH3+])C(=O)[O-]
REMARK SMILES IDX 4 1 3 2 2 3 1 4 5 8 6 9 7 10 8 14 9 15 10 16
REMARK H PARENT 1 5 1 6 1 7 7 11 7 12 7 13
REMARK Flexibility Score: inf
ROOT
ATOM      1  C   UNL     1      51.298  32.369  59.585  1.00  0.00     0.012 C 
ENDROOT
BRANCH   1   2
ATOM      2  C   UNL     1      50.516  33.665  59.832  1.00  0.00     0.061 C 
BRANCH   2   3
ATOM      3  C   UNL     1      49.200  33.383  60.570  1.00  0.00     0.258 C 
BRANCH   3   4
ATOM      4  N   UNL     1      49.413  33.325  62.015  1.00  0.00    -0.358 N 
ATOM      5  H   UNL     1      49.377  34.294  62.406  1.00  0.00     0.344 HD
ATOM      6  H   UNL     1      50.351  32.911  62.223  1.00  0.00     0.344 HD
ATOM      7  H   UNL     1      48.665  32.750  62.467  1.00  0.00     0.344 HD
ENDBRANCH   3   4
ENDBRANCH   2   3
ENDBRANCH   1   2
BRANCH   1   8
ATOM      8  C   UNL     1      52.556  32.309  60.464  1.00  0.00     0.072 C 
BRANCH   8   9
ATOM      9  C   UNL     1      52.342  31.456  61.734  1.00  0.00     0.227 C 
BRANCH   9  10
ATOM     10  N   UNL     1      53.628  30.969  62.248  1.00  0.00    -0.350 N 
ATOM     11  H   UNL     1      54.036  30.251  61.603  1.00  0.00     0.345 HD
ATOM     12  H   UNL     1      53.495  30.544  63.195  1.00  0.00     0.345 HD
ATOM     13  H   UNL     1      54.298  31.767  62.339  1.00  0.00     0.345 HD
ENDBRANCH   9  10
BRANCH   9  14
ATOM     14  C   UNL     1      51.419  30.296  61.462  1.00  0.00     0.099 C 
ATOM     15  O   UNL     1      50.262  30.270  61.960  1.00  0.00    -0.544 OA
ATOM     16  O   UNL     1      51.847  29.241  60.666  1.00  0.00    -0.544 OA
ENDBRANCH   9  14
ENDBRANCH   8   9
ENDBRANCH   1   8
TORSDOF 7
ENDMDL
MODEL 2
REMARK VINA RESULT:    -4.093      1.509      1.796
REMARK INTER + INTRA:          -5.920
REMARK INTER:                  -5.524
REMARK INTRA:                  -0.395
REMARK UNBOUND:                -0.391
REMARK SMILES [NH3+]CCCC[C@H]([NH3+])C(=O)[O-]
REMARK SMILES IDX 4 1 3 2 2 3 1 4 5 8 6 9 7 10 8 14 9 15 10 16
REMARK H PARENT 1 5 1 6 1 7 7 11 7 12 7 13
REMARK Flexibility Score: inf
ROOT
ATOM      1  C   UNL     1      52.030  32.579  60.090  1.00  0.00     0.012 C 
ENDROOT
BRANCH   1   2
ATOM      2  C   UNL     1      50.736  32.758  59.286  1.00  0.00     0.061 C 
BRANCH   2   3
ATOM      3  C   UNL     1      49.898  33.918  59.841  1.00  0.00     0.258 C 
BRANCH   3   4
ATOM      4  N   UNL     1      49.392  33.605  61.177  1.00  0.00    -0.358 N 
ATOM      5  H   UNL     1      48.687  32.836  61.103  1.00  0.00     0.344 HD
ATOM      6  H   UNL     1      48.932  34.448  61.592  1.00  0.00     0.344 HD
ATOM      7  H   UNL     1      50.175  33.289  61.794  1.00  0.00     0.344 HD
ENDBRANCH   3   4
ENDBRANCH   2   3
ENDBRANCH   1   2
BRANCH   1   8
ATOM      8  C   UNL     1      52.042  31.228  60.821  1.00  0.00     0.072 C 
BRANCH   8   9
ATOM      9  C   UNL     1      52.665  31.331  62.230  1.00  0.00     0.227 C 
BRANCH   9  10
ATOM     10  N   UNL     1      53.628  30.244  62.447  1.00  0.00    -0.350 N 
ATOM     11  H   UNL     1      53.587  29.551  61.663  1.00  0.00     0.345 HD
ATOM     12  H   UNL     1      53.418  29.757  63.349  1.00  0.00     0.345 HD
ATOM     13  H   UNL     1      54.596  30.636  62.505  1.00  0.00     0.345 HD
ENDBRANCH   9  10
BRANCH   9  14
ATOM     14  C   UNL     1      51.603  31.303  63.299  1.00  0.00     0.099 C 
ATOM     15  O   UNL     1      50.423  31.658  63.036  1.00  0.00    -0.544 OA
ATOM     16  O   UNL     1      51.925  30.895  64.587  1.00  0.00    -0.544 OA
ENDBRANCH   9  14
ENDBRANCH   8   9
ENDBRANCH   1   8
TORSDOF 7
ENDMDL
MODEL 3
REMARK VINA RESULT:    -3.959      2.511      4.318
REMARK INTER + INTRA:          -5.739
REMARK INTER:                  -5.509
REMARK INTRA:                  -0.230
REMARK UNBOUND:                -0.391
REMARK SMILES [NH3+]CCCC[C@H]([NH3+])C(=O)[O-]
REMARK SMILES IDX 4 1 3 2 2 3 1 4 5 8 6 9 7 10 8 14 9 15 10 16
REMARK H PARENT 1 5 1 6 1 7 7 11 7 12 7 13
REMARK Flexibility Score: inf
ROOT
ATOM      1  C   UNL     1      51.259  31.115  59.838  1.00  0.00     0.012 C 
ENDROOT
BRANCH   1   2
ATOM      2  C   UNL     1      51.731  30.329  61.067  1.00  0.00     0.061 C 
BRANCH   2   3
ATOM      3  C   UNL     1      52.850  31.078  61.804  1.00  0.00     0.258 C 
BRANCH   3   4
ATOM      4  N   UNL     1      53.779  30.141  62.436  1.00  0.00    -0.358 N 
ATOM      5  H   UNL     1      54.739  30.556  62.432  1.00  0.00     0.344 HD
ATOM      6  H   UNL     1      53.796  29.241  61.904  1.00  0.00     0.344 HD
ATOM      7  H   UNL     1      53.492  29.962  63.426  1.00  0.00     0.344 HD
ENDBRANCH   3   4
ENDBRANCH   2   3
ENDBRANCH   1   2
BRANCH   1   8
ATOM      8  C   UNL     1      51.787  32.557  59.870  1.00  0.00     0.072 C 
BRANCH   8   9
ATOM      9  C   UNL     1      50.646  33.598  59.848  1.00  0.00     0.227 C 
BRANCH   9  10
ATOM     10  N   UNL     1      49.722  33.371  60.966  1.00  0.00    -0.350 N 
ATOM     11  H   UNL     1      50.251  33.213  61.856  1.00  0.00     0.345 HD
ATOM     12  H   UNL     1      49.123  32.536  60.768  1.00  0.00     0.345 HD
ATOM     13  H   UNL     1      49.098  34.201  61.083  1.00  0.00     0.345 HD
ENDBRANCH   9  10
BRANCH   9  14
ATOM     14  C   UNL     1      49.897  33.558  58.540  1.00  0.00     0.099 C 
ATOM     15  O   UNL     1      50.515  33.666  57.447  1.00  0.00    -0.544 OA
ATOM     16  O   UNL     1      48.516  33.412  58.536  1.00  0.00    -0.544 OA
ENDBRANCH   9  14
ENDBRANCH   8   9
ENDBRANCH   1   8
TORSDOF 7
ENDMDL
MODEL 4
REMARK VINA RESULT:    -3.870      6.971      8.156
REMARK INTER + INTRA:          -5.618
REMARK INTER:                  -5.115
REMARK INTRA:                  -0.503
REMARK UNBOUND:                -0.391
REMARK SMILES [NH3+]CCCC[C@H]([NH3+])C(=O)[O-]
REMARK SMILES IDX 4 1 3 2 2 3 1 4 5 8 6 9 7 10 8 14 9 15 10 16
REMARK H PARENT 1 5 1 6 1 7 7 11 7 12 7 13
REMARK Flexibility Score: inf
ROOT
ATOM      1  C   UNL     1      49.265  33.676  67.362  1.00  0.00     0.012 C 
ENDROOT
BRANCH   1   2
ATOM      2  C   UNL     1      49.957  32.533  66.610  1.00  0.00     0.061 C 
BRANCH   2   3
ATOM      3  C   UNL     1      50.680  31.591  67.583  1.00  0.00     0.258 C 
BRANCH   3   4
ATOM      4  N   UNL     1      49.791  31.179  68.669  1.00  0.00    -0.358 N 
ATOM      5  H   UNL     1      48.913  30.784  68.262  1.00  0.00     0.344 HD
ATOM      6  H   UNL     1      49.547  32.004  69.264  1.00  0.00     0.344 HD
ATOM      7  H   UNL     1      50.254  30.445  69.254  1.00  0.00     0.344 HD
ENDBRANCH   3   4
ENDBRANCH   2   3
ENDBRANCH   1   2
BRANCH   1   8
ATOM      8  C   UNL     1      47.874  33.960  66.774  1.00  0.00     0.072 C 
BRANCH   8   9
ATOM      9  C   UNL     1      46.743  33.674  67.785  1.00  0.00     0.227 C 
BRANCH   9  10
ATOM     10  N   UNL     1      47.128  34.125  69.128  1.00  0.00    -0.350 N 
ATOM     11  H   UNL     1      46.984  35.158  69.227  1.00  0.00     0.345 HD
ATOM     12  H   UNL     1      48.134  33.899  69.305  1.00  0.00     0.345 HD
ATOM     13  H   UNL     1      46.551  33.630  69.847  1.00  0.00     0.345 HD
ENDBRANCH   9  10
BRANCH   9  14
ATOM     14  C   UNL     1      46.393  32.208  67.811  1.00  0.00     0.099 C 
ATOM     15  O   UNL     1      46.797  31.471  68.750  1.00  0.00    -0.544 OA
ATOM     16  O   UNL     1      45.629  31.658  66.789  1.00  0.00    -0.544 OA
ENDBRANCH   9  14
ENDBRANCH   8   9
ENDBRANCH   1   8
TORSDOF 7
ENDMDL
MODEL 5
REMARK VINA RESULT:    -3.869      6.725      7.826
REMARK INTER + INTRA:          -5.616
REMARK INTER:                  -5.141
REMARK INTRA:                  -0.476
REMARK UNBOUND:                -0.391
REMARK SMILES [NH3+]CCCC[C@H]([NH3+])C(=O)[O-]
REMARK SMILES IDX 4 1 3 2 2 3 1 4 5 8 6 9 7 10 8 14 9 15 10 16
REMARK H PARENT 1 5 1 6 1 7 7 11 7 12 7 13
REMARK Flexibility Score: inf
ROOT
ATOM      1  C   UNL     1      48.499  31.403  65.916  1.00  0.00     0.012 C 
ENDROOT
BRANCH   1   2
ATOM      2  C   UNL     1      49.416  32.631  65.852  1.00  0.00     0.061 C 
BRANCH   2   3
ATOM      3  C   UNL     1      49.970  32.980  67.240  1.00  0.00     0.258 C 
BRANCH   3   4
ATOM      4  N   UNL     1      49.827  31.850  68.158  1.00  0.00    -0.358 N 
ATOM      5  H   UNL     1      50.489  31.092  67.874  1.00  0.00     0.344 HD
ATOM      6  H   UNL     1      48.850  31.479  68.120  1.00  0.00     0.344 HD
ATOM      7  H   UNL     1      50.055  32.150  69.135  1.00  0.00     0.344 HD
ENDBRANCH   3   4
ENDBRANCH   2   3
ENDBRANCH   1   2
BRANCH   1   8
ATOM      8  C   UNL     1      47.095  31.735  65.388  1.00  0.00     0.072 C 
BRANCH   8   9
ATOM      9  C   UNL     1      46.000  31.498  66.451  1.00  0.00     0.227 C 
BRANCH   9  10
ATOM     10  N   UNL     1      44.682  31.866  65.921  1.00  0.00    -0.350 N 
ATOM     11  H   UNL     1      44.712  32.815  65.479  1.00  0.00     0.345 HD
ATOM     12  H   UNL     1      43.975  31.867  66.693  1.00  0.00     0.345 HD
ATOM     13  H   UNL     1      44.381  31.166  65.204  1.00  0.00     0.345 HD
ENDBRANCH   9  10
BRANCH   9  14
ATOM     14  C   UNL     1      46.287  32.274  67.711  1.00  0.00     0.099 C 
ATOM     15  O   UNL     1      46.042  33.508  67.771  1.00  0.00    -0.544 OA
ATOM     16  O   UNL     1      46.834  31.629  68.813  1.00  0.00    -0.544 OA
ENDBRANCH   9  14
ENDBRANCH   8   9
ENDBRANCH   1   8
TORSDOF 7
ENDMDL
MODEL 6
REMARK VINA RESULT:    -3.824      2.658      3.417
REMARK INTER + INTRA:          -5.556
REMARK INTER:                  -5.042
REMARK INTRA:                  -0.514
REMARK UNBOUND:                -0.391
REMARK SMILES [NH3+]CCCC[C@H]([NH3+])C(=O)[O-]
REMARK SMILES IDX 4 1 3 2 2 3 1 4 5 8 6 9 7 10 8 14 9 15 10 16
REMARK H PARENT 1 5 1 6 1 7 7 11 7 12 7 13
REMARK Flexibility Score: inf
ROOT
ATOM      1  C   UNL     1      49.750  31.901  62.636  1.00  0.00     0.012 C 
ENDROOT
BRANCH   1   2
ATOM      2  C   UNL     1      50.170  32.710  63.869  1.00  0.00     0.061 C 
BRANCH   2   3
ATOM      3  C   UNL     1      51.173  31.927  64.728  1.00  0.00     0.258 C 
BRANCH   3   4
ATOM      4  N   UNL     1      52.425  32.667  64.876  1.00  0.00    -0.358 N 
ATOM      5  H   UNL     1      53.000  32.542  64.011  1.00  0.00     0.344 HD
ATOM      6  H   UNL     1      52.963  32.302  65.695  1.00  0.00     0.344 HD
ATOM      7  H   UNL     1      52.228  33.686  65.007  1.00  0.00     0.344 HD
ENDBRANCH   3   4
ENDBRANCH   2   3
ENDBRANCH   1   2
BRANCH   1   8
ATOM      8  C   UNL     1      50.580  30.614  62.514  1.00  0.00     0.072 C 
BRANCH   8   9
ATOM      9  C   UNL     1      51.360  30.546  61.183  1.00  0.00     0.227 C 
BRANCH   9  10
ATOM     10  N   UNL     1      51.955  29.216  61.002  1.00  0.00    -0.350 N 
ATOM     11  H   UNL     1      52.519  28.946  61.842  1.00  0.00     0.345 HD
ATOM     12  H   UNL     1      52.572  29.214  60.157  1.00  0.00     0.345 HD
ATOM     13  H   UNL     1      51.199  28.508  60.857  1.00  0.00     0.345 HD
ENDBRANCH   9  10
BRANCH   9  14
ATOM     14  C   UNL     1      52.432  31.605  61.124  1.00  0.00     0.099 C 
ATOM     15  O   UNL     1      53.362  31.620  61.974  1.00  0.00    -0.544 OA
ATOM     16  O   UNL     1      52.391  32.579  60.135  1.00  0.00    -0.544 OA
ENDBRANCH   9  14
ENDBRANCH   8   9
ENDBRANCH   1   8
TORSDOF 7
ENDMDL
MODEL 7
REMARK VINA RESULT:    -3.765      6.573      7.707
REMARK INTER + INTRA:          -5.476
REMARK INTER:                  -5.218
REMARK INTRA:                  -0.258
REMARK UNBOUND:                -0.391
REMARK SMILES [NH3+]CCCC[C@H]([NH3+])C(=O)[O-]
REMARK SMILES IDX 4 1 3 2 2 3 1 4 5 8 6 9 7 10 8 14 9 15 10 16
REMARK H PARENT 1 5 1 6 1 7 7 11 7 12 7 13
REMARK Flexibility Score: inf
ROOT
ATOM      1  C   UNL     1      49.235  33.750  67.408  1.00  0.00     0.012 C 
ENDROOT
BRANCH   1   2
ATOM      2  C   UNL     1      49.947  32.711  66.533  1.00  0.00     0.061 C 
BRANCH   2   3
ATOM      3  C   UNL     1      49.307  32.631  65.141  1.00  0.00     0.258 C 
BRANCH   3   4
ATOM      4  N   UNL     1      50.249  33.060  64.107  1.00  0.00    -0.358 N 
ATOM      5  H   UNL     1      50.171  32.418  63.285  1.00  0.00     0.344 HD
ATOM      6  H   UNL     1      51.228  33.021  64.475  1.00  0.00     0.344 HD
ATOM      7  H   UNL     1      50.026  34.034  63.798  1.00  0.00     0.344 HD
ENDBRANCH   3   4
ENDBRANCH   2   3
ENDBRANCH   1   2
BRANCH   1   8
ATOM      8  C   UNL     1      47.834  34.064  66.861  1.00  0.00     0.072 C 
BRANCH   8   9
ATOM      9  C   UNL     1      46.721  33.722  67.875  1.00  0.00     0.227 C 
BRANCH   9  10
ATOM     10  N   UNL     1      47.120  34.121  69.230  1.00  0.00    -0.350 N 
ATOM     11  H   UNL     1      48.109  33.835  69.423  1.00  0.00     0.345 HD
ATOM     12  H   UNL     1      46.488  33.672  69.934  1.00  0.00     0.345 HD
ATOM     13  H   UNL     1      47.038  35.158  69.332  1.00  0.00     0.345 HD
ENDBRANCH   9  10
BRANCH   9  14
ATOM     14  C   UNL     1      46.387  32.252  67.844  1.00  0.00     0.099 C 
ATOM     15  O   UNL     1      46.805  31.483  68.751  1.00  0.00    -0.544 OA
ATOM     16  O   UNL     1      45.625  31.735  66.804  1.00  0.00    -0.544 OA
ENDBRANCH   9  14
ENDBRANCH   8   9
ENDBRANCH   1   8
TORSDOF 7
ENDMDL
MODEL 8
REMARK VINA RESULT:    -3.730      6.197      7.564
REMARK INTER + INTRA:          -5.429
REMARK INTER:                  -5.244
REMARK INTRA:                  -0.185
REMARK UNBOUND:                -0.391
REMARK SMILES [NH3+]CCCC[C@H]([NH3+])C(=O)[O-]
REMARK SMILES IDX 4 1 3 2 2 3 1 4 5 8 6 9 7 10 8 14 9 15 10 16
REMARK H PARENT 1 5 1 6 1 7 7 11 7 12 7 13
REMARK Flexibility Score: inf
ROOT
ATOM      1  C   UNL     1      48.016  32.631  65.573  1.00  0.00     0.012 C 
ENDROOT
BRANCH   1   2
ATOM      2  C   UNL     1      49.293  31.783  65.565  1.00  0.00     0.061 C 
BRANCH   2   3
ATOM      3  C   UNL     1      50.185  32.140  64.368  1.00  0.00     0.258 C 
BRANCH   3   4
ATOM      4  N   UNL     1      49.778  33.413  63.773  1.00  0.00    -0.358 N 
ATOM      5  H   UNL     1      48.774  33.593  64.007  1.00  0.00     0.344 HD
ATOM      6  H   UNL     1      49.881  33.372  62.733  1.00  0.00     0.344 HD
ATOM      7  H   UNL     1      50.360  34.192  64.158  1.00  0.00     0.344 HD
ENDBRANCH   3   4
ENDBRANCH   2   3
ENDBRANCH   1   2
BRANCH   1   8
ATOM      8  C   UNL     1      46.772  31.751  65.770  1.00  0.00     0.072 C 
BRANCH   8   9
ATOM      9  C   UNL     1      45.866  32.267  66.910  1.00  0.00     0.227 C 
BRANCH   9  10
ATOM     10  N   UNL     1      45.174  33.495  66.500  1.00  0.00    -0.350 N 
ATOM     11  H   UNL     1      45.644  34.338  66.907  1.00  0.00     0.345 HD
ATOM     12  H   UNL     1      44.178  33.466  66.822  1.00  0.00     0.345 HD
ATOM     13  H   UNL     1      45.178  33.572  65.457  1.00  0.00     0.345 HD
ENDBRANCH   9  10
BRANCH   9  14
ATOM     14  C   UNL     1      46.660  32.514  68.167  1.00  0.00     0.099 C 
ATOM     15  O   UNL     1      47.155  31.550  68.810  1.00  0.00    -0.544 OA
ATOM     16  O   UNL     1      46.839  33.811  68.631  1.00  0.00    -0.544 OA
ENDBRANCH   9  14
ENDBRANCH   8   9
ENDBRANCH   1   8
TORSDOF 7
ENDMDL
MODEL 9
REMARK VINA RESULT:    -3.725      6.166      7.412
REMARK INTER + INTRA:          -5.422
REMARK INTER:                  -5.268
REMARK INTRA:                  -0.155
REMARK UNBOUND:                -0.391
REMARK SMILES [NH3+]CCCC[C@H]([NH3+])C(=O)[O-]
REMARK SMILES IDX 4 1 3 2 2 3 1 4 5 8 6 9 7 10 8 14 9 15 10 16
REMARK H PARENT 1 5 1 6 1 7 7 11 7 12 7 13
REMARK Flexibility Score: inf
ROOT
ATOM      1  C   UNL     1      49.682  32.707  67.157  1.00  0.00     0.012 C 
ENDROOT
BRANCH   1   2
ATOM      2  C   UNL     1      50.377  32.323  65.845  1.00  0.00     0.061 C 
BRANCH   2   3
ATOM      3  C   UNL     1      51.874  32.072  66.068  1.00  0.00     0.258 C 
BRANCH   3   4
ATOM      4  N   UNL     1      52.673  32.727  65.032  1.00  0.00    -0.358 N 
ATOM      5  H   UNL     1      53.598  33.003  65.437  1.00  0.00     0.344 HD
ATOM      6  H   UNL     1      52.183  33.586  64.691  1.00  0.00     0.344 HD
ATOM      7  H   UNL     1      52.836  32.071  64.234  1.00  0.00     0.344 HD
ENDBRANCH   3   4
ENDBRANCH   2   3
ENDBRANCH   1   2
BRANCH   1   8
ATOM      8  C   UNL     1      48.616  31.669  67.541  1.00  0.00     0.072 C 
BRANCH   8   9
ATOM      9  C   UNL     1      47.260  32.323  67.885  1.00  0.00     0.227 C 
BRANCH   9  10
ATOM     10  N   UNL     1      46.462  31.432  68.737  1.00  0.00    -0.350 N 
ATOM     11  H   UNL     1      45.718  31.971  69.240  1.00  0.00     0.345 HD
ATOM     12  H   UNL     1      47.081  30.962  69.438  1.00  0.00     0.345 HD
ATOM     13  H   UNL     1      46.011  30.693  68.151  1.00  0.00     0.345 HD
ENDBRANCH   9  10
BRANCH   9  14
ATOM     14  C   UNL     1      46.491  32.673  66.637  1.00  0.00     0.099 C 
ATOM     15  O   UNL     1      45.649  33.611  66.648  1.00  0.00    -0.544 OA
ATOM     16  O   UNL     1      46.701  31.954  65.468  1.00  0.00    -0.544 OA
ENDBRANCH   9  14
ENDBRANCH   8   9
ENDBRANCH   1   8
TORSDOF 7
ENDMDL
