MODEL 1
REMARK VINA RESULT:    -3.498      0.000      0.000
REMARK INTER + INTRA:          -3.498
REMARK INTER:                  -3.498
REMARK INTRA:                   0.000
REMARK UNBOUND:                 0.000
REMARK SMILES c1cc[nH]c1
REMARK SMILES IDX 1 1 5 2 4 3 3 4 2 5
REMARK H PARENT 4 6
REMARK Flexibility Score: inf
ROOT
ATOM      1  C   UNL     1       6.861   6.084  13.367  1.00  0.00     0.019 A 
ATOM      2  C   UNL     1       7.893   6.164  12.453  1.00  0.00     0.082 A 
ATOM      3  N   UNL     1       8.699   7.195  12.760  1.00  0.00    -0.368 N 
ATOM      4  C   UNL     1       8.195   7.777  13.862  1.00  0.00     0.082 A 
ATOM      5  C   UNL     1       7.054   7.114  14.266  1.00  0.00     0.019 A 
ATOM      6  H   UNL     1       9.556   7.488  12.240  1.00  0.00     0.165 HD
ENDROOT
TORSDOF 0
ENDMDL
MODEL 2
REMARK VINA RESULT:    -3.492      0.044      1.624
REMARK INTER + INTRA:          -3.492
REMARK INTER:                  -3.492
REMARK INTRA:                   0.000
REMARK UNBOUND:                 0.000
REMARK SMILES c1cc[nH]c1
REMARK SMILES IDX 1 1 5 2 4 3 3 4 2 5
REMARK H PARENT 4 6
REMARK Flexibility Score: inf
ROOT
ATOM      1  C   UNL     1       7.001   7.091  14.250  1.00  0.00     0.019 A 
ATOM      2  C   UNL     1       8.142   7.767  13.866  1.00  0.00     0.082 A 
ATOM      3  N   UNL     1       8.674   7.187  12.777  1.00  0.00    -0.368 N 
ATOM      4  C   UNL     1       7.886   6.145  12.457  1.00  0.00     0.082 A 
ATOM      5  C   UNL     1       6.838   6.056  13.351  1.00  0.00     0.019 A 
ATOM      6  H   UNL     1       9.537   7.488  12.273  1.00  0.00     0.165 HD
ENDROOT
TORSDOF 0
ENDMDL
MODEL 3
REMARK VINA RESULT:    -3.446      1.469      2.412
REMARK INTER + INTRA:          -3.446
REMARK INTER:                  -3.446
REMARK INTRA:                   0.000
REMARK UNBOUND:                 0.000
REMARK SMILES c1cc[nH]c1
REMARK SMILES IDX 1 1 5 2 4 3 3 4 2 5
REMARK H PARENT 4 6
REMARK Flexibility Score: inf
ROOT
ATOM      1  C   UNL     1       7.728   7.259  12.913  1.00  0.00     0.019 A 
ATOM      2  C   UNL     1       7.144   6.750  14.056  1.00  0.00     0.082 A 
ATOM      3  N   UNL     1       6.938   5.429  13.918  1.00  0.00    -0.368 N 
ATOM      4  C   UNL     1       7.385   5.084  12.697  1.00  0.00     0.082 A 
ATOM      5  C   UNL     1       7.881   6.196  12.046  1.00  0.00     0.019 A 
ATOM      6  H   UNL     1       6.513   4.790  14.625  1.00  0.00     0.165 HD
ENDROOT
TORSDOF 0
ENDMDL
MODEL 4
REMARK VINA RESULT:    -3.370      1.445      1.931
REMARK INTER + INTRA:          -3.370
REMARK INTER:                  -3.370
REMARK INTRA:                   0.000
REMARK UNBOUND:                 0.000
REMARK SMILES c1cc[nH]c1
REMARK SMILES IDX 1 1 5 2 4 3 3 4 2 5
REMARK H PARENT 4 6
REMARK Flexibility Score: inf
ROOT
ATOM      1  C   UNL     1       5.909   6.675  12.738  1.00  0.00     0.019 A 
ATOM      2  C   UNL     1       6.955   7.476  12.322  1.00  0.00     0.082 A 
ATOM      3  N   UNL     1       8.054   6.728  12.122  1.00  0.00    -0.368 N 
ATOM      4  C   UNL     1       7.724   5.455  12.405  1.00  0.00     0.082 A 
ATOM      5  C   UNL     1       6.401   5.387  12.791  1.00  0.00     0.019 A 
ATOM      6  H   UNL     1       8.988   7.070  11.806  1.00  0.00     0.165 HD
ENDROOT
TORSDOF 0
ENDMDL
MODEL 5
REMARK VINA RESULT:    -2.904      2.186      2.631
REMARK INTER + INTRA:          -2.904
REMARK INTER:                  -2.904
REMARK INTRA:                   0.000
REMARK UNBOUND:                 0.000
REMARK SMILES c1cc[nH]c1
REMARK SMILES IDX 1 1 5 2 4 3 3 4 2 5
REMARK H PARENT 4 6
REMARK Flexibility Score: inf
ROOT
ATOM      1  C   UNL     1       6.681   6.286  12.610  1.00  0.00     0.019 A 
ATOM      2  C   UNL     1       6.911   7.586  12.206  1.00  0.00     0.082 A 
ATOM      3  N   UNL     1       5.742   8.234  12.059  1.00  0.00    -0.368 N 
ATOM      4  C   UNL     1       4.764   7.362  12.364  1.00  0.00     0.082 A 
ATOM      5  C   UNL     1       5.312   6.143  12.710  1.00  0.00     0.019 A 
ATOM      6  H   UNL     1       5.616   9.227  11.763  1.00  0.00     0.165 HD
ENDROOT
TORSDOF 0
ENDMDL
MODEL 6
REMARK VINA RESULT:    -2.895      2.346      2.631
REMARK INTER + INTRA:          -2.895
REMARK INTER:                  -2.895
REMARK INTRA:                   0.000
REMARK UNBOUND:                 0.000
REMARK SMILES c1cc[nH]c1
REMARK SMILES IDX 1 1 5 2 4 3 3 4 2 5
REMARK H PARENT 4 6
REMARK Flexibility Score: inf
ROOT
ATOM      1  C   UNL     1       5.611   8.139  12.006  1.00  0.00     0.019 A 
ATOM      2  C   UNL     1       4.901   7.147  12.653  1.00  0.00     0.082 A 
ATOM      3  N   UNL     1       5.738   6.374  13.366  1.00  0.00    -0.368 N 
ATOM      4  C   UNL     1       6.979   6.860  13.183  1.00  0.00     0.082 A 
ATOM      5  C   UNL     1       6.936   7.955  12.344  1.00  0.00     0.019 A 
ATOM      6  H   UNL     1       5.475   5.551  13.952  1.00  0.00     0.165 HD
ENDROOT
TORSDOF 0
ENDMDL
MODEL 7
REMARK VINA RESULT:    -2.798     10.119     10.541
REMARK INTER + INTRA:          -2.798
REMARK INTER:                  -2.798
REMARK INTRA:                   0.000
REMARK UNBOUND:                 0.000
REMARK SMILES c1cc[nH]c1
REMARK SMILES IDX 1 1 5 2 4 3 3 4 2 5
REMARK H PARENT 4 6
REMARK Flexibility Score: inf
ROOT
ATOM      1  C   UNL     1      13.455  14.576  11.700  1.00  0.00     0.019 A 
ATOM      2  C   UNL     1      12.892  15.819  11.489  1.00  0.00     0.082 A 
ATOM      3  N   UNL     1      13.195  16.640  12.510  1.00  0.00    -0.368 N 
ATOM      4  C   UNL     1      13.947  15.936  13.375  1.00  0.00     0.082 A 
ATOM      5  C   UNL     1      14.128  14.651  12.904  1.00  0.00     0.019 A 
ATOM      6  H   UNL     1      12.901  17.636  12.613  1.00  0.00     0.165 HD
ENDROOT
TORSDOF 0
ENDMDL
MODEL 8
REMARK VINA RESULT:    -2.332      7.760      8.131
REMARK INTER + INTRA:          -2.332
REMARK INTER:                  -2.332
REMARK INTRA:                   0.000
REMARK UNBOUND:                 0.000
REMARK SMILES c1cc[nH]c1
REMARK SMILES IDX 1 1 5 2 4 3 3 4 2 5
REMARK H PARENT 4 6
REMARK Flexibility Score: inf
ROOT
ATOM      1  C   UNL     1       3.845  12.650  12.321  1.00  0.00     0.019 A 
ATOM      2  C   UNL     1       4.084  13.658  13.234  1.00  0.00     0.082 A 
ATOM      3  N   UNL     1       4.238  14.830  12.594  1.00  0.00    -0.368 N 
ATOM      4  C   UNL     1       4.100  14.584  11.278  1.00  0.00     0.082 A 
ATOM      5  C   UNL     1       3.855  13.241  11.074  1.00  0.00     0.019 A 
ATOM      6  H   UNL     1       4.429  15.757  13.034  1.00  0.00     0.165 HD
ENDROOT
TORSDOF 0
ENDMDL
