MODEL 1
REMARK VINA RESULT:    -3.718      0.000      0.000
REMARK INTER + INTRA:          -4.459
REMARK INTER:                  -4.370
REMARK INTRA:                  -0.089
REMARK UNBOUND:                -0.089
REMARK SMILES CCCCC(=O)[O-]
REMARK SMILES IDX 4 1 5 2 6 3 7 4 3 5 2 6 1 7
REMARK H PARENT
REMARK Flexibility Score: inf
ROOT
ATOM      1  C   UNL     1       5.018 -36.502  21.621  1.00  0.00     0.053 C 
ENDROOT
BRANCH   1   2
ATOM      2  C   UNL     1       4.889 -36.915  20.190  1.00  0.00     0.041 C 
ATOM      3  O   UNL     1       5.025 -38.124  19.864  1.00  0.00    -0.550 OA
ATOM      4  O   UNL     1       4.668 -35.959  19.207  1.00  0.00    -0.550 OA
ENDBRANCH   1   2
BRANCH   1   5
ATOM      5  C   UNL     1       5.780 -35.175  21.729  1.00  0.00     0.006 C 
BRANCH   5   6
ATOM      6  C   UNL     1       4.962 -34.080  22.430  1.00  0.00    -0.003 C 
ATOM      7  C   UNL     1       3.691 -33.711  21.664  1.00  0.00     0.004 C 
ENDBRANCH   5   6
ENDBRANCH   1   5
TORSDOF 3
ENDMDL
MODEL 2
REMARK VINA RESULT:    -3.696      1.491      2.300
REMARK INTER + INTRA:          -4.433
REMARK INTER:                  -4.364
REMARK INTRA:                  -0.069
REMARK UNBOUND:                -0.089
REMARK SMILES CCCCC(=O)[O-]
REMARK SMILES IDX 4 1 5 2 6 3 7 4 3 5 2 6 1 7
REMARK H PARENT
REMARK Flexibility Score: inf
ROOT
ATOM      1  C   UNL     1       4.252 -35.243  21.757  1.00  0.00     0.053 C 
ENDROOT
BRANCH   1   2
ATOM      2  C   UNL     1       4.864 -35.466  20.411  1.00  0.00     0.041 C 
ATOM      3  O   UNL     1       5.212 -34.485  19.702  1.00  0.00    -0.550 OA
ATOM      4  O   UNL     1       5.006 -36.756  19.917  1.00  0.00    -0.550 OA
ENDBRANCH   1   2
BRANCH   1   5
ATOM      5  C   UNL     1       4.754 -33.924  22.361  1.00  0.00     0.006 C 
BRANCH   5   6
ATOM      6  C   UNL     1       5.753 -34.144  23.507  1.00  0.00    -0.003 C 
ATOM      7  C   UNL     1       5.764 -35.586  24.014  1.00  0.00     0.004 C 
ENDBRANCH   5   6
ENDBRANCH   1   5
TORSDOF 3
ENDMDL
MODEL 3
REMARK VINA RESULT:    -3.662      2.650      3.383
REMARK INTER + INTRA:          -4.393
REMARK INTER:                  -4.321
REMARK INTRA:                  -0.073
REMARK UNBOUND:                -0.089
REMARK SMILES CCCCC(=O)[O-]
REMARK SMILES IDX 4 1 5 2 6 3 7 4 3 5 2 6 1 7
REMARK H PARENT
REMARK Flexibility Score: inf
ROOT
ATOM      1  C   UNL     1       5.000 -35.676  22.124  1.00  0.00     0.053 C 
ENDROOT
BRANCH   1   2
ATOM      2  C   UNL     1       4.602 -34.253  22.355  1.00  0.00     0.041 C 
ATOM      3  O   UNL     1       5.310 -33.506  23.079  1.00  0.00    -0.550 OA
ATOM      4  O   UNL     1       3.422 -33.764  21.810  1.00  0.00    -0.550 OA
ENDBRANCH   1   2
BRANCH   1   5
ATOM      5  C   UNL     1       4.990 -35.998  20.624  1.00  0.00     0.006 C 
BRANCH   5   6
ATOM      6  C   UNL     1       5.775 -34.969  19.796  1.00  0.00    -0.003 C 
ATOM      7  C   UNL     1       4.978 -34.436  18.605  1.00  0.00     0.004 C 
ENDBRANCH   5   6
ENDBRANCH   1   5
TORSDOF 3
ENDMDL
MODEL 4
REMARK VINA RESULT:    -3.639      3.023      3.805
REMARK INTER + INTRA:          -4.367
REMARK INTER:                  -4.308
REMARK INTRA:                  -0.058
REMARK UNBOUND:                -0.089
REMARK SMILES CCCCC(=O)[O-]
REMARK SMILES IDX 4 1 5 2 6 3 7 4 3 5 2 6 1 7
REMARK H PARENT
REMARK Flexibility Score: inf
ROOT
ATOM      1  C   UNL     1       4.570 -33.866  22.176  1.00  0.00     0.053 C 
ENDROOT
BRANCH   1   2
ATOM      2  C   UNL     1       5.350 -34.442  23.314  1.00  0.00     0.041 C 
ATOM      3  O   UNL     1       6.125 -33.713  23.987  1.00  0.00    -0.550 OA
ATOM      4  O   UNL     1       5.259 -35.798  23.603  1.00  0.00    -0.550 OA
ENDBRANCH   1   2
BRANCH   1   5
ATOM      5  C   UNL     1       4.316 -34.935  21.105  1.00  0.00     0.006 C 
BRANCH   5   6
ATOM      6  C   UNL     1       5.471 -35.048  20.100  1.00  0.00    -0.003 C 
ATOM      7  C   UNL     1       5.123 -34.463  18.731  1.00  0.00     0.004 C 
ENDBRANCH   5   6
ENDBRANCH   1   5
TORSDOF 3
ENDMDL
MODEL 5
REMARK VINA RESULT:    -3.507      2.638      3.830
REMARK INTER + INTRA:          -4.211
REMARK INTER:                  -4.119
REMARK INTRA:                  -0.092
REMARK UNBOUND:                -0.089
REMARK SMILES CCCCC(=O)[O-]
REMARK SMILES IDX 4 1 5 2 6 3 7 4 3 5 2 6 1 7
REMARK H PARENT
REMARK Flexibility Score: inf
ROOT
ATOM      1  C   UNL     1       4.285 -34.377  21.582  1.00  0.00     0.053 C 
ENDROOT
BRANCH   1   2
ATOM      2  C   UNL     1       5.022 -34.419  22.882  1.00  0.00     0.041 C 
ATOM      3  O   UNL     1       5.620 -33.395  23.306  1.00  0.00    -0.550 OA
ATOM      4  O   UNL     1       5.092 -35.604  23.604  1.00  0.00    -0.550 OA
ENDBRANCH   1   2
BRANCH   1   5
ATOM      5  C   UNL     1       5.219 -34.758  20.425  1.00  0.00     0.006 C 
BRANCH   5   6
ATOM      6  C   UNL     1       4.684 -35.939  19.602  1.00  0.00    -0.003 C 
ATOM      7  C   UNL     1       4.918 -37.288  20.282  1.00  0.00     0.004 C 
ENDBRANCH   5   6
ENDBRANCH   1   5
TORSDOF 3
ENDMDL
MODEL 6
REMARK VINA RESULT:    -3.461      2.489      3.478
REMARK INTER + INTRA:          -4.157
REMARK INTER:                  -4.142
REMARK INTRA:                  -0.015
REMARK UNBOUND:                -0.089
REMARK SMILES CCCCC(=O)[O-]
REMARK SMILES IDX 4 1 5 2 6 3 7 4 3 5 2 6 1 7
REMARK H PARENT
REMARK Flexibility Score: inf
ROOT
ATOM      1  C   UNL     1       5.156 -34.098  22.862  1.00  0.00     0.053 C 
ENDROOT
BRANCH   1   2
ATOM      2  C   UNL     1       4.343 -34.035  21.608  1.00  0.00     0.041 C 
ATOM      3  O   UNL     1       3.141 -33.664  21.650  1.00  0.00    -0.550 OA
ATOM      4  O   UNL     1       4.898 -34.433  20.399  1.00  0.00    -0.550 OA
ENDBRANCH   1   2
BRANCH   1   5
ATOM      5  C   UNL     1       5.554 -35.547  23.169  1.00  0.00     0.006 C 
BRANCH   5   6
ATOM      6  C   UNL     1       6.032 -35.732  24.617  1.00  0.00    -0.003 C 
ATOM      7  C   UNL     1       5.195 -36.752  25.390  1.00  0.00     0.004 C 
ENDBRANCH   5   6
ENDBRANCH   1   5
TORSDOF 3
ENDMDL
MODEL 7
REMARK VINA RESULT:    -3.231      1.656      2.234
REMARK INTER + INTRA:          -3.886
REMARK INTER:                  -3.839
REMARK INTRA:                  -0.048
REMARK UNBOUND:                -0.089
REMARK SMILES CCCCC(=O)[O-]
REMARK SMILES IDX 4 1 5 2 6 3 7 4 3 5 2 6 1 7
REMARK H PARENT
REMARK Flexibility Score: inf
ROOT
ATOM      1  C   UNL     1       4.989 -36.481  21.522  1.00  0.00     0.053 C 
ENDROOT
BRANCH   1   2
ATOM      2  C   UNL     1       5.015 -37.766  20.757  1.00  0.00     0.041 C 
ATOM      3  O   UNL     1       4.800 -37.769  19.516  1.00  0.00    -0.550 OA
ATOM      4  O   UNL     1       5.227 -38.967  21.421  1.00  0.00    -0.550 OA
ENDBRANCH   1   2
BRANCH   1   5
ATOM      5  C   UNL     1       5.722 -35.380  20.745  1.00  0.00     0.006 C 
BRANCH   5   6
ATOM      6  C   UNL     1       4.759 -34.440  20.005  1.00  0.00    -0.003 C 
ATOM      7  C   UNL     1       5.012 -34.401  18.497  1.00  0.00     0.004 C 
ENDBRANCH   5   6
ENDBRANCH   1   5
TORSDOF 3
ENDMDL
MODEL 8
REMARK VINA RESULT:    -3.100      2.821      3.340
REMARK INTER + INTRA:          -3.733
REMARK INTER:                  -3.734
REMARK INTRA:                   0.000
REMARK UNBOUND:                -0.089
REMARK SMILES CCCCC(=O)[O-]
REMARK SMILES IDX 4 1 5 2 6 3 7 4 3 5 2 6 1 7
REMARK H PARENT
REMARK Flexibility Score: inf
ROOT
ATOM      1  C   UNL     1       5.985 -34.513  24.066  1.00  0.00     0.053 C 
ENDROOT
BRANCH   1   2
ATOM      2  C   UNL     1       5.586 -35.953  24.098  1.00  0.00     0.041 C 
ATOM      3  O   UNL     1       5.260 -36.497  25.186  1.00  0.00    -0.550 OA
ATOM      4  O   UNL     1       5.620 -36.711  22.934  1.00  0.00    -0.550 OA
ENDBRANCH   1   2
BRANCH   1   5
ATOM      5  C   UNL     1       5.871 -33.958  22.640  1.00  0.00     0.006 C 
BRANCH   5   6
ATOM      6  C   UNL     1       4.413 -33.791  22.188  1.00  0.00    -0.003 C 
ATOM      7  C   UNL     1       4.176 -34.286  20.761  1.00  0.00     0.004 C 
ENDBRANCH   5   6
ENDBRANCH   1   5
TORSDOF 3
ENDMDL
MODEL 9
REMARK VINA RESULT:    -3.046      1.943      3.433
REMARK INTER + INTRA:          -3.669
REMARK INTER:                  -3.614
REMARK INTRA:                  -0.055
REMARK UNBOUND:                -0.089
REMARK SMILES CCCCC(=O)[O-]
REMARK SMILES IDX 4 1 5 2 6 3 7 4 3 5 2 6 1 7
REMARK H PARENT
REMARK Flexibility Score: inf
ROOT
ATOM      1  C   UNL     1       5.751 -35.194  21.092  1.00  0.00     0.053 C 
ENDROOT
BRANCH   1   2
ATOM      2  C   UNL     1       4.757 -34.365  20.342  1.00  0.00     0.041 C 
ATOM      3  O   UNL     1       4.848 -34.243  19.092  1.00  0.00    -0.550 OA
ATOM      4  O   UNL     1       3.758 -33.687  21.028  1.00  0.00    -0.550 OA
ENDBRANCH   1   2
BRANCH   1   5
ATOM      5  C   UNL     1       5.108 -36.506  21.561  1.00  0.00     0.006 C 
BRANCH   5   6
ATOM      6  C   UNL     1       4.853 -37.483  20.403  1.00  0.00    -0.003 C 
ATOM      7  C   UNL     1       5.286 -38.913  20.729  1.00  0.00     0.004 C 
ENDBRANCH   5   6
ENDBRANCH   1   5
TORSDOF 3
ENDMDL
