MODEL 1
REMARK VINA RESULT:    -3.495      0.000      0.000
REMARK INTER + INTRA:          -4.407
REMARK INTER:                  -4.312
REMARK INTRA:                  -0.094
REMARK UNBOUND:                -0.094
REMARK SMILES CCCCCC(=O)[O-]
REMARK SMILES IDX 4 1 5 2 6 3 7 4 8 5 3 6 2 7 1 8
REMARK H PARENT
REMARK Flexibility Score: inf
ROOT
ATOM      1  C   UNL     1     182.405 182.368 191.801  1.00  0.00     0.006 C 
ENDROOT
BRANCH   1   2
ATOM      2  C   UNL     1     181.378 181.648 192.685  1.00  0.00     0.053 C 
BRANCH   2   3
ATOM      3  C   UNL     1     180.030 181.587 192.035  1.00  0.00     0.041 C 
ATOM      4  O   UNL     1     179.000 181.380 192.729  1.00  0.00    -0.550 OA
ATOM      5  O   UNL     1     179.907 181.793 190.666  1.00  0.00    -0.550 OA
ENDBRANCH   2   3
ENDBRANCH   1   2
BRANCH   1   6
ATOM      6  C   UNL     1     183.425 183.166 192.627  1.00  0.00     0.000 C 
BRANCH   6   7
ATOM      7  C   UNL     1     184.860 182.786 192.245  1.00  0.00    -0.003 C 
ATOM      8  C   UNL     1     184.927 182.246 190.820  1.00  0.00     0.004 C 
ENDBRANCH   6   7
ENDBRANCH   1   6
TORSDOF 4
ENDMDL
MODEL 2
REMARK VINA RESULT:    -3.421      9.954     10.662
REMARK INTER + INTRA:          -4.315
REMARK INTER:                  -4.078
REMARK INTRA:                  -0.237
REMARK UNBOUND:                -0.094
REMARK SMILES CCCCCC(=O)[O-]
REMARK SMILES IDX 4 1 5 2 6 3 7 4 8 5 3 6 2 7 1 8
REMARK H PARENT
REMARK Flexibility Score: inf
ROOT
ATOM      1  C   UNL     1     181.868 182.467 181.983  1.00  0.00     0.006 C 
ENDROOT
BRANCH   1   2
ATOM      2  C   UNL     1     180.463 181.852 182.005  1.00  0.00     0.053 C 
BRANCH   2   3
ATOM      3  C   UNL     1     179.396 182.904 181.987  1.00  0.00     0.041 C 
ATOM      4  O   UNL     1     178.582 182.965 181.027  1.00  0.00    -0.550 OA
ATOM      5  O   UNL     1     179.277 183.795 183.047  1.00  0.00    -0.550 OA
ENDBRANCH   2   3
ENDBRANCH   1   2
BRANCH   1   6
ATOM      6  C   UNL     1     182.170 183.180 180.657  1.00  0.00     0.000 C 
BRANCH   6   7
ATOM      7  C   UNL     1     182.940 184.483 180.896  1.00  0.00    -0.003 C 
ATOM      8  C   UNL     1     181.992 185.635 181.214  1.00  0.00     0.004 C 
ENDBRANCH   6   7
ENDBRANCH   1   6
TORSDOF 4
ENDMDL
MODEL 3
REMARK VINA RESULT:    -3.416     10.206     11.276
REMARK INTER + INTRA:          -4.309
REMARK INTER:                  -4.115
REMARK INTRA:                  -0.195
REMARK UNBOUND:                -0.094
REMARK SMILES CCCCCC(=O)[O-]
REMARK SMILES IDX 4 1 5 2 6 3 7 4 8 5 3 6 2 7 1 8
REMARK H PARENT
REMARK Flexibility Score: inf
ROOT
ATOM      1  C   UNL     1     182.120 181.297 182.044  1.00  0.00     0.006 C 
ENDROOT
BRANCH   1   2
ATOM      2  C   UNL     1     183.472 181.984 181.811  1.00  0.00     0.053 C 
BRANCH   2   3
ATOM      3  C   UNL     1     184.616 181.030 181.974  1.00  0.00     0.041 C 
ATOM      4  O   UNL     1     184.655 180.250 182.962  1.00  0.00    -0.550 OA
ATOM      5  O   UNL     1     185.621 180.977 181.015  1.00  0.00    -0.550 OA
ENDBRANCH   2   3
ENDBRANCH   1   2
BRANCH   1   6
ATOM      6  C   UNL     1     181.523 180.733 180.746  1.00  0.00     0.000 C 
BRANCH   6   7
ATOM      7  C   UNL     1     180.824 179.393 181.000  1.00  0.00    -0.003 C 
ATOM      8  C   UNL     1     181.833 178.296 181.324  1.00  0.00     0.004 C 
ENDBRANCH   6   7
ENDBRANCH   1   6
TORSDOF 4
ENDMDL
MODEL 4
REMARK VINA RESULT:    -3.390     10.149     10.890
REMARK INTER + INTRA:          -4.277
REMARK INTER:                  -4.151
REMARK INTRA:                  -0.126
REMARK UNBOUND:                -0.094
REMARK SMILES CCCCCC(=O)[O-]
REMARK SMILES IDX 4 1 5 2 6 3 7 4 8 5 3 6 2 7 1 8
REMARK H PARENT
REMARK Flexibility Score: inf
ROOT
ATOM      1  C   UNL     1     180.109 180.701 181.458  1.00  0.00     0.006 C 
ENDROOT
BRANCH   1   2
ATOM      2  C   UNL     1     180.420 181.975 182.255  1.00  0.00     0.053 C 
BRANCH   2   3
ATOM      3  C   UNL     1     179.310 182.977 182.157  1.00  0.00     0.041 C 
ATOM      4  O   UNL     1     179.095 183.780 183.103  1.00  0.00    -0.550 OA
ATOM      5  O   UNL     1     178.535 183.048 181.005  1.00  0.00    -0.550 OA
ENDBRANCH   2   3
ENDBRANCH   1   2
BRANCH   1   6
ATOM      6  C   UNL     1     181.081 180.497 180.286  1.00  0.00     0.000 C 
BRANCH   6   7
ATOM      7  C   UNL     1     182.294 179.666 180.717  1.00  0.00    -0.003 C 
ATOM      8  C   UNL     1     181.864 178.342 181.342  1.00  0.00     0.004 C 
ENDBRANCH   6   7
ENDBRANCH   1   6
TORSDOF 4
ENDMDL
MODEL 5
REMARK VINA RESULT:    -3.376     10.919     11.943
REMARK INTER + INTRA:          -4.260
REMARK INTER:                  -4.012
REMARK INTRA:                  -0.247
REMARK UNBOUND:                -0.094
REMARK SMILES CCCCCC(=O)[O-]
REMARK SMILES IDX 4 1 5 2 6 3 7 4 8 5 3 6 2 7 1 8
REMARK H PARENT
REMARK Flexibility Score: inf
ROOT
ATOM      1  C   UNL     1     180.829 179.855 180.976  1.00  0.00     0.006 C 
ENDROOT
BRANCH   1   2
ATOM      2  C   UNL     1     182.264 179.314 180.958  1.00  0.00     0.053 C 
BRANCH   2   3
ATOM      3  C   UNL     1     183.205 180.206 181.709  1.00  0.00     0.041 C 
ATOM      4  O   UNL     1     184.124 180.815 181.099  1.00  0.00    -0.550 OA
ATOM      5  O   UNL     1     183.045 180.394 183.076  1.00  0.00    -0.550 OA
ENDBRANCH   2   3
ENDBRANCH   1   2
BRANCH   1   6
ATOM      6  C   UNL     1     180.743 181.290 180.437  1.00  0.00     0.000 C 
BRANCH   6   7
ATOM      7  C   UNL     1     180.720 181.302 178.904  1.00  0.00    -0.003 C 
ATOM      8  C   UNL     1     181.932 182.035 178.339  1.00  0.00     0.004 C 
ENDBRANCH   6   7
ENDBRANCH   1   6
TORSDOF 4
ENDMDL
MODEL 6
REMARK VINA RESULT:    -3.366     10.571     11.546
REMARK INTER + INTRA:          -4.248
REMARK INTER:                  -4.002
REMARK INTRA:                  -0.246
REMARK UNBOUND:                -0.094
REMARK SMILES CCCCCC(=O)[O-]
REMARK SMILES IDX 4 1 5 2 6 3 7 4 8 5 3 6 2 7 1 8
REMARK H PARENT
REMARK Flexibility Score: inf
ROOT
ATOM      1  C   UNL     1     183.112 183.958 180.988  1.00  0.00     0.006 C 
ENDROOT
BRANCH   1   2
ATOM      2  C   UNL     1     181.706 184.571 181.000  1.00  0.00     0.053 C 
BRANCH   2   3
ATOM      3  C   UNL     1     180.737 183.727 181.770  1.00  0.00     0.041 C 
ATOM      4  O   UNL     1     180.854 183.605 183.018  1.00  0.00    -0.550 OA
ATOM      5  O   UNL     1     179.683 183.102 181.114  1.00  0.00    -0.550 OA
ENDBRANCH   2   3
ENDBRANCH   1   2
BRANCH   1   6
ATOM      6  C   UNL     1     183.114 182.520 180.449  1.00  0.00     0.000 C 
BRANCH   6   7
ATOM      7  C   UNL     1     183.207 182.507 178.919  1.00  0.00    -0.003 C 
ATOM      8  C   UNL     1     181.931 181.955 178.292  1.00  0.00     0.004 C 
ENDBRANCH   6   7
ENDBRANCH   1   6
TORSDOF 4
ENDMDL
MODEL 7
REMARK VINA RESULT:    -3.345     10.161     11.166
REMARK INTER + INTRA:          -4.222
REMARK INTER:                  -4.068
REMARK INTRA:                  -0.154
REMARK UNBOUND:                -0.094
REMARK SMILES CCCCCC(=O)[O-]
REMARK SMILES IDX 4 1 5 2 6 3 7 4 8 5 3 6 2 7 1 8
REMARK H PARENT
REMARK Flexibility Score: inf
ROOT
ATOM      1  C   UNL     1     184.595 180.478 182.670  1.00  0.00     0.006 C 
ENDROOT
BRANCH   1   2
ATOM      2  C   UNL     1     185.125 181.210 181.430  1.00  0.00     0.053 C 
BRANCH   2   3
ATOM      3  C   UNL     1     185.195 182.691 181.647  1.00  0.00     0.041 C 
ATOM      4  O   UNL     1     184.165 183.403 181.506  1.00  0.00    -0.550 OA
ATOM      5  O   UNL     1     186.391 183.282 182.038  1.00  0.00    -0.550 OA
ENDBRANCH   2   3
ENDBRANCH   1   2
BRANCH   1   6
ATOM      6  C   UNL     1     183.063 180.372 182.673  1.00  0.00     0.000 C 
BRANCH   6   7
ATOM      7  C   UNL     1     182.536 179.983 181.287  1.00  0.00    -0.003 C 
ATOM      8  C   UNL     1     182.005 178.553 181.280  1.00  0.00     0.004 C 
ENDBRANCH   6   7
ENDBRANCH   1   6
TORSDOF 4
ENDMDL
MODEL 8
REMARK VINA RESULT:    -3.334      9.693     10.427
REMARK INTER + INTRA:          -4.208
REMARK INTER:                  -4.023
REMARK INTRA:                  -0.185
REMARK UNBOUND:                -0.094
REMARK SMILES CCCCCC(=O)[O-]
REMARK SMILES IDX 4 1 5 2 6 3 7 4 8 5 3 6 2 7 1 8
REMARK H PARENT
REMARK Flexibility Score: inf
ROOT
ATOM      1  C   UNL     1     181.635 184.844 181.072  1.00  0.00     0.006 C 
ENDROOT
BRANCH   1   2
ATOM      2  C   UNL     1     180.838 183.536 181.163  1.00  0.00     0.053 C 
BRANCH   2   3
ATOM      3  C   UNL     1     180.111 183.417 182.467  1.00  0.00     0.041 C 
ATOM      4  O   UNL     1     180.734 183.542 183.554  1.00  0.00    -0.550 OA
ATOM      5  O   UNL     1     178.738 183.201 182.483  1.00  0.00    -0.550 OA
ENDBRANCH   2   3
ENDBRANCH   1   2
BRANCH   1   6
ATOM      6  C   UNL     1     183.147 184.598 180.971  1.00  0.00     0.000 C 
BRANCH   6   7
ATOM      7  C   UNL     1     183.450 183.106 180.791  1.00  0.00    -0.003 C 
ATOM      8  C   UNL     1     184.566 182.652 181.726  1.00  0.00     0.004 C 
ENDBRANCH   6   7
ENDBRANCH   1   6
TORSDOF 4
ENDMDL
MODEL 9
REMARK VINA RESULT:    -3.324     10.276     10.943
REMARK INTER + INTRA:          -4.196
REMARK INTER:                  -4.029
REMARK INTRA:                  -0.167
REMARK UNBOUND:                -0.094
REMARK SMILES CCCCCC(=O)[O-]
REMARK SMILES IDX 4 1 5 2 6 3 7 4 8 5 3 6 2 7 1 8
REMARK H PARENT
REMARK Flexibility Score: inf
ROOT
ATOM      1  C   UNL     1     183.020 180.055 182.164  1.00  0.00     0.006 C 
ENDROOT
BRANCH   1   2
ATOM      2  C   UNL     1     182.151 179.438 181.060  1.00  0.00     0.053 C 
BRANCH   2   3
ATOM      3  C   UNL     1     180.930 180.262 180.787  1.00  0.00     0.041 C 
ATOM      4  O   UNL     1     180.068 180.437 181.689  1.00  0.00    -0.550 OA
ATOM      5  O   UNL     1     180.759 180.866 179.547  1.00  0.00    -0.550 OA
ENDBRANCH   2   3
ENDBRANCH   1   2
BRANCH   1   6
ATOM      6  C   UNL     1     183.610 181.411 181.750  1.00  0.00     0.000 C 
BRANCH   6   7
ATOM      7  C   UNL     1     184.831 181.224 180.841  1.00  0.00    -0.003 C 
ATOM      8  C   UNL     1     186.120 181.163 181.654  1.00  0.00     0.004 C 
ENDBRANCH   6   7
ENDBRANCH   1   6
TORSDOF 4
ENDMDL
