MODEL 1
REMARK VINA RESULT:    -5.627      0.000      0.000
REMARK INTER + INTRA:          -9.970
REMARK INTER:                  -8.095
REMARK INTRA:                  -1.876
REMARK UNBOUND:                -1.876
REMARK SMILES O=c1c(O[C@@H]2O[C@@H](CO)[C@@H](O)[C@H](O)[C@@H]2O)c(-c2ccc(O)cc2)oc2cc(O)cc(O)c12
REMARK SMILES IDX 4 1 3 2 16 3 24 4 2 5 25 6 1 7 32 8 26 9 30 10 27 11 29 12
REMARK SMILES IDX 17 13 18 14 19 15 20 16 23 17 22 18 21 19 31 21 28 23 5 25
REMARK SMILES IDX 14 26 6 27 12 28 7 29 10 30 15 31 13 33 8 35 9 36 11 38
REMARK H PARENT 21 20 31 22 28 24 15 32 13 34 9 37 11 39
REMARK Flexibility Score: inf
ROOT
ATOM      1  O   UNL     1      -2.211  39.271   7.910  1.00  0.00    -0.454 OA
ENDROOT
BRANCH   1   2
ATOM      2  C   UNL     1      -3.406  39.663   8.559  1.00  0.00     0.214 A 
ATOM      3  C   UNL     1      -4.326  38.657   8.945  1.00  0.00     0.180 A 
ATOM      4  O   UNL     1      -5.423  38.975   9.622  1.00  0.00    -0.452 OA
ATOM      5  C   UNL     1      -3.779  41.006   8.795  1.00  0.00     0.239 A 
ATOM      6  C   UNL     1      -5.737  40.216   9.965  1.00  0.00     0.146 A 
ATOM      7  O   UNL     1      -3.178  41.939   8.206  1.00  0.00    -0.285 OA
ATOM      8  C   UNL     1      -4.914  41.297   9.581  1.00  0.00     0.111 A 
ATOM      9  C   UNL     1      -6.941  40.447  10.641  1.00  0.00     0.094 A 
ATOM     10  C   UNL     1      -5.311  42.621   9.909  1.00  0.00     0.134 A 
ATOM     11  C   UNL     1      -7.313  41.746  10.999  1.00  0.00     0.123 A 
ATOM     12  C   UNL     1      -6.483  42.826  10.661  1.00  0.00     0.093 A 
BRANCH   3  13
ATOM     13  C   UNL     1      -4.144  37.241   8.539  1.00  0.00     0.021 A 
ATOM     14  C   UNL     1      -3.437  36.322   9.333  1.00  0.00     0.016 A 
ATOM     15  C   UNL     1      -3.202  35.019   8.873  1.00  0.00     0.047 A 
ATOM     16  C   UNL     1      -3.692  34.613   7.627  1.00  0.00     0.115 A 
ATOM     17  C   UNL     1      -4.664  36.816   7.305  1.00  0.00     0.016 A 
ATOM     18  C   UNL     1      -4.435  35.509   6.848  1.00  0.00     0.047 A 
BRANCH  16  19
ATOM     19  O   UNL     1      -3.440  33.316   7.178  1.00  0.00    -0.508 OA
ATOM     20  H   UNL     1      -3.924  32.518   7.569  1.00  0.00     0.293 HD
ENDBRANCH  16  19
ENDBRANCH   3  13
BRANCH  10  21
ATOM     21  O   UNL     1      -4.625  43.722   9.405  1.00  0.00    -0.507 OA
ATOM     22  H   UNL     1      -4.052  44.306  10.008  1.00  0.00     0.293 HD
ENDBRANCH  10  21
BRANCH  11  23
ATOM     23  O   UNL     1      -8.537  41.966  11.632  1.00  0.00    -0.508 OA
ATOM     24  H   UNL     1      -9.165  41.199  11.834  1.00  0.00     0.293 HD
ENDBRANCH  11  23
ENDBRANCH   1   2
BRANCH   1  25
ATOM     25  C   UNL     1      -1.821  39.420   6.533  1.00  0.00     0.339 C 
ATOM     26  C   UNL     1      -0.476  40.171   6.359  1.00  0.00     0.214 C 
ATOM     27  O   UNL     1      -1.743  38.139   5.915  1.00  0.00    -0.332 OA
ATOM     28  C   UNL     1       0.703  39.348   6.924  1.00  0.00     0.180 C 
ATOM     29  C   UNL     1      -0.768  37.315   6.536  1.00  0.00     0.179 C 
ATOM     30  C   UNL     1       0.662  37.904   6.368  1.00  0.00     0.177 C 
BRANCH  26  31
ATOM     31  O   UNL     1      -0.523  41.446   6.947  1.00  0.00    -0.384 OA
ATOM     32  H   UNL     1       0.291  41.940   6.657  1.00  0.00     0.211 HD
ENDBRANCH  26  31
BRANCH  28  33
ATOM     33  O   UNL     1       0.674  39.277   8.329  1.00  0.00    -0.387 OA
ATOM     34  H   UNL     1      -0.224  39.579   8.628  1.00  0.00     0.211 HD
ENDBRANCH  28  33
BRANCH  29  35
ATOM     35  C   UNL     1      -0.867  35.902   5.946  1.00  0.00     0.191 C 
BRANCH  35  36
ATOM     36  O   UNL     1       0.414  35.354   5.801  1.00  0.00    -0.394 OA
ATOM     37  H   UNL     1       0.354  34.411   6.094  1.00  0.00     0.210 HD
ENDBRANCH  35  36
ENDBRANCH  29  35
BRANCH  30  38
ATOM     38  O   UNL     1       1.099  37.875   5.026  1.00  0.00    -0.387 OA
ATOM     39  H   UNL     1       0.331  38.076   4.432  1.00  0.00     0.211 HD
ENDBRANCH  30  38
ENDBRANCH   1  25
TORSDOF 11
ENDMDL
MODEL 2
REMARK VINA RESULT:    -5.254      1.967      7.701
REMARK INTER + INTRA:          -9.433
REMARK INTER:                  -7.445
REMARK INTRA:                  -1.987
REMARK UNBOUND:                -1.876
REMARK SMILES O=c1c(O[C@@H]2O[C@@H](CO)[C@@H](O)[C@H](O)[C@@H]2O)c(-c2ccc(O)cc2)oc2cc(O)cc(O)c12
REMARK SMILES IDX 4 1 3 2 16 3 24 4 2 5 25 6 1 7 32 8 26 9 30 10 27 11 29 12
REMARK SMILES IDX 17 13 18 14 19 15 20 16 23 17 22 18 21 19 31 21 28 23 5 25
REMARK SMILES IDX 14 26 6 27 12 28 7 29 10 30 15 31 13 33 8 35 9 36 11 38
REMARK H PARENT 21 20 31 22 28 24 15 32 13 34 9 37 11 39
REMARK Flexibility Score: inf
ROOT
ATOM      1  O   UNL     1      -2.843  36.626   7.997  1.00  0.00    -0.454 OA
ENDROOT
BRANCH   1   2
ATOM      2  C   UNL     1      -1.727  37.118   7.277  1.00  0.00     0.214 A 
ATOM      3  C   UNL     1      -1.570  38.521   7.150  1.00  0.00     0.180 A 
ATOM      4  O   UNL     1      -0.499  39.024   6.548  1.00  0.00    -0.452 OA
ATOM      5  C   UNL     1      -0.784  36.299   6.616  1.00  0.00     0.239 A 
ATOM      6  C   UNL     1       0.465  38.278   6.026  1.00  0.00     0.146 A 
ATOM      7  O   UNL     1      -1.034  35.083   6.420  1.00  0.00    -0.285 OA
ATOM      8  C   UNL     1       0.376  36.870   6.052  1.00  0.00     0.111 A 
ATOM      9  C   UNL     1       1.530  38.910   5.374  1.00  0.00     0.094 A 
ATOM     10  C   UNL     1       1.394  36.100   5.429  1.00  0.00     0.134 A 
ATOM     11  C   UNL     1       2.552  38.153   4.794  1.00  0.00     0.123 A 
ATOM     12  C   UNL     1       2.499  36.752   4.850  1.00  0.00     0.093 A 
BRANCH   3  13
ATOM     13  C   UNL     1      -2.622  39.464   7.603  1.00  0.00     0.021 A 
ATOM     14  C   UNL     1      -2.692  39.925   8.929  1.00  0.00     0.016 A 
ATOM     15  C   UNL     1      -3.755  40.739   9.344  1.00  0.00     0.047 A 
ATOM     16  C   UNL     1      -4.746  41.120   8.434  1.00  0.00     0.115 A 
ATOM     17  C   UNL     1      -3.602  39.880   6.686  1.00  0.00     0.016 A 
ATOM     18  C   UNL     1      -4.662  40.701   7.100  1.00  0.00     0.047 A 
BRANCH  16  19
ATOM     19  O   UNL     1      -5.805  41.922   8.864  1.00  0.00    -0.508 OA
ATOM     20  H   UNL     1      -6.622  41.524   9.308  1.00  0.00     0.293 HD
ENDBRANCH  16  19
ENDBRANCH   3  13
BRANCH  10  21
ATOM     21  O   UNL     1       1.263  34.722   5.279  1.00  0.00    -0.507 OA
ATOM     22  H   UNL     1       0.359  34.297   5.094  1.00  0.00     0.293 HD
ENDBRANCH  10  21
BRANCH  11  23
ATOM     23  O   UNL     1       3.584  38.795   4.108  1.00  0.00    -0.508 OA
ATOM     24  H   UNL     1       3.715  38.658   3.115  1.00  0.00     0.293 HD
ENDBRANCH  11  23
ENDBRANCH   1   2
BRANCH   1  25
ATOM     25  C   UNL     1      -4.154  36.264   7.527  1.00  0.00     0.339 C 
ATOM     26  C   UNL     1      -4.494  34.771   7.765  1.00  0.00     0.214 C 
ATOM     27  O   UNL     1      -5.132  37.089   8.152  1.00  0.00    -0.332 OA
ATOM     28  C   UNL     1      -4.612  34.456   9.271  1.00  0.00     0.180 C 
ATOM     29  C   UNL     1      -5.137  36.923   9.561  1.00  0.00     0.179 C 
ATOM     30  C   UNL     1      -5.549  35.477   9.960  1.00  0.00     0.177 C 
BRANCH  26  31
ATOM     31  O   UNL     1      -3.554  33.928   7.149  1.00  0.00    -0.384 OA
ATOM     32  H   UNL     1      -3.496  33.096   7.691  1.00  0.00     0.211 HD
ENDBRANCH  26  31
BRANCH  28  33
ATOM     33  O   UNL     1      -3.364  34.499   9.921  1.00  0.00    -0.387 OA
ATOM     34  H   UNL     1      -2.667  34.634   9.226  1.00  0.00     0.211 HD
ENDBRANCH  28  33
BRANCH  29  35
ATOM     35  C   UNL     1      -6.077  37.967  10.179  1.00  0.00     0.191 C 
BRANCH  35  36
ATOM     36  O   UNL     1      -7.106  38.274   9.280  1.00  0.00    -0.394 OA
ATOM     37  H   UNL     1      -7.933  37.876   9.650  1.00  0.00     0.210 HD
ENDBRANCH  35  36
ENDBRANCH  29  35
BRANCH  30  38
ATOM     38  O   UNL     1      -6.899  35.201   9.652  1.00  0.00    -0.387 OA
ATOM     39  H   UNL     1      -7.122  34.288   9.971  1.00  0.00     0.211 HD
ENDBRANCH  30  38
ENDBRANCH   1  25
TORSDOF 11
ENDMDL
MODEL 3
REMARK VINA RESULT:    -5.155      2.062      7.564
REMARK INTER + INTRA:          -9.291
REMARK INTER:                  -7.455
REMARK INTRA:                  -1.836
REMARK UNBOUND:                -1.876
REMARK SMILES O=c1c(O[C@@H]2O[C@@H](CO)[C@@H](O)[C@H](O)[C@@H]2O)c(-c2ccc(O)cc2)oc2cc(O)cc(O)c12
REMARK SMILES IDX 4 1 3 2 16 3 24 4 2 5 25 6 1 7 32 8 26 9 30 10 27 11 29 12
REMARK SMILES IDX 17 13 18 14 19 15 20 16 23 17 22 18 21 19 31 21 28 23 5 25
REMARK SMILES IDX 14 26 6 27 12 28 7 29 10 30 15 31 13 33 8 35 9 36 11 38
REMARK H PARENT 21 20 31 22 28 24 15 32 13 34 9 37 11 39
REMARK Flexibility Score: inf
ROOT
ATOM      1  O   UNL     1      -3.180  37.316   7.019  1.00  0.00    -0.454 OA
ENDROOT
BRANCH   1   2
ATOM      2  C   UNL     1      -1.818  37.691   6.914  1.00  0.00     0.214 A 
ATOM      3  C   UNL     1      -1.404  38.904   7.518  1.00  0.00     0.180 A 
ATOM      4  O   UNL     1      -0.123  39.255   7.506  1.00  0.00    -0.452 OA
ATOM      5  C   UNL     1      -0.848  36.964   6.187  1.00  0.00     0.239 A 
ATOM      6  C   UNL     1       0.829  38.530   6.938  1.00  0.00     0.146 A 
ATOM      7  O   UNL     1      -1.205  36.072   5.378  1.00  0.00    -0.285 OA
ATOM      8  C   UNL     1       0.511  37.331   6.262  1.00  0.00     0.111 A 
ATOM      9  C   UNL     1       2.143  39.013   6.944  1.00  0.00     0.094 A 
ATOM     10  C   UNL     1       1.546  36.610   5.609  1.00  0.00     0.134 A 
ATOM     11  C   UNL     1       3.167  38.284   6.335  1.00  0.00     0.123 A 
ATOM     12  C   UNL     1       2.873  37.070   5.697  1.00  0.00     0.093 A 
BRANCH   3  13
ATOM     13  C   UNL     1      -2.382  39.855   8.102  1.00  0.00     0.021 A 
ATOM     14  C   UNL     1      -3.011  39.615   9.336  1.00  0.00     0.016 A 
ATOM     15  C   UNL     1      -4.000  40.487   9.811  1.00  0.00     0.047 A 
ATOM     16  C   UNL     1      -4.354  41.620   9.071  1.00  0.00     0.115 A 
ATOM     17  C   UNL     1      -2.717  41.013   7.382  1.00  0.00     0.016 A 
ATOM     18  C   UNL     1      -3.702  41.890   7.861  1.00  0.00     0.047 A 
BRANCH  16  19
ATOM     19  O   UNL     1      -5.349  42.473   9.551  1.00  0.00    -0.508 OA
ATOM     20  H   UNL     1      -6.202  42.113   9.959  1.00  0.00     0.293 HD
ENDBRANCH  16  19
ENDBRANCH   3  13
BRANCH  10  21
ATOM     21  O   UNL     1       1.256  35.522   4.790  1.00  0.00    -0.507 OA
ATOM     22  H   UNL     1       1.937  34.783   4.636  1.00  0.00     0.293 HD
ENDBRANCH  10  21
BRANCH  11  23
ATOM     23  O   UNL     1       4.463  38.800   6.311  1.00  0.00    -0.508 OA
ATOM     24  H   UNL     1       4.630  39.786   6.154  1.00  0.00     0.293 HD
ENDBRANCH  11  23
ENDBRANCH   1   2
BRANCH   1  25
ATOM     25  C   UNL     1      -4.303  37.690   6.201  1.00  0.00     0.339 C 
ATOM     26  C   UNL     1      -4.892  36.502   5.398  1.00  0.00     0.214 C 
ATOM     27  O   UNL     1      -5.316  38.274   7.015  1.00  0.00    -0.332 OA
ATOM     28  C   UNL     1      -5.531  35.454   6.334  1.00  0.00     0.180 C 
ATOM     29  C   UNL     1      -5.798  37.361   7.989  1.00  0.00     0.179 C 
ATOM     30  C   UNL     1      -6.500  36.141   7.325  1.00  0.00     0.177 C 
BRANCH  26  31
ATOM     31  O   UNL     1      -3.920  35.911   4.573  1.00  0.00    -0.384 OA
ATOM     32  H   UNL     1      -3.031  36.245   4.870  1.00  0.00     0.211 HD
ENDBRANCH  26  31
BRANCH  28  33
ATOM     33  O   UNL     1      -4.566  34.752   7.081  1.00  0.00    -0.387 OA
ATOM     34  H   UNL     1      -5.028  34.001   7.538  1.00  0.00     0.211 HD
ENDBRANCH  28  33
BRANCH  29  35
ATOM     35  C   UNL     1      -6.745  38.106   8.939  1.00  0.00     0.191 C 
BRANCH  35  36
ATOM     36  O   UNL     1      -7.414  39.123   8.246  1.00  0.00    -0.394 OA
ATOM     37  H   UNL     1      -6.774  39.483   7.584  1.00  0.00     0.210 HD
ENDBRANCH  35  36
ENDBRANCH  29  35
BRANCH  30  38
ATOM     38  O   UNL     1      -7.702  36.503   6.677  1.00  0.00    -0.387 OA
ATOM     39  H   UNL     1      -8.431  36.538   7.348  1.00  0.00     0.211 HD
ENDBRANCH  30  38
ENDBRANCH   1  25
TORSDOF 11
ENDMDL
MODEL 4
REMARK VINA RESULT:    -5.126      2.107      7.522
REMARK INTER + INTRA:          -9.248
REMARK INTER:                  -7.638
REMARK INTRA:                  -1.610
REMARK UNBOUND:                -1.876
REMARK SMILES O=c1c(O[C@@H]2O[C@@H](CO)[C@@H](O)[C@H](O)[C@@H]2O)c(-c2ccc(O)cc2)oc2cc(O)cc(O)c12
REMARK SMILES IDX 4 1 3 2 16 3 24 4 2 5 25 6 1 7 32 8 26 9 30 10 27 11 29 12
REMARK SMILES IDX 17 13 18 14 19 15 20 16 23 17 22 18 21 19 31 21 28 23 5 25
REMARK SMILES IDX 14 26 6 27 12 28 7 29 10 30 15 31 13 33 8 35 9 36 11 38
REMARK H PARENT 21 20 31 22 28 24 15 32 13 34 9 37 11 39
REMARK Flexibility Score: inf
ROOT
ATOM      1  O   UNL     1      -3.319  36.784   7.911  1.00  0.00    -0.454 OA
ENDROOT
BRANCH   1   2
ATOM      2  C   UNL     1      -2.139  37.140   7.213  1.00  0.00     0.214 A 
ATOM      3  C   UNL     1      -1.837  38.515   7.055  1.00  0.00     0.180 A 
ATOM      4  O   UNL     1      -0.704  38.890   6.472  1.00  0.00    -0.452 OA
ATOM      5  C   UNL     1      -1.267  36.211   6.601  1.00  0.00     0.239 A 
ATOM      6  C   UNL     1       0.192  38.036   5.998  1.00  0.00     0.146 A 
ATOM      7  O   UNL     1      -1.634  35.022   6.429  1.00  0.00    -0.285 OA
ATOM      8  C   UNL     1      -0.040  36.645   6.058  1.00  0.00     0.111 A 
ATOM      9  C   UNL     1       1.334  38.538   5.362  1.00  0.00     0.094 A 
ATOM     10  C   UNL     1       0.911  35.759   5.485  1.00  0.00     0.134 A 
ATOM     11  C   UNL     1       2.289  37.666   4.833  1.00  0.00     0.123 A 
ATOM     12  C   UNL     1       2.091  36.280   4.923  1.00  0.00     0.093 A 
BRANCH   3  13
ATOM     13  C   UNL     1      -2.800  39.572   7.451  1.00  0.00     0.021 A 
ATOM     14  C   UNL     1      -2.785  40.154   8.731  1.00  0.00     0.016 A 
ATOM     15  C   UNL     1      -3.769  41.080   9.102  1.00  0.00     0.047 A 
ATOM     16  C   UNL     1      -4.763  41.454   8.193  1.00  0.00     0.115 A 
ATOM     17  C   UNL     1      -3.780  39.979   6.531  1.00  0.00     0.016 A 
ATOM     18  C   UNL     1      -4.760  40.912   6.900  1.00  0.00     0.047 A 
BRANCH  16  19
ATOM     19  O   UNL     1      -5.744  42.369   8.580  1.00  0.00    -0.508 OA
ATOM     20  H   UNL     1      -6.707  42.088   8.705  1.00  0.00     0.293 HD
ENDBRANCH  16  19
ENDBRANCH   3  13
BRANCH  10  21
ATOM     21  O   UNL     1       0.644  34.398   5.367  1.00  0.00    -0.507 OA
ATOM     22  H   UNL     1       0.563  33.805   6.189  1.00  0.00     0.293 HD
ENDBRANCH  10  21
BRANCH  11  23
ATOM     23  O   UNL     1       3.399  38.180   4.162  1.00  0.00    -0.508 OA
ATOM     24  H   UNL     1       3.290  38.751   3.334  1.00  0.00     0.293 HD
ENDBRANCH  11  23
ENDBRANCH   1   2
BRANCH   1  25
ATOM     25  C   UNL     1      -3.516  36.527   9.313  1.00  0.00     0.339 C 
ATOM     26  C   UNL     1      -4.999  36.640   9.750  1.00  0.00     0.214 C 
ATOM     27  O   UNL     1      -3.013  35.235   9.639  1.00  0.00    -0.332 OA
ATOM     28  C   UNL     1      -5.858  35.528   9.111  1.00  0.00     0.180 C 
ATOM     29  C   UNL     1      -3.695  34.212   8.929  1.00  0.00     0.179 C 
ATOM     30  C   UNL     1      -5.197  34.147   9.331  1.00  0.00     0.177 C 
BRANCH  26  31
ATOM     31  O   UNL     1      -5.523  37.910   9.454  1.00  0.00    -0.384 OA
ATOM     32  H   UNL     1      -6.251  37.787   8.788  1.00  0.00     0.211 HD
ENDBRANCH  26  31
BRANCH  28  33
ATOM     33  O   UNL     1      -6.026  35.717   7.726  1.00  0.00    -0.387 OA
ATOM     34  H   UNL     1      -5.275  35.256   7.267  1.00  0.00     0.211 HD
ENDBRANCH  28  33
BRANCH  29  35
ATOM     35  C   UNL     1      -2.986  32.875   9.185  1.00  0.00     0.191 C 
BRANCH  35  36
ATOM     36  O   UNL     1      -1.711  32.892   8.605  1.00  0.00    -0.394 OA
ATOM     37  H   UNL     1      -1.161  33.512   9.146  1.00  0.00     0.210 HD
ENDBRANCH  35  36
ENDBRANCH  29  35
BRANCH  30  38
ATOM     38  O   UNL     1      -5.376  33.716  10.664  1.00  0.00    -0.387 OA
ATOM     39  H   UNL     1      -6.346  33.617  10.842  1.00  0.00     0.211 HD
ENDBRANCH  30  38
ENDBRANCH   1  25
TORSDOF 11
ENDMDL
MODEL 5
REMARK VINA RESULT:    -5.112      1.782      4.708
REMARK INTER + INTRA:          -9.229
REMARK INTER:                  -8.010
REMARK INTRA:                  -1.219
REMARK UNBOUND:                -1.876
REMARK SMILES O=c1c(O[C@@H]2O[C@@H](CO)[C@@H](O)[C@H](O)[C@@H]2O)c(-c2ccc(O)cc2)oc2cc(O)cc(O)c12
REMARK SMILES IDX 4 1 3 2 16 3 24 4 2 5 25 6 1 7 32 8 26 9 30 10 27 11 29 12
REMARK SMILES IDX 17 13 18 14 19 15 20 16 23 17 22 18 21 19 31 21 28 23 5 25
REMARK SMILES IDX 14 26 6 27 12 28 7 29 10 30 15 31 13 33 8 35 9 36 11 38
REMARK H PARENT 21 20 31 22 28 24 15 32 13 34 9 37 11 39
REMARK Flexibility Score: inf
ROOT
ATOM      1  O   UNL     1      -3.090  37.785   8.761  1.00  0.00    -0.454 OA
ENDROOT
BRANCH   1   2
ATOM      2  C   UNL     1      -3.882  38.860   9.235  1.00  0.00     0.214 A 
ATOM      3  C   UNL     1      -3.491  40.182   8.905  1.00  0.00     0.180 A 
ATOM      4  O   UNL     1      -4.245  41.214   9.265  1.00  0.00    -0.452 OA
ATOM      5  C   UNL     1      -5.008  38.708  10.075  1.00  0.00     0.239 A 
ATOM      6  C   UNL     1      -5.374  41.091   9.949  1.00  0.00     0.146 A 
ATOM      7  O   UNL     1      -5.216  37.614  10.657  1.00  0.00    -0.285 OA
ATOM      8  C   UNL     1      -5.821  39.821  10.374  1.00  0.00     0.111 A 
ATOM      9  C   UNL     1      -6.072  42.247  10.317  1.00  0.00     0.094 A 
ATOM     10  C   UNL     1      -7.002  39.729  11.160  1.00  0.00     0.134 A 
ATOM     11  C   UNL     1      -7.253  42.155  11.057  1.00  0.00     0.123 A 
ATOM     12  C   UNL     1      -7.733  40.896  11.449  1.00  0.00     0.093 A 
BRANCH   3  13
ATOM     13  C   UNL     1      -2.202  40.464   8.228  1.00  0.00     0.021 A 
ATOM     14  C   UNL     1      -0.971  40.043   8.760  1.00  0.00     0.016 A 
ATOM     15  C   UNL     1       0.233  40.410   8.143  1.00  0.00     0.047 A 
ATOM     16  C   UNL     1       0.221  41.181   6.977  1.00  0.00     0.115 A 
ATOM     17  C   UNL     1      -2.208  41.208   7.036  1.00  0.00     0.016 A 
ATOM     18  C   UNL     1      -1.003  41.570   6.415  1.00  0.00     0.047 A 
BRANCH  16  19
ATOM     19  O   UNL     1       1.428  41.549   6.381  1.00  0.00    -0.508 OA
ATOM     20  H   UNL     1       1.876  42.431   6.595  1.00  0.00     0.293 HD
ENDBRANCH  16  19
ENDBRANCH   3  13
BRANCH  10  21
ATOM     21  O   UNL     1      -7.384  38.524  11.743  1.00  0.00    -0.507 OA
ATOM     22  H   UNL     1      -8.364  38.268  11.825  1.00  0.00     0.293 HD
ENDBRANCH  10  21
BRANCH  11  23
ATOM     23  O   UNL     1      -7.913  43.319  11.455  1.00  0.00    -0.508 OA
ATOM     24  H   UNL     1      -8.581  43.774  10.847  1.00  0.00     0.293 HD
ENDBRANCH  11  23
ENDBRANCH   1   2
BRANCH   1  25
ATOM     25  C   UNL     1      -3.096  37.134   7.479  1.00  0.00     0.339 C 
ATOM     26  C   UNL     1      -1.905  36.161   7.285  1.00  0.00     0.214 C 
ATOM     27  O   UNL     1      -4.325  36.436   7.301  1.00  0.00    -0.332 OA
ATOM     28  C   UNL     1      -2.007  34.953   8.241  1.00  0.00     0.180 C 
ATOM     29  C   UNL     1      -4.502  35.424   8.280  1.00  0.00     0.179 C 
ATOM     30  C   UNL     1      -3.415  34.317   8.154  1.00  0.00     0.177 C 
BRANCH  26  31
ATOM     31  O   UNL     1      -0.675  36.821   7.441  1.00  0.00    -0.384 OA
ATOM     32  H   UNL     1      -0.871  37.765   7.689  1.00  0.00     0.211 HD
ENDBRANCH  26  31
BRANCH  28  33
ATOM     33  O   UNL     1      -1.773  35.317   9.581  1.00  0.00    -0.387 OA
ATOM     34  H   UNL     1      -2.549  35.857   9.886  1.00  0.00     0.211 HD
ENDBRANCH  28  33
BRANCH  29  35
ATOM     35  C   UNL     1      -5.915  34.843   8.143  1.00  0.00     0.191 C 
BRANCH  35  36
ATOM     36  O   UNL     1      -6.298  34.834   6.795  1.00  0.00    -0.394 OA
ATOM     37  H   UNL     1      -7.158  35.320   6.742  1.00  0.00     0.210 HD
ENDBRANCH  35  36
ENDBRANCH  29  35
BRANCH  30  38
ATOM     38  O   UNL     1      -3.550  33.568   6.966  1.00  0.00    -0.387 OA
ATOM     39  H   UNL     1      -3.649  32.609   7.199  1.00  0.00     0.211 HD
ENDBRANCH  30  38
ENDBRANCH   1  25
TORSDOF 11
ENDMDL
MODEL 6
REMARK VINA RESULT:    -5.092      1.259      2.450
REMARK INTER + INTRA:          -9.200
REMARK INTER:                  -7.641
REMARK INTRA:                  -1.558
REMARK UNBOUND:                -1.876
REMARK SMILES O=c1c(O[C@@H]2O[C@@H](CO)[C@@H](O)[C@H](O)[C@@H]2O)c(-c2ccc(O)cc2)oc2cc(O)cc(O)c12
REMARK SMILES IDX 4 1 3 2 16 3 24 4 2 5 25 6 1 7 32 8 26 9 30 10 27 11 29 12
REMARK SMILES IDX 17 13 18 14 19 15 20 16 23 17 22 18 21 19 31 21 28 23 5 25
REMARK SMILES IDX 14 26 6 27 12 28 7 29 10 30 15 31 13 33 8 35 9 36 11 38
REMARK H PARENT 21 20 31 22 28 24 15 32 13 34 9 37 11 39
REMARK Flexibility Score: inf
ROOT
ATOM      1  O   UNL     1      -1.940  39.565   7.123  1.00  0.00    -0.454 OA
ENDROOT
BRANCH   1   2
ATOM      2  C   UNL     1      -3.042  40.072   7.855  1.00  0.00     0.214 A 
ATOM      3  C   UNL     1      -3.961  39.151   8.416  1.00  0.00     0.180 A 
ATOM      4  O   UNL     1      -4.965  39.581   9.171  1.00  0.00    -0.452 OA
ATOM      5  C   UNL     1      -3.327  41.448   8.011  1.00  0.00     0.239 A 
ATOM      6  C   UNL     1      -5.185  40.861   9.437  1.00  0.00     0.146 A 
ATOM      7  O   UNL     1      -2.750  42.296   7.286  1.00  0.00    -0.285 OA
ATOM      8  C   UNL     1      -4.359  41.861   8.880  1.00  0.00     0.111 A 
ATOM      9  C   UNL     1      -6.299  41.210  10.209  1.00  0.00     0.094 A 
ATOM     10  C   UNL     1      -4.659  43.227   9.132  1.00  0.00     0.134 A 
ATOM     11  C   UNL     1      -6.572  42.551  10.489  1.00  0.00     0.123 A 
ATOM     12  C   UNL     1      -5.735  43.554   9.978  1.00  0.00     0.093 A 
BRANCH   3  13
ATOM     13  C   UNL     1      -3.886  37.700   8.116  1.00  0.00     0.021 A 
ATOM     14  C   UNL     1      -3.533  36.752   9.093  1.00  0.00     0.016 A 
ATOM     15  C   UNL     1      -3.380  35.402   8.751  1.00  0.00     0.047 A 
ATOM     16  C   UNL     1      -3.600  34.979   7.436  1.00  0.00     0.115 A 
ATOM     17  C   UNL     1      -4.141  37.262   6.806  1.00  0.00     0.016 A 
ATOM     18  C   UNL     1      -3.994  35.909   6.465  1.00  0.00     0.047 A 
BRANCH  16  19
ATOM     19  O   UNL     1      -3.432  33.633   7.108  1.00  0.00    -0.508 OA
ATOM     20  H   UNL     1      -3.377  33.327   6.145  1.00  0.00     0.293 HD
ENDBRANCH  16  19
ENDBRANCH   3  13
BRANCH  10  21
ATOM     21  O   UNL     1      -3.981  44.245   8.468  1.00  0.00    -0.507 OA
ATOM     22  H   UNL     1      -3.513  44.987   8.982  1.00  0.00     0.293 HD
ENDBRANCH  10  21
BRANCH  11  23
ATOM     23  O   UNL     1      -7.711  42.886  11.222  1.00  0.00    -0.508 OA
ATOM     24  H   UNL     1      -8.408  42.190  11.452  1.00  0.00     0.293 HD
ENDBRANCH  11  23
ENDBRANCH   1   2
BRANCH   1  25
ATOM     25  C   UNL     1      -0.564  39.419   7.516  1.00  0.00     0.339 C 
ATOM     26  C   UNL     1       0.104  38.149   6.930  1.00  0.00     0.214 C 
ATOM     27  O   UNL     1       0.171  40.576   7.129  1.00  0.00    -0.332 OA
ATOM     28  C   UNL     1       0.233  38.241   5.394  1.00  0.00     0.180 C 
ATOM     29  C   UNL     1       0.159  40.758   5.721  1.00  0.00     0.179 C 
ATOM     30  C   UNL     1       0.879  39.588   4.991  1.00  0.00     0.177 C 
BRANCH  26  31
ATOM     31  O   UNL     1      -0.591  36.986   7.305  1.00  0.00    -0.384 OA
ATOM     32  H   UNL     1      -0.079  36.557   8.042  1.00  0.00     0.211 HD
ENDBRANCH  26  31
BRANCH  28  33
ATOM     33  O   UNL     1      -1.016  38.145   4.751  1.00  0.00    -0.387 OA
ATOM     34  H   UNL     1      -1.716  38.124   5.455  1.00  0.00     0.211 HD
ENDBRANCH  28  33
BRANCH  29  35
ATOM     35  C   UNL     1       0.806  42.110   5.393  1.00  0.00     0.191 C 
BRANCH  35  36
ATOM     36  O   UNL     1       1.985  42.268   6.133  1.00  0.00    -0.394 OA
ATOM     37  H   UNL     1       2.662  41.680   5.717  1.00  0.00     0.210 HD
ENDBRANCH  35  36
ENDBRANCH  29  35
BRANCH  30  38
ATOM     38  O   UNL     1       2.267  39.571   5.249  1.00  0.00    -0.387 OA
ATOM     39  H   UNL     1       2.599  40.505   5.290  1.00  0.00     0.211 HD
ENDBRANCH  30  38
ENDBRANCH   1  25
TORSDOF 11
ENDMDL
MODEL 7
REMARK VINA RESULT:    -5.085      3.927      6.296
REMARK INTER + INTRA:          -9.190
REMARK INTER:                  -7.672
REMARK INTRA:                  -1.518
REMARK UNBOUND:                -1.876
REMARK SMILES O=c1c(O[C@@H]2O[C@@H](CO)[C@@H](O)[C@H](O)[C@@H]2O)c(-c2ccc(O)cc2)oc2cc(O)cc(O)c12
REMARK SMILES IDX 4 1 3 2 16 3 24 4 2 5 25 6 1 7 32 8 26 9 30 10 27 11 29 12
REMARK SMILES IDX 17 13 18 14 19 15 20 16 23 17 22 18 21 19 31 21 28 23 5 25
REMARK SMILES IDX 14 26 6 27 12 28 7 29 10 30 15 31 13 33 8 35 9 36 11 38
REMARK H PARENT 21 20 31 22 28 24 15 32 13 34 9 37 11 39
REMARK Flexibility Score: inf
ROOT
ATOM      1  O   UNL     1      -4.100  36.622  10.636  1.00  0.00    -0.454 OA
ENDROOT
BRANCH   1   2
ATOM      2  C   UNL     1      -4.360  36.991  11.979  1.00  0.00     0.214 A 
ATOM      3  C   UNL     1      -4.906  38.274  12.233  1.00  0.00     0.180 A 
ATOM      4  O   UNL     1      -5.234  38.630  13.469  1.00  0.00    -0.452 OA
ATOM      5  C   UNL     1      -4.048  36.187  13.098  1.00  0.00     0.239 A 
ATOM      6  C   UNL     1      -5.067  37.846  14.525  1.00  0.00     0.146 A 
ATOM      7  O   UNL     1      -3.285  35.197  12.970  1.00  0.00    -0.285 OA
ATOM      8  C   UNL     1      -4.479  36.570  14.385  1.00  0.00     0.111 A 
ATOM      9  C   UNL     1      -5.405  38.336  15.792  1.00  0.00     0.094 A 
ATOM     10  C   UNL     1      -4.256  35.780  15.545  1.00  0.00     0.134 A 
ATOM     11  C   UNL     1      -5.222  37.544  16.928  1.00  0.00     0.123 A 
ATOM     12  C   UNL     1      -4.678  36.257  16.799  1.00  0.00     0.093 A 
BRANCH   3  13
ATOM     13  C   UNL     1      -5.053  39.283  11.155  1.00  0.00     0.021 A 
ATOM     14  C   UNL     1      -3.946  39.796  10.457  1.00  0.00     0.016 A 
ATOM     15  C   UNL     1      -4.113  40.817   9.512  1.00  0.00     0.047 A 
ATOM     16  C   UNL     1      -5.388  41.320   9.236  1.00  0.00     0.115 A 
ATOM     17  C   UNL     1      -6.335  39.768  10.847  1.00  0.00     0.016 A 
ATOM     18  C   UNL     1      -6.502  40.785   9.896  1.00  0.00     0.047 A 
BRANCH  16  19
ATOM     19  O   UNL     1      -5.537  42.346   8.301  1.00  0.00    -0.508 OA
ATOM     20  H   UNL     1      -5.276  43.299   8.516  1.00  0.00     0.293 HD
ENDBRANCH  16  19
ENDBRANCH   3  13
BRANCH  10  21
ATOM     21  O   UNL     1      -3.527  34.596  15.477  1.00  0.00    -0.507 OA
ATOM     22  H   UNL     1      -3.534  34.021  14.639  1.00  0.00     0.293 HD
ENDBRANCH  10  21
BRANCH  11  23
ATOM     23  O   UNL     1      -5.521  38.063  18.189  1.00  0.00    -0.508 OA
ATOM     24  H   UNL     1      -5.345  37.527  19.029  1.00  0.00     0.293 HD
ENDBRANCH  11  23
ENDBRANCH   1   2
BRANCH   1  25
ATOM     25  C   UNL     1      -4.816  35.719   9.776  1.00  0.00     0.339 C 
ATOM     26  C   UNL     1      -4.908  36.218   8.311  1.00  0.00     0.214 C 
ATOM     27  O   UNL     1      -4.201  34.434   9.812  1.00  0.00    -0.332 OA
ATOM     28  C   UNL     1      -3.518  36.243   7.639  1.00  0.00     0.180 C 
ATOM     29  C   UNL     1      -2.862  34.479   9.343  1.00  0.00     0.179 C 
ATOM     30  C   UNL     1      -2.799  34.889   7.843  1.00  0.00     0.177 C 
BRANCH  26  31
ATOM     31  O   UNL     1      -5.523  37.479   8.239  1.00  0.00    -0.384 OA
ATOM     32  H   UNL     1      -5.705  37.777   9.170  1.00  0.00     0.211 HD
ENDBRANCH  26  31
BRANCH  28  33
ATOM     33  O   UNL     1      -2.696  37.259   8.162  1.00  0.00    -0.387 OA
ATOM     34  H   UNL     1      -3.266  37.850   8.721  1.00  0.00     0.211 HD
ENDBRANCH  28  33
BRANCH  29  35
ATOM     35  C   UNL     1      -2.208  33.112   9.581  1.00  0.00     0.191 C 
BRANCH  35  36
ATOM     36  O   UNL     1      -1.227  32.876   8.610  1.00  0.00    -0.394 OA
ATOM     37  H   UNL     1      -1.459  33.438   7.830  1.00  0.00     0.210 HD
ENDBRANCH  35  36
ENDBRANCH  29  35
BRANCH  30  38
ATOM     38  O   UNL     1      -3.347  33.901   6.996  1.00  0.00    -0.387 OA
ATOM     39  H   UNL     1      -4.038  34.319   6.419  1.00  0.00     0.211 HD
ENDBRANCH  30  38
ENDBRANCH   1  25
TORSDOF 11
ENDMDL
MODEL 8
REMARK VINA RESULT:    -5.005      1.868      5.121
REMARK INTER + INTRA:          -9.075
REMARK INTER:                  -7.445
REMARK INTRA:                  -1.631
REMARK UNBOUND:                -1.876
REMARK SMILES O=c1c(O[C@@H]2O[C@@H](CO)[C@@H](O)[C@H](O)[C@@H]2O)c(-c2ccc(O)cc2)oc2cc(O)cc(O)c12
REMARK SMILES IDX 4 1 3 2 16 3 24 4 2 5 25 6 1 7 32 8 26 9 30 10 27 11 29 12
REMARK SMILES IDX 17 13 18 14 19 15 20 16 23 17 22 18 21 19 31 21 28 23 5 25
REMARK SMILES IDX 14 26 6 27 12 28 7 29 10 30 15 31 13 33 8 35 9 36 11 38
REMARK H PARENT 21 20 31 22 28 24 15 32 13 34 9 37 11 39
REMARK Flexibility Score: inf
ROOT
ATOM      1  O   UNL     1      -2.585  37.016   8.111  1.00  0.00    -0.454 OA
ENDROOT
BRANCH   1   2
ATOM      2  C   UNL     1      -2.747  38.422   8.050  1.00  0.00     0.214 A 
ATOM      3  C   UNL     1      -1.999  39.147   7.090  1.00  0.00     0.180 A 
ATOM      4  O   UNL     1      -2.176  40.456   6.950  1.00  0.00    -0.452 OA
ATOM      5  C   UNL     1      -3.563  39.166   8.932  1.00  0.00     0.239 A 
ATOM      6  C   UNL     1      -3.028  41.161   7.682  1.00  0.00     0.146 A 
ATOM      7  O   UNL     1      -3.995  38.638   9.988  1.00  0.00    -0.285 OA
ATOM      8  C   UNL     1      -3.781  40.541   8.703  1.00  0.00     0.111 A 
ATOM      9  C   UNL     1      -3.107  42.544   7.484  1.00  0.00     0.094 A 
ATOM     10  C   UNL     1      -4.637  41.335   9.512  1.00  0.00     0.134 A 
ATOM     11  C   UNL     1      -3.978  43.320   8.253  1.00  0.00     0.123 A 
ATOM     12  C   UNL     1      -4.764  42.711   9.242  1.00  0.00     0.093 A 
BRANCH   3  13
ATOM     13  C   UNL     1      -0.943  38.497   6.275  1.00  0.00     0.021 A 
ATOM     14  C   UNL     1      -1.171  38.080   4.953  1.00  0.00     0.016 A 
ATOM     15  C   UNL     1      -0.181  37.384   4.246  1.00  0.00     0.047 A 
ATOM     16  C   UNL     1       1.054  37.116   4.844  1.00  0.00     0.115 A 
ATOM     17  C   UNL     1       0.313  38.257   6.857  1.00  0.00     0.016 A 
ATOM     18  C   UNL     1       1.306  37.566   6.147  1.00  0.00     0.047 A 
BRANCH  16  19
ATOM     19  O   UNL     1       2.026  36.411   4.132  1.00  0.00    -0.508 OA
ATOM     20  H   UNL     1       2.926  36.194   4.540  1.00  0.00     0.293 HD
ENDBRANCH  16  19
ENDBRANCH   3  13
BRANCH  10  21
ATOM     21  O   UNL     1      -5.264  40.801  10.634  1.00  0.00    -0.507 OA
ATOM     22  H   UNL     1      -5.190  41.252  11.542  1.00  0.00     0.293 HD
ENDBRANCH  10  21
BRANCH  11  23
ATOM     23  O   UNL     1      -4.012  44.704   8.075  1.00  0.00    -0.508 OA
ATOM     24  H   UNL     1      -3.793  45.120   7.179  1.00  0.00     0.293 HD
ENDBRANCH  11  23
ENDBRANCH   1   2
BRANCH   1  25
ATOM     25  C   UNL     1      -3.364  35.973   7.499  1.00  0.00     0.339 C 
ATOM     26  C   UNL     1      -2.580  34.646   7.333  1.00  0.00     0.214 C 
ATOM     27  O   UNL     1      -4.545  35.746   8.263  1.00  0.00    -0.332 OA
ATOM     28  C   UNL     1      -2.248  34.016   8.703  1.00  0.00     0.180 C 
ATOM     29  C   UNL     1      -4.242  35.319   9.583  1.00  0.00     0.179 C 
ATOM     30  C   UNL     1      -3.520  33.941   9.581  1.00  0.00     0.177 C 
BRANCH  26  31
ATOM     31  O   UNL     1      -1.415  34.833   6.572  1.00  0.00    -0.384 OA
ATOM     32  H   UNL     1      -1.663  34.731   5.614  1.00  0.00     0.211 HD
ENDBRANCH  26  31
BRANCH  28  33
ATOM     33  O   UNL     1      -1.276  34.755   9.404  1.00  0.00    -0.387 OA
ATOM     34  H   UNL     1      -1.189  34.356  10.309  1.00  0.00     0.211 HD
ENDBRANCH  28  33
BRANCH  29  35
ATOM     35  C   UNL     1      -5.541  35.272  10.397  1.00  0.00     0.191 C 
BRANCH  35  36
ATOM     36  O   UNL     1      -5.845  36.550  10.885  1.00  0.00    -0.394 OA
ATOM     37  H   UNL     1      -5.773  37.170  10.118  1.00  0.00     0.210 HD
ENDBRANCH  35  36
ENDBRANCH  29  35
BRANCH  30  38
ATOM     38  O   UNL     1      -4.363  32.895   9.146  1.00  0.00    -0.387 OA
ATOM     39  H   UNL     1      -5.156  32.853   9.741  1.00  0.00     0.211 HD
ENDBRANCH  30  38
ENDBRANCH   1  25
TORSDOF 11
ENDMDL
MODEL 9
REMARK VINA RESULT:    -4.908      1.945      7.846
REMARK INTER + INTRA:          -8.936
REMARK INTER:                  -7.178
REMARK INTRA:                  -1.758
REMARK UNBOUND:                -1.876
REMARK SMILES O=c1c(O[C@@H]2O[C@@H](CO)[C@@H](O)[C@H](O)[C@@H]2O)c(-c2ccc(O)cc2)oc2cc(O)cc(O)c12
REMARK SMILES IDX 4 1 3 2 16 3 24 4 2 5 25 6 1 7 32 8 26 9 30 10 27 11 29 12
REMARK SMILES IDX 17 13 18 14 19 15 20 16 23 17 22 18 21 19 31 21 28 23 5 25
REMARK SMILES IDX 14 26 6 27 12 28 7 29 10 30 15 31 13 33 8 35 9 36 11 38
REMARK H PARENT 21 20 31 22 28 24 15 32 13 34 9 37 11 39
REMARK Flexibility Score: inf
ROOT
ATOM      1  O   UNL     1      -3.879  38.483   8.695  1.00  0.00    -0.454 OA
ENDROOT
BRANCH   1   2
ATOM      2  C   UNL     1      -2.876  38.100   7.771  1.00  0.00     0.214 A 
ATOM      3  C   UNL     1      -2.359  39.082   6.890  1.00  0.00     0.180 A 
ATOM      4  O   UNL     1      -1.367  38.783   6.060  1.00  0.00    -0.452 OA
ATOM      5  C   UNL     1      -2.395  36.779   7.622  1.00  0.00     0.239 A 
ATOM      6  C   UNL     1      -0.812  37.581   5.986  1.00  0.00     0.146 A 
ATOM      7  O   UNL     1      -3.023  35.819   8.135  1.00  0.00    -0.285 OA
ATOM      8  C   UNL     1      -1.292  36.519   6.783  1.00  0.00     0.111 A 
ATOM      9  C   UNL     1       0.200  37.360   5.045  1.00  0.00     0.094 A 
ATOM     10  C   UNL     1      -0.718  35.228   6.634  1.00  0.00     0.134 A 
ATOM     11  C   UNL     1       0.791  36.100   4.925  1.00  0.00     0.123 A 
ATOM     12  C   UNL     1       0.354  35.046   5.741  1.00  0.00     0.093 A 
BRANCH   3  13
ATOM     13  C   UNL     1      -2.956  40.438   6.803  1.00  0.00     0.021 A 
ATOM     14  C   UNL     1      -2.568  41.481   7.662  1.00  0.00     0.016 A 
ATOM     15  C   UNL     1      -3.220  42.721   7.614  1.00  0.00     0.047 A 
ATOM     16  C   UNL     1      -4.250  42.939   6.693  1.00  0.00     0.115 A 
ATOM     17  C   UNL     1      -3.966  40.676   5.856  1.00  0.00     0.016 A 
ATOM     18  C   UNL     1      -4.614  41.919   5.804  1.00  0.00     0.047 A 
BRANCH  16  19
ATOM     19  O   UNL     1      -4.898  44.175   6.665  1.00  0.00    -0.508 OA
ATOM     20  H   UNL     1      -5.665  44.355   6.030  1.00  0.00     0.293 HD
ENDBRANCH  16  19
ENDBRANCH   3  13
BRANCH  10  21
ATOM     21  O   UNL     1      -1.271  34.119   7.270  1.00  0.00    -0.507 OA
ATOM     22  H   UNL     1      -0.716  33.288   7.452  1.00  0.00     0.293 HD
ENDBRANCH  10  21
BRANCH  11  23
ATOM     23  O   UNL     1       1.767  35.883   3.952  1.00  0.00    -0.508 OA
ATOM     24  H   UNL     1       1.518  35.557   3.027  1.00  0.00     0.293 HD
ENDBRANCH  11  23
ENDBRANCH   1   2
BRANCH   1  25
ATOM     25  C   UNL     1      -5.310  38.486   8.550  1.00  0.00     0.339 C 
ATOM     26  C   UNL     1      -6.027  37.570   9.575  1.00  0.00     0.214 C 
ATOM     27  O   UNL     1      -5.801  39.818   8.665  1.00  0.00    -0.332 OA
ATOM     28  C   UNL     1      -5.864  38.104  11.015  1.00  0.00     0.180 C 
ATOM     29  C   UNL     1      -5.512  40.376   9.938  1.00  0.00     0.179 C 
ATOM     30  C   UNL     1      -6.240  39.604  11.075  1.00  0.00     0.177 C 
BRANCH  26  31
ATOM     31  O   UNL     1      -5.575  36.243   9.479  1.00  0.00    -0.384 OA
ATOM     32  H   UNL     1      -5.909  35.874   8.618  1.00  0.00     0.211 HD
ENDBRANCH  26  31
BRANCH  28  33
ATOM     33  O   UNL     1      -4.545  37.964  11.486  1.00  0.00    -0.387 OA
ATOM     34  H   UNL     1      -4.105  37.257  10.944  1.00  0.00     0.211 HD
ENDBRANCH  28  33
BRANCH  29  35
ATOM     35  C   UNL     1      -5.901  41.860   9.926  1.00  0.00     0.191 C 
BRANCH  35  36
ATOM     36  O   UNL     1      -4.966  42.605  10.657  1.00  0.00    -0.394 OA
ATOM     37  H   UNL     1      -4.732  42.064  11.452  1.00  0.00     0.210 HD
ENDBRANCH  35  36
ENDBRANCH  29  35
BRANCH  30  38
ATOM     38  O   UNL     1      -7.641  39.768  11.021  1.00  0.00    -0.387 OA
ATOM     39  H   UNL     1      -7.881  40.212  10.166  1.00  0.00     0.211 HD
ENDBRANCH  30  38
ENDBRANCH   1  25
TORSDOF 11
ENDMDL
