MODEL 1
REMARK VINA RESULT:    -3.690      0.000      0.000
REMARK INTER + INTRA:          -4.359
REMARK INTER:                  -4.337
REMARK INTRA:                  -0.023
REMARK UNBOUND:                -0.023
REMARK SMILES CCCCC(=O)[O-]
REMARK SMILES IDX 4 1 5 2 6 3 7 4 3 5 2 6 1 7
REMARK H PARENT
REMARK Flexibility Score: inf
ROOT
ATOM      1  C   UNL     1      14.025  18.875   0.434  1.00  0.00     0.053 C 
ENDROOT
BRANCH   1   2
ATOM      2  C   UNL     1      12.842  17.960   0.340  1.00  0.00     0.041 C 
ATOM      3  O   UNL     1      11.956  18.156  -0.532  1.00  0.00    -0.550 OA
ATOM      4  O   UNL     1      12.736  16.870   1.196  1.00  0.00    -0.550 OA
ENDBRANCH   1   2
BRANCH   1   5
ATOM      5  C   UNL     1      13.800  20.177  -0.345  1.00  0.00     0.006 C 
BRANCH   5   6
ATOM      6  C   UNL     1      15.116  20.913  -0.636  1.00  0.00    -0.003 C 
ATOM      7  C   UNL     1      14.972  21.840  -1.840  1.00  0.00     0.004 C 
ENDBRANCH   5   6
ENDBRANCH   1   5
TORSDOF 3
ENDMDL
MODEL 2
REMARK VINA RESULT:    -3.452      2.805      4.163
REMARK INTER + INTRA:          -4.080
REMARK INTER:                  -4.037
REMARK INTRA:                  -0.043
REMARK UNBOUND:                -0.023
REMARK SMILES CCCCC(=O)[O-]
REMARK SMILES IDX 4 1 5 2 6 3 7 4 3 5 2 6 1 7
REMARK H PARENT
REMARK Flexibility Score: inf
ROOT
ATOM      1  C   UNL     1      13.763  20.250  -0.381  1.00  0.00     0.053 C 
ENDROOT
BRANCH   1   2
ATOM      2  C   UNL     1      14.947  21.004  -0.904  1.00  0.00     0.041 C 
ATOM      3  O   UNL     1      16.096  20.779  -0.444  1.00  0.00    -0.550 OA
ATOM      4  O   UNL     1      14.784  21.933  -1.926  1.00  0.00    -0.550 OA
ENDBRANCH   1   2
BRANCH   1   5
ATOM      5  C   UNL     1      14.185  19.004   0.407  1.00  0.00     0.006 C 
BRANCH   5   6
ATOM      6  C   UNL     1      13.066  17.954   0.475  1.00  0.00    -0.003 C 
ATOM      7  C   UNL     1      11.985  18.235  -0.565  1.00  0.00     0.004 C 
ENDBRANCH   5   6
ENDBRANCH   1   5
TORSDOF 3
ENDMDL
MODEL 3
REMARK VINA RESULT:    -3.288      1.295      1.829
REMARK INTER + INTRA:          -3.888
REMARK INTER:                  -3.867
REMARK INTRA:                  -0.021
REMARK UNBOUND:                -0.023
REMARK SMILES CCCCC(=O)[O-]
REMARK SMILES IDX 4 1 5 2 6 3 7 4 3 5 2 6 1 7
REMARK H PARENT
REMARK Flexibility Score: inf
ROOT
ATOM      1  C   UNL     1      13.667  20.118  -0.429  1.00  0.00     0.053 C 
ENDROOT
BRANCH   1   2
ATOM      2  C   UNL     1      13.824  18.851   0.355  1.00  0.00     0.041 C 
ATOM      3  O   UNL     1      14.909  18.599   0.942  1.00  0.00    -0.550 OA
ATOM      4  O   UNL     1      12.759  17.965   0.465  1.00  0.00    -0.550 OA
ENDBRANCH   1   2
BRANCH   1   5
ATOM      5  C   UNL     1      15.014  20.814  -0.661  1.00  0.00     0.006 C 
BRANCH   5   6
ATOM      6  C   UNL     1      14.941  21.859  -1.784  1.00  0.00    -0.003 C 
ATOM      7  C   UNL     1      16.321  22.125  -2.379  1.00  0.00     0.004 C 
ENDBRANCH   5   6
ENDBRANCH   1   5
TORSDOF 3
ENDMDL
MODEL 4
REMARK VINA RESULT:    -2.827      9.742     11.478
REMARK INTER + INTRA:          -3.346
REMARK INTER:                  -3.329
REMARK INTRA:                  -0.017
REMARK UNBOUND:                -0.023
REMARK SMILES CCCCC(=O)[O-]
REMARK SMILES IDX 4 1 5 2 6 3 7 4 3 5 2 6 1 7
REMARK H PARENT
REMARK Flexibility Score: inf
ROOT
ATOM      1  C   UNL     1      14.191  13.075   8.042  1.00  0.00     0.053 C 
ENDROOT
BRANCH   1   2
ATOM      2  C   UNL     1      15.290  13.600   7.171  1.00  0.00     0.041 C 
ATOM      3  O   UNL     1      15.880  12.836   6.363  1.00  0.00    -0.550 OA
ATOM      4  O   UNL     1      15.641  14.944   7.228  1.00  0.00    -0.550 OA
ENDBRANCH   1   2
BRANCH   1   5
ATOM      5  C   UNL     1      14.499  13.278   9.531  1.00  0.00     0.006 C 
BRANCH   5   6
ATOM      6  C   UNL     1      13.983  12.117  10.394  1.00  0.00    -0.003 C 
ATOM      7  C   UNL     1      13.614  12.595  11.795  1.00  0.00     0.004 C 
ENDBRANCH   5   6
ENDBRANCH   1   5
TORSDOF 3
ENDMDL
MODEL 5
REMARK VINA RESULT:    -2.821      9.677     11.403
REMARK INTER + INTRA:          -3.339
REMARK INTER:                  -3.322
REMARK INTRA:                  -0.017
REMARK UNBOUND:                -0.023
REMARK SMILES CCCCC(=O)[O-]
REMARK SMILES IDX 4 1 5 2 6 3 7 4 3 5 2 6 1 7
REMARK H PARENT
REMARK Flexibility Score: inf
ROOT
ATOM      1  C   UNL     1      14.237  13.073   7.941  1.00  0.00     0.053 C 
ENDROOT
BRANCH   1   2
ATOM      2  C   UNL     1      15.338  13.619   7.084  1.00  0.00     0.041 C 
ATOM      3  O   UNL     1      15.616  14.847   7.115  1.00  0.00    -0.550 OA
ATOM      4  O   UNL     1      16.079  12.765   6.276  1.00  0.00    -0.550 OA
ENDBRANCH   1   2
BRANCH   1   5
ATOM      5  C   UNL     1      14.540  13.243   9.435  1.00  0.00     0.006 C 
BRANCH   5   6
ATOM      6  C   UNL     1      14.004  12.073  10.273  1.00  0.00    -0.003 C 
ATOM      7  C   UNL     1      13.540  12.549  11.646  1.00  0.00     0.004 C 
ENDBRANCH   5   6
ENDBRANCH   1   5
TORSDOF 3
ENDMDL
MODEL 6
REMARK VINA RESULT:    -2.675     10.774     11.714
REMARK INTER + INTRA:          -3.167
REMARK INTER:                  -3.129
REMARK INTRA:                  -0.038
REMARK UNBOUND:                -0.023
REMARK SMILES CCCCC(=O)[O-]
REMARK SMILES IDX 4 1 5 2 6 3 7 4 3 5 2 6 1 7
REMARK H PARENT
REMARK Flexibility Score: inf
ROOT
ATOM      1  C   UNL     1      14.099  12.721   9.231  1.00  0.00     0.053 C 
ENDROOT
BRANCH   1   2
ATOM      2  C   UNL     1      14.123  12.159  10.620  1.00  0.00     0.041 C 
ATOM      3  O   UNL     1      13.340  12.606  11.499  1.00  0.00    -0.550 OA
ATOM      4  O   UNL     1      14.988  11.118  10.934  1.00  0.00    -0.550 OA
ENDBRANCH   1   2
BRANCH   1   5
ATOM      5  C   UNL     1      14.817  14.075   9.153  1.00  0.00     0.006 C 
BRANCH   5   6
ATOM      6  C   UNL     1      15.540  14.271   7.812  1.00  0.00    -0.003 C 
ATOM      7  C   UNL     1      15.139  13.193   6.809  1.00  0.00     0.004 C 
ENDBRANCH   5   6
ENDBRANCH   1   5
TORSDOF 3
ENDMDL
MODEL 7
REMARK VINA RESULT:    -2.638     24.021     24.951
REMARK INTER + INTRA:          -3.123
REMARK INTER:                  -3.050
REMARK INTRA:                  -0.073
REMARK UNBOUND:                -0.023
REMARK SMILES CCCCC(=O)[O-]
REMARK SMILES IDX 4 1 5 2 6 3 7 4 3 5 2 6 1 7
REMARK H PARENT
REMARK Flexibility Score: inf
ROOT
ATOM      1  C   UNL     1      -1.969   4.099  11.511  1.00  0.00     0.053 C 
ENDROOT
BRANCH   1   2
ATOM      2  C   UNL     1      -0.896   3.100  11.821  1.00  0.00     0.041 C 
ATOM      3  O   UNL     1      -1.174   1.875  11.901  1.00  0.00    -0.550 OA
ATOM      4  O   UNL     1       0.418   3.520  11.989  1.00  0.00    -0.550 OA
ENDBRANCH   1   2
BRANCH   1   5
ATOM      5  C   UNL     1      -2.896   4.330  12.711  1.00  0.00     0.006 C 
BRANCH   5   6
ATOM      6  C   UNL     1      -3.038   5.820  13.056  1.00  0.00    -0.003 C 
ATOM      7  C   UNL     1      -1.675   6.502  13.120  1.00  0.00     0.004 C 
ENDBRANCH   5   6
ENDBRANCH   1   5
TORSDOF 3
ENDMDL
MODEL 8
REMARK VINA RESULT:    -2.614     11.475     13.123
REMARK INTER + INTRA:          -3.095
REMARK INTER:                  -2.997
REMARK INTRA:                  -0.098
REMARK UNBOUND:                -0.023
REMARK SMILES CCCCC(=O)[O-]
REMARK SMILES IDX 4 1 5 2 6 3 7 4 3 5 2 6 1 7
REMARK H PARENT
REMARK Flexibility Score: inf
ROOT
ATOM      1  C   UNL     1      13.754  12.034  10.228  1.00  0.00     0.053 C 
ENDROOT
BRANCH   1   2
ATOM      2  C   UNL     1      14.261  13.035   9.237  1.00  0.00     0.041 C 
ATOM      3  O   UNL     1      14.906  14.043   9.627  1.00  0.00    -0.550 OA
ATOM      4  O   UNL     1      14.050  12.836   7.877  1.00  0.00    -0.550 OA
ENDBRANCH   1   2
BRANCH   1   5
ATOM      5  C   UNL     1      14.877  11.505  11.129  1.00  0.00     0.006 C 
BRANCH   5   6
ATOM      6  C   UNL     1      14.691  11.924  12.595  1.00  0.00    -0.003 C 
ATOM      7  C   UNL     1      13.355  12.633  12.799  1.00  0.00     0.004 C 
ENDBRANCH   5   6
ENDBRANCH   1   5
TORSDOF 3
ENDMDL
MODEL 9
REMARK VINA RESULT:    -2.392     11.742     12.970
REMARK INTER + INTRA:          -2.834
REMARK INTER:                  -2.791
REMARK INTRA:                  -0.043
REMARK UNBOUND:                -0.023
REMARK SMILES CCCCC(=O)[O-]
REMARK SMILES IDX 4 1 5 2 6 3 7 4 3 5 2 6 1 7
REMARK H PARENT
REMARK Flexibility Score: inf
ROOT
ATOM      1  C   UNL     1      13.790  12.329  10.871  1.00  0.00     0.053 C 
ENDROOT
BRANCH   1   2
ATOM      2  C   UNL     1      13.746  12.761  12.304  1.00  0.00     0.041 C 
ATOM      3  O   UNL     1      14.780  13.212  12.863  1.00  0.00    -0.550 OA
ATOM      4  O   UNL     1      12.553  12.697  13.014  1.00  0.00    -0.550 OA
ENDBRANCH   1   2
BRANCH   1   5
ATOM      5  C   UNL     1      15.099  12.750  10.190  1.00  0.00     0.006 C 
BRANCH   5   6
ATOM      6  C   UNL     1      14.860  13.716   9.020  1.00  0.00    -0.003 C 
ATOM      7  C   UNL     1      14.145  13.017   7.868  1.00  0.00     0.004 C 
ENDBRANCH   5   6
ENDBRANCH   1   5
TORSDOF 3
ENDMDL
