MODEL 1
REMARK VINA RESULT:    -4.222      0.000      0.000
REMARK INTER + INTRA:          -5.323
REMARK INTER:                  -5.209
REMARK INTRA:                  -0.114
REMARK UNBOUND:                -0.114
REMARK SMILES CCCCCC(=O)[O-]
REMARK SMILES IDX 4 1 5 2 6 3 7 4 8 5 3 6 2 7 1 8
REMARK H PARENT
REMARK Flexibility Score: inf
ROOT
ATOM      1  C   UNL     1      15.404   3.586  55.613  1.00  0.00     0.006 C 
ENDROOT
BRANCH   1   2
ATOM      2  C   UNL     1      14.024   3.223  56.177  1.00  0.00     0.053 C 
BRANCH   2   3
ATOM      3  C   UNL     1      12.939   4.055  55.564  1.00  0.00     0.041 C 
ATOM      4  O   UNL     1      12.973   4.338  54.337  1.00  0.00    -0.550 OA
ATOM      5  O   UNL     1      11.873   4.488  56.341  1.00  0.00    -0.550 OA
ENDBRANCH   2   3
ENDBRANCH   1   2
BRANCH   1   6
ATOM      6  C   UNL     1      16.319   2.356  55.483  1.00  0.00     0.000 C 
BRANCH   6   7
ATOM      7  C   UNL     1      15.871   1.190  56.379  1.00  0.00    -0.003 C 
ATOM      8  C   UNL     1      16.527  -0.135  55.995  1.00  0.00     0.004 C 
ENDBRANCH   6   7
ENDBRANCH   1   6
TORSDOF 4
ENDMDL
MODEL 2
REMARK VINA RESULT:    -3.887     13.241     14.971
REMARK INTER + INTRA:          -4.910
REMARK INTER:                  -4.730
REMARK INTRA:                  -0.180
REMARK UNBOUND:                -0.114
REMARK SMILES CCCCCC(=O)[O-]
REMARK SMILES IDX 4 1 5 2 6 3 7 4 8 5 3 6 2 7 1 8
REMARK H PARENT
REMARK Flexibility Score: inf
ROOT
ATOM      1  C   UNL     1      23.697  -8.632  54.655  1.00  0.00     0.006 C 
ENDROOT
BRANCH   1   2
ATOM      2  C   UNL     1      25.208  -8.719  54.909  1.00  0.00     0.053 C 
BRANCH   2   3
ATOM      3  C   UNL     1      25.570  -8.214  56.272  1.00  0.00     0.041 C 
ATOM      4  O   UNL     1      26.635  -8.592  56.827  1.00  0.00    -0.550 OA
ATOM      5  O   UNL     1      24.747  -7.297  56.914  1.00  0.00    -0.550 OA
ENDBRANCH   2   3
ENDBRANCH   1   2
BRANCH   1   6
ATOM      6  C   UNL     1      23.322  -7.415  53.793  1.00  0.00     0.000 C 
BRANCH   6   7
ATOM      7  C   UNL     1      22.054  -6.705  54.294  1.00  0.00    -0.003 C 
ATOM      8  C   UNL     1      21.439  -7.388  55.514  1.00  0.00     0.004 C 
ENDBRANCH   6   7
ENDBRANCH   1   6
TORSDOF 4
ENDMDL
MODEL 3
REMARK VINA RESULT:    -3.849      3.999      5.885
REMARK INTER + INTRA:          -4.864
REMARK INTER:                  -4.611
REMARK INTRA:                  -0.252
REMARK UNBOUND:                -0.114
REMARK SMILES CCCCCC(=O)[O-]
REMARK SMILES IDX 4 1 5 2 6 3 7 4 8 5 3 6 2 7 1 8
REMARK H PARENT
REMARK Flexibility Score: inf
ROOT
ATOM      1  C   UNL     1       9.749   4.084  54.842  1.00  0.00     0.006 C 
ENDROOT
BRANCH   1   2
ATOM      2  C   UNL     1      10.984   3.298  54.381  1.00  0.00     0.053 C 
BRANCH   2   3
ATOM      3  C   UNL     1      12.089   4.210  53.944  1.00  0.00     0.041 C 
ATOM      4  O   UNL     1      11.959   4.912  52.906  1.00  0.00    -0.550 OA
ATOM      5  O   UNL     1      13.249   4.309  54.701  1.00  0.00    -0.550 OA
ENDBRANCH   2   3
ENDBRANCH   1   2
BRANCH   1   6
ATOM      6  C   UNL     1      10.083   5.087  55.960  1.00  0.00     0.000 C 
BRANCH   6   7
ATOM      7  C   UNL     1       9.397   6.447  55.756  1.00  0.00    -0.003 C 
ATOM      8  C   UNL     1       9.297   6.843  54.284  1.00  0.00     0.004 C 
ENDBRANCH   6   7
ENDBRANCH   1   6
TORSDOF 4
ENDMDL
MODEL 4
REMARK VINA RESULT:    -3.844      1.608      2.670
REMARK INTER + INTRA:          -4.857
REMARK INTER:                  -4.786
REMARK INTRA:                  -0.070
REMARK UNBOUND:                -0.114
REMARK SMILES CCCCCC(=O)[O-]
REMARK SMILES IDX 4 1 5 2 6 3 7 4 8 5 3 6 2 7 1 8
REMARK H PARENT
REMARK Flexibility Score: inf
ROOT
ATOM      1  C   UNL     1      13.115   4.333  55.357  1.00  0.00     0.006 C 
ENDROOT
BRANCH   1   2
ATOM      2  C   UNL     1      11.752   4.377  56.059  1.00  0.00     0.053 C 
BRANCH   2   3
ATOM      3  C   UNL     1      10.648   3.919  55.156  1.00  0.00     0.041 C 
ATOM      4  O   UNL     1       9.481   4.369  55.301  1.00  0.00    -0.550 OA
ATOM      5  O   UNL     1      10.916   3.020  54.131  1.00  0.00    -0.550 OA
ENDBRANCH   2   3
ENDBRANCH   1   2
BRANCH   1   6
ATOM      6  C   UNL     1      14.078   3.333  56.020  1.00  0.00     0.000 C 
BRANCH   6   7
ATOM      7  C   UNL     1      15.530   3.512  55.549  1.00  0.00    -0.003 C 
ATOM      8  C   UNL     1      16.316   2.203  55.547  1.00  0.00     0.004 C 
ENDBRANCH   6   7
ENDBRANCH   1   6
TORSDOF 4
ENDMDL
MODEL 5
REMARK VINA RESULT:    -3.840      3.548      6.139
REMARK INTER + INTRA:          -4.852
REMARK INTER:                  -4.688
REMARK INTRA:                  -0.164
REMARK UNBOUND:                -0.114
REMARK SMILES CCCCCC(=O)[O-]
REMARK SMILES IDX 4 1 5 2 6 3 7 4 8 5 3 6 2 7 1 8
REMARK H PARENT
REMARK Flexibility Score: inf
ROOT
ATOM      1  C   UNL     1       9.490   4.037  55.429  1.00  0.00     0.006 C 
ENDROOT
BRANCH   1   2
ATOM      2  C   UNL     1      10.633   3.611  54.498  1.00  0.00     0.053 C 
BRANCH   2   3
ATOM      3  C   UNL     1      11.958   3.646  55.196  1.00  0.00     0.041 C 
ATOM      4  O   UNL     1      12.898   4.348  54.738  1.00  0.00    -0.550 OA
ATOM      5  O   UNL     1      12.143   2.930  56.372  1.00  0.00    -0.550 OA
ENDBRANCH   2   3
ENDBRANCH   1   2
BRANCH   1   6
ATOM      6  C   UNL     1       9.653   5.485  55.924  1.00  0.00     0.000 C 
BRANCH   6   7
ATOM      7  C   UNL     1       9.466   6.517  54.800  1.00  0.00    -0.003 C 
ATOM      8  C   UNL     1       8.971   7.867  55.315  1.00  0.00     0.004 C 
ENDBRANCH   6   7
ENDBRANCH   1   6
TORSDOF 4
ENDMDL
MODEL 6
REMARK VINA RESULT:    -3.811      3.931      5.830
REMARK INTER + INTRA:          -4.816
REMARK INTER:                  -4.546
REMARK INTRA:                  -0.269
REMARK UNBOUND:                -0.114
REMARK SMILES CCCCCC(=O)[O-]
REMARK SMILES IDX 4 1 5 2 6 3 7 4 8 5 3 6 2 7 1 8
REMARK H PARENT
REMARK Flexibility Score: inf
ROOT
ATOM      1  C   UNL     1       9.729   4.054  54.788  1.00  0.00     0.006 C 
ENDROOT
BRANCH   1   2
ATOM      2  C   UNL     1      11.015   3.277  54.475  1.00  0.00     0.053 C 
BRANCH   2   3
ATOM      3  C   UNL     1      12.123   4.190  54.049  1.00  0.00     0.041 C 
ATOM      4  O   UNL     1      13.183   4.260  54.724  1.00  0.00    -0.550 OA
ATOM      5  O   UNL     1      11.997   4.940  52.886  1.00  0.00    -0.550 OA
ENDBRANCH   2   3
ENDBRANCH   1   2
BRANCH   1   6
ATOM      6  C   UNL     1       9.944   5.118  55.878  1.00  0.00     0.000 C 
BRANCH   6   7
ATOM      7  C   UNL     1       9.482   6.516  55.436  1.00  0.00    -0.003 C 
ATOM      8  C   UNL     1      10.648   7.462  55.154  1.00  0.00     0.004 C 
ENDBRANCH   6   7
ENDBRANCH   1   6
TORSDOF 4
ENDMDL
MODEL 7
REMARK VINA RESULT:    -3.798      3.068      4.860
REMARK INTER + INTRA:          -4.800
REMARK INTER:                  -4.527
REMARK INTRA:                  -0.273
REMARK UNBOUND:                -0.114
REMARK SMILES CCCCCC(=O)[O-]
REMARK SMILES IDX 4 1 5 2 6 3 7 4 8 5 3 6 2 7 1 8
REMARK H PARENT
REMARK Flexibility Score: inf
ROOT
ATOM      1  C   UNL     1      12.087   4.361  55.006  1.00  0.00     0.006 C 
ENDROOT
BRANCH   1   2
ATOM      2  C   UNL     1      13.177   3.683  55.846  1.00  0.00     0.053 C 
BRANCH   2   3
ATOM      3  C   UNL     1      12.611   3.044  57.077  1.00  0.00     0.041 C 
ATOM      4  O   UNL     1      12.899   1.852  57.364  1.00  0.00    -0.550 OA
ATOM      5  O   UNL     1      11.792   3.777  57.926  1.00  0.00    -0.550 OA
ENDBRANCH   2   3
ENDBRANCH   1   2
BRANCH   1   6
ATOM      6  C   UNL     1      11.048   3.355  54.482  1.00  0.00     0.000 C 
BRANCH   6   7
ATOM      7  C   UNL     1       9.612   3.725  54.887  1.00  0.00    -0.003 C 
ATOM      8  C   UNL     1       9.523   5.094  55.560  1.00  0.00     0.004 C 
ENDBRANCH   6   7
ENDBRANCH   1   6
TORSDOF 4
ENDMDL
MODEL 8
REMARK VINA RESULT:    -3.783      4.443      5.227
REMARK INTER + INTRA:          -4.782
REMARK INTER:                  -4.527
REMARK INTRA:                  -0.255
REMARK UNBOUND:                -0.114
REMARK SMILES CCCCCC(=O)[O-]
REMARK SMILES IDX 4 1 5 2 6 3 7 4 8 5 3 6 2 7 1 8
REMARK H PARENT
REMARK Flexibility Score: inf
ROOT
ATOM      1  C   UNL     1       9.613   4.150  55.428  1.00  0.00     0.006 C 
ENDROOT
BRANCH   1   2
ATOM      2  C   UNL     1       9.478   5.559  56.020  1.00  0.00     0.053 C 
BRANCH   2   3
ATOM      3  C   UNL     1       9.882   6.614  55.036  1.00  0.00     0.041 C 
ATOM      4  O   UNL     1       9.147   6.876  54.048  1.00  0.00    -0.550 OA
ATOM      5  O   UNL     1      11.055   7.331  55.231  1.00  0.00    -0.550 OA
ENDBRANCH   2   3
ENDBRANCH   1   2
BRANCH   1   6
ATOM      6  C   UNL     1      11.083   3.751  55.208  1.00  0.00     0.000 C 
BRANCH   6   7
ATOM      7  C   UNL     1      11.397   3.446  53.735  1.00  0.00    -0.003 C 
ATOM      8  C   UNL     1      12.179   4.568  53.054  1.00  0.00     0.004 C 
ENDBRANCH   6   7
ENDBRANCH   1   6
TORSDOF 4
ENDMDL
MODEL 9
REMARK VINA RESULT:    -3.779      3.013      4.587
REMARK INTER + INTRA:          -4.776
REMARK INTER:                  -4.550
REMARK INTRA:                  -0.226
REMARK UNBOUND:                -0.114
REMARK SMILES CCCCCC(=O)[O-]
REMARK SMILES IDX 4 1 5 2 6 3 7 4 8 5 3 6 2 7 1 8
REMARK H PARENT
REMARK Flexibility Score: inf
ROOT
ATOM      1  C   UNL     1      11.547   4.514  56.346  1.00  0.00     0.006 C 
ENDROOT
BRANCH   1   2
ATOM      2  C   UNL     1      11.770   3.434  57.413  1.00  0.00     0.053 C 
BRANCH   2   3
ATOM      3  C   UNL     1      13.015   2.644  57.148  1.00  0.00     0.041 C 
ATOM      4  O   UNL     1      13.167   1.506  57.667  1.00  0.00    -0.550 OA
ATOM      5  O   UNL     1      13.992   3.150  56.301  1.00  0.00    -0.550 OA
ENDBRANCH   2   3
ENDBRANCH   1   2
BRANCH   1   6
ATOM      6  C   UNL     1      10.442   4.125  55.349  1.00  0.00     0.000 C 
BRANCH   6   7
ATOM      7  C   UNL     1      10.990   3.374  54.125  1.00  0.00    -0.003 C 
ATOM      8  C   UNL     1      12.125   4.126  53.431  1.00  0.00     0.004 C 
ENDBRANCH   6   7
ENDBRANCH   1   6
TORSDOF 4
ENDMDL
