MODEL 1
REMARK VINA RESULT:    -7.304      0.000      0.000
REMARK INTER + INTRA:         -10.739
REMARK INTER:                  -9.866
REMARK INTRA:                  -0.873
REMARK UNBOUND:                -0.873
REMARK SMILES O=c1c(-c2ccc(O)cc2)coc2c([C@H]3O[C@H](CO)[C@@H](O)[C@@H](O)[C@@H]3O)c(O)ccc12
REMARK SMILES IDX 3 1 11 2 12 3 13 4 30 5 2 6 1 7 29 8 28 9 26 10 14 11 4 12
REMARK SMILES IDX 5 13 6 14 7 15 10 16 9 17 8 18 15 20 24 21 16 22 22 23 17 24
REMARK SMILES IDX 20 25 25 26 23 28 18 30 19 31 21 33 27 35
REMARK H PARENT 8 19 25 27 23 29 19 32 21 34 27 36
REMARK Flexibility Score: inf
ROOT
ATOM      1  C   UNL     1      -6.429  -8.656  -3.901  1.00  0.00     0.065 A 
ATOM      2  C   UNL     1      -6.853  -7.591  -4.704  1.00  0.00     0.208 A 
ATOM      3  O   UNL     1      -5.976  -6.761  -5.253  1.00  0.00    -0.463 OA
ATOM      4  C   UNL     1      -4.659  -6.868  -5.097  1.00  0.00     0.147 A 
ATOM      5  C   UNL     1      -4.145  -7.958  -4.351  1.00  0.00     0.066 A 
ATOM      6  C   UNL     1      -5.045  -8.840  -3.725  1.00  0.00     0.200 A 
ATOM      7  O   UNL     1      -4.614  -9.792  -3.018  1.00  0.00    -0.288 OA
ATOM      8  C   UNL     1      -2.762  -8.154  -4.273  1.00  0.00     0.020 A 
ATOM      9  C   UNL     1      -1.898  -7.307  -4.954  1.00  0.00     0.047 A 
ATOM     10  C   UNL     1      -2.382  -6.219  -5.683  1.00  0.00     0.125 A 
ATOM     11  C   UNL     1      -3.774  -5.920  -5.688  1.00  0.00     0.069 A 
ENDROOT
BRANCH   1  12
ATOM     12  C   UNL     1      -7.429  -9.532  -3.240  1.00  0.00    -0.011 A 
ATOM     13  C   UNL     1      -7.617  -9.453  -1.849  1.00  0.00     0.013 A 
ATOM     14  C   UNL     1      -8.516 -10.311  -1.209  1.00  0.00     0.047 A 
ATOM     15  C   UNL     1      -9.246 -11.248  -1.949  1.00  0.00     0.115 A 
ATOM     16  C   UNL     1      -8.173 -10.468  -3.979  1.00  0.00     0.013 A 
ATOM     17  C   UNL     1      -9.079 -11.317  -3.335  1.00  0.00     0.047 A 
BRANCH  15  18
ATOM     18  O   UNL     1     -10.125 -12.122  -1.314  1.00  0.00    -0.508 OA
ATOM     19  H   UNL     1     -11.118 -11.934  -1.273  1.00  0.00     0.293 HD
ENDBRANCH  15  18
ENDBRANCH   1  12
BRANCH  11  20
ATOM     20  C   UNL     1      -4.257  -4.637  -6.390  1.00  0.00     0.188 C 
ATOM     21  C   UNL     1      -5.554  -3.936  -5.849  1.00  0.00     0.179 C 
ATOM     22  O   UNL     1      -4.246  -4.783  -7.803  1.00  0.00    -0.362 OA
ATOM     23  C   UNL     1      -6.472  -3.549  -7.028  1.00  0.00     0.177 C 
ATOM     24  C   UNL     1      -5.376  -5.501  -8.272  1.00  0.00     0.176 C 
ATOM     25  C   UNL     1      -6.707  -4.740  -7.981  1.00  0.00     0.177 C 
BRANCH  21  26
ATOM     26  O   UNL     1      -5.200  -2.772  -5.141  1.00  0.00    -0.387 OA
ATOM     27  H   UNL     1      -5.145  -3.016  -4.179  1.00  0.00     0.211 HD
ENDBRANCH  21  26
BRANCH  23  28
ATOM     28  O   UNL     1      -7.693  -3.003  -6.589  1.00  0.00    -0.387 OA
ATOM     29  H   UNL     1      -7.797  -3.225  -5.627  1.00  0.00     0.211 HD
ENDBRANCH  23  28
BRANCH  24  30
ATOM     30  C   UNL     1      -5.189  -5.744  -9.776  1.00  0.00     0.191 C 
BRANCH  30  31
ATOM     31  O   UNL     1      -5.636  -7.027 -10.125  1.00  0.00    -0.394 OA
ATOM     32  H   UNL     1      -5.442  -7.156 -11.090  1.00  0.00     0.210 HD
ENDBRANCH  30  31
ENDBRANCH  24  30
BRANCH  25  33
ATOM     33  O   UNL     1      -7.653  -5.621  -7.426  1.00  0.00    -0.388 OA
ATOM     34  H   UNL     1      -7.771  -5.360  -6.477  1.00  0.00     0.211 HD
ENDBRANCH  25  33
ENDBRANCH  11  20
BRANCH  10  35
ATOM     35  O   UNL     1      -1.443  -5.476  -6.407  1.00  0.00    -0.507 OA
ATOM     36  H   UNL     1      -0.579  -5.854  -6.768  1.00  0.00     0.293 HD
ENDBRANCH  10  35
TORSDOF 9
ENDMDL
MODEL 2
REMARK VINA RESULT:    -7.120      6.980     10.462
REMARK INTER + INTRA:         -10.490
REMARK INTER:                 -10.795
REMARK INTRA:                   0.305
REMARK UNBOUND:                -0.873
REMARK SMILES O=c1c(-c2ccc(O)cc2)coc2c([C@H]3O[C@H](CO)[C@@H](O)[C@@H](O)[C@@H]3O)c(O)ccc12
REMARK SMILES IDX 3 1 11 2 12 3 13 4 30 5 2 6 1 7 29 8 28 9 26 10 14 11 4 12
REMARK SMILES IDX 5 13 6 14 7 15 10 16 9 17 8 18 15 20 24 21 16 22 22 23 17 24
REMARK SMILES IDX 20 25 25 26 23 28 18 30 19 31 21 33 27 35
REMARK H PARENT 8 19 25 27 23 29 19 32 21 34 27 36
REMARK Flexibility Score: inf
ROOT
ATOM      1  C   UNL     1       0.880  -5.224  -5.872  1.00  0.00     0.065 A 
ATOM      2  C   UNL     1       1.494  -4.225  -5.106  1.00  0.00     0.208 A 
ATOM      3  O   UNL     1       2.591  -3.617  -5.536  1.00  0.00    -0.463 OA
ATOM      4  C   UNL     1       3.182  -3.890  -6.696  1.00  0.00     0.147 A 
ATOM      5  C   UNL     1       2.587  -4.844  -7.559  1.00  0.00     0.066 A 
ATOM      6  C   UNL     1       1.441  -5.535  -7.124  1.00  0.00     0.200 A 
ATOM      7  O   UNL     1       0.918  -6.420  -7.854  1.00  0.00    -0.288 OA
ATOM      8  C   UNL     1       3.128  -5.060  -8.831  1.00  0.00     0.020 A 
ATOM      9  C   UNL     1       4.219  -4.317  -9.261  1.00  0.00     0.047 A 
ATOM     10  C   UNL     1       4.830  -3.384  -8.422  1.00  0.00     0.125 A 
ATOM     11  C   UNL     1       4.382  -3.222  -7.081  1.00  0.00     0.069 A 
ENDROOT
BRANCH   1  12
ATOM     12  C   UNL     1      -0.308  -5.940  -5.343  1.00  0.00    -0.011 A 
ATOM     13  C   UNL     1      -0.282  -6.468  -4.039  1.00  0.00     0.013 A 
ATOM     14  C   UNL     1      -1.373  -7.192  -3.550  1.00  0.00     0.047 A 
ATOM     15  C   UNL     1      -2.506  -7.388  -4.349  1.00  0.00     0.115 A 
ATOM     16  C   UNL     1      -1.452  -6.131  -6.136  1.00  0.00     0.013 A 
ATOM     17  C   UNL     1      -2.545  -6.847  -5.638  1.00  0.00     0.047 A 
BRANCH  15  18
ATOM     18  O   UNL     1      -3.586  -8.129  -3.877  1.00  0.00    -0.508 OA
ATOM     19  H   UNL     1      -4.522  -7.745  -3.862  1.00  0.00     0.293 HD
ENDBRANCH  15  18
ENDBRANCH   1  12
BRANCH  11  20
ATOM     20  C   UNL     1       5.163  -2.282  -6.143  1.00  0.00     0.188 C 
ATOM     21  C   UNL     1       6.412  -1.525  -6.719  1.00  0.00     0.179 C 
ATOM     22  O   UNL     1       5.408  -2.892  -4.883  1.00  0.00    -0.362 OA
ATOM     23  C   UNL     1       7.586  -1.616  -5.721  1.00  0.00     0.177 C 
ATOM     24  C   UNL     1       6.499  -3.797  -4.935  1.00  0.00     0.176 C 
ATOM     25  C   UNL     1       7.839  -3.069  -5.270  1.00  0.00     0.177 C 
BRANCH  21  26
ATOM     26  O   UNL     1       6.088  -0.171  -6.927  1.00  0.00    -0.387 OA
ATOM     27  H   UNL     1       5.820   0.207  -6.048  1.00  0.00     0.211 HD
ENDBRANCH  21  26
BRANCH  23  28
ATOM     28  O   UNL     1       8.761  -1.034  -6.235  1.00  0.00    -0.387 OA
ATOM     29  H   UNL     1       9.020  -0.289  -5.632  1.00  0.00     0.211 HD
ENDBRANCH  23  28
BRANCH  24  30
ATOM     30  C   UNL     1       6.578  -4.517  -3.582  1.00  0.00     0.191 C 
BRANCH  30  31
ATOM     31  O   UNL     1       6.289  -5.881  -3.734  1.00  0.00    -0.394 OA
ATOM     32  H   UNL     1       7.030  -6.284  -4.259  1.00  0.00     0.210 HD
ENDBRANCH  30  31
ENDBRANCH  24  30
BRANCH  25  33
ATOM     33  O   UNL     1       8.529  -3.773  -6.273  1.00  0.00    -0.388 OA
ATOM     34  H   UNL     1       9.394  -3.308  -6.410  1.00  0.00     0.211 HD
ENDBRANCH  25  33
ENDBRANCH  11  20
BRANCH  10  35
ATOM     35  O   UNL     1       5.866  -2.622  -8.973  1.00  0.00    -0.507 OA
ATOM     36  H   UNL     1       6.054  -2.554  -9.963  1.00  0.00     0.293 HD
ENDBRANCH  10  35
TORSDOF 9
ENDMDL
MODEL 3
REMARK VINA RESULT:    -7.095     14.855     17.727
REMARK INTER + INTRA:         -10.457
REMARK INTER:                 -10.820
REMARK INTRA:                   0.363
REMARK UNBOUND:                -0.873
REMARK SMILES O=c1c(-c2ccc(O)cc2)coc2c([C@H]3O[C@H](CO)[C@@H](O)[C@@H](O)[C@@H]3O)c(O)ccc12
REMARK SMILES IDX 3 1 11 2 12 3 13 4 30 5 2 6 1 7 29 8 28 9 26 10 14 11 4 12
REMARK SMILES IDX 5 13 6 14 7 15 10 16 9 17 8 18 15 20 24 21 16 22 22 23 17 24
REMARK SMILES IDX 20 25 25 26 23 28 18 30 19 31 21 33 27 35
REMARK H PARENT 8 19 25 27 23 29 19 32 21 34 27 36
REMARK Flexibility Score: inf
ROOT
ATOM      1  C   UNL     1       5.578  -0.117   2.010  1.00  0.00     0.065 A 
ATOM      2  C   UNL     1       4.704   0.874   2.473  1.00  0.00     0.208 A 
ATOM      3  O   UNL     1       4.923   1.489   3.628  1.00  0.00    -0.463 OA
ATOM      4  C   UNL     1       5.960   1.229   4.419  1.00  0.00     0.147 A 
ATOM      5  C   UNL     1       6.926   0.284   3.992  1.00  0.00     0.066 A 
ATOM      6  C   UNL     1       6.712  -0.413   2.789  1.00  0.00     0.200 A 
ATOM      7  O   UNL     1       7.534  -1.291   2.409  1.00  0.00    -0.288 OA
ATOM      8  C   UNL     1       8.082   0.083   4.754  1.00  0.00     0.020 A 
ATOM      9  C   UNL     1       8.301   0.831   5.902  1.00  0.00     0.047 A 
ATOM     10  C   UNL     1       7.356   1.757   6.349  1.00  0.00     0.125 A 
ATOM     11  C   UNL     1       6.116   1.904   5.666  1.00  0.00     0.069 A 
ENDROOT
BRANCH   1  12
ATOM     12  C   UNL     1       5.279  -0.840   0.749  1.00  0.00    -0.011 A 
ATOM     13  C   UNL     1       3.972  -1.294   0.497  1.00  0.00     0.013 A 
ATOM     14  C   UNL     1       3.690  -2.024  -0.661  1.00  0.00     0.047 A 
ATOM     15  C   UNL     1       4.704  -2.301  -1.586  1.00  0.00     0.115 A 
ATOM     16  C   UNL     1       6.290  -1.112  -0.188  1.00  0.00     0.013 A 
ATOM     17  C   UNL     1       6.001  -1.834  -1.350  1.00  0.00     0.047 A 
BRANCH  15  18
ATOM     18  O   UNL     1       4.435  -3.048  -2.729  1.00  0.00    -0.508 OA
ATOM     19  H   UNL     1       4.133  -4.012  -2.670  1.00  0.00     0.293 HD
ENDBRANCH  15  18
ENDBRANCH   1  12
BRANCH  11  20
ATOM     20  C   UNL     1       5.043   2.834   6.262  1.00  0.00     0.188 C 
ATOM     21  C   UNL     1       5.384   3.614   7.582  1.00  0.00     0.179 C 
ATOM     22  O   UNL     1       3.769   2.205   6.295  1.00  0.00    -0.362 OA
ATOM     23  C   UNL     1       4.200   3.517   8.569  1.00  0.00     0.177 C 
ATOM     24  C   UNL     1       3.647   1.312   7.391  1.00  0.00     0.176 C 
ATOM     25  C   UNL     1       3.735   2.058   8.759  1.00  0.00     0.177 C 
BRANCH  21  26
ATOM     26  O   UNL     1       5.623   4.968   7.281  1.00  0.00    -0.387 OA
ATOM     27  H   UNL     1       5.103   5.511   7.931  1.00  0.00     0.211 HD
ENDBRANCH  21  26
BRANCH  23  28
ATOM     28  O   UNL     1       4.495   4.120   9.807  1.00  0.00    -0.387 OA
ATOM     29  H   UNL     1       3.916   4.921   9.900  1.00  0.00     0.211 HD
ENDBRANCH  23  28
BRANCH  24  30
ATOM     30  C   UNL     1       2.312   0.568   7.245  1.00  0.00     0.191 C 
BRANCH  30  31
ATOM     31  O   UNL     1       2.530  -0.757   6.839  1.00  0.00    -0.394 OA
ATOM     32  H   UNL     1       2.450  -1.330   7.646  1.00  0.00     0.210 HD
ENDBRANCH  30  31
ENDBRANCH  24  30
BRANCH  25  33
ATOM     33  O   UNL     1       4.616   1.380   9.620  1.00  0.00    -0.388 OA
ATOM     34  H   UNL     1       4.059   0.919  10.299  1.00  0.00     0.211 HD
ENDBRANCH  25  33
ENDBRANCH  11  20
BRANCH  10  35
ATOM     35  O   UNL     1       7.703   2.526   7.465  1.00  0.00    -0.507 OA
ATOM     36  H   UNL     1       7.212   2.498   8.347  1.00  0.00     0.293 HD
ENDBRANCH  10  35
TORSDOF 9
ENDMDL
MODEL 4
REMARK VINA RESULT:    -6.950     10.193     13.926
REMARK INTER + INTRA:         -10.260
REMARK INTER:                  -9.649
REMARK INTRA:                  -0.611
REMARK UNBOUND:                -0.873
REMARK SMILES O=c1c(-c2ccc(O)cc2)coc2c([C@H]3O[C@H](CO)[C@@H](O)[C@@H](O)[C@@H]3O)c(O)ccc12
REMARK SMILES IDX 3 1 11 2 12 3 13 4 30 5 2 6 1 7 29 8 28 9 26 10 14 11 4 12
REMARK SMILES IDX 5 13 6 14 7 15 10 16 9 17 8 18 15 20 24 21 16 22 22 23 17 24
REMARK SMILES IDX 20 25 25 26 23 28 18 30 19 31 21 33 27 35
REMARK H PARENT 8 19 25 27 23 29 19 32 21 34 27 36
REMARK Flexibility Score: inf
ROOT
ATOM      1  C   UNL     1       5.329  -1.359  -0.646  1.00  0.00     0.065 A 
ATOM      2  C   UNL     1       6.220  -1.125  -1.700  1.00  0.00     0.208 A 
ATOM      3  O   UNL     1       6.018  -1.664  -2.895  1.00  0.00    -0.463 OA
ATOM      4  C   UNL     1       4.980  -2.444  -3.188  1.00  0.00     0.147 A 
ATOM      5  C   UNL     1       3.998  -2.678  -2.194  1.00  0.00     0.066 A 
ATOM      6  C   UNL     1       4.195  -2.151  -0.904  1.00  0.00     0.200 A 
ATOM      7  O   UNL     1       3.358  -2.381   0.011  1.00  0.00    -0.288 OA
ATOM      8  C   UNL     1       2.843  -3.398  -2.516  1.00  0.00     0.020 A 
ATOM      9  C   UNL     1       2.642  -3.850  -3.814  1.00  0.00     0.047 A 
ATOM     10  C   UNL     1       3.604  -3.644  -4.805  1.00  0.00     0.125 A 
ATOM     11  C   UNL     1       4.842  -3.020  -4.485  1.00  0.00     0.069 A 
ENDROOT
BRANCH   1  12
ATOM     12  C   UNL     1       5.610  -0.803   0.701  1.00  0.00    -0.011 A 
ATOM     13  C   UNL     1       4.589  -0.150   1.415  1.00  0.00     0.013 A 
ATOM     14  C   UNL     1       4.857   0.425   2.660  1.00  0.00     0.047 A 
ATOM     15  C   UNL     1       6.140   0.347   3.214  1.00  0.00     0.115 A 
ATOM     16  C   UNL     1       6.894  -0.887   1.267  1.00  0.00     0.013 A 
ATOM     17  C   UNL     1       7.154  -0.319   2.518  1.00  0.00     0.047 A 
BRANCH  15  18
ATOM     18  O   UNL     1       6.419   0.940   4.442  1.00  0.00    -0.508 OA
ATOM     19  H   UNL     1       5.843   0.765   5.255  1.00  0.00     0.293 HD
ENDBRANCH  15  18
ENDBRANCH   1  12
BRANCH  11  20
ATOM     20  C   UNL     1       5.933  -2.929  -5.570  1.00  0.00     0.188 C 
ATOM     21  C   UNL     1       7.428  -2.791  -5.111  1.00  0.00     0.179 C 
ATOM     22  O   UNL     1       5.573  -2.012  -6.593  1.00  0.00    -0.362 OA
ATOM     23  C   UNL     1       8.133  -1.697  -5.942  1.00  0.00     0.177 C 
ATOM     24  C   UNL     1       5.803  -0.667  -6.206  1.00  0.00     0.176 C 
ATOM     25  C   UNL     1       7.319  -0.386  -5.963  1.00  0.00     0.177 C 
BRANCH  21  26
ATOM     26  O   UNL     1       8.095  -4.016  -5.303  1.00  0.00    -0.387 OA
ATOM     27  H   UNL     1       7.540  -4.561  -5.922  1.00  0.00     0.211 HD
ENDBRANCH  21  26
BRANCH  23  28
ATOM     28  O   UNL     1       9.451  -1.469  -5.504  1.00  0.00    -0.387 OA
ATOM     29  H   UNL     1      10.058  -2.013  -6.070  1.00  0.00     0.211 HD
ENDBRANCH  23  28
BRANCH  24  30
ATOM     30  C   UNL     1       5.236   0.243  -7.304  1.00  0.00     0.191 C 
BRANCH  30  31
ATOM     31  O   UNL     1       5.300  -0.394  -8.552  1.00  0.00    -0.394 OA
ATOM     32  H   UNL     1       4.958   0.246  -9.230  1.00  0.00     0.210 HD
ENDBRANCH  30  31
ENDBRANCH  24  30
BRANCH  25  33
ATOM     33  O   UNL     1       7.492   0.307  -4.752  1.00  0.00    -0.388 OA
ATOM     34  H   UNL     1       6.677   0.149  -4.209  1.00  0.00     0.211 HD
ENDBRANCH  25  33
ENDBRANCH  11  20
BRANCH  10  35
ATOM     35  O   UNL     1       3.274  -4.057  -6.100  1.00  0.00    -0.507 OA
ATOM     36  H   UNL     1       3.705  -4.839  -6.572  1.00  0.00     0.293 HD
ENDBRANCH  10  35
TORSDOF 9
ENDMDL
MODEL 5
REMARK VINA RESULT:    -6.888      2.671      7.218
REMARK INTER + INTRA:         -10.176
REMARK INTER:                  -9.581
REMARK INTRA:                  -0.595
REMARK UNBOUND:                -0.873
REMARK SMILES O=c1c(-c2ccc(O)cc2)coc2c([C@H]3O[C@H](CO)[C@@H](O)[C@@H](O)[C@@H]3O)c(O)ccc12
REMARK SMILES IDX 3 1 11 2 12 3 13 4 30 5 2 6 1 7 29 8 28 9 26 10 14 11 4 12
REMARK SMILES IDX 5 13 6 14 7 15 10 16 9 17 8 18 15 20 24 21 16 22 22 23 17 24
REMARK SMILES IDX 20 25 25 26 23 28 18 30 19 31 21 33 27 35
REMARK H PARENT 8 19 25 27 23 29 19 32 21 34 27 36
REMARK Flexibility Score: inf
ROOT
ATOM      1  C   UNL     1      -1.400  -6.361  -5.142  1.00  0.00     0.065 A 
ATOM      2  C   UNL     1      -2.598  -6.169  -5.842  1.00  0.00     0.208 A 
ATOM      3  O   UNL     1      -3.730  -6.714  -5.417  1.00  0.00    -0.463 OA
ATOM      4  C   UNL     1      -3.824  -7.464  -4.322  1.00  0.00     0.147 A 
ATOM      5  C   UNL     1      -2.669  -7.655  -3.522  1.00  0.00     0.066 A 
ATOM      6  C   UNL     1      -1.443  -7.120  -3.958  1.00  0.00     0.200 A 
ATOM      7  O   UNL     1      -0.392  -7.313  -3.287  1.00  0.00    -0.288 OA
ATOM      8  C   UNL     1      -2.773  -8.342  -2.308  1.00  0.00     0.020 A 
ATOM      9  C   UNL     1      -4.008  -8.802  -1.870  1.00  0.00     0.047 A 
ATOM     10  C   UNL     1      -5.155  -8.638  -2.649  1.00  0.00     0.125 A 
ATOM     11  C   UNL     1      -5.067  -8.050  -3.942  1.00  0.00     0.069 A 
ENDROOT
BRANCH   1  12
ATOM     12  C   UNL     1      -0.133  -5.799  -5.671  1.00  0.00    -0.011 A 
ATOM     13  C   UNL     1       0.197  -5.973  -7.028  1.00  0.00     0.013 A 
ATOM     14  C   UNL     1       1.413  -5.496  -7.524  1.00  0.00     0.047 A 
ATOM     15  C   UNL     1       2.309  -4.831  -6.679  1.00  0.00     0.115 A 
ATOM     16  C   UNL     1       0.766  -5.121  -4.830  1.00  0.00     0.013 A 
ATOM     17  C   UNL     1       1.977  -4.636  -5.334  1.00  0.00     0.047 A 
BRANCH  15  18
ATOM     18  O   UNL     1       3.533  -4.375  -7.162  1.00  0.00    -0.508 OA
ATOM     19  H   UNL     1       4.184  -4.998  -7.620  1.00  0.00     0.293 HD
ENDBRANCH  15  18
ENDBRANCH   1  12
BRANCH  11  20
ATOM     20  C   UNL     1      -6.327  -8.007  -4.828  1.00  0.00     0.188 C 
ATOM     21  C   UNL     1      -6.141  -7.826  -6.377  1.00  0.00     0.179 C 
ATOM     22  O   UNL     1      -7.319  -7.152  -4.278  1.00  0.00    -0.362 OA
ATOM     23  C   UNL     1      -7.138  -6.772  -6.905  1.00  0.00     0.177 C 
ATOM     24  C   UNL     1      -7.049  -5.785  -4.544  1.00  0.00     0.176 C 
ATOM     25  C   UNL     1      -7.087  -5.474  -6.073  1.00  0.00     0.177 C 
BRANCH  21  26
ATOM     26  O   UNL     1      -6.381  -9.052  -7.026  1.00  0.00    -0.387 OA
ATOM     27  H   UNL     1      -7.313  -9.322  -6.813  1.00  0.00     0.211 HD
ENDBRANCH  21  26
BRANCH  23  28
ATOM     28  O   UNL     1      -6.946  -6.504  -8.274  1.00  0.00    -0.387 OA
ATOM     29  H   UNL     1      -6.926  -5.518  -8.390  1.00  0.00     0.211 HD
ENDBRANCH  23  28
BRANCH  24  30
ATOM     30  C   UNL     1      -8.079  -4.944  -3.777  1.00  0.00     0.191 C 
BRANCH  30  31
ATOM     31  O   UNL     1      -9.319  -5.599  -3.741  1.00  0.00    -0.394 OA
ATOM     32  H   UNL     1      -9.562  -5.824  -4.678  1.00  0.00     0.210 HD
ENDBRANCH  30  31
ENDBRANCH  24  30
BRANCH  25  33
ATOM     33  O   UNL     1      -5.962  -4.712  -6.435  1.00  0.00    -0.388 OA
ATOM     34  H   UNL     1      -5.247  -4.922  -5.781  1.00  0.00     0.211 HD
ENDBRANCH  25  33
ENDBRANCH  11  20
BRANCH  10  35
ATOM     35  O   UNL     1      -6.365  -9.056  -2.086  1.00  0.00    -0.507 OA
ATOM     36  H   UNL     1      -7.027  -9.661  -2.550  1.00  0.00     0.293 HD
ENDBRANCH  10  35
TORSDOF 9
ENDMDL
MODEL 6
REMARK VINA RESULT:    -6.861      2.461      3.661
REMARK INTER + INTRA:         -10.141
REMARK INTER:                 -10.140
REMARK INTRA:                  -0.000
REMARK UNBOUND:                -0.873
REMARK SMILES O=c1c(-c2ccc(O)cc2)coc2c([C@H]3O[C@H](CO)[C@@H](O)[C@@H](O)[C@@H]3O)c(O)ccc12
REMARK SMILES IDX 3 1 11 2 12 3 13 4 30 5 2 6 1 7 29 8 28 9 26 10 14 11 4 12
REMARK SMILES IDX 5 13 6 14 7 15 10 16 9 17 8 18 15 20 24 21 16 22 22 23 17 24
REMARK SMILES IDX 20 25 25 26 23 28 18 30 19 31 21 33 27 35
REMARK H PARENT 8 19 25 27 23 29 19 32 21 34 27 36
REMARK Flexibility Score: inf
ROOT
ATOM      1  C   UNL     1      -4.941  -9.161  -1.832  1.00  0.00     0.065 A 
ATOM      2  C   UNL     1      -6.027  -9.037  -2.708  1.00  0.00     0.208 A 
ATOM      3  O   UNL     1      -5.931  -8.312  -3.813  1.00  0.00    -0.463 OA
ATOM      4  C   UNL     1      -4.828  -7.663  -4.178  1.00  0.00     0.147 A 
ATOM      5  C   UNL     1      -3.664  -7.789  -3.380  1.00  0.00     0.066 A 
ATOM      6  C   UNL     1      -3.737  -8.523  -2.181  1.00  0.00     0.200 A 
ATOM      7  O   UNL     1      -2.728  -8.614  -1.430  1.00  0.00    -0.288 OA
ATOM      8  C   UNL     1      -2.464  -7.211  -3.807  1.00  0.00     0.020 A 
ATOM      9  C   UNL     1      -2.403  -6.549  -5.025  1.00  0.00     0.047 A 
ATOM     10  C   UNL     1      -3.541  -6.400  -5.821  1.00  0.00     0.125 A 
ATOM     11  C   UNL     1      -4.804  -6.871  -5.364  1.00  0.00     0.069 A 
ENDROOT
BRANCH   1  12
ATOM     12  C   UNL     1      -5.091  -9.921  -0.566  1.00  0.00    -0.011 A 
ATOM     13  C   UNL     1      -6.330  -9.932   0.100  1.00  0.00     0.013 A 
ATOM     14  C   UNL     1      -6.468 -10.598   1.321  1.00  0.00     0.047 A 
ATOM     15  C   UNL     1      -5.378 -11.271   1.886  1.00  0.00     0.115 A 
ATOM     16  C   UNL     1      -4.003 -10.607   0.001  1.00  0.00     0.013 A 
ATOM     17  C   UNL     1      -4.149 -11.281   1.217  1.00  0.00     0.047 A 
BRANCH  15  18
ATOM     18  O   UNL     1      -5.502 -11.916   3.113  1.00  0.00    -0.508 OA
ATOM     19  H   UNL     1      -5.728 -12.900   3.172  1.00  0.00     0.293 HD
ENDBRANCH  15  18
ENDBRANCH   1  12
BRANCH  11  20
ATOM     20  C   UNL     1      -6.060  -6.571  -6.205  1.00  0.00     0.188 C 
ATOM     21  C   UNL     1      -5.899  -6.442  -7.762  1.00  0.00     0.179 C 
ATOM     22  O   UNL     1      -6.830  -5.524  -5.631  1.00  0.00    -0.362 OA
ATOM     23  C   UNL     1      -6.673  -5.206  -8.268  1.00  0.00     0.177 C 
ATOM     24  C   UNL     1      -6.291  -4.246  -5.925  1.00  0.00     0.176 C 
ATOM     25  C   UNL     1      -6.321  -3.942  -7.456  1.00  0.00     0.177 C 
BRANCH  21  26
ATOM     26  O   UNL     1      -6.414  -7.595  -8.385  1.00  0.00    -0.387 OA
ATOM     27  H   UNL     1      -7.072  -7.293  -9.067  1.00  0.00     0.211 HD
ENDBRANCH  21  26
BRANCH  23  28
ATOM     28  O   UNL     1      -6.482  -4.992  -9.646  1.00  0.00    -0.387 OA
ATOM     29  H   UNL     1      -7.171  -5.515 -10.133  1.00  0.00     0.211 HD
ENDBRANCH  23  28
BRANCH  24  30
ATOM     30  C   UNL     1      -7.093  -3.204  -5.133  1.00  0.00     0.191 C 
BRANCH  30  31
ATOM     31  O   UNL     1      -7.102  -1.974  -5.808  1.00  0.00    -0.394 OA
ATOM     32  H   UNL     1      -7.094  -2.171  -6.782  1.00  0.00     0.210 HD
ENDBRANCH  30  31
ENDBRANCH  24  30
BRANCH  25  33
ATOM     33  O   UNL     1      -5.076  -3.435  -7.869  1.00  0.00    -0.388 OA
ATOM     34  H   UNL     1      -4.913  -3.780  -8.784  1.00  0.00     0.211 HD
ENDBRANCH  25  33
ENDBRANCH  11  20
BRANCH  10  35
ATOM     35  O   UNL     1      -3.363  -5.796  -7.070  1.00  0.00    -0.507 OA
ATOM     36  H   UNL     1      -3.365  -6.297  -7.947  1.00  0.00     0.293 HD
ENDBRANCH  10  35
TORSDOF 9
ENDMDL
MODEL 7
REMARK VINA RESULT:    -6.828     10.626     13.934
REMARK INTER + INTRA:         -10.096
REMARK INTER:                  -9.445
REMARK INTRA:                  -0.651
REMARK UNBOUND:                -0.873
REMARK SMILES O=c1c(-c2ccc(O)cc2)coc2c([C@H]3O[C@H](CO)[C@@H](O)[C@@H](O)[C@@H]3O)c(O)ccc12
REMARK SMILES IDX 3 1 11 2 12 3 13 4 30 5 2 6 1 7 29 8 28 9 26 10 14 11 4 12
REMARK SMILES IDX 5 13 6 14 7 15 10 16 9 17 8 18 15 20 24 21 16 22 22 23 17 24
REMARK SMILES IDX 20 25 25 26 23 28 18 30 19 31 21 33 27 35
REMARK H PARENT 8 19 25 27 23 29 19 32 21 34 27 36
REMARK Flexibility Score: inf
ROOT
ATOM      1  C   UNL     1       5.054  -3.700  -5.985  1.00  0.00     0.065 A 
ATOM      2  C   UNL     1       5.626  -2.453  -6.270  1.00  0.00     0.208 A 
ATOM      3  O   UNL     1       5.936  -1.609  -5.296  1.00  0.00    -0.463 OA
ATOM      4  C   UNL     1       5.741  -1.865  -4.005  1.00  0.00     0.147 A 
ATOM      5  C   UNL     1       5.225  -3.131  -3.629  1.00  0.00     0.066 A 
ATOM      6  C   UNL     1       4.852  -4.041  -4.636  1.00  0.00     0.200 A 
ATOM      7  O   UNL     1       4.350  -5.156  -4.329  1.00  0.00    -0.288 OA
ATOM      8  C   UNL     1       5.122  -3.462  -2.274  1.00  0.00     0.020 A 
ATOM      9  C   UNL     1       5.558  -2.572  -1.302  1.00  0.00     0.047 A 
ATOM     10  C   UNL     1       6.056  -1.315  -1.649  1.00  0.00     0.125 A 
ATOM     11  C   UNL     1       6.065  -0.896  -3.010  1.00  0.00     0.069 A 
ENDROOT
BRANCH   1  12
ATOM     12  C   UNL     1       4.651  -4.602  -7.093  1.00  0.00    -0.011 A 
ATOM     13  C   UNL     1       3.414  -4.412  -7.735  1.00  0.00     0.013 A 
ATOM     14  C   UNL     1       3.000  -5.289  -8.742  1.00  0.00     0.047 A 
ATOM     15  C   UNL     1       3.819  -6.356  -9.129  1.00  0.00     0.115 A 
ATOM     16  C   UNL     1       5.473  -5.669  -7.494  1.00  0.00     0.013 A 
ATOM     17  C   UNL     1       5.059  -6.537  -8.509  1.00  0.00     0.047 A 
BRANCH  15  18
ATOM     18  O   UNL     1       3.402  -7.248 -10.114  1.00  0.00    -0.508 OA
ATOM     19  H   UNL     1       2.843  -8.060  -9.889  1.00  0.00     0.293 HD
ENDBRANCH  15  18
ENDBRANCH   1  12
BRANCH  11  20
ATOM     20  C   UNL     1       6.495   0.545  -3.343  1.00  0.00     0.188 C 
ATOM     21  C   UNL     1       6.355   1.038  -4.828  1.00  0.00     0.179 C 
ATOM     22  O   UNL     1       7.753   0.859  -2.763  1.00  0.00    -0.362 OA
ATOM     23  C   UNL     1       7.638   1.784  -5.255  1.00  0.00     0.177 C 
ATOM     24  C   UNL     1       8.832   0.331  -3.518  1.00  0.00     0.176 C 
ATOM     25  C   UNL     1       8.905   0.961  -4.943  1.00  0.00     0.177 C 
BRANCH  21  26
ATOM     26  O   UNL     1       5.258   1.913  -4.932  1.00  0.00    -0.387 OA
ATOM     27  H   UNL     1       5.425   2.506  -5.713  1.00  0.00     0.211 HD
ENDBRANCH  21  26
BRANCH  23  28
ATOM     28  O   UNL     1       7.601   2.164  -6.610  1.00  0.00    -0.387 OA
ATOM     29  H   UNL     1       8.228   1.576  -7.108  1.00  0.00     0.211 HD
ENDBRANCH  23  28
BRANCH  24  30
ATOM     30  C   UNL     1      10.125   0.582  -2.729  1.00  0.00     0.191 C 
BRANCH  30  31
ATOM     31  O   UNL     1      10.097   1.851  -2.132  1.00  0.00    -0.394 OA
ATOM     32  H   UNL     1      11.005   2.243  -2.227  1.00  0.00     0.210 HD
ENDBRANCH  30  31
ENDBRANCH  24  30
BRANCH  25  33
ATOM     33  O   UNL     1       9.073  -0.049  -5.907  1.00  0.00    -0.388 OA
ATOM     34  H   UNL     1       9.460  -0.834  -5.440  1.00  0.00     0.211 HD
ENDBRANCH  25  33
ENDBRANCH  11  20
BRANCH  10  35
ATOM     35  O   UNL     1       6.552  -0.523  -0.609  1.00  0.00    -0.507 OA
ATOM     36  H   UNL     1       6.047   0.246  -0.191  1.00  0.00     0.293 HD
ENDBRANCH  10  35
TORSDOF 9
ENDMDL
MODEL 8
REMARK VINA RESULT:    -6.815     15.554     17.976
REMARK INTER + INTRA:         -10.078
REMARK INTER:                  -9.444
REMARK INTRA:                  -0.634
REMARK UNBOUND:                -0.873
REMARK SMILES O=c1c(-c2ccc(O)cc2)coc2c([C@H]3O[C@H](CO)[C@@H](O)[C@@H](O)[C@@H]3O)c(O)ccc12
REMARK SMILES IDX 3 1 11 2 12 3 13 4 30 5 2 6 1 7 29 8 28 9 26 10 14 11 4 12
REMARK SMILES IDX 5 13 6 14 7 15 10 16 9 17 8 18 15 20 24 21 16 22 22 23 17 24
REMARK SMILES IDX 20 25 25 26 23 28 18 30 19 31 21 33 27 35
REMARK H PARENT 8 19 25 27 23 29 19 32 21 34 27 36
REMARK Flexibility Score: inf
ROOT
ATOM      1  C   UNL     1      -0.450   3.783   5.187  1.00  0.00     0.065 A 
ATOM      2  C   UNL     1       0.423   3.971   6.266  1.00  0.00     0.208 A 
ATOM      3  O   UNL     1       1.635   3.433   6.263  1.00  0.00    -0.463 OA
ATOM      4  C   UNL     1       2.114   2.695   5.265  1.00  0.00     0.147 A 
ATOM      5  C   UNL     1       1.317   2.510   4.107  1.00  0.00     0.066 A 
ATOM      6  C   UNL     1       0.013   3.037   4.087  1.00  0.00     0.200 A 
ATOM      7  O   UNL     1      -0.733   2.849   3.087  1.00  0.00    -0.288 OA
ATOM      8  C   UNL     1       1.847   1.837   3.002  1.00  0.00     0.020 A 
ATOM      9  C   UNL     1       3.160   1.384   3.023  1.00  0.00     0.047 A 
ATOM     10  C   UNL     1       3.957   1.542   4.158  1.00  0.00     0.125 A 
ATOM     11  C   UNL     1       3.415   2.117   5.343  1.00  0.00     0.069 A 
ENDROOT
BRANCH   1  12
ATOM     12  C   UNL     1      -1.826   4.336   5.239  1.00  0.00    -0.011 A 
ATOM     13  C   UNL     1      -2.329   5.065   4.146  1.00  0.00     0.013 A 
ATOM     14  C   UNL     1      -3.602   5.637   4.207  1.00  0.00     0.047 A 
ATOM     15  C   UNL     1      -4.394   5.481   5.351  1.00  0.00     0.115 A 
ATOM     16  C   UNL     1      -2.629   4.174   6.381  1.00  0.00     0.013 A 
ATOM     17  C   UNL     1      -3.907   4.740   6.432  1.00  0.00     0.047 A 
BRANCH  15  18
ATOM     18  O   UNL     1      -5.653   6.069   5.427  1.00  0.00    -0.508 OA
ATOM     19  H   UNL     1      -6.385   5.836   4.769  1.00  0.00     0.293 HD
ENDBRANCH  15  18
ENDBRANCH   1  12
BRANCH  11  20
ATOM     20  C   UNL     1       4.280   2.153   6.616  1.00  0.00     0.188 C 
ATOM     21  C   UNL     1       3.555   2.229   8.007  1.00  0.00     0.179 C 
ATOM     22  O   UNL     1       5.351   3.079   6.491  1.00  0.00    -0.362 OA
ATOM     23  C   UNL     1       4.240   3.286   8.899  1.00  0.00     0.177 C 
ATOM     24  C   UNL     1       4.925   4.415   6.705  1.00  0.00     0.176 C 
ATOM     25  C   UNL     1       4.408   4.631   8.162  1.00  0.00     0.177 C 
BRANCH  21  26
ATOM     26  O   UNL     1       3.624   0.975   8.644  1.00  0.00    -0.387 OA
ATOM     27  H   UNL     1       2.729   0.794   9.037  1.00  0.00     0.211 HD
ENDBRANCH  21  26
BRANCH  23  28
ATOM     28  O   UNL     1       3.567   3.461  10.123  1.00  0.00    -0.387 OA
ATOM     29  H   UNL     1       2.760   4.013   9.950  1.00  0.00     0.211 HD
ENDBRANCH  23  28
BRANCH  24  30
ATOM     30  C   UNL     1       6.107   5.342   6.388  1.00  0.00     0.191 C 
BRANCH  30  31
ATOM     31  O   UNL     1       7.316   4.745   6.774  1.00  0.00    -0.394 OA
ATOM     32  H   UNL     1       7.115   3.805   7.026  1.00  0.00     0.210 HD
ENDBRANCH  30  31
ENDBRANCH  24  30
BRANCH  25  33
ATOM     33  O   UNL     1       3.184   5.324   8.139  1.00  0.00    -0.388 OA
ATOM     34  H   UNL     1       2.796   5.196   7.235  1.00  0.00     0.211 HD
ENDBRANCH  25  33
ENDBRANCH  11  20
BRANCH  10  35
ATOM     35  O   UNL     1       5.291   1.134   4.055  1.00  0.00    -0.507 OA
ATOM     36  H   UNL     1       5.618   0.424   3.415  1.00  0.00     0.293 HD
ENDBRANCH  10  35
TORSDOF 9
ENDMDL
MODEL 9
REMARK VINA RESULT:    -6.766      2.671      7.286
REMARK INTER + INTRA:         -10.012
REMARK INTER:                  -9.029
REMARK INTRA:                  -0.983
REMARK UNBOUND:                -0.873
REMARK SMILES O=c1c(-c2ccc(O)cc2)coc2c([C@H]3O[C@H](CO)[C@@H](O)[C@@H](O)[C@@H]3O)c(O)ccc12
REMARK SMILES IDX 3 1 11 2 12 3 13 4 30 5 2 6 1 7 29 8 28 9 26 10 14 11 4 12
REMARK SMILES IDX 5 13 6 14 7 15 10 16 9 17 8 18 15 20 24 21 16 22 22 23 17 24
REMARK SMILES IDX 20 25 25 26 23 28 18 30 19 31 21 33 27 35
REMARK H PARENT 8 19 25 27 23 29 19 32 21 34 27 36
REMARK Flexibility Score: inf
ROOT
ATOM      1  C   UNL     1      -0.988  -5.852  -6.043  1.00  0.00     0.065 A 
ATOM      2  C   UNL     1      -2.051  -5.385  -6.825  1.00  0.00     0.208 A 
ATOM      3  O   UNL     1      -3.298  -5.759  -6.571  1.00  0.00    -0.463 OA
ATOM      4  C   UNL     1      -3.636  -6.581  -5.581  1.00  0.00     0.147 A 
ATOM      5  C   UNL     1      -2.626  -7.048  -4.704  1.00  0.00     0.066 A 
ATOM      6  C   UNL     1      -1.287  -6.700  -4.961  1.00  0.00     0.200 A 
ATOM      7  O   UNL     1      -0.363  -7.138  -4.222  1.00  0.00    -0.288 OA
ATOM      8  C   UNL     1      -2.976  -7.818  -3.590  1.00  0.00     0.020 A 
ATOM      9  C   UNL     1      -4.311  -8.092  -3.323  1.00  0.00     0.047 A 
ATOM     10  C   UNL     1      -5.321  -7.654  -4.181  1.00  0.00     0.125 A 
ATOM     11  C   UNL     1      -4.994  -6.971  -5.387  1.00  0.00     0.069 A 
ENDROOT
BRANCH   1  12
ATOM     12  C   UNL     1       0.407  -5.475  -6.386  1.00  0.00    -0.011 A 
ATOM     13  C   UNL     1       1.153  -4.677  -5.500  1.00  0.00     0.013 A 
ATOM     14  C   UNL     1       2.447  -4.270  -5.837  1.00  0.00     0.047 A 
ATOM     15  C   UNL     1       3.017  -4.664  -7.054  1.00  0.00     0.115 A 
ATOM     16  C   UNL     1       0.988  -5.876  -7.601  1.00  0.00     0.013 A 
ATOM     17  C   UNL     1       2.287  -5.475  -7.929  1.00  0.00     0.047 A 
BRANCH  15  18
ATOM     18  O   UNL     1       4.296  -4.242  -7.406  1.00  0.00    -0.508 OA
ATOM     19  H   UNL     1       4.898  -3.773  -6.743  1.00  0.00     0.293 HD
ENDBRANCH  15  18
ENDBRANCH   1  12
BRANCH  11  20
ATOM     20  C   UNL     1      -6.123  -6.622  -6.375  1.00  0.00     0.188 C 
ATOM     21  C   UNL     1      -5.755  -6.442  -7.891  1.00  0.00     0.179 C 
ATOM     22  O   UNL     1      -6.951  -5.582  -5.871  1.00  0.00    -0.362 OA
ATOM     23  C   UNL     1      -6.440  -5.176  -8.450  1.00  0.00     0.177 C 
ATOM     24  C   UNL     1      -6.363  -4.303  -6.044  1.00  0.00     0.176 C 
ATOM     25  C   UNL     1      -6.185  -3.947  -7.553  1.00  0.00     0.177 C 
BRANCH  21  26
ATOM     26  O   UNL     1      -6.195  -7.563  -8.619  1.00  0.00    -0.387 OA
ATOM     27  H   UNL     1      -5.421  -8.180  -8.709  1.00  0.00     0.211 HD
ENDBRANCH  21  26
BRANCH  23  28
ATOM     28  O   UNL     1      -6.065  -4.918  -9.782  1.00  0.00    -0.387 OA
ATOM     29  H   UNL     1      -5.100  -4.684  -9.786  1.00  0.00     0.211 HD
ENDBRANCH  23  28
BRANCH  24  30
ATOM     30  C   UNL     1      -7.251  -3.276  -5.329  1.00  0.00     0.191 C 
BRANCH  30  31
ATOM     31  O   UNL     1      -7.086  -2.004  -5.897  1.00  0.00    -0.394 OA
ATOM     32  H   UNL     1      -6.585  -1.450  -5.241  1.00  0.00     0.210 HD
ENDBRANCH  30  31
ENDBRANCH  24  30
BRANCH  25  33
ATOM     33  O   UNL     1      -4.891  -3.446  -7.779  1.00  0.00    -0.388 OA
ATOM     34  H   UNL     1      -4.516  -3.203  -6.894  1.00  0.00     0.211 HD
ENDBRANCH  25  33
ENDBRANCH  11  20
BRANCH  10  35
ATOM     35  O   UNL     1      -6.639  -7.902  -3.784  1.00  0.00    -0.507 OA
ATOM     36  H   UNL     1      -7.268  -7.194  -3.433  1.00  0.00     0.293 HD
ENDBRANCH  10  35
TORSDOF 9
ENDMDL
