MODEL 1
REMARK VINA RESULT:    -6.781      0.000      0.000
REMARK INTER + INTRA:          -8.616
REMARK INTER:                  -8.366
REMARK INTRA:                  -0.250
REMARK UNBOUND:                -0.250
REMARK SMILES Oc1cc(O)c2cc(O)c(-c3cc(O)c(O)c(O)c3)[o+]c2c1
REMARK SMILES IDX 10 1 20 2 21 3 22 4 2 5 3 6 4 7 6 8 7 9 8 10 11 11 12 12
REMARK SMILES IDX 13 13 19 14 15 15 17 16 14 17 16 19 18 21 9 23 1 25 5 27
REMARK H PARENT 14 18 16 20 18 22 9 24 1 26 5 28
REMARK Flexibility Score: inf
ROOT
ATOM      1  C   UNL     1      -1.025  20.686  49.832  1.00  0.00     0.402 A 
ATOM      2  O   UNL     1      -0.206  21.254  50.712  1.00  0.00    -0.202 OA
ATOM      3  C   UNL     1      -0.551  22.295  51.464  1.00  0.00     0.368 A 
ATOM      4  C   UNL     1       0.382  22.827  52.358  1.00  0.00     0.162 A 
ATOM      5  C   UNL     1       0.049  23.921  53.158  1.00  0.00     0.128 A 
ATOM      6  C   UNL     1      -1.226  24.490  53.063  1.00  0.00     0.093 A 
ATOM      7  C   UNL     1      -2.178  23.976  52.174  1.00  0.00     0.136 A 
ATOM      8  C   UNL     1      -1.844  22.861  51.362  1.00  0.00     0.125 A 
ATOM      9  C   UNL     1      -2.738  22.272  50.453  1.00  0.00     0.078 A 
ATOM     10  C   UNL     1      -2.337  21.172  49.689  1.00  0.00     0.223 A 
ENDROOT
BRANCH   1  11
ATOM     11  C   UNL     1      -0.519  19.537  49.046  1.00  0.00     0.091 A 
ATOM     12  C   UNL     1       0.500  19.696  48.091  1.00  0.00     0.068 A 
ATOM     13  C   UNL     1       0.982  18.592  47.373  1.00  0.00     0.162 A 
ATOM     14  C   UNL     1      -1.027  18.253  49.296  1.00  0.00     0.068 A 
ATOM     15  C   UNL     1       0.451  17.314  47.615  1.00  0.00     0.200 A 
ATOM     16  C   UNL     1      -0.550  17.146  48.580  1.00  0.00     0.162 A 
BRANCH  13  17
ATOM     17  O   UNL     1       1.989  18.761  46.424  1.00  0.00    -0.504 OA
ATOM     18  H   UNL     1       2.159  18.072  45.700  1.00  0.00     0.293 HD
ENDBRANCH  13  17
BRANCH  15  19
ATOM     19  O   UNL     1       0.911  16.201  46.909  1.00  0.00    -0.502 OA
ATOM     20  H   UNL     1       1.899  16.005  46.798  1.00  0.00     0.293 HD
ENDBRANCH  15  19
BRANCH  16  21
ATOM     21  O   UNL     1      -1.067  15.875  48.822  1.00  0.00    -0.504 OA
ATOM     22  H   UNL     1      -1.195  15.203  48.074  1.00  0.00     0.293 HD
ENDBRANCH  16  21
ENDBRANCH   1  11
BRANCH  10  23
ATOM     23  O   UNL     1      -3.241  20.555  48.823  1.00  0.00    -0.500 OA
ATOM     24  H   UNL     1      -2.991  20.322  47.870  1.00  0.00     0.294 HD
ENDBRANCH  10  23
BRANCH   5  25
ATOM     25  O   UNL     1       0.992  24.437  54.044  1.00  0.00    -0.507 OA
ATOM     26  H   UNL     1       1.653  23.838  54.523  1.00  0.00     0.293 HD
ENDBRANCH   5  25
BRANCH   7  27
ATOM     27  O   UNL     1      -3.428  24.601  52.137  1.00  0.00    -0.507 OA
ATOM     28  H   UNL     1      -3.594  25.520  51.752  1.00  0.00     0.293 HD
ENDBRANCH   7  27
TORSDOF 7
ENDMDL
MODEL 2
REMARK VINA RESULT:    -6.690      0.076      1.789
REMARK INTER + INTRA:          -8.504
REMARK INTER:                  -8.274
REMARK INTRA:                  -0.230
REMARK UNBOUND:                -0.250
REMARK SMILES Oc1cc(O)c2cc(O)c(-c3cc(O)c(O)c(O)c3)[o+]c2c1
REMARK SMILES IDX 10 1 20 2 21 3 22 4 2 5 3 6 4 7 6 8 7 9 8 10 11 11 12 12
REMARK SMILES IDX 13 13 19 14 15 15 17 16 14 17 16 19 18 21 9 23 1 25 5 27
REMARK H PARENT 14 18 16 20 18 22 9 24 1 26 5 28
REMARK Flexibility Score: inf
ROOT
ATOM      1  C   UNL     1      -1.025  20.670  49.840  1.00  0.00     0.402 A 
ATOM      2  O   UNL     1      -0.221  21.248  50.728  1.00  0.00    -0.202 OA
ATOM      3  C   UNL     1      -0.580  22.295  51.465  1.00  0.00     0.368 A 
ATOM      4  C   UNL     1       0.338  22.836  52.369  1.00  0.00     0.162 A 
ATOM      5  C   UNL     1      -0.010  23.936  53.154  1.00  0.00     0.128 A 
ATOM      6  C   UNL     1      -1.285  24.502  53.034  1.00  0.00     0.093 A 
ATOM      7  C   UNL     1      -2.221  23.978  52.135  1.00  0.00     0.136 A 
ATOM      8  C   UNL     1      -1.872  22.857  51.337  1.00  0.00     0.125 A 
ATOM      9  C   UNL     1      -2.751  22.259  50.420  1.00  0.00     0.078 A 
ATOM     10  C   UNL     1      -2.336  21.153  49.672  1.00  0.00     0.223 A 
ENDROOT
BRANCH   1  11
ATOM     11  C   UNL     1      -0.505  19.516  49.072  1.00  0.00     0.091 A 
ATOM     12  C   UNL     1      -1.043  18.227  49.234  1.00  0.00     0.068 A 
ATOM     13  C   UNL     1      -0.552  17.150  48.482  1.00  0.00     0.162 A 
ATOM     14  C   UNL     1       0.508  19.718  48.122  1.00  0.00     0.068 A 
ATOM     15  C   UNL     1       0.478  17.360  47.550  1.00  0.00     0.200 A 
ATOM     16  C   UNL     1       1.003  18.645  47.369  1.00  0.00     0.162 A 
BRANCH  13  17
ATOM     17  O   UNL     1      -1.088  15.875  48.655  1.00  0.00    -0.504 OA
ATOM     18  H   UNL     1      -1.612  15.414  47.920  1.00  0.00     0.293 HD
ENDBRANCH  13  17
BRANCH  15  19
ATOM     19  O   UNL     1       0.985  16.303  46.793  1.00  0.00    -0.502 OA
ATOM     20  H   UNL     1       1.270  16.420  45.828  1.00  0.00     0.293 HD
ENDBRANCH  15  19
BRANCH  16  21
ATOM     21  O   UNL     1       2.019  18.849  46.436  1.00  0.00    -0.504 OA
ATOM     22  H   UNL     1       1.840  18.808  45.440  1.00  0.00     0.293 HD
ENDBRANCH  16  21
ENDBRANCH   1  11
BRANCH  10  23
ATOM     23  O   UNL     1      -3.224  20.527  48.797  1.00  0.00    -0.500 OA
ATOM     24  H   UNL     1      -4.078  20.978  48.493  1.00  0.00     0.294 HD
ENDBRANCH  10  23
BRANCH   5  25
ATOM     25  O   UNL     1       0.918  24.461  54.050  1.00  0.00    -0.507 OA
ATOM     26  H   UNL     1       0.781  25.365  54.487  1.00  0.00     0.293 HD
ENDBRANCH   5  25
BRANCH   7  27
ATOM     27  O   UNL     1      -3.471  24.601  52.072  1.00  0.00    -0.507 OA
ATOM     28  H   UNL     1      -4.345  24.151  52.303  1.00  0.00     0.293 HD
ENDBRANCH   7  27
TORSDOF 7
ENDMDL
MODEL 3
REMARK VINA RESULT:    -6.533      4.206      6.076
REMARK INTER + INTRA:          -8.310
REMARK INTER:                  -7.935
REMARK INTRA:                  -0.376
REMARK UNBOUND:                -0.250
REMARK SMILES Oc1cc(O)c2cc(O)c(-c3cc(O)c(O)c(O)c3)[o+]c2c1
REMARK SMILES IDX 10 1 20 2 21 3 22 4 2 5 3 6 4 7 6 8 7 9 8 10 11 11 12 12
REMARK SMILES IDX 13 13 19 14 15 15 17 16 14 17 16 19 18 21 9 23 1 25 5 27
REMARK H PARENT 14 18 16 20 18 22 9 24 1 26 5 28
REMARK Flexibility Score: inf
ROOT
ATOM      1  C   UNL     1       1.984  18.479  47.227  1.00  0.00     0.402 A 
ATOM      2  O   UNL     1       1.019  17.777  47.815  1.00  0.00    -0.202 OA
ATOM      3  C   UNL     1      -0.224  18.226  47.962  1.00  0.00     0.368 A 
ATOM      4  C   UNL     1      -1.168  17.415  48.598  1.00  0.00     0.162 A 
ATOM      5  C   UNL     1      -2.479  17.861  48.769  1.00  0.00     0.128 A 
ATOM      6  C   UNL     1      -2.851  19.127  48.303  1.00  0.00     0.093 A 
ATOM      7  C   UNL     1      -1.923  19.958  47.663  1.00  0.00     0.136 A 
ATOM      8  C   UNL     1      -0.589  19.507  47.484  1.00  0.00     0.125 A 
ATOM      9  C   UNL     1       0.403  20.266  46.844  1.00  0.00     0.078 A 
ATOM     10  C   UNL     1       1.695  19.752  46.701  1.00  0.00     0.223 A 
ENDROOT
BRANCH   1  11
ATOM     11  C   UNL     1       3.332  17.873  47.132  1.00  0.00     0.091 A 
ATOM     12  C   UNL     1       3.729  17.147  45.996  1.00  0.00     0.068 A 
ATOM     13  C   UNL     1       5.018  16.600  45.915  1.00  0.00     0.162 A 
ATOM     14  C   UNL     1       4.253  18.073  48.171  1.00  0.00     0.068 A 
ATOM     15  C   UNL     1       5.925  16.786  46.971  1.00  0.00     0.200 A 
ATOM     16  C   UNL     1       5.541  17.527  48.096  1.00  0.00     0.162 A 
BRANCH  13  17
ATOM     17  O   UNL     1       5.400  15.876  44.786  1.00  0.00    -0.504 OA
ATOM     18  H   UNL     1       6.375  15.715  44.563  1.00  0.00     0.293 HD
ENDBRANCH  13  17
BRANCH  15  19
ATOM     19  O   UNL     1       7.211  16.247  46.915  1.00  0.00    -0.502 OA
ATOM     20  H   UNL     1       8.018  16.742  47.274  1.00  0.00     0.293 HD
ENDBRANCH  15  19
BRANCH  16  21
ATOM     21  O   UNL     1       6.448  17.716  49.138  1.00  0.00    -0.504 OA
ATOM     22  H   UNL     1       6.896  18.611  49.295  1.00  0.00     0.293 HD
ENDBRANCH  16  21
ENDBRANCH   1  11
BRANCH  10  23
ATOM     23  O   UNL     1       2.669  20.485  46.020  1.00  0.00    -0.500 OA
ATOM     24  H   UNL     1       3.490  20.042  45.627  1.00  0.00     0.294 HD
ENDBRANCH  10  23
BRANCH   5  25
ATOM     25  O   UNL     1      -3.406  17.039  49.404  1.00  0.00    -0.507 OA
ATOM     26  H   UNL     1      -3.178  16.539  50.255  1.00  0.00     0.293 HD
ENDBRANCH   5  25
BRANCH   7  27
ATOM     27  O   UNL     1      -2.371  21.209  47.229  1.00  0.00    -0.507 OA
ATOM     28  H   UNL     1      -2.891  21.365  46.378  1.00  0.00     0.293 HD
ENDBRANCH   7  27
TORSDOF 7
ENDMDL
MODEL 4
REMARK VINA RESULT:    -6.528      1.650      7.239
REMARK INTER + INTRA:          -8.305
REMARK INTER:                  -8.059
REMARK INTRA:                  -0.246
REMARK UNBOUND:                -0.250
REMARK SMILES Oc1cc(O)c2cc(O)c(-c3cc(O)c(O)c(O)c3)[o+]c2c1
REMARK SMILES IDX 10 1 20 2 21 3 22 4 2 5 3 6 4 7 6 8 7 9 8 10 11 11 12 12
REMARK SMILES IDX 13 13 19 14 15 15 17 16 14 17 16 19 18 21 9 23 1 25 5 27
REMARK H PARENT 14 18 16 20 18 22 9 24 1 26 5 28
REMARK Flexibility Score: inf
ROOT
ATOM      1  C   UNL     1      -1.732  21.838  49.615  1.00  0.00     0.402 A 
ATOM      2  O   UNL     1      -1.687  20.577  50.035  1.00  0.00    -0.202 OA
ATOM      3  C   UNL     1      -1.457  19.546  49.226  1.00  0.00     0.368 A 
ATOM      4  C   UNL     1      -1.433  18.255  49.761  1.00  0.00     0.162 A 
ATOM      5  C   UNL     1      -1.196  17.155  48.936  1.00  0.00     0.128 A 
ATOM      6  C   UNL     1      -0.983  17.344  47.566  1.00  0.00     0.093 A 
ATOM      7  C   UNL     1      -1.002  18.627  47.007  1.00  0.00     0.136 A 
ATOM      8  C   UNL     1      -1.239  19.750  47.843  1.00  0.00     0.125 A 
ATOM      9  C   UNL     1      -1.264  21.072  47.372  1.00  0.00     0.078 A 
ATOM     10  C   UNL     1      -1.499  22.127  48.258  1.00  0.00     0.223 A 
ENDROOT
BRANCH   1  11
ATOM     11  C   UNL     1      -2.007  22.897  50.612  1.00  0.00     0.091 A 
ATOM     12  C   UNL     1      -3.159  23.700  50.528  1.00  0.00     0.068 A 
ATOM     13  C   UNL     1      -3.413  24.683  51.494  1.00  0.00     0.162 A 
ATOM     14  C   UNL     1      -1.132  23.071  51.695  1.00  0.00     0.068 A 
ATOM     15  C   UNL     1      -2.519  24.863  52.563  1.00  0.00     0.200 A 
ATOM     16  C   UNL     1      -1.381  24.053  52.663  1.00  0.00     0.162 A 
BRANCH  13  17
ATOM     17  O   UNL     1      -4.555  25.477  51.399  1.00  0.00    -0.504 OA
ATOM     18  H   UNL     1      -5.308  25.410  52.074  1.00  0.00     0.293 HD
ENDBRANCH  13  17
BRANCH  15  19
ATOM     19  O   UNL     1      -2.749  25.839  53.534  1.00  0.00    -0.502 OA
ATOM     20  H   UNL     1      -2.056  26.540  53.767  1.00  0.00     0.293 HD
ENDBRANCH  15  19
BRANCH  16  21
ATOM     21  O   UNL     1      -0.501  24.230  53.729  1.00  0.00    -0.504 OA
ATOM     22  H   UNL     1       0.162  24.997  53.748  1.00  0.00     0.293 HD
ENDBRANCH  16  21
ENDBRANCH   1  11
BRANCH  10  23
ATOM     23  O   UNL     1      -1.474  23.445  47.799  1.00  0.00    -0.500 OA
ATOM     24  H   UNL     1      -2.322  23.937  47.548  1.00  0.00     0.294 HD
ENDBRANCH  10  23
BRANCH   5  25
ATOM     25  O   UNL     1      -1.176  15.876  49.487  1.00  0.00    -0.507 OA
ATOM     26  H   UNL     1      -0.812  15.082  48.973  1.00  0.00     0.293 HD
ENDBRANCH   5  25
BRANCH   7  27
ATOM     27  O   UNL     1      -0.783  18.733  45.630  1.00  0.00    -0.507 OA
ATOM     28  H   UNL     1      -0.764  17.949  44.994  1.00  0.00     0.293 HD
ENDBRANCH   7  27
TORSDOF 7
ENDMDL
MODEL 5
REMARK VINA RESULT:    -6.488      1.975      7.414
REMARK INTER + INTRA:          -8.256
REMARK INTER:                  -7.902
REMARK INTRA:                  -0.353
REMARK UNBOUND:                -0.250
REMARK SMILES Oc1cc(O)c2cc(O)c(-c3cc(O)c(O)c(O)c3)[o+]c2c1
REMARK SMILES IDX 10 1 20 2 21 3 22 4 2 5 3 6 4 7 6 8 7 9 8 10 11 11 12 12
REMARK SMILES IDX 13 13 19 14 15 15 17 16 14 17 16 19 18 21 9 23 1 25 5 27
REMARK H PARENT 14 18 16 20 18 22 9 24 1 26 5 28
REMARK Flexibility Score: inf
ROOT
ATOM      1  C   UNL     1      -1.683  21.845  50.054  1.00  0.00     0.402 A 
ATOM      2  O   UNL     1      -2.653  21.188  49.425  1.00  0.00    -0.202 OA
ATOM      3  C   UNL     1      -2.515  19.949  48.961  1.00  0.00     0.368 A 
ATOM      4  C   UNL     1      -3.591  19.343  48.310  1.00  0.00     0.162 A 
ATOM      5  C   UNL     1      -3.474  18.045  47.811  1.00  0.00     0.128 A 
ATOM      6  C   UNL     1      -2.270  17.347  47.963  1.00  0.00     0.093 A 
ATOM      7  C   UNL     1      -1.177  17.933  48.611  1.00  0.00     0.136 A 
ATOM      8  C   UNL     1      -1.294  19.252  49.123  1.00  0.00     0.125 A 
ATOM      9  C   UNL     1      -0.255  19.913  49.798  1.00  0.00     0.078 A 
ATOM     10  C   UNL     1      -0.447  21.212  50.278  1.00  0.00     0.223 A 
ENDROOT
BRANCH   1  11
ATOM     11  C   UNL     1      -1.958  23.225  50.515  1.00  0.00     0.091 A 
ATOM     12  C   UNL     1      -1.899  24.317  49.631  1.00  0.00     0.068 A 
ATOM     13  C   UNL     1      -2.185  25.614  50.081  1.00  0.00     0.162 A 
ATOM     14  C   UNL     1      -2.339  23.445  51.847  1.00  0.00     0.068 A 
ATOM     15  C   UNL     1      -2.544  25.826  51.422  1.00  0.00     0.200 A 
ATOM     16  C   UNL     1      -2.624  24.739  52.302  1.00  0.00     0.162 A 
BRANCH  13  17
ATOM     17  O   UNL     1      -2.118  26.690  49.198  1.00  0.00    -0.504 OA
ATOM     18  H   UNL     1      -2.545  26.652  48.279  1.00  0.00     0.293 HD
ENDBRANCH  13  17
BRANCH  15  19
ATOM     19  O   UNL     1      -2.828  27.108  51.894  1.00  0.00    -0.502 OA
ATOM     20  H   UNL     1      -3.591  27.661  51.524  1.00  0.00     0.293 HD
ENDBRANCH  15  19
BRANCH  16  21
ATOM     21  O   UNL     1      -2.989  24.954  53.630  1.00  0.00    -0.504 OA
ATOM     22  H   UNL     1      -3.411  24.222  54.190  1.00  0.00     0.293 HD
ENDBRANCH  16  21
ENDBRANCH   1  11
BRANCH  10  23
ATOM     23  O   UNL     1       0.567  21.850  50.992  1.00  0.00    -0.500 OA
ATOM     24  H   UNL     1       0.474  22.807  51.310  1.00  0.00     0.294 HD
ENDBRANCH  10  23
BRANCH   5  25
ATOM     25  O   UNL     1      -4.558  17.456  47.165  1.00  0.00    -0.507 OA
ATOM     26  H   UNL     1      -5.513  17.675  47.423  1.00  0.00     0.293 HD
ENDBRANCH   5  25
BRANCH   7  27
ATOM     27  O   UNL     1      -0.009  17.172  48.719  1.00  0.00    -0.507 OA
ATOM     28  H   UNL     1       0.919  17.519  48.523  1.00  0.00     0.293 HD
ENDBRANCH   7  27
TORSDOF 7
ENDMDL
MODEL 6
REMARK VINA RESULT:    -6.405      2.138      2.977
REMARK INTER + INTRA:          -8.153
REMARK INTER:                  -7.786
REMARK INTRA:                  -0.367
REMARK UNBOUND:                -0.250
REMARK SMILES Oc1cc(O)c2cc(O)c(-c3cc(O)c(O)c(O)c3)[o+]c2c1
REMARK SMILES IDX 10 1 20 2 21 3 22 4 2 5 3 6 4 7 6 8 7 9 8 10 11 11 12 12
REMARK SMILES IDX 13 13 19 14 15 15 17 16 14 17 16 19 18 21 9 23 1 25 5 27
REMARK H PARENT 14 18 16 20 18 22 9 24 1 26 5 28
REMARK Flexibility Score: inf
ROOT
ATOM      1  C   UNL     1      -1.759  21.735  49.102  1.00  0.00     0.402 A 
ATOM      2  O   UNL     1      -2.124  22.089  50.331  1.00  0.00    -0.202 OA
ATOM      3  C   UNL     1      -2.108  23.346  50.764  1.00  0.00     0.368 A 
ATOM      4  C   UNL     1      -2.506  23.618  52.075  1.00  0.00     0.162 A 
ATOM      5  C   UNL     1      -2.497  24.927  52.558  1.00  0.00     0.128 A 
ATOM      6  C   UNL     1      -2.086  25.974  51.724  1.00  0.00     0.093 A 
ATOM      7  C   UNL     1      -1.682  25.727  50.407  1.00  0.00     0.136 A 
ATOM      8  C   UNL     1      -1.693  24.396  49.911  1.00  0.00     0.125 A 
ATOM      9  C   UNL     1      -1.317  24.057  48.602  1.00  0.00     0.078 A 
ATOM     10  C   UNL     1      -1.358  22.724  48.184  1.00  0.00     0.223 A 
ENDROOT
BRANCH   1  11
ATOM     11  C   UNL     1      -1.811  20.300  48.742  1.00  0.00     0.091 A 
ATOM     12  C   UNL     1      -3.004  19.697  48.307  1.00  0.00     0.068 A 
ATOM     13  C   UNL     1      -3.029  18.342  47.949  1.00  0.00     0.162 A 
ATOM     14  C   UNL     1      -0.635  19.535  48.782  1.00  0.00     0.068 A 
ATOM     15  C   UNL     1      -1.851  17.580  48.014  1.00  0.00     0.200 A 
ATOM     16  C   UNL     1      -0.654  18.179  48.426  1.00  0.00     0.162 A 
BRANCH  13  17
ATOM     17  O   UNL     1      -4.219  17.753  47.524  1.00  0.00    -0.504 OA
ATOM     18  H   UNL     1      -4.495  16.828  47.835  1.00  0.00     0.293 HD
ENDBRANCH  13  17
BRANCH  15  19
ATOM     19  O   UNL     1      -1.852  16.228  47.667  1.00  0.00    -0.502 OA
ATOM     20  H   UNL     1      -2.600  15.811  47.127  1.00  0.00     0.293 HD
ENDBRANCH  15  19
BRANCH  16  21
ATOM     21  O   UNL     1       0.513  17.421  48.481  1.00  0.00    -0.504 OA
ATOM     22  H   UNL     1       0.650  16.613  47.884  1.00  0.00     0.293 HD
ENDBRANCH  16  21
ENDBRANCH   1  11
BRANCH  10  23
ATOM     23  O   UNL     1      -1.033  22.393  46.868  1.00  0.00    -0.500 OA
ATOM     24  H   UNL     1      -0.177  21.903  46.639  1.00  0.00     0.294 HD
ENDBRANCH  10  23
BRANCH   5  25
ATOM     25  O   UNL     1      -2.898  25.179  53.868  1.00  0.00    -0.507 OA
ATOM     26  H   UNL     1      -2.572  24.613  54.641  1.00  0.00     0.293 HD
ENDBRANCH   5  25
BRANCH   7  27
ATOM     27  O   UNL     1      -1.283  26.825  49.640  1.00  0.00    -0.507 OA
ATOM     28  H   UNL     1      -1.907  27.547  49.309  1.00  0.00     0.293 HD
ENDBRANCH   7  27
TORSDOF 7
ENDMDL
MODEL 7
REMARK VINA RESULT:    -6.365      2.056      7.696
REMARK INTER + INTRA:          -8.104
REMARK INTER:                  -7.744
REMARK INTRA:                  -0.360
REMARK UNBOUND:                -0.250
REMARK SMILES Oc1cc(O)c2cc(O)c(-c3cc(O)c(O)c(O)c3)[o+]c2c1
REMARK SMILES IDX 10 1 20 2 21 3 22 4 2 5 3 6 4 7 6 8 7 9 8 10 11 11 12 12
REMARK SMILES IDX 13 13 19 14 15 15 17 16 14 17 16 19 18 21 9 23 1 25 5 27
REMARK H PARENT 14 18 16 20 18 22 9 24 1 26 5 28
REMARK Flexibility Score: inf
ROOT
ATOM      1  C   UNL     1      -1.319  22.664  50.196  1.00  0.00     0.402 A 
ATOM      2  O   UNL     1      -2.277  21.854  49.754  1.00  0.00    -0.202 OA
ATOM      3  C   UNL     1      -2.031  20.692  49.157  1.00  0.00     0.368 A 
ATOM      4  C   UNL     1      -3.105  19.911  48.722  1.00  0.00     0.162 A 
ATOM      5  C   UNL     1      -2.878  18.688  48.090  1.00  0.00     0.128 A 
ATOM      6  C   UNL     1      -1.566  18.241  47.888  1.00  0.00     0.093 A 
ATOM      7  C   UNL     1      -0.474  19.006  48.314  1.00  0.00     0.136 A 
ATOM      8  C   UNL     1      -0.701  20.249  48.961  1.00  0.00     0.125 A 
ATOM      9  C   UNL     1       0.332  21.075  49.431  1.00  0.00     0.078 A 
ATOM     10  C   UNL     1       0.029  22.285  50.063  1.00  0.00     0.223 A 
ENDROOT
BRANCH   1  11
ATOM     11  C   UNL     1      -1.721  23.938  50.836  1.00  0.00     0.091 A 
ATOM     12  C   UNL     1      -2.100  23.989  52.190  1.00  0.00     0.068 A 
ATOM     13  C   UNL     1      -2.455  25.208  52.784  1.00  0.00     0.162 A 
ATOM     14  C   UNL     1      -1.670  25.129  50.096  1.00  0.00     0.068 A 
ATOM     15  C   UNL     1      -2.422  26.391  52.028  1.00  0.00     0.200 A 
ATOM     16  C   UNL     1      -2.025  26.350  50.685  1.00  0.00     0.162 A 
BRANCH  13  17
ATOM     17  O   UNL     1      -2.835  25.247  54.125  1.00  0.00    -0.504 OA
ATOM     18  H   UNL     1      -3.691  24.809  54.448  1.00  0.00     0.293 HD
ENDBRANCH  13  17
BRANCH  15  19
ATOM     19  O   UNL     1      -2.776  27.616  52.597  1.00  0.00    -0.502 OA
ATOM     20  H   UNL     1      -3.451  27.685  53.349  1.00  0.00     0.293 HD
ENDBRANCH  15  19
BRANCH  16  21
ATOM     21  O   UNL     1      -1.987  27.528  49.942  1.00  0.00    -0.504 OA
ATOM     22  H   UNL     1      -1.184  27.769  49.371  1.00  0.00     0.293 HD
ENDBRANCH  16  21
ENDBRANCH   1  11
BRANCH  10  23
ATOM     23  O   UNL     1       1.053  23.082  50.576  1.00  0.00    -0.500 OA
ATOM     24  H   UNL     1       1.880  23.300  50.034  1.00  0.00     0.294 HD
ENDBRANCH  10  23
BRANCH   5  25
ATOM     25  O   UNL     1      -3.960  17.922  47.664  1.00  0.00    -0.507 OA
ATOM     26  H   UNL     1      -3.979  17.492  46.747  1.00  0.00     0.293 HD
ENDBRANCH   5  25
BRANCH   7  27
ATOM     27  O   UNL     1       0.804  18.493  48.073  1.00  0.00    -0.507 OA
ATOM     28  H   UNL     1       1.089  17.548  48.288  1.00  0.00     0.293 HD
ENDBRANCH   7  27
TORSDOF 7
ENDMDL
MODEL 8
REMARK VINA RESULT:    -6.339      3.010      5.603
REMARK INTER + INTRA:          -8.072
REMARK INTER:                  -8.164
REMARK INTRA:                   0.092
REMARK UNBOUND:                -0.250
REMARK SMILES Oc1cc(O)c2cc(O)c(-c3cc(O)c(O)c(O)c3)[o+]c2c1
REMARK SMILES IDX 10 1 20 2 21 3 22 4 2 5 3 6 4 7 6 8 7 9 8 10 11 11 12 12
REMARK SMILES IDX 13 13 19 14 15 15 17 16 14 17 16 19 18 21 9 23 1 25 5 27
REMARK H PARENT 14 18 16 20 18 22 9 24 1 26 5 28
REMARK Flexibility Score: inf
ROOT
ATOM      1  C   UNL     1       1.354  17.647  47.267  1.00  0.00     0.402 A 
ATOM      2  O   UNL     1       1.033  18.617  48.118  1.00  0.00    -0.202 OA
ATOM      3  C   UNL     1      -0.220  18.985  48.366  1.00  0.00     0.368 A 
ATOM      4  C   UNL     1      -0.457  20.019  49.276  1.00  0.00     0.162 A 
ATOM      5  C   UNL     1      -1.762  20.429  49.554  1.00  0.00     0.128 A 
ATOM      6  C   UNL     1      -2.839  19.802  48.917  1.00  0.00     0.093 A 
ATOM      7  C   UNL     1      -2.627  18.764  48.002  1.00  0.00     0.136 A 
ATOM      8  C   UNL     1      -1.302  18.342  47.719  1.00  0.00     0.125 A 
ATOM      9  C   UNL     1      -0.996  17.303  46.826  1.00  0.00     0.078 A 
ATOM     10  C   UNL     1       0.335  16.941  46.602  1.00  0.00     0.223 A 
ENDROOT
BRANCH   1  11
ATOM     11  C   UNL     1       2.788  17.336  47.069  1.00  0.00     0.091 A 
ATOM     12  C   UNL     1       3.286  16.944  45.813  1.00  0.00     0.068 A 
ATOM     13  C   UNL     1       4.651  16.675  45.640  1.00  0.00     0.162 A 
ATOM     14  C   UNL     1       3.682  17.487  48.140  1.00  0.00     0.068 A 
ATOM     15  C   UNL     1       5.533  16.809  46.725  1.00  0.00     0.200 A 
ATOM     16  C   UNL     1       5.047  17.219  47.973  1.00  0.00     0.162 A 
BRANCH  13  17
ATOM     17  O   UNL     1       5.133  16.282  44.393  1.00  0.00    -0.504 OA
ATOM     18  H   UNL     1       6.081  15.946  44.271  1.00  0.00     0.293 HD
ENDBRANCH  13  17
BRANCH  15  19
ATOM     19  O   UNL     1       6.895  16.542  46.578  1.00  0.00    -0.502 OA
ATOM     20  H   UNL     1       7.443  16.938  45.823  1.00  0.00     0.293 HD
ENDBRANCH  15  19
BRANCH  16  21
ATOM     21  O   UNL     1       5.928  17.357  49.044  1.00  0.00    -0.504 OA
ATOM     22  H   UNL     1       6.785  17.892  48.960  1.00  0.00     0.293 HD
ENDBRANCH  16  21
ENDBRANCH   1  11
BRANCH  10  23
ATOM     23  O   UNL     1       0.637  15.875  45.753  1.00  0.00    -0.500 OA
ATOM     24  H   UNL     1       1.591  15.579  45.588  1.00  0.00     0.294 HD
ENDBRANCH  10  23
BRANCH   5  25
ATOM     25  O   UNL     1      -1.979  21.460  50.464  1.00  0.00    -0.507 OA
ATOM     26  H   UNL     1      -1.415  22.302  50.457  1.00  0.00     0.293 HD
ENDBRANCH   5  25
BRANCH   7  27
ATOM     27  O   UNL     1      -3.755  18.192  47.406  1.00  0.00    -0.507 OA
ATOM     28  H   UNL     1      -3.731  17.610  46.581  1.00  0.00     0.293 HD
ENDBRANCH   7  27
TORSDOF 7
ENDMDL
MODEL 9
REMARK VINA RESULT:    -6.158     10.198     12.619
REMARK INTER + INTRA:          -7.848
REMARK INTER:                  -7.837
REMARK INTRA:                  -0.011
REMARK UNBOUND:                -0.250
REMARK SMILES Oc1cc(O)c2cc(O)c(-c3cc(O)c(O)c(O)c3)[o+]c2c1
REMARK SMILES IDX 10 1 20 2 21 3 22 4 2 5 3 6 4 7 6 8 7 9 8 10 11 11 12 12
REMARK SMILES IDX 13 13 19 14 15 15 17 16 14 17 16 19 18 21 9 23 1 25 5 27
REMARK H PARENT 14 18 16 20 18 22 9 24 1 26 5 28
REMARK Flexibility Score: inf
ROOT
ATOM      1  C   UNL     1       3.679  23.053  39.795  1.00  0.00     0.402 A 
ATOM      2  O   UNL     1       4.118  23.088  41.049  1.00  0.00    -0.202 OA
ATOM      3  C   UNL     1       5.165  22.387  41.476  1.00  0.00     0.368 A 
ATOM      4  C   UNL     1       5.548  22.487  42.816  1.00  0.00     0.162 A 
ATOM      5  C   UNL     1       6.641  21.761  43.293  1.00  0.00     0.128 A 
ATOM      6  C   UNL     1       7.356  20.928  42.425  1.00  0.00     0.093 A 
ATOM      7  C   UNL     1       6.990  20.810  41.079  1.00  0.00     0.136 A 
ATOM      8  C   UNL     1       5.882  21.550  40.589  1.00  0.00     0.125 A 
ATOM      9  C   UNL     1       5.453  21.504  39.253  1.00  0.00     0.078 A 
ATOM     10  C   UNL     1       4.354  22.265  38.844  1.00  0.00     0.223 A 
ENDROOT
BRANCH   1  11
ATOM     11  C   UNL     1       2.497  23.872  39.444  1.00  0.00     0.091 A 
ATOM     12  C   UNL     1       1.336  23.859  40.238  1.00  0.00     0.068 A 
ATOM     13  C   UNL     1       0.234  24.659  39.902  1.00  0.00     0.162 A 
ATOM     14  C   UNL     1       2.551  24.723  38.330  1.00  0.00     0.068 A 
ATOM     15  C   UNL     1       0.292  25.490  38.771  1.00  0.00     0.200 A 
ATOM     16  C   UNL     1       1.453  25.523  37.989  1.00  0.00     0.162 A 
BRANCH  13  17
ATOM     17  O   UNL     1      -0.914  24.634  40.693  1.00  0.00    -0.504 OA
ATOM     18  H   UNL     1      -0.863  24.658  41.705  1.00  0.00     0.293 HD
ENDBRANCH  13  17
BRANCH  15  19
ATOM     19  O   UNL     1      -0.794  26.292  38.415  1.00  0.00    -0.502 OA
ATOM     20  H   UNL     1      -0.759  27.302  38.475  1.00  0.00     0.293 HD
ENDBRANCH  15  19
BRANCH  16  21
ATOM     21  O   UNL     1       1.507  26.356  36.873  1.00  0.00    -0.504 OA
ATOM     22  H   UNL     1       1.715  27.344  36.957  1.00  0.00     0.293 HD
ENDBRANCH  16  21
ENDBRANCH   1  11
BRANCH  10  23
ATOM     23  O   UNL     1       3.958  22.259  37.506  1.00  0.00    -0.500 OA
ATOM     24  H   UNL     1       3.771  23.117  37.002  1.00  0.00     0.294 HD
ENDBRANCH  10  23
BRANCH   5  25
ATOM     25  O   UNL     1       7.009  21.874  44.631  1.00  0.00    -0.507 OA
ATOM     26  H   UNL     1       6.657  22.621  45.218  1.00  0.00     0.293 HD
ENDBRANCH   5  25
BRANCH   7  27
ATOM     27  O   UNL     1       7.752  19.955  40.277  1.00  0.00    -0.507 OA
ATOM     28  H   UNL     1       8.291  20.253  39.476  1.00  0.00     0.293 HD
ENDBRANCH   7  27
TORSDOF 7
ENDMDL
