MODEL 1
REMARK VINA RESULT:    -3.278      0.000      0.000
REMARK INTER + INTRA:          -4.672
REMARK INTER:                  -4.811
REMARK INTRA:                   0.139
REMARK UNBOUND:                 0.139
REMARK SMILES C=C1CC=CC(C)(C)CC=C(C)CCC1
REMARK SMILES IDX 2 1 1 2 15 3 14 4 13 5 11 6 12 7 10 8 3 10 4 11 5 12 6 13
REMARK SMILES IDX 7 14 8 15 9 16
REMARK H PARENT
REMARK Flexibility Score: 60.00
ROOT
ATOM      1  C   UNL     1       9.819  19.351  27.239  1.00  0.00    -0.074 C 
ATOM      2  C   UNL     1      10.165  20.396  28.009  1.00  0.00     0.008 C 
ENDROOT
BRANCH   1   3
ATOM      3  C   UNL     1      10.895  18.563  26.512  1.00  0.00     0.031 C 
BRANCH   3   4
ATOM      4  C   UNL     1      11.659  19.397  25.470  1.00  0.00     0.009 C 
BRANCH   4   5
ATOM      5  C   UNL     1      11.102  19.246  24.035  1.00  0.00     0.030 C 
BRANCH   5   6
ATOM      6  C   UNL     1      10.585  20.575  23.505  1.00  0.00    -0.077 C 
ATOM      7  C   UNL     1      11.459  21.798  23.649  1.00  0.00     0.039 C 
ATOM      8  C   UNL     1       9.394  20.730  22.875  1.00  0.00    -0.027 CG0
ATOM      9  G   UNL     1       8.442  19.630  22.452  1.00  0.00     0.000 G0
ENDBRANCH   5   6
ENDBRANCH   4   5
ENDBRANCH   3   4
ENDBRANCH   1   3
BRANCH   1  10
ATOM     10  C   UNL     1       8.356  18.988  27.081  1.00  0.00     0.057 C 
BRANCH  10  11
ATOM     11  C   UNL     1       7.794  19.590  25.822  1.00  0.00    -0.026 C 
ATOM     12  C   UNL     1       7.594  18.847  24.720  1.00  0.00    -0.024 C 
BRANCH  12  13
ATOM     13  C   UNL     1       7.184  19.422  23.371  1.00  0.00    -0.014 C 
ATOM     14  C   UNL     1       6.365  20.725  23.537  1.00  0.00     0.016 C 
ATOM     15  C   UNL     1       6.270  18.383  22.681  1.00  0.00     0.016 C 
BRANCH  13  16
ATOM     16  C   UNL     1       8.431  19.638  22.459  1.00  0.00     0.038 CG0
ATOM     17  G   UNL     1       9.371  20.745  22.894  1.00  0.00     0.000 G0
ENDBRANCH  13  16
ENDBRANCH  12  13
ENDBRANCH  10  11
ENDBRANCH   1  10
TORSDOF 0
ENDMDL
MODEL 2
REMARK VINA RESULT:    -3.162     13.817     15.104
REMARK INTER + INTRA:          -4.502
REMARK INTER:                  -4.995
REMARK INTRA:                   0.493
REMARK UNBOUND:                 0.139
REMARK SMILES C=C1CC=CC(C)(C)CC=C(C)CCC1
REMARK SMILES IDX 2 1 1 2 15 3 14 4 13 5 11 6 12 7 10 8 3 10 4 11 5 12 6 13
REMARK SMILES IDX 7 14 8 15 9 16
REMARK H PARENT
REMARK Flexibility Score: 60.00
ROOT
ATOM      1  C   UNL     1      14.989  14.535  36.382  1.00  0.00    -0.074 C 
ATOM      2  C   UNL     1      16.277  14.154  36.355  1.00  0.00     0.008 C 
ENDROOT
BRANCH   1   3
ATOM      3  C   UNL     1      14.623  15.974  36.062  1.00  0.00     0.031 C 
BRANCH   3   4
ATOM      4  C   UNL     1      15.239  16.990  37.038  1.00  0.00     0.009 C 
BRANCH   4   5
ATOM      5  C   UNL     1      14.246  18.083  37.496  1.00  0.00     0.030 C 
BRANCH   5   6
ATOM      6  C   UNL     1      13.976  17.986  38.991  1.00  0.00    -0.077 C 
ATOM      7  C   UNL     1      15.032  18.486  39.948  1.00  0.00     0.039 C 
ATOM      8  C   UNL     1      12.825  17.508  39.526  1.00  0.00    -0.027 CG0
ATOM      9  G   UNL     1      11.565  17.129  38.775  1.00  0.00     0.000 G0
ENDBRANCH   5   6
ENDBRANCH   4   5
ENDBRANCH   3   4
ENDBRANCH   1   3
BRANCH   1  10
ATOM     10  C   UNL     1      13.918  13.532  36.763  1.00  0.00     0.057 C 
BRANCH  10  11
ATOM     11  C   UNL     1      13.068  14.064  37.885  1.00  0.00    -0.026 C 
ATOM     12  C   UNL     1      12.037  14.892  37.649  1.00  0.00    -0.024 C 
BRANCH  12  13
ATOM     13  C   UNL     1      11.242  15.593  38.743  1.00  0.00    -0.014 C 
ATOM     14  C   UNL     1      11.467  14.924  40.120  1.00  0.00     0.016 C 
ATOM     15  C   UNL     1       9.743  15.447  38.395  1.00  0.00     0.016 C 
BRANCH  13  16
ATOM     16  C   UNL     1      11.575  17.116  38.781  1.00  0.00     0.038 CG0
ATOM     17  G   UNL     1      12.840  17.487  39.529  1.00  0.00     0.000 G0
ENDBRANCH  13  16
ENDBRANCH  12  13
ENDBRANCH  10  11
ENDBRANCH   1  10
TORSDOF 0
ENDMDL
MODEL 3
REMARK VINA RESULT:    -3.063      1.775      4.466
REMARK INTER + INTRA:          -4.357
REMARK INTER:                  -4.586
REMARK INTRA:                   0.228
REMARK UNBOUND:                 0.139
REMARK SMILES C=C1CC=CC(C)(C)CC=C(C)CCC1
REMARK SMILES IDX 2 1 1 2 15 3 14 4 13 5 11 6 12 7 10 8 3 10 4 11 5 12 6 13
REMARK SMILES IDX 7 14 8 15 9 16
REMARK H PARENT
REMARK Flexibility Score: 60.00
ROOT
ATOM      1  C   UNL     1       7.667  19.517  24.075  1.00  0.00    -0.074 C 
ATOM      2  C   UNL     1       7.182  18.543  23.287  1.00  0.00     0.008 C 
ENDROOT
BRANCH   1   3
ATOM      3  C   UNL     1       8.355  20.719  23.450  1.00  0.00     0.031 C 
BRANCH   3   4
ATOM      4  C   UNL     1       9.665  20.362  22.729  1.00  0.00     0.009 C 
BRANCH   4   5
ATOM      5  C   UNL     1      10.907  21.060  23.330  1.00  0.00     0.030 C 
BRANCH   5   6
ATOM      6  C   UNL     1      11.902  20.042  23.867  1.00  0.00    -0.077 C 
ATOM      7  C   UNL     1      12.572  19.103  22.892  1.00  0.00     0.039 C 
ATOM      8  C   UNL     1      12.259  19.943  25.172  1.00  0.00    -0.027 CG0
ATOM      9  G   UNL     1      11.868  20.886  26.293  1.00  0.00     0.000 G0
ENDBRANCH   5   6
ENDBRANCH   4   5
ENDBRANCH   3   4
ENDBRANCH   1   3
BRANCH   1  10
ATOM     10  C   UNL     1       7.549  19.392  25.582  1.00  0.00     0.057 C 
BRANCH  10  11
ATOM     11  C   UNL     1       8.910  19.281  26.213  1.00  0.00    -0.026 C 
ATOM     12  C   UNL     1       9.465  20.317  26.864  1.00  0.00    -0.024 C 
BRANCH  12  13
ATOM     13  C   UNL     1      10.897  20.327  27.382  1.00  0.00    -0.014 C 
ATOM     14  C   UNL     1      11.333  18.922  27.863  1.00  0.00     0.016 C 
ATOM     15  C   UNL     1      10.944  21.271  28.605  1.00  0.00     0.016 C 
BRANCH  13  16
ATOM     16  C   UNL     1      11.871  20.895  26.305  1.00  0.00     0.038 CG0
ATOM     17  G   UNL     1      12.230  19.941  25.184  1.00  0.00     0.000 G0
ENDBRANCH  13  16
ENDBRANCH  12  13
ENDBRANCH  10  11
ENDBRANCH   1  10
TORSDOF 0
ENDMDL
MODEL 4
REMARK VINA RESULT:    -2.907      3.178      5.448
REMARK INTER + INTRA:          -4.128
REMARK INTER:                  -4.386
REMARK INTRA:                   0.259
REMARK UNBOUND:                 0.139
REMARK SMILES C=C1CC=CC(C)(C)CC=C(C)CCC1
REMARK SMILES IDX 2 1 1 2 15 3 14 4 13 5 11 6 12 7 10 8 3 10 4 11 5 12 6 13
REMARK SMILES IDX 7 14 8 15 9 16
REMARK H PARENT
REMARK Flexibility Score: 60.00
ROOT
ATOM      1  C   UNL     1       9.807  19.366  26.261  1.00  0.00    -0.074 C 
ATOM      2  C   UNL     1       8.646  19.816  26.764  1.00  0.00     0.008 C 
ENDROOT
BRANCH   1   3
ATOM      3  C   UNL     1      10.808  18.679  27.176  1.00  0.00     0.031 C 
BRANCH   3   4
ATOM      4  C   UNL     1      11.528  19.649  28.126  1.00  0.00     0.009 C 
BRANCH   4   5
ATOM      5  C   UNL     1      13.067  19.504  28.102  1.00  0.00     0.030 C 
BRANCH   5   6
ATOM      6  C   UNL     1      13.745  20.861  27.980  1.00  0.00    -0.077 C 
ATOM      7  C   UNL     1      13.735  21.783  29.176  1.00  0.00     0.039 C 
ATOM      8  C   UNL     1      14.394  21.289  26.868  1.00  0.00    -0.027 CG0
ATOM      9  G   UNL     1      14.695  20.476  25.625  1.00  0.00     0.000 G0
ENDBRANCH   5   6
ENDBRANCH   4   5
ENDBRANCH   3   4
ENDBRANCH   1   3
BRANCH   1  10
ATOM     10  C   UNL     1      10.120  19.574  24.792  1.00  0.00     0.057 C 
BRANCH  10  11
ATOM     11  C   UNL     1      11.311  20.479  24.627  1.00  0.00    -0.026 C 
ATOM     12  C   UNL     1      12.535  19.983  24.379  1.00  0.00    -0.024 C 
BRANCH  12  13
ATOM     13  C   UNL     1      13.805  20.825  24.362  1.00  0.00    -0.014 C 
ATOM     14  C   UNL     1      13.479  22.336  24.278  1.00  0.00     0.016 C 
ATOM     15  C   UNL     1      14.597  20.448  23.089  1.00  0.00     0.016 C 
BRANCH  13  16
ATOM     16  C   UNL     1      14.702  20.497  25.595  1.00  0.00     0.038 CG0
ATOM     17  G   UNL     1      14.388  21.279  26.855  1.00  0.00     0.000 G0
ENDBRANCH  13  16
ENDBRANCH  12  13
ENDBRANCH  10  11
ENDBRANCH   1  10
TORSDOF 0
ENDMDL
MODEL 5
REMARK VINA RESULT:    -2.803      1.801      4.802
REMARK INTER + INTRA:          -3.976
REMARK INTER:                  -4.465
REMARK INTRA:                   0.489
REMARK UNBOUND:                 0.139
REMARK SMILES C=C1CC=CC(C)(C)CC=C(C)CCC1
REMARK SMILES IDX 2 1 1 2 15 3 14 4 13 5 11 6 12 7 10 8 3 10 4 11 5 12 6 13
REMARK SMILES IDX 7 14 8 15 9 16
REMARK H PARENT
REMARK Flexibility Score: 60.00
ROOT
ATOM      1  C   UNL     1       6.178  18.999  22.536  1.00  0.00    -0.074 C 
ATOM      2  C   UNL     1       5.016  18.400  22.228  1.00  0.00     0.008 C 
ENDROOT
BRANCH   1   3
ATOM      3  C   UNL     1       6.199  20.486  22.849  1.00  0.00     0.031 C 
BRANCH   3   4
ATOM      4  C   UNL     1       6.010  20.795  24.343  1.00  0.00     0.009 C 
BRANCH   4   5
ATOM      5  C   UNL     1       6.922  21.934  24.855  1.00  0.00     0.030 C 
BRANCH   5   6
ATOM      6  C   UNL     1       7.865  21.436  25.941  1.00  0.00    -0.077 C 
ATOM      7  C   UNL     1       7.276  20.987  27.257  1.00  0.00     0.039 C 
ATOM      8  C   UNL     1       9.209  21.334  25.792  1.00  0.00    -0.027 CG0
ATOM      9  G   UNL     1       9.998  21.544  24.515  1.00  0.00     0.000 G0
ENDBRANCH   5   6
ENDBRANCH   4   5
ENDBRANCH   3   4
ENDBRANCH   1   3
BRANCH   1  10
ATOM     10  C   UNL     1       7.461  18.191  22.539  1.00  0.00     0.057 C 
BRANCH  10  11
ATOM     11  C   UNL     1       8.659  19.100  22.579  1.00  0.00    -0.026 C 
ATOM     12  C   UNL     1       9.418  19.208  23.682  1.00  0.00    -0.024 C 
BRANCH  12  13
ATOM     13  C   UNL     1      10.542  20.224  23.844  1.00  0.00    -0.014 C 
ATOM     14  C   UNL     1      11.237  20.517  22.492  1.00  0.00     0.016 C 
ATOM     15  C   UNL     1      11.599  19.603  24.785  1.00  0.00     0.016 C 
BRANCH  13  16
ATOM     16  C   UNL     1      10.015  21.529  24.516  1.00  0.00     0.038 CG0
ATOM     17  G   UNL     1       9.214  21.329  25.787  1.00  0.00     0.000 G0
ENDBRANCH  13  16
ENDBRANCH  12  13
ENDBRANCH  10  11
ENDBRANCH   1  10
TORSDOF 0
ENDMDL
MODEL 6
REMARK VINA RESULT:    -2.754      2.501      3.508
REMARK INTER + INTRA:          -3.904
REMARK INTER:                  -4.345
REMARK INTRA:                   0.442
REMARK UNBOUND:                 0.139
REMARK SMILES C=C1CC=CC(C)(C)CC=C(C)CCC1
REMARK SMILES IDX 2 1 1 2 15 3 14 4 13 5 11 6 12 7 10 8 3 10 4 11 5 12 6 13
REMARK SMILES IDX 7 14 8 15 9 16
REMARK H PARENT
REMARK Flexibility Score: 60.00
ROOT
ATOM      1  C   UNL     1      11.881  19.833  28.049  1.00  0.00    -0.074 C 
ATOM      2  C   UNL     1      11.450  20.799  28.877  1.00  0.00     0.008 C 
ENDROOT
BRANCH   1   3
ATOM      3  C   UNL     1      13.373  19.620  27.853  1.00  0.00     0.031 C 
BRANCH   3   4
ATOM      4  C   UNL     1      14.037  20.718  27.005  1.00  0.00     0.009 C 
BRANCH   4   5
ATOM      5  C   UNL     1      14.330  20.279  25.552  1.00  0.00     0.030 C 
BRANCH   5   6
ATOM      6  C   UNL     1      14.128  21.433  24.580  1.00  0.00    -0.077 C 
ATOM      7  C   UNL     1      15.003  22.655  24.720  1.00  0.00     0.039 C 
ATOM      8  C   UNL     1      13.229  21.423  23.564  1.00  0.00    -0.027 CG0
ATOM      9  G   UNL     1      12.383  20.249  23.114  1.00  0.00     0.000 G0
ENDBRANCH   5   6
ENDBRANCH   4   5
ENDBRANCH   3   4
ENDBRANCH   1   3
BRANCH   1  10
ATOM     10  C   UNL     1      10.875  18.985  27.296  1.00  0.00     0.057 C 
BRANCH  10  11
ATOM     11  C   UNL     1      11.122  19.060  25.814  1.00  0.00    -0.026 C 
ATOM     12  C   UNL     1      10.832  20.169  25.113  1.00  0.00    -0.024 C 
BRANCH  12  13
ATOM     13  C   UNL     1      10.904  20.257  23.594  1.00  0.00    -0.014 C 
ATOM     14  C   UNL     1      10.139  21.493  23.063  1.00  0.00     0.016 C 
ATOM     15  C   UNL     1      10.211  19.000  23.021  1.00  0.00     0.016 C 
BRANCH  13  16
ATOM     16  C   UNL     1      12.387  20.245  23.108  1.00  0.00     0.038 CG0
ATOM     17  G   UNL     1      13.221  21.435  23.538  1.00  0.00     0.000 G0
ENDBRANCH  13  16
ENDBRANCH  12  13
ENDBRANCH  10  11
ENDBRANCH   1  10
TORSDOF 0
ENDMDL
MODEL 7
REMARK VINA RESULT:    -2.672      2.134      4.782
REMARK INTER + INTRA:          -3.783
REMARK INTER:                  -4.223
REMARK INTRA:                   0.439
REMARK UNBOUND:                 0.139
REMARK SMILES C=C1CC=CC(C)(C)CC=C(C)CCC1
REMARK SMILES IDX 2 1 1 2 15 3 14 4 13 5 11 6 12 7 10 8 3 10 4 11 5 12 6 13
REMARK SMILES IDX 7 14 8 15 9 16
REMARK H PARENT
REMARK Flexibility Score: 60.00
ROOT
ATOM      1  C   UNL     1       5.539  19.177  22.478  1.00  0.00    -0.074 C 
ATOM      2  C   UNL     1       4.712  18.942  21.446  1.00  0.00     0.008 C 
ENDROOT
BRANCH   1   3
ATOM      3  C   UNL     1       5.285  20.363  23.393  1.00  0.00     0.031 C 
BRANCH   3   4
ATOM      4  C   UNL     1       5.882  21.677  22.864  1.00  0.00     0.009 C 
BRANCH   4   5
ATOM      5  C   UNL     1       6.691  22.457  23.926  1.00  0.00     0.030 C 
BRANCH   5   6
ATOM      6  C   UNL     1       7.858  23.199  23.291  1.00  0.00    -0.077 C 
ATOM      7  C   UNL     1       7.595  24.537  22.644  1.00  0.00     0.039 C 
ATOM      8  C   UNL     1       9.138  22.750  23.297  1.00  0.00    -0.027 CG0
ATOM      9  G   UNL     1       9.671  21.541  24.039  1.00  0.00     0.000 G0
ENDBRANCH   5   6
ENDBRANCH   4   5
ENDBRANCH   3   4
ENDBRANCH   1   3
BRANCH   1  10
ATOM     10  C   UNL     1       6.736  18.272  22.701  1.00  0.00     0.057 C 
BRANCH  10  11
ATOM     11  C   UNL     1       7.868  19.037  23.330  1.00  0.00    -0.026 C 
ATOM     12  C   UNL     1       8.798  19.652  22.580  1.00  0.00    -0.024 C 
BRANCH  12  13
ATOM     13  C   UNL     1      10.054  20.302  23.147  1.00  0.00    -0.014 C 
ATOM     14  C   UNL     1      11.045  20.691  22.023  1.00  0.00     0.016 C 
ATOM     15  C   UNL     1      10.755  19.257  24.044  1.00  0.00     0.016 C 
BRANCH  13  16
ATOM     16  C   UNL     1       9.688  21.527  24.040  1.00  0.00     0.038 CG0
ATOM     17  G   UNL     1       9.148  22.734  23.300  1.00  0.00     0.000 G0
ENDBRANCH  13  16
ENDBRANCH  12  13
ENDBRANCH  10  11
ENDBRANCH   1  10
TORSDOF 0
ENDMDL
MODEL 8
REMARK VINA RESULT:    -2.647      2.137      5.112
REMARK INTER + INTRA:          -3.746
REMARK INTER:                  -4.080
REMARK INTRA:                   0.333
REMARK UNBOUND:                 0.139
REMARK SMILES C=C1CC=CC(C)(C)CC=C(C)CCC1
REMARK SMILES IDX 2 1 1 2 15 3 14 4 13 5 11 6 12 7 10 8 3 10 4 11 5 12 6 13
REMARK SMILES IDX 7 14 8 15 9 16
REMARK H PARENT
REMARK Flexibility Score: 60.00
ROOT
ATOM      1  C   UNL     1       8.646  19.552  23.116  1.00  0.00    -0.074 C 
ATOM      2  C   UNL     1       7.739  18.573  23.273  1.00  0.00     0.008 C 
ENDROOT
BRANCH   1   3
ATOM      3  C   UNL     1       8.181  20.986  22.927  1.00  0.00     0.031 C 
BRANCH   3   4
ATOM      4  C   UNL     1       7.433  21.548  24.148  1.00  0.00     0.009 C 
BRANCH   4   5
ATOM      5  C   UNL     1       8.369  22.168  25.210  1.00  0.00     0.030 C 
BRANCH   5   6
ATOM      6  C   UNL     1       8.274  21.417  26.530  1.00  0.00    -0.077 C 
ATOM      7  C   UNL     1       6.915  20.960  27.004  1.00  0.00     0.039 C 
ATOM      8  C   UNL     1       9.343  21.096  27.301  1.00  0.00    -0.027 CG0
ATOM      9  G   UNL     1      10.805  21.280  26.945  1.00  0.00     0.000 G0
ENDBRANCH   5   6
ENDBRANCH   4   5
ENDBRANCH   3   4
ENDBRANCH   1   3
BRANCH   1  10
ATOM     10  C   UNL     1      10.123  19.210  23.099  1.00  0.00     0.057 C 
BRANCH  10  11
ATOM     11  C   UNL     1      10.839  19.900  24.228  1.00  0.00    -0.026 C 
ATOM     12  C   UNL     1      11.039  19.288  25.407  1.00  0.00    -0.024 C 
BRANCH  12  13
ATOM     13  C   UNL     1      11.609  19.980  26.638  1.00  0.00    -0.014 C 
ATOM     14  C   UNL     1      13.125  20.251  26.482  1.00  0.00     0.016 C 
ATOM     15  C   UNL     1      11.429  19.021  27.837  1.00  0.00     0.016 C 
BRANCH  13  16
ATOM     16  C   UNL     1      10.820  21.288  26.952  1.00  0.00     0.038 CG0
ATOM     17  G   UNL     1       9.359  21.097  27.308  1.00  0.00     0.000 G0
ENDBRANCH  13  16
ENDBRANCH  12  13
ENDBRANCH  10  11
ENDBRANCH   1  10
TORSDOF 0
ENDMDL
MODEL 9
REMARK VINA RESULT:    -2.634      2.425      5.584
REMARK INTER + INTRA:          -3.727
REMARK INTER:                  -4.008
REMARK INTRA:                   0.281
REMARK UNBOUND:                 0.139
REMARK SMILES C=C1CC=CC(C)(C)CC=C(C)CCC1
REMARK SMILES IDX 2 1 1 2 15 3 14 4 13 5 11 6 12 7 10 8 3 10 4 11 5 12 6 13
REMARK SMILES IDX 7 14 8 15 9 16
REMARK H PARENT
REMARK Flexibility Score: 60.00
ROOT
ATOM      1  C   UNL     1       3.920  19.768  22.041  1.00  0.00    -0.074 C 
ATOM      2  C   UNL     1       2.603  19.579  22.223  1.00  0.00     0.008 C 
ENDROOT
BRANCH   1   3
ATOM      3  C   UNL     1       4.431  21.126  21.590  1.00  0.00     0.031 C 
BRANCH   3   4
ATOM      4  C   UNL     1       3.882  22.291  22.429  1.00  0.00     0.009 C 
BRANCH   4   5
ATOM      5  C   UNL     1       4.837  22.736  23.561  1.00  0.00     0.030 C 
BRANCH   5   6
ATOM      6  C   UNL     1       6.154  23.249  22.997  1.00  0.00    -0.077 C 
ATOM      7  C   UNL     1       6.118  24.363  21.979  1.00  0.00     0.039 C 
ATOM      8  C   UNL     1       7.373  22.791  23.377  1.00  0.00    -0.027 CG0
ATOM      9  G   UNL     1       7.667  21.822  24.505  1.00  0.00     0.000 G0
ENDBRANCH   5   6
ENDBRANCH   4   5
ENDBRANCH   3   4
ENDBRANCH   1   3
BRANCH   1  10
ATOM     10  C   UNL     1       4.881  18.615  22.259  1.00  0.00     0.057 C 
BRANCH  10  11
ATOM     11  C   UNL     1       6.264  19.127  22.558  1.00  0.00    -0.026 C 
ATOM     12  C   UNL     1       6.570  19.658  23.753  1.00  0.00    -0.024 C 
BRANCH  12  13
ATOM     13  C   UNL     1       7.896  20.339  24.066  1.00  0.00    -0.014 C 
ATOM     14  C   UNL     1       8.877  20.239  22.874  1.00  0.00     0.016 C 
ATOM     15  C   UNL     1       8.534  19.590  25.258  1.00  0.00     0.016 C 
BRANCH  13  16
ATOM     16  C   UNL     1       7.668  21.819  24.502  1.00  0.00     0.038 CG0
ATOM     17  G   UNL     1       7.391  22.794  23.375  1.00  0.00     0.000 G0
ENDBRANCH  13  16
ENDBRANCH  12  13
ENDBRANCH  10  11
ENDBRANCH   1  10
TORSDOF 0
ENDMDL
