MODEL 1
REMARK VINA RESULT:    -2.159      0.000      0.000
REMARK INTER + INTRA:          -2.159
REMARK INTER:                  -2.159
REMARK INTRA:                   0.000
REMARK UNBOUND:                 0.000
REMARK SMILES CC(=O)[O-]
REMARK SMILES IDX 1 1 2 2 3 3 4 4
REMARK H PARENT
REMARK Flexibility Score: inf
ROOT
ATOM      1  C   UNL     1     108.264  78.977  80.161  1.00  0.00     0.063 C 
ATOM      2  C   UNL     1     109.693  79.245  79.833  1.00  0.00     0.038 C 
ATOM      3  O   UNL     1     110.598  78.502  80.298  1.00  0.00    -0.550 OA
ATOM      4  O   UNL     1     110.027  80.280  78.970  1.00  0.00    -0.550 OA
ENDROOT
TORSDOF 0
ENDMDL
MODEL 2
REMARK VINA RESULT:    -2.084     15.813     16.283
REMARK INTER + INTRA:          -2.084
REMARK INTER:                  -2.084
REMARK INTRA:                   0.000
REMARK UNBOUND:                 0.000
REMARK SMILES CC(=O)[O-]
REMARK SMILES IDX 1 1 2 2 3 3 4 4
REMARK H PARENT
REMARK Flexibility Score: inf
ROOT
ATOM      1  C   UNL     1     108.662  79.858  95.480  1.00  0.00     0.063 C 
ATOM      2  C   UNL     1     108.541  78.438  95.914  1.00  0.00     0.038 C 
ATOM      3  O   UNL     1     109.031  77.517  95.209  1.00  0.00    -0.550 OA
ATOM      4  O   UNL     1     107.937  78.129  97.126  1.00  0.00    -0.550 OA
ENDROOT
TORSDOF 0
ENDMDL
MODEL 3
REMARK VINA RESULT:    -2.049     15.561     15.978
REMARK INTER + INTRA:          -2.049
REMARK INTER:                  -2.049
REMARK INTRA:                   0.000
REMARK UNBOUND:                 0.000
REMARK SMILES CC(=O)[O-]
REMARK SMILES IDX 1 1 2 2 3 3 4 4
REMARK H PARENT
REMARK Flexibility Score: inf
ROOT
ATOM      1  C   UNL     1     108.937  80.137  95.307  1.00  0.00     0.063 C 
ATOM      2  C   UNL     1     108.163  78.910  95.649  1.00  0.00     0.038 C 
ATOM      3  O   UNL     1     108.457  78.244  96.677  1.00  0.00    -0.550 OA
ATOM      4  O   UNL     1     107.081  78.528  94.867  1.00  0.00    -0.550 OA
ENDROOT
TORSDOF 0
ENDMDL
MODEL 4
REMARK VINA RESULT:    -2.042      1.725      1.959
REMARK INTER + INTRA:          -2.042
REMARK INTER:                  -2.042
REMARK INTRA:                   0.000
REMARK UNBOUND:                 0.000
REMARK SMILES CC(=O)[O-]
REMARK SMILES IDX 1 1 2 2 3 3 4 4
REMARK H PARENT
REMARK Flexibility Score: inf
ROOT
ATOM      1  C   UNL     1     109.108  80.855  80.667  1.00  0.00     0.063 C 
ATOM      2  C   UNL     1     109.059  79.556  79.937  1.00  0.00     0.038 C 
ATOM      3  O   UNL     1     109.983  79.244  79.140  1.00  0.00    -0.550 OA
ATOM      4  O   UNL     1     108.024  78.661  80.176  1.00  0.00    -0.550 OA
ENDROOT
TORSDOF 0
ENDMDL
MODEL 5
REMARK VINA RESULT:    -2.017      9.008      9.553
REMARK INTER + INTRA:          -2.017
REMARK INTER:                  -2.017
REMARK INTRA:                   0.000
REMARK UNBOUND:                 0.000
REMARK SMILES CC(=O)[O-]
REMARK SMILES IDX 1 1 2 2 3 3 4 4
REMARK H PARENT
REMARK Flexibility Score: inf
ROOT
ATOM      1  C   UNL     1     111.455  70.696  80.053  1.00  0.00     0.063 C 
ATOM      2  C   UNL     1     112.511  70.246  81.004  1.00  0.00     0.038 C 
ATOM      3  O   UNL     1     112.679  69.019  81.227  1.00  0.00    -0.550 OA
ATOM      4  O   UNL     1     113.349  71.177  81.604  1.00  0.00    -0.550 OA
ENDROOT
TORSDOF 0
ENDMDL
MODEL 6
REMARK VINA RESULT:    -2.012     19.501     20.039
REMARK INTER + INTRA:          -2.012
REMARK INTER:                  -2.012
REMARK INTRA:                   0.000
REMARK UNBOUND:                 0.000
REMARK SMILES CC(=O)[O-]
REMARK SMILES IDX 1 1 2 2 3 3 4 4
REMARK H PARENT
REMARK Flexibility Score: inf
ROOT
ATOM      1  C   UNL     1     114.795  69.551  96.539  1.00  0.00     0.063 C 
ATOM      2  C   UNL     1     113.338  69.327  96.764  1.00  0.00     0.038 C 
ATOM      3  O   UNL     1     112.905  69.111  97.926  1.00  0.00    -0.550 OA
ATOM      4  O   UNL     1     112.448  69.412  95.702  1.00  0.00    -0.550 OA
ENDROOT
TORSDOF 0
ENDMDL
MODEL 7
REMARK VINA RESULT:    -2.010      9.928     10.102
REMARK INTER + INTRA:          -2.010
REMARK INTER:                  -2.010
REMARK INTRA:                   0.000
REMARK UNBOUND:                 0.000
REMARK SMILES CC(=O)[O-]
REMARK SMILES IDX 1 1 2 2 3 3 4 4
REMARK H PARENT
REMARK Flexibility Score: inf
ROOT
ATOM      1  C   UNL     1     118.447  73.315  79.314  1.00  0.00     0.063 C 
ATOM      2  C   UNL     1     118.477  74.607  80.057  1.00  0.00     0.038 C 
ATOM      3  O   UNL     1     118.049  74.665  81.240  1.00  0.00    -0.550 OA
ATOM      4  O   UNL     1     119.028  75.737  79.467  1.00  0.00    -0.550 OA
ENDROOT
TORSDOF 0
ENDMDL
MODEL 8
REMARK VINA RESULT:    -1.968     15.434     15.828
REMARK INTER + INTRA:          -1.968
REMARK INTER:                  -1.968
REMARK INTRA:                   0.000
REMARK UNBOUND:                 0.000
REMARK SMILES CC(=O)[O-]
REMARK SMILES IDX 1 1 2 2 3 3 4 4
REMARK H PARENT
REMARK Flexibility Score: inf
ROOT
ATOM      1  C   UNL     1     107.059  79.180  94.745  1.00  0.00     0.063 C 
ATOM      2  C   UNL     1     108.270  79.303  95.606  1.00  0.00     0.038 C 
ATOM      3  O   UNL     1     108.505  78.440  96.492  1.00  0.00    -0.550 OA
ATOM      4  O   UNL     1     109.171  80.338  95.395  1.00  0.00    -0.550 OA
ENDROOT
TORSDOF 0
ENDMDL
MODEL 9
REMARK VINA RESULT:    -1.875     17.422     17.676
REMARK INTER + INTRA:          -1.875
REMARK INTER:                  -1.875
REMARK INTRA:                   0.000
REMARK UNBOUND:                 0.000
REMARK SMILES CC(=O)[O-]
REMARK SMILES IDX 1 1 2 2 3 3 4 4
REMARK H PARENT
REMARK Flexibility Score: inf
ROOT
ATOM      1  C   UNL     1     117.236  76.051  95.928  1.00  0.00     0.063 C 
ATOM      2  C   UNL     1     117.904  75.293  94.832  1.00  0.00     0.038 C 
ATOM      3  O   UNL     1     119.045  75.641  94.428  1.00  0.00    -0.550 OA
ATOM      4  O   UNL     1     117.295  74.168  94.292  1.00  0.00    -0.550 OA
ENDROOT
TORSDOF 0
ENDMDL
