MODEL 1
REMARK VINA RESULT:     0.373      0.000      0.000
REMARK INTER + INTRA:           0.176
REMARK INTER:                   0.439
REMARK INTRA:                  -0.262
REMARK UNBOUND:                -0.262
REMARK SMILES O=c1cc(-c2ccc(O)c(O)c2)oc2cc(O)cc(O)c12
REMARK SMILES IDX 4 1 3 2 2 3 1 4 21 5 19 6 18 7 16 8 15 9 14 10 13 11 5 12
REMARK SMILES IDX 6 13 7 14 8 15 12 16 10 17 9 18 11 20 20 22 17 24
REMARK H PARENT 9 19 11 21 20 23 17 25
REMARK Flexibility Score: inf
ROOT
ATOM      1  C   UNL     1      36.689 -29.899  -5.155  1.00  0.00     0.138 A 
ATOM      2  C   UNL     1      37.778 -29.994  -6.034  1.00  0.00     0.100 A 
ATOM      3  C   UNL     1      37.625 -29.608  -7.367  1.00  0.00     0.197 A 
ATOM      4  O   UNL     1      38.600 -29.764  -8.146  1.00  0.00    -0.289 OA
ATOM      5  C   UNL     1      36.384 -29.093  -7.812  1.00  0.00     0.107 A 
ATOM      6  C   UNL     1      36.125 -28.630  -9.137  1.00  0.00     0.134 A 
ATOM      7  C   UNL     1      34.825 -28.250  -9.492  1.00  0.00     0.093 A 
ATOM      8  C   UNL     1      33.789 -28.260  -8.555  1.00  0.00     0.123 A 
ATOM      9  C   UNL     1      34.044 -28.659  -7.246  1.00  0.00     0.094 A 
ATOM     10  C   UNL     1      35.322 -29.076  -6.869  1.00  0.00     0.146 A 
ATOM     11  O   UNL     1      35.520 -29.463  -5.613  1.00  0.00    -0.456 OA
ENDROOT
BRANCH   1  12
ATOM     12  C   UNL     1      36.797 -30.295  -3.729  1.00  0.00     0.021 A 
ATOM     13  C   UNL     1      36.997 -29.344  -2.709  1.00  0.00     0.016 A 
ATOM     14  C   UNL     1      37.084 -29.745  -1.374  1.00  0.00     0.051 A 
ATOM     15  C   UNL     1      36.967 -31.098  -1.031  1.00  0.00     0.157 A 
ATOM     16  C   UNL     1      36.666 -31.650  -3.374  1.00  0.00     0.062 A 
ATOM     17  C   UNL     1      36.755 -32.054  -2.037  1.00  0.00     0.158 A 
BRANCH  15  18
ATOM     18  O   UNL     1      37.056 -31.494   0.302  1.00  0.00    -0.504 OA
ATOM     19  H   UNL     1      36.239 -31.790   0.823  1.00  0.00     0.293 HD
ENDBRANCH  15  18
BRANCH  17  20
ATOM     20  O   UNL     1      36.629 -33.408  -1.730  1.00  0.00    -0.504 OA
ATOM     21  H   UNL     1      36.037 -33.736  -0.976  1.00  0.00     0.293 HD
ENDBRANCH  17  20
ENDBRANCH   1  12
BRANCH   6  22
ATOM     22  O   UNL     1      37.106 -28.501 -10.125  1.00  0.00    -0.507 OA
ATOM     23  H   UNL     1      37.913 -29.098 -10.218  1.00  0.00     0.293 HD
ENDBRANCH   6  22
BRANCH   8  24
ATOM     24  O   UNL     1      32.502 -27.865  -8.916  1.00  0.00    -0.508 OA
ATOM     25  H   UNL     1      32.227 -26.891  -8.919  1.00  0.00     0.293 HD
ENDBRANCH   8  24
TORSDOF 5
ENDMDL
MODEL 2
REMARK VINA RESULT:     2.063      3.374      4.417
REMARK INTER + INTRA:           2.163
REMARK INTER:                   2.471
REMARK INTRA:                  -0.309
REMARK UNBOUND:                -0.262
REMARK SMILES O=c1cc(-c2ccc(O)c(O)c2)oc2cc(O)cc(O)c12
REMARK SMILES IDX 4 1 3 2 2 3 1 4 21 5 19 6 18 7 16 8 15 9 14 10 13 11 5 12
REMARK SMILES IDX 6 13 7 14 8 15 12 16 10 17 9 18 11 20 20 22 17 24
REMARK H PARENT 9 19 11 21 20 23 17 25
REMARK Flexibility Score: inf
ROOT
ATOM      1  C   UNL     1      38.152 -31.219  -5.391  1.00  0.00     0.138 A 
ATOM      2  C   UNL     1      38.838 -30.235  -6.118  1.00  0.00     0.100 A 
ATOM      3  C   UNL     1      39.436 -30.567  -7.334  1.00  0.00     0.197 A 
ATOM      4  O   UNL     1      40.097 -29.680  -7.933  1.00  0.00    -0.289 OA
ATOM      5  C   UNL     1      39.319 -31.884  -7.839  1.00  0.00     0.107 A 
ATOM      6  C   UNL     1      39.853 -32.326  -9.087  1.00  0.00     0.134 A 
ATOM      7  C   UNL     1      39.775 -33.682  -9.429  1.00  0.00     0.093 A 
ATOM      8  C   UNL     1      39.130 -34.600  -8.596  1.00  0.00     0.123 A 
ATOM      9  C   UNL     1      38.559 -34.167  -7.402  1.00  0.00     0.094 A 
ATOM     10  C   UNL     1      38.649 -32.828  -7.017  1.00  0.00     0.146 A 
ATOM     11  O   UNL     1      38.104 -32.461  -5.862  1.00  0.00    -0.456 OA
ENDROOT
BRANCH   1  12
ATOM     12  C   UNL     1      37.496 -30.920  -4.093  1.00  0.00     0.021 A 
ATOM     13  C   UNL     1      37.012 -29.634  -3.787  1.00  0.00     0.016 A 
ATOM     14  C   UNL     1      36.391 -29.384  -2.561  1.00  0.00     0.051 A 
ATOM     15  C   UNL     1      36.234 -30.412  -1.623  1.00  0.00     0.157 A 
ATOM     16  C   UNL     1      37.322 -31.951  -3.151  1.00  0.00     0.062 A 
ATOM     17  C   UNL     1      36.701 -31.702  -1.922  1.00  0.00     0.158 A 
BRANCH  15  18
ATOM     18  O   UNL     1      35.614 -30.158  -0.401  1.00  0.00    -0.504 OA
ATOM     19  H   UNL     1      35.921 -30.609   0.453  1.00  0.00     0.293 HD
ENDBRANCH  15  18
BRANCH  17  20
ATOM     20  O   UNL     1      36.557 -32.749  -1.013  1.00  0.00    -0.504 OA
ATOM     21  H   UNL     1      35.742 -32.837  -0.418  1.00  0.00     0.293 HD
ENDBRANCH  17  20
ENDBRANCH   1  12
BRANCH   6  22
ATOM     22  O   UNL     1      40.442 -31.477 -10.029  1.00  0.00    -0.507 OA
ATOM     23  H   UNL     1      39.991 -30.678 -10.446  1.00  0.00     0.293 HD
ENDBRANCH   6  22
BRANCH   8  24
ATOM     24  O   UNL     1      39.045 -35.944  -8.953  1.00  0.00    -0.508 OA
ATOM     25  H   UNL     1      39.542 -36.312  -9.754  1.00  0.00     0.293 HD
ENDBRANCH   8  24
TORSDOF 5
ENDMDL
MODEL 3
REMARK VINA RESULT:     2.840      3.142      7.022
REMARK INTER + INTRA:           3.076
REMARK INTER:                   3.392
REMARK INTRA:                  -0.317
REMARK UNBOUND:                -0.262
REMARK SMILES O=c1cc(-c2ccc(O)c(O)c2)oc2cc(O)cc(O)c12
REMARK SMILES IDX 4 1 3 2 2 3 1 4 21 5 19 6 18 7 16 8 15 9 14 10 13 11 5 12
REMARK SMILES IDX 6 13 7 14 8 15 12 16 10 17 9 18 11 20 20 22 17 24
REMARK H PARENT 9 19 11 21 20 23 17 25
REMARK Flexibility Score: inf
ROOT
ATOM      1  C   UNL     1      37.752 -30.904  -5.015  1.00  0.00     0.138 A 
ATOM      2  C   UNL     1      37.322 -29.618  -4.659  1.00  0.00     0.100 A 
ATOM      3  C   UNL     1      36.792 -29.394  -3.387  1.00  0.00     0.197 A 
ATOM      4  O   UNL     1      36.357 -28.245  -3.119  1.00  0.00    -0.289 OA
ATOM      5  C   UNL     1      36.724 -30.458  -2.457  1.00  0.00     0.107 A 
ATOM      6  C   UNL     1      36.242 -30.337  -1.119  1.00  0.00     0.134 A 
ATOM      7  C   UNL     1      36.113 -31.485  -0.326  1.00  0.00     0.093 A 
ATOM      8  C   UNL     1      36.506 -32.739  -0.803  1.00  0.00     0.123 A 
ATOM      9  C   UNL     1      37.027 -32.857  -2.089  1.00  0.00     0.094 A 
ATOM     10  C   UNL     1      37.137 -31.738  -2.915  1.00  0.00     0.146 A 
ATOM     11  O   UNL     1      37.626 -31.897  -4.140  1.00  0.00    -0.456 OA
ENDROOT
BRANCH   1  12
ATOM     12  C   UNL     1      38.324 -31.198  -6.353  1.00  0.00     0.021 A 
ATOM     13  C   UNL     1      38.676 -30.170  -7.249  1.00  0.00     0.016 A 
ATOM     14  C   UNL     1      39.221 -30.476  -8.499  1.00  0.00     0.051 A 
ATOM     15  C   UNL     1      39.431 -31.809  -8.873  1.00  0.00     0.157 A 
ATOM     16  C   UNL     1      38.551 -32.534  -6.732  1.00  0.00     0.062 A 
ATOM     17  C   UNL     1      39.096 -32.842  -7.983  1.00  0.00     0.158 A 
BRANCH  15  18
ATOM     18  O   UNL     1      39.975 -32.109 -10.121  1.00  0.00    -0.504 OA
ATOM     19  H   UNL     1      39.783 -31.536 -10.935  1.00  0.00     0.293 HD
ENDBRANCH  15  18
BRANCH  17  20
ATOM     20  O   UNL     1      39.296 -34.179  -8.323  1.00  0.00    -0.504 OA
ATOM     21  H   UNL     1      38.870 -34.936  -7.802  1.00  0.00     0.293 HD
ENDBRANCH  17  20
ENDBRANCH   1  12
BRANCH   6  22
ATOM     22  O   UNL     1      35.903 -29.121  -0.517  1.00  0.00    -0.507 OA
ATOM     23  H   UNL     1      35.065 -28.957   0.017  1.00  0.00     0.293 HD
ENDBRANCH   6  22
BRANCH   8  24
ATOM     24  O   UNL     1      36.388 -33.871  -0.000  1.00  0.00    -0.508 OA
ATOM     25  H   UNL     1      35.897 -34.698  -0.319  1.00  0.00     0.293 HD
ENDBRANCH   8  24
TORSDOF 5
ENDMDL
MODEL 4
REMARK VINA RESULT:     3.146      1.905      3.552
REMARK INTER + INTRA:           3.436
REMARK INTER:                   3.699
REMARK INTRA:                  -0.263
REMARK UNBOUND:                -0.262
REMARK SMILES O=c1cc(-c2ccc(O)c(O)c2)oc2cc(O)cc(O)c12
REMARK SMILES IDX 4 1 3 2 2 3 1 4 21 5 19 6 18 7 16 8 15 9 14 10 13 11 5 12
REMARK SMILES IDX 6 13 7 14 8 15 12 16 10 17 9 18 11 20 20 22 17 24
REMARK H PARENT 9 19 11 21 20 23 17 25
REMARK Flexibility Score: inf
ROOT
ATOM      1  C   UNL     1      37.009 -30.772  -4.229  1.00  0.00     0.138 A 
ATOM      2  C   UNL     1      36.044 -29.859  -4.677  1.00  0.00     0.100 A 
ATOM      3  C   UNL     1      36.078 -29.411  -5.999  1.00  0.00     0.197 A 
ATOM      4  O   UNL     1      35.238 -28.545  -6.354  1.00  0.00    -0.289 OA
ATOM      5  C   UNL     1      37.066 -29.907  -6.883  1.00  0.00     0.107 A 
ATOM      6  C   UNL     1      37.172 -29.553  -8.262  1.00  0.00     0.134 A 
ATOM      7  C   UNL     1      38.261 -30.017  -9.011  1.00  0.00     0.093 A 
ATOM      8  C   UNL     1      39.213 -30.871  -8.447  1.00  0.00     0.123 A 
ATOM      9  C   UNL     1      39.087 -31.264  -7.117  1.00  0.00     0.094 A 
ATOM     10  C   UNL     1      38.032 -30.791  -6.334  1.00  0.00     0.146 A 
ATOM     11  O   UNL     1      37.957 -31.179  -5.066  1.00  0.00    -0.456 OA
ENDROOT
BRANCH   1  12
ATOM     12  C   UNL     1      37.018 -31.281  -2.835  1.00  0.00     0.021 A 
ATOM     13  C   UNL     1      36.694 -32.618  -2.532  1.00  0.00     0.016 A 
ATOM     14  C   UNL     1      36.721 -33.072  -1.211  1.00  0.00     0.051 A 
ATOM     15  C   UNL     1      37.076 -32.205  -0.171  1.00  0.00     0.157 A 
ATOM     16  C   UNL     1      37.387 -30.420  -1.785  1.00  0.00     0.062 A 
ATOM     17  C   UNL     1      37.413 -30.873  -0.461  1.00  0.00     0.158 A 
BRANCH  15  18
ATOM     18  O   UNL     1      37.101 -32.661   1.146  1.00  0.00    -0.504 OA
ATOM     19  H   UNL     1      37.582 -33.516   1.402  1.00  0.00     0.293 HD
ENDBRANCH  15  18
BRANCH  17  20
ATOM     20  O   UNL     1      37.776 -29.984   0.551  1.00  0.00    -0.504 OA
ATOM     21  H   UNL     1      38.570 -30.154   1.157  1.00  0.00     0.293 HD
ENDBRANCH  17  20
ENDBRANCH   1  12
BRANCH   6  22
ATOM     22  O   UNL     1      36.230 -28.776  -8.944  1.00  0.00    -0.507 OA
ATOM     23  H   UNL     1      36.450 -28.106  -9.664  1.00  0.00     0.293 HD
ENDBRANCH   6  22
BRANCH   8  24
ATOM     24  O   UNL     1      40.284 -31.339  -9.205  1.00  0.00    -0.508 OA
ATOM     25  H   UNL     1      41.064 -30.741  -9.446  1.00  0.00     0.293 HD
ENDBRANCH   8  24
TORSDOF 5
ENDMDL
