MODEL 1
REMARK VINA RESULT:    -3.616      0.000      0.000
REMARK INTER + INTRA:          -3.722
REMARK INTER:                  -3.722
REMARK INTRA:                   0.000
REMARK UNBOUND:                 0.000
REMARK SMILES CC1(C)[C@@H]2CC[C@@](C)(C2)[C@H]1O
REMARK SMILES IDX 1 1 2 2 4 3 5 4 6 5 7 6 9 7 10 8 8 9 3 10 11 11
REMARK H PARENT 11 12
REMARK Flexibility Score: inf
ROOT
ATOM      1  C   UNL     1     149.464 155.725 140.426  1.00  0.00     0.014 C 
ATOM      2  C   UNL     1     148.895 156.426 139.164  1.00  0.00    -0.006 C 
ATOM      3  C   UNL     1     147.330 156.451 139.236  1.00  0.00    -0.002 C 
ATOM      4  C   UNL     1     146.711 156.872 137.887  1.00  0.00     0.005 C 
ATOM      5  C   UNL     1     147.122 158.347 137.768  1.00  0.00     0.010 C 
ATOM      6  C   UNL     1     147.830 158.614 139.118  1.00  0.00    -0.006 C 
ATOM      7  C   UNL     1     147.062 157.704 140.052  1.00  0.00     0.013 C 
ATOM      8  C   UNL     1     149.235 157.954 139.089  1.00  0.00     0.126 C 
ATOM      9  C   UNL     1     147.817 160.092 139.527  1.00  0.00     0.014 C 
ATOM     10  C   UNL     1     149.445 155.671 137.929  1.00  0.00     0.014 C 
ENDROOT
BRANCH   8  11
ATOM     11  O   UNL     1     150.004 158.383 140.187  1.00  0.00    -0.392 OA
ATOM     12  H   UNL     1     150.227 157.570 140.711  1.00  0.00     0.211 HD
ENDBRANCH   8  11
TORSDOF 1
ENDMDL
MODEL 2
REMARK VINA RESULT:    -3.613     12.872     14.930
REMARK INTER + INTRA:          -3.719
REMARK INTER:                  -3.719
REMARK INTRA:                   0.000
REMARK UNBOUND:                 0.000
REMARK SMILES CC1(C)[C@@H]2CC[C@@](C)(C2)[C@H]1O
REMARK SMILES IDX 1 1 2 2 4 3 5 4 6 5 7 6 9 7 10 8 8 9 3 10 11 11
REMARK H PARENT 11 12
REMARK Flexibility Score: inf
ROOT
ATOM      1  C   UNL     1     151.835 145.475 140.462  1.00  0.00     0.014 C 
ATOM      2  C   UNL     1     152.443 144.812 139.198  1.00  0.00    -0.006 C 
ATOM      3  C   UNL     1     154.007 144.813 139.303  1.00  0.00    -0.002 C 
ATOM      4  C   UNL     1     154.661 144.433 137.958  1.00  0.00     0.005 C 
ATOM      5  C   UNL     1     154.279 142.954 137.798  1.00  0.00     0.010 C 
ATOM      6  C   UNL     1     153.548 142.645 139.126  1.00  0.00    -0.006 C 
ATOM      7  C   UNL     1     154.280 143.546 140.096  1.00  0.00     0.013 C 
ATOM      8  C   UNL     1     152.132 143.280 139.081  1.00  0.00     0.126 C 
ATOM      9  C   UNL     1     153.579 141.158 139.502  1.00  0.00     0.014 C 
ATOM     10  C   UNL     1     151.906 145.585 137.969  1.00  0.00     0.014 C 
ENDROOT
BRANCH   8  11
ATOM     11  O   UNL     1     151.348 142.813 140.153  1.00  0.00    -0.392 OA
ATOM     12  H   UNL     1     151.075 143.614 140.674  1.00  0.00     0.211 HD
ENDBRANCH   8  11
TORSDOF 1
ENDMDL
MODEL 3
REMARK VINA RESULT:    -3.607      9.492     10.610
REMARK INTER + INTRA:          -3.712
REMARK INTER:                  -3.712
REMARK INTRA:                   0.000
REMARK UNBOUND:                 0.000
REMARK SMILES CC1(C)[C@@H]2CC[C@@](C)(C2)[C@H]1O
REMARK SMILES IDX 1 1 2 2 4 3 5 4 6 5 7 6 9 7 10 8 8 9 3 10 11 11
REMARK H PARENT 11 12
REMARK Flexibility Score: inf
ROOT
ATOM      1  C   UNL     1     145.434 149.457 140.492  1.00  0.00     0.014 C 
ATOM      2  C   UNL     1     144.766 148.858 139.225  1.00  0.00    -0.006 C 
ATOM      3  C   UNL     1     144.773 147.293 139.316  1.00  0.00    -0.002 C 
ATOM      4  C   UNL     1     144.388 146.650 137.968  1.00  0.00     0.005 C 
ATOM      5  C   UNL     1     142.907 147.028 137.820  1.00  0.00     0.010 C 
ATOM      6  C   UNL     1     142.602 147.746 139.156  1.00  0.00    -0.006 C 
ATOM      7  C   UNL     1     143.511 147.009 140.114  1.00  0.00     0.013 C 
ATOM      8  C   UNL     1     143.232 149.165 139.120  1.00  0.00     0.126 C 
ATOM      9  C   UNL     1     141.118 147.707 139.540  1.00  0.00     0.014 C 
ATOM     10  C   UNL     1     145.530 149.409 137.997  1.00  0.00     0.014 C 
ENDROOT
BRANCH   8  11
ATOM     11  O   UNL     1     142.769 149.938 140.202  1.00  0.00    -0.392 OA
ATOM     12  H   UNL     1     141.798 150.081 140.052  1.00  0.00     0.211 HD
ENDBRANCH   8  11
TORSDOF 1
ENDMDL
MODEL 4
REMARK VINA RESULT:    -3.603      9.435     10.544
REMARK INTER + INTRA:          -3.708
REMARK INTER:                  -3.708
REMARK INTRA:                   0.000
REMARK UNBOUND:                 0.000
REMARK SMILES CC1(C)[C@@H]2CC[C@@](C)(C2)[C@H]1O
REMARK SMILES IDX 1 1 2 2 4 3 5 4 6 5 7 6 9 7 10 8 8 9 3 10 11 11
REMARK H PARENT 11 12
REMARK Flexibility Score: inf
ROOT
ATOM      1  C   UNL     1     155.851 151.858 140.485  1.00  0.00     0.014 C 
ATOM      2  C   UNL     1     156.504 152.447 139.207  1.00  0.00    -0.006 C 
ATOM      3  C   UNL     1     156.512 154.012 139.293  1.00  0.00    -0.002 C 
ATOM      4  C   UNL     1     156.882 154.648 137.937  1.00  0.00     0.005 C 
ATOM      5  C   UNL     1     158.357 154.256 137.767  1.00  0.00     0.010 C 
ATOM      6  C   UNL     1     158.676 153.540 139.100  1.00  0.00    -0.006 C 
ATOM      7  C   UNL     1     157.788 154.288 140.070  1.00  0.00     0.013 C 
ATOM      8  C   UNL     1     158.033 152.127 139.079  1.00  0.00     0.126 C 
ATOM      9  C   UNL     1     160.167 153.568 139.461  1.00  0.00     0.014 C 
ATOM     10  C   UNL     1     155.716 151.899 137.992  1.00  0.00     0.014 C 
ENDROOT
BRANCH   8  11
ATOM     11  O   UNL     1     158.507 151.353 140.155  1.00  0.00    -0.392 OA
ATOM     12  H   UNL     1     159.186 151.906 140.624  1.00  0.00     0.211 HD
ENDBRANCH   8  11
TORSDOF 1
ENDMDL
MODEL 5
REMARK VINA RESULT:    -3.251      9.352     11.232
REMARK INTER + INTRA:          -3.346
REMARK INTER:                  -3.346
REMARK INTRA:                   0.000
REMARK UNBOUND:                 0.000
REMARK SMILES CC1(C)[C@@H]2CC[C@@](C)(C2)[C@H]1O
REMARK SMILES IDX 1 1 2 2 4 3 5 4 6 5 7 6 9 7 10 8 8 9 3 10 11 11
REMARK H PARENT 11 12
REMARK Flexibility Score: inf
ROOT
ATOM      1  C   UNL     1     156.416 155.062 138.906  1.00  0.00     0.014 C 
ATOM      2  C   UNL     1     157.150 153.728 139.204  1.00  0.00    -0.006 C 
ATOM      3  C   UNL     1     157.963 153.281 137.941  1.00  0.00    -0.002 C 
ATOM      4  C   UNL     1     158.471 151.831 138.083  1.00  0.00     0.005 C 
ATOM      5  C   UNL     1     159.516 151.943 139.203  1.00  0.00     0.010 C 
ATOM      6  C   UNL     1     159.553 153.464 139.484  1.00  0.00    -0.006 C 
ATOM      7  C   UNL     1     159.271 154.036 138.112  1.00  0.00     0.013 C 
ATOM      8  C   UNL     1     158.281 153.860 140.281  1.00  0.00     0.126 C 
ATOM      9  C   UNL     1     160.876 153.934 140.101  1.00  0.00     0.014 C 
ATOM     10  C   UNL     1     156.078 152.701 139.644  1.00  0.00     0.014 C 
ENDROOT
BRANCH   8  11
ATOM     11  O   UNL     1     158.396 155.175 140.772  1.00  0.00    -0.392 OA
ATOM     12  H   UNL     1     158.171 155.136 141.739  1.00  0.00     0.211 HD
ENDBRANCH   8  11
TORSDOF 1
ENDMDL
MODEL 6
REMARK VINA RESULT:    -3.235      7.774      9.829
REMARK INTER + INTRA:          -3.330
REMARK INTER:                  -3.330
REMARK INTRA:                   0.000
REMARK UNBOUND:                 0.000
REMARK SMILES CC1(C)[C@@H]2CC[C@@](C)(C2)[C@H]1O
REMARK SMILES IDX 1 1 2 2 4 3 5 4 6 5 7 6 9 7 10 8 8 9 3 10 11 11
REMARK H PARENT 11 12
REMARK Flexibility Score: inf
ROOT
ATOM      1  C   UNL     1     155.120 155.520 138.234  1.00  0.00     0.014 C 
ATOM      2  C   UNL     1     156.257 154.492 137.992  1.00  0.00    -0.006 C 
ATOM      3  C   UNL     1     157.350 154.644 139.105  1.00  0.00    -0.002 C 
ATOM      4  C   UNL     1     158.627 153.854 138.751  1.00  0.00     0.005 C 
ATOM      5  C   UNL     1     158.164 152.393 138.852  1.00  0.00     0.010 C 
ATOM      6  C   UNL     1     156.709 152.530 139.359  1.00  0.00    -0.006 C 
ATOM      7  C   UNL     1     156.801 153.770 140.221  1.00  0.00     0.013 C 
ATOM      8  C   UNL     1     155.809 153.003 138.186  1.00  0.00     0.126 C 
ATOM      9  C   UNL     1     156.206 151.285 140.101  1.00  0.00     0.014 C 
ATOM     10  C   UNL     1     156.796 154.730 136.560  1.00  0.00     0.014 C 
ENDROOT
BRANCH   8  11
ATOM     11  O   UNL     1     154.449 152.898 138.535  1.00  0.00    -0.392 OA
ATOM     12  H   UNL     1     153.956 152.697 137.696  1.00  0.00     0.211 HD
ENDBRANCH   8  11
TORSDOF 1
ENDMDL
MODEL 7
REMARK VINA RESULT:    -3.231      1.698      3.007
REMARK INTER + INTRA:          -3.325
REMARK INTER:                  -3.325
REMARK INTRA:                   0.000
REMARK UNBOUND:                 0.000
REMARK SMILES CC1(C)[C@@H]2CC[C@@](C)(C2)[C@H]1O
REMARK SMILES IDX 1 1 2 2 4 3 5 4 6 5 7 6 9 7 10 8 8 9 3 10 11 11
REMARK H PARENT 11 12
REMARK Flexibility Score: inf
ROOT
ATOM      1  C   UNL     1     145.748 155.150 138.240  1.00  0.00     0.014 C 
ATOM      2  C   UNL     1     146.780 156.288 138.016  1.00  0.00    -0.006 C 
ATOM      3  C   UNL     1     146.633 157.363 139.147  1.00  0.00    -0.002 C 
ATOM      4  C   UNL     1     147.428 158.642 138.813  1.00  0.00     0.005 C 
ATOM      5  C   UNL     1     148.886 158.172 138.906  1.00  0.00     0.010 C 
ATOM      6  C   UNL     1     148.744 156.710 139.391  1.00  0.00    -0.006 C 
ATOM      7  C   UNL     1     147.504 156.792 140.254  1.00  0.00     0.013 C 
ATOM      8  C   UNL     1     148.268 155.830 138.203  1.00  0.00     0.126 C 
ATOM      9  C   UNL     1     149.987 156.191 140.124  1.00  0.00     0.014 C 
ATOM     10  C   UNL     1     146.545 156.850 136.593  1.00  0.00     0.014 C 
ENDROOT
BRANCH   8  11
ATOM     11  O   UNL     1     148.368 154.465 138.530  1.00  0.00    -0.392 OA
ATOM     12  H   UNL     1     148.703 154.421 139.464  1.00  0.00     0.211 HD
ENDBRANCH   8  11
TORSDOF 1
ENDMDL
MODEL 8
REMARK VINA RESULT:    -3.123     12.802     14.480
REMARK INTER + INTRA:          -3.214
REMARK INTER:                  -3.214
REMARK INTRA:                   0.000
REMARK UNBOUND:                 0.000
REMARK SMILES CC1(C)[C@@H]2CC[C@@](C)(C2)[C@H]1O
REMARK SMILES IDX 1 1 2 2 4 3 5 4 6 5 7 6 9 7 10 8 8 9 3 10 11 11
REMARK H PARENT 11 12
REMARK Flexibility Score: inf
ROOT
ATOM      1  C   UNL     1     153.988 141.603 139.439  1.00  0.00     0.014 C 
ATOM      2  C   UNL     1     153.608 142.897 138.670  1.00  0.00    -0.006 C 
ATOM      3  C   UNL     1     152.090 142.854 138.284  1.00  0.00    -0.002 C 
ATOM      4  C   UNL     1     151.734 143.969 137.278  1.00  0.00     0.005 C 
ATOM      5  C   UNL     1     151.890 145.246 138.115  1.00  0.00     0.010 C 
ATOM      6  C   UNL     1     152.208 144.694 139.525  1.00  0.00    -0.006 C 
ATOM      7  C   UNL     1     151.421 143.402 139.533  1.00  0.00     0.013 C 
ATOM      8  C   UNL     1     153.677 144.193 139.550  1.00  0.00     0.126 C 
ATOM      9  C   UNL     1     151.836 145.664 140.654  1.00  0.00     0.014 C 
ATOM     10  C   UNL     1     154.555 143.002 137.449  1.00  0.00     0.014 C 
ENDROOT
BRANCH   8  11
ATOM     11  O   UNL     1     154.082 143.918 140.870  1.00  0.00    -0.392 OA
ATOM     12  H   UNL     1     153.261 143.938 141.428  1.00  0.00     0.211 HD
ENDBRANCH   8  11
TORSDOF 1
ENDMDL
MODEL 9
REMARK VINA RESULT:    -3.111      1.199      3.283
REMARK INTER + INTRA:          -3.202
REMARK INTER:                  -3.202
REMARK INTRA:                   0.000
REMARK UNBOUND:                 0.000
REMARK SMILES CC1(C)[C@@H]2CC[C@@](C)(C2)[C@H]1O
REMARK SMILES IDX 1 1 2 2 4 3 5 4 6 5 7 6 9 7 10 8 8 9 3 10 11 11
REMARK H PARENT 11 12
REMARK Flexibility Score: inf
ROOT
ATOM      1  C   UNL     1     147.224 159.559 139.317  1.00  0.00     0.014 C 
ATOM      2  C   UNL     1     147.597 158.235 138.599  1.00  0.00    -0.006 C 
ATOM      3  C   UNL     1     149.100 158.281 138.156  1.00  0.00    -0.002 C 
ATOM      4  C   UNL     1     149.438 157.123 137.194  1.00  0.00     0.005 C 
ATOM      5  C   UNL     1     149.333 155.886 138.098  1.00  0.00     0.010 C 
ATOM      6  C   UNL     1     149.057 156.503 139.490  1.00  0.00    -0.006 C 
ATOM      7  C   UNL     1     149.822 157.805 139.405  1.00  0.00     0.013 C 
ATOM      8  C   UNL     1     147.581 156.983 139.544  1.00  0.00     0.126 C 
ATOM      9  C   UNL     1     149.485 155.595 140.650  1.00  0.00     0.014 C 
ATOM     10  C   UNL     1     146.609 158.055 137.420  1.00  0.00     0.014 C 
ENDROOT
BRANCH   8  11
ATOM     11  O   UNL     1     147.219 157.317 140.863  1.00  0.00    -0.392 OA
ATOM     12  H   UNL     1     148.066 157.448 141.364  1.00  0.00     0.211 HD
ENDBRANCH   8  11
TORSDOF 1
ENDMDL
