MODEL 1
REMARK VINA RESULT:    -3.777      0.000      0.000
REMARK INTER + INTRA:          -3.888
REMARK INTER:                  -3.888
REMARK INTRA:                   0.000
REMARK UNBOUND:                 0.000
REMARK SMILES Oc1ccc2[nH]ccc2c1
REMARK SMILES IDX 3 1 4 2 5 3 9 4 8 5 7 6 6 7 10 8 2 9 1 11
REMARK H PARENT 6 10 1 12
REMARK Flexibility Score: inf
ROOT
ATOM      1  C   UNL     1      20.695  22.341  47.665  1.00  0.00     0.048 A 
ATOM      2  C   UNL     1      19.480  22.879  48.125  1.00  0.00     0.030 A 
ATOM      3  C   UNL     1      18.716  23.622  47.227  1.00  0.00     0.046 A 
ATOM      4  C   UNL     1      19.122  23.830  45.936  1.00  0.00     0.003 A 
ATOM      5  C   UNL     1      18.156  24.593  45.318  1.00  0.00     0.028 A 
ATOM      6  C   UNL     1      17.188  24.815  46.293  1.00  0.00     0.083 A 
ATOM      7  N   UNL     1      17.534  24.219  47.458  1.00  0.00    -0.361 N 
ATOM      8  C   UNL     1      20.319  23.311  45.448  1.00  0.00     0.056 A 
ATOM      9  C   UNL     1      21.117  22.555  46.328  1.00  0.00     0.116 A 
ATOM     10  H   UNL     1      16.993  24.225  48.349  1.00  0.00     0.166 HD
ENDROOT
BRANCH   9  11
ATOM     11  O   UNL     1      22.320  22.022  45.874  1.00  0.00    -0.508 OA
ATOM     12  H   UNL     1      23.174  22.108  46.413  1.00  0.00     0.293 HD
ENDBRANCH   9  11
TORSDOF 1
ENDMDL
MODEL 2
REMARK VINA RESULT:    -3.372     18.853     20.087
REMARK INTER + INTRA:          -3.470
REMARK INTER:                  -3.470
REMARK INTRA:                   0.000
REMARK UNBOUND:                 0.000
REMARK SMILES Oc1ccc2[nH]ccc2c1
REMARK SMILES IDX 3 1 4 2 5 3 9 4 8 5 7 6 6 7 10 8 2 9 1 11
REMARK H PARENT 6 10 1 12
REMARK Flexibility Score: inf
ROOT
ATOM      1  C   UNL     1      31.625  25.122  33.650  1.00  0.00     0.048 A 
ATOM      2  C   UNL     1      33.011  25.123  33.892  1.00  0.00     0.030 A 
ATOM      3  C   UNL     1      33.864  25.123  32.791  1.00  0.00     0.046 A 
ATOM      4  C   UNL     1      33.385  25.124  31.508  1.00  0.00     0.003 A 
ATOM      5  C   UNL     1      34.472  25.125  30.662  1.00  0.00     0.028 A 
ATOM      6  C   UNL     1      35.584  25.124  31.498  1.00  0.00     0.083 A 
ATOM      7  N   UNL     1      35.208  25.125  32.798  1.00  0.00    -0.361 N 
ATOM      8  C   UNL     1      32.020  25.124  31.233  1.00  0.00     0.056 A 
ATOM      9  C   UNL     1      31.127  25.123  32.322  1.00  0.00     0.116 A 
ATOM     10  H   UNL     1      35.836  25.124  33.631  1.00  0.00     0.166 HD
ENDROOT
BRANCH   9  11
ATOM     11  O   UNL     1      29.755  25.121  32.083  1.00  0.00    -0.508 OA
ATOM     12  H   UNL     1      29.176  24.327  32.330  1.00  0.00     0.293 HD
ENDBRANCH   9  11
TORSDOF 1
ENDMDL
MODEL 3
REMARK VINA RESULT:    -3.355     18.270     19.149
REMARK INTER + INTRA:          -3.454
REMARK INTER:                  -3.454
REMARK INTRA:                   0.000
REMARK UNBOUND:                 0.000
REMARK SMILES Oc1ccc2[nH]ccc2c1
REMARK SMILES IDX 3 1 4 2 5 3 9 4 8 5 7 6 6 7 10 8 2 9 1 11
REMARK H PARENT 6 10 1 12
REMARK Flexibility Score: inf
ROOT
ATOM      1  C   UNL     1      33.620  25.101  33.774  1.00  0.00     0.048 A 
ATOM      2  C   UNL     1      32.241  25.094  34.052  1.00  0.00     0.030 A 
ATOM      3  C   UNL     1      31.359  25.102  32.974  1.00  0.00     0.046 A 
ATOM      4  C   UNL     1      31.805  25.116  31.679  1.00  0.00     0.003 A 
ATOM      5  C   UNL     1      30.696  25.120  30.862  1.00  0.00     0.028 A 
ATOM      6  C   UNL     1      29.606  25.109  31.727  1.00  0.00     0.083 A 
ATOM      7  N   UNL     1      30.016  25.097  33.016  1.00  0.00    -0.361 N 
ATOM      8  C   UNL     1      33.162  25.123  31.368  1.00  0.00     0.056 A 
ATOM      9  C   UNL     1      34.083  25.115  32.434  1.00  0.00     0.116 A 
ATOM     10  H   UNL     1      29.411  25.088  33.865  1.00  0.00     0.166 HD
ENDROOT
BRANCH   9  11
ATOM     11  O   UNL     1      35.448  25.123  32.159  1.00  0.00    -0.508 OA
ATOM     12  H   UNL     1      35.911  24.316  31.756  1.00  0.00     0.293 HD
ENDBRANCH   9  11
TORSDOF 1
ENDMDL
MODEL 4
REMARK VINA RESULT:    -3.251     18.583     19.897
REMARK INTER + INTRA:          -3.346
REMARK INTER:                  -3.346
REMARK INTRA:                   0.000
REMARK UNBOUND:                 0.000
REMARK SMILES Oc1ccc2[nH]ccc2c1
REMARK SMILES IDX 3 1 4 2 5 3 9 4 8 5 7 6 6 7 10 8 2 9 1 11
REMARK H PARENT 6 10 1 12
REMARK Flexibility Score: inf
ROOT
ATOM      1  C   UNL     1      30.930  25.116  30.762  1.00  0.00     0.048 A 
ATOM      2  C   UNL     1      32.297  25.120  30.429  1.00  0.00     0.030 A 
ATOM      3  C   UNL     1      33.220  25.121  31.472  1.00  0.00     0.046 A 
ATOM      4  C   UNL     1      32.826  25.119  32.784  1.00  0.00     0.003 A 
ATOM      5  C   UNL     1      33.966  25.121  33.557  1.00  0.00     0.028 A 
ATOM      6  C   UNL     1      35.021  25.125  32.649  1.00  0.00     0.083 A 
ATOM      7  N   UNL     1      34.560  25.124  31.377  1.00  0.00    -0.361 N 
ATOM      8  C   UNL     1      31.482  25.115  33.148  1.00  0.00     0.056 A 
ATOM      9  C   UNL     1      30.520  25.114  32.119  1.00  0.00     0.116 A 
ATOM     10  H   UNL     1      35.132  25.127  30.504  1.00  0.00     0.166 HD
ENDROOT
BRANCH   9  11
ATOM     11  O   UNL     1      29.167  25.111  32.448  1.00  0.00    -0.508 OA
ATOM     12  H   UNL     1      28.631  25.970  32.493  1.00  0.00     0.293 HD
ENDBRANCH   9  11
TORSDOF 1
ENDMDL
MODEL 5
REMARK VINA RESULT:    -3.120     18.444     19.707
REMARK INTER + INTRA:          -3.211
REMARK INTER:                  -3.211
REMARK INTRA:                   0.000
REMARK UNBOUND:                 0.000
REMARK SMILES Oc1ccc2[nH]ccc2c1
REMARK SMILES IDX 3 1 4 2 5 3 9 4 8 5 7 6 6 7 10 8 2 9 1 11
REMARK H PARENT 6 10 1 12
REMARK Flexibility Score: inf
ROOT
ATOM      1  C   UNL     1      31.480  25.114  29.440  1.00  0.00     0.048 A 
ATOM      2  C   UNL     1      32.617  25.111  30.269  1.00  0.00     0.030 A 
ATOM      3  C   UNL     1      32.417  25.112  31.648  1.00  0.00     0.046 A 
ATOM      4  C   UNL     1      31.161  25.117  32.194  1.00  0.00     0.003 A 
ATOM      5  C   UNL     1      31.307  25.118  33.563  1.00  0.00     0.028 A 
ATOM      6  C   UNL     1      32.681  25.113  33.783  1.00  0.00     0.083 A 
ATOM      7  N   UNL     1      33.355  25.109  32.610  1.00  0.00    -0.361 N 
ATOM      8  C   UNL     1      30.015  25.121  31.402  1.00  0.00     0.056 A 
ATOM      9  C   UNL     1      30.179  25.120  30.003  1.00  0.00     0.116 A 
ATOM     10  H   UNL     1      34.390  25.105  32.483  1.00  0.00     0.166 HD
ENDROOT
BRANCH   9  11
ATOM     11  O   UNL     1      29.055  25.124  29.182  1.00  0.00    -0.508 OA
ATOM     12  H   UNL     1      28.128  25.289  29.556  1.00  0.00     0.293 HD
ENDBRANCH   9  11
TORSDOF 1
ENDMDL
MODEL 6
REMARK VINA RESULT:    -3.079     18.124     19.293
REMARK INTER + INTRA:          -3.169
REMARK INTER:                  -3.169
REMARK INTRA:                   0.000
REMARK UNBOUND:                 0.000
REMARK SMILES Oc1ccc2[nH]ccc2c1
REMARK SMILES IDX 3 1 4 2 5 3 9 4 8 5 7 6 6 7 10 8 2 9 1 11
REMARK H PARENT 6 10 1 12
REMARK Flexibility Score: inf
ROOT
ATOM      1  C   UNL     1      33.468  25.125  33.476  1.00  0.00     0.048 A 
ATOM      2  C   UNL     1      33.591  25.122  32.075  1.00  0.00     0.030 A 
ATOM      3  C   UNL     1      32.421  25.080  31.319  1.00  0.00     0.046 A 
ATOM      4  C   UNL     1      31.185  25.042  31.906  1.00  0.00     0.003 A 
ATOM      5  C   UNL     1      30.250  25.006  30.896  1.00  0.00     0.028 A 
ATOM      6  C   UNL     1      30.987  25.025  29.716  1.00  0.00     0.083 A 
ATOM      7  N   UNL     1      32.313  25.071  29.980  1.00  0.00    -0.361 N 
ATOM      8  C   UNL     1      31.028  25.044  33.290  1.00  0.00     0.056 A 
ATOM      9  C   UNL     1      32.189  25.086  34.086  1.00  0.00     0.116 A 
ATOM     10  H   UNL     1      33.090  25.092  29.283  1.00  0.00     0.166 HD
ENDROOT
BRANCH   9  11
ATOM     11  O   UNL     1      32.068  25.088  35.473  1.00  0.00    -0.508 OA
ATOM     12  H   UNL     1      32.158  25.942  36.011  1.00  0.00     0.293 HD
ENDBRANCH   9  11
TORSDOF 1
ENDMDL
MODEL 7
REMARK VINA RESULT:    -3.072     18.394     19.553
REMARK INTER + INTRA:          -3.162
REMARK INTER:                  -3.162
REMARK INTRA:                   0.000
REMARK UNBOUND:                 0.000
REMARK SMILES Oc1ccc2[nH]ccc2c1
REMARK SMILES IDX 3 1 4 2 5 3 9 4 8 5 7 6 6 7 10 8 2 9 1 11
REMARK H PARENT 6 10 1 12
REMARK Flexibility Score: inf
ROOT
ATOM      1  C   UNL     1      33.786  25.116  30.986  1.00  0.00     0.048 A 
ATOM      2  C   UNL     1      32.575  25.114  30.270  1.00  0.00     0.030 A 
ATOM      3  C   UNL     1      31.388  25.116  31.000  1.00  0.00     0.046 A 
ATOM      4  C   UNL     1      31.384  25.122  32.369  1.00  0.00     0.003 A 
ATOM      5  C   UNL     1      30.069  25.123  32.778  1.00  0.00     0.028 A 
ATOM      6  C   UNL     1      29.323  25.119  31.603  1.00  0.00     0.083 A 
ATOM      7  N   UNL     1      30.133  25.116  30.520  1.00  0.00    -0.361 N 
ATOM      8  C   UNL     1      32.565  25.124  33.108  1.00  0.00     0.056 A 
ATOM      9  C   UNL     1      33.784  25.121  32.403  1.00  0.00     0.116 A 
ATOM     10  H   UNL     1      29.839  25.112  29.518  1.00  0.00     0.166 HD
ENDROOT
BRANCH   9  11
ATOM     11  O   UNL     1      34.983  25.123  33.111  1.00  0.00    -0.508 OA
ATOM     12  H   UNL     1      35.699  24.425  32.941  1.00  0.00     0.293 HD
ENDBRANCH   9  11
TORSDOF 1
ENDMDL
MODEL 8
REMARK VINA RESULT:    -3.066     21.040     21.875
REMARK INTER + INTRA:          -3.155
REMARK INTER:                  -3.155
REMARK INTRA:                   0.000
REMARK UNBOUND:                 0.000
REMARK SMILES Oc1ccc2[nH]ccc2c1
REMARK SMILES IDX 3 1 4 2 5 3 9 4 8 5 7 6 6 7 10 8 2 9 1 11
REMARK H PARENT 6 10 1 12
REMARK Flexibility Score: inf
ROOT
ATOM      1  C   UNL     1      30.028  23.134  28.057  1.00  0.00     0.048 A 
ATOM      2  C   UNL     1      31.321  22.580  28.034  1.00  0.00     0.030 A 
ATOM      3  C   UNL     1      32.356  23.320  28.601  1.00  0.00     0.046 A 
ATOM      4  C   UNL     1      32.138  24.548  29.167  1.00  0.00     0.003 A 
ATOM      5  C   UNL     1      33.350  25.009  29.631  1.00  0.00     0.028 A 
ATOM      6  C   UNL     1      34.265  24.010  29.314  1.00  0.00     0.083 A 
ATOM      7  N   UNL     1      33.653  22.980  28.686  1.00  0.00    -0.361 N 
ATOM      8  C   UNL     1      30.871  25.125  29.206  1.00  0.00     0.056 A 
ATOM      9  C   UNL     1      29.800  24.405  28.641  1.00  0.00     0.116 A 
ATOM     10  H   UNL     1      34.101  22.103  28.339  1.00  0.00     0.166 HD
ENDROOT
BRANCH   9  11
ATOM     11  O   UNL     1      28.521  24.953  28.663  1.00  0.00    -0.508 OA
ATOM     12  H   UNL     1      28.198  25.572  27.929  1.00  0.00     0.293 HD
ENDBRANCH   9  11
TORSDOF 1
ENDMDL
