MODEL 1
REMARK VINA RESULT:    -4.660      0.000      0.000
REMARK INTER + INTRA:          -4.796
REMARK INTER:                  -4.796
REMARK INTRA:                   0.000
REMARK UNBOUND:                 0.000
REMARK SMILES Nc1ncnc2nc[nH]c12
REMARK SMILES IDX 8 1 7 2 6 3 5 4 4 5 3 6 2 7 10 8 9 9 1 11
REMARK H PARENT 9 10 1 12 1 13
REMARK Flexibility Score: inf
ROOT
ATOM      1  C   UNL     1      13.378 194.103   3.165  1.00  0.00     0.199 A 
ATOM      2  N   UNL     1      12.813 195.309   2.886  1.00  0.00    -0.217 NA
ATOM      3  C   UNL     1      13.074 196.011   4.002  1.00  0.00     0.182 A 
ATOM      4  N   UNL     1      12.723 197.295   4.249  1.00  0.00    -0.215 NA
ATOM      5  C   UNL     1      13.080 197.841   5.452  1.00  0.00     0.226 A 
ATOM      6  N   UNL     1      13.772 197.100   6.375  1.00  0.00    -0.217 NA
ATOM      7  C   UNL     1      14.127 195.804   6.128  1.00  0.00     0.152 A 
ATOM      8  C   UNL     1      13.757 195.262   4.899  1.00  0.00     0.127 A 
ATOM      9  N   UNL     1      13.963 194.043   4.389  1.00  0.00    -0.340 N 
ATOM     10  H   UNL     1      14.455 193.229   4.818  1.00  0.00     0.168 HD
ENDROOT
BRANCH   7  11
ATOM     11  N   UNL     1      14.848 195.052   7.104  1.00  0.00    -0.382 N 
ATOM     12  H   UNL     1      15.892 195.077   7.116  1.00  0.00     0.158 HD
ATOM     13  H   UNL     1      14.354 194.471   7.816  1.00  0.00     0.158 HD
ENDBRANCH   7  11
TORSDOF 1
ENDMDL
MODEL 2
REMARK VINA RESULT:    -4.598      1.187      3.028
REMARK INTER + INTRA:          -4.732
REMARK INTER:                  -4.732
REMARK INTRA:                   0.000
REMARK UNBOUND:                 0.000
REMARK SMILES Nc1ncnc2nc[nH]c12
REMARK SMILES IDX 8 1 7 2 6 3 5 4 4 5 3 6 2 7 10 8 9 9 1 11
REMARK H PARENT 9 10 1 12 1 13
REMARK Flexibility Score: inf
ROOT
ATOM      1  C   UNL     1      13.819 197.506   6.507  1.00  0.00     0.199 A 
ATOM      2  N   UNL     1      12.690 197.809   5.812  1.00  0.00    -0.217 NA
ATOM      3  C   UNL     1      12.590 196.771   4.964  1.00  0.00     0.182 A 
ATOM      4  N   UNL     1      11.624 196.577   4.034  1.00  0.00    -0.215 NA
ATOM      5  C   UNL     1      11.692 195.452   3.260  1.00  0.00     0.226 A 
ATOM      6  N   UNL     1      12.714 194.552   3.426  1.00  0.00    -0.217 NA
ATOM      7  C   UNL     1      13.689 194.747   4.363  1.00  0.00     0.152 A 
ATOM      8  C   UNL     1      13.606 195.896   5.145  1.00  0.00     0.127 A 
ATOM      9  N   UNL     1      14.403 196.342   6.122  1.00  0.00    -0.340 N 
ATOM     10  H   UNL     1      15.270 195.908   6.507  1.00  0.00     0.168 HD
ENDROOT
BRANCH   7  11
ATOM     11  N   UNL     1      14.743 193.795   4.518  1.00  0.00    -0.382 N 
ATOM     12  H   UNL     1      14.571 192.904   5.033  1.00  0.00     0.158 HD
ATOM     13  H   UNL     1      15.693 193.969   4.124  1.00  0.00     0.158 HD
ENDBRANCH   7  11
TORSDOF 1
ENDMDL
MODEL 3
REMARK VINA RESULT:    -4.499      1.249      2.899
REMARK INTER + INTRA:          -4.631
REMARK INTER:                  -4.631
REMARK INTRA:                   0.000
REMARK UNBOUND:                 0.000
REMARK SMILES Nc1ncnc2nc[nH]c12
REMARK SMILES IDX 8 1 7 2 6 3 5 4 4 5 3 6 2 7 10 8 9 9 1 11
REMARK H PARENT 9 10 1 12 1 13
REMARK Flexibility Score: inf
ROOT
ATOM      1  C   UNL     1      14.461 198.569   4.154  1.00  0.00     0.199 A 
ATOM      2  N   UNL     1      14.040 197.895   3.049  1.00  0.00    -0.217 NA
ATOM      3  C   UNL     1      13.993 196.626   3.490  1.00  0.00     0.182 A 
ATOM      4  N   UNL     1      13.629 195.536   2.774  1.00  0.00    -0.215 NA
ATOM      5  C   UNL     1      13.645 194.319   3.400  1.00  0.00     0.226 A 
ATOM      6  N   UNL     1      14.021 194.217   4.715  1.00  0.00    -0.217 NA
ATOM      7  C   UNL     1      14.389 195.317   5.438  1.00  0.00     0.152 A 
ATOM      8  C   UNL     1      14.368 196.548   4.787  1.00  0.00     0.127 A 
ATOM      9  N   UNL     1      14.671 197.773   5.233  1.00  0.00    -0.340 N 
ATOM     10  H   UNL     1      14.992 198.061   6.182  1.00  0.00     0.168 HD
ENDROOT
BRANCH   7  11
ATOM     11  N   UNL     1      14.777 195.186   6.806  1.00  0.00    -0.382 N 
ATOM     12  H   UNL     1      15.671 195.611   7.139  1.00  0.00     0.158 HD
ATOM     13  H   UNL     1      14.183 194.671   7.492  1.00  0.00     0.158 HD
ENDBRANCH   7  11
TORSDOF 1
ENDMDL
MODEL 4
REMARK VINA RESULT:    -4.469      1.483      2.041
REMARK INTER + INTRA:          -4.600
REMARK INTER:                  -4.600
REMARK INTRA:                   0.000
REMARK UNBOUND:                 0.000
REMARK SMILES Nc1ncnc2nc[nH]c12
REMARK SMILES IDX 8 1 7 2 6 3 5 4 4 5 3 6 2 7 10 8 9 9 1 11
REMARK H PARENT 9 10 1 12 1 13
REMARK Flexibility Score: inf
ROOT
ATOM      1  C   UNL     1      10.658 195.245   3.111  1.00  0.00     0.199 A 
ATOM      2  N   UNL     1      10.606 196.396   3.836  1.00  0.00    -0.217 NA
ATOM      3  C   UNL     1      11.791 196.386   4.469  1.00  0.00     0.182 A 
ATOM      4  N   UNL     1      12.253 197.323   5.331  1.00  0.00    -0.215 NA
ATOM      5  C   UNL     1      13.493 197.139   5.879  1.00  0.00     0.226 A 
ATOM      6  N   UNL     1      14.239 196.033   5.560  1.00  0.00    -0.217 NA
ATOM      7  C   UNL     1      13.774 195.087   4.691  1.00  0.00     0.152 A 
ATOM      8  C   UNL     1      12.510 195.288   4.140  1.00  0.00     0.127 A 
ATOM      9  N   UNL     1      11.809 194.546   3.277  1.00  0.00    -0.340 N 
ATOM     10  H   UNL     1      12.074 193.641   2.828  1.00  0.00     0.168 HD
ENDROOT
BRANCH   7  11
ATOM     11  N   UNL     1      14.568 193.944   4.373  1.00  0.00    -0.382 N 
ATOM     12  H   UNL     1      15.476 193.785   4.864  1.00  0.00     0.158 HD
ATOM     13  H   UNL     1      14.263 193.253   3.653  1.00  0.00     0.158 HD
ENDBRANCH   7  11
TORSDOF 1
ENDMDL
MODEL 5
REMARK VINA RESULT:    -4.430      8.890     10.201
REMARK INTER + INTRA:          -4.560
REMARK INTER:                  -4.560
REMARK INTRA:                   0.000
REMARK UNBOUND:                 0.000
REMARK SMILES Nc1ncnc2nc[nH]c12
REMARK SMILES IDX 8 1 7 2 6 3 5 4 4 5 3 6 2 7 10 8 9 9 1 11
REMARK H PARENT 9 10 1 12 1 13
REMARK Flexibility Score: inf
ROOT
ATOM      1  C   UNL     1      18.258 200.967   8.641  1.00  0.00     0.199 A 
ATOM      2  N   UNL     1      17.561 202.103   8.912  1.00  0.00    -0.217 NA
ATOM      3  C   UNL     1      18.205 202.582   9.990  1.00  0.00     0.182 A 
ATOM      4  N   UNL     1      17.909 203.715  10.671  1.00  0.00    -0.215 NA
ATOM      5  C   UNL     1      18.685 204.040  11.750  1.00  0.00     0.226 A 
ATOM      6  N   UNL     1      19.729 203.235  12.125  1.00  0.00    -0.217 NA
ATOM      7  C   UNL     1      20.029 202.091  11.440  1.00  0.00     0.152 A 
ATOM      8  C   UNL     1      19.231 201.774  10.343  1.00  0.00     0.127 A 
ATOM      9  N   UNL     1      19.285 200.737   9.499  1.00  0.00    -0.340 N 
ATOM     10  H   UNL     1      19.953 199.936   9.490  1.00  0.00     0.168 HD
ENDROOT
BRANCH   7  11
ATOM     11  N   UNL     1      21.122 201.268  11.848  1.00  0.00    -0.382 N 
ATOM     12  H   UNL     1      22.077 201.678  11.944  1.00  0.00     0.158 HD
ATOM     13  H   UNL     1      20.990 200.254  12.058  1.00  0.00     0.158 HD
ENDBRANCH   7  11
TORSDOF 1
ENDMDL
MODEL 6
REMARK VINA RESULT:    -4.312      2.077      2.883
REMARK INTER + INTRA:          -4.438
REMARK INTER:                  -4.438
REMARK INTRA:                   0.000
REMARK UNBOUND:                 0.000
REMARK SMILES Nc1ncnc2nc[nH]c12
REMARK SMILES IDX 8 1 7 2 6 3 5 4 4 5 3 6 2 7 10 8 9 9 1 11
REMARK H PARENT 9 10 1 12 1 13
REMARK Flexibility Score: inf
ROOT
ATOM      1  C   UNL     1      10.242 195.887   3.982  1.00  0.00     0.199 A 
ATOM      2  N   UNL     1      10.656 196.486   2.832  1.00  0.00    -0.217 NA
ATOM      3  C   UNL     1      11.959 196.158   2.793  1.00  0.00     0.182 A 
ATOM      4  N   UNL     1      12.851 196.509   1.836  1.00  0.00    -0.215 NA
ATOM      5  C   UNL     1      14.142 196.076   1.970  1.00  0.00     0.226 A 
ATOM      6  N   UNL     1      14.513 195.311   3.046  1.00  0.00    -0.217 NA
ATOM      7  C   UNL     1      13.613 194.957   4.012  1.00  0.00     0.152 A 
ATOM      8  C   UNL     1      12.303 195.404   3.862  1.00  0.00     0.127 A 
ATOM      9  N   UNL     1      11.227 195.218   4.635  1.00  0.00    -0.340 N 
ATOM     10  H   UNL     1      11.149 194.686   5.529  1.00  0.00     0.168 HD
ENDROOT
BRANCH   7  11
ATOM     11  N   UNL     1      14.023 194.160   5.124  1.00  0.00    -0.382 N 
ATOM     12  H   UNL     1      13.405 193.393   5.472  1.00  0.00     0.158 HD
ATOM     13  H   UNL     1      14.934 194.323   5.604  1.00  0.00     0.158 HD
ENDBRANCH   7  11
TORSDOF 1
ENDMDL
MODEL 7
REMARK VINA RESULT:    -4.285      5.326      5.863
REMARK INTER + INTRA:          -4.410
REMARK INTER:                  -4.410
REMARK INTRA:                   0.000
REMARK UNBOUND:                 0.000
REMARK SMILES Nc1ncnc2nc[nH]c12
REMARK SMILES IDX 8 1 7 2 6 3 5 4 4 5 3 6 2 7 10 8 9 9 1 11
REMARK H PARENT 9 10 1 12 1 13
REMARK Flexibility Score: inf
ROOT
ATOM      1  C   UNL     1      11.566 198.000   0.690  1.00  0.00     0.199 A 
ATOM      2  N   UNL     1      10.816 199.029   1.171  1.00  0.00    -0.217 NA
ATOM      3  C   UNL     1       9.750 198.390   1.683  1.00  0.00     0.182 A 
ATOM      4  N   UNL     1       8.683 198.959   2.293  1.00  0.00    -0.215 NA
ATOM      5  C   UNL     1       7.689 198.138   2.751  1.00  0.00     0.226 A 
ATOM      6  N   UNL     1       7.779 196.779   2.591  1.00  0.00    -0.217 NA
ATOM      7  C   UNL     1       8.854 196.203   1.975  1.00  0.00     0.152 A 
ATOM      8  C   UNL     1       9.858 197.052   1.514  1.00  0.00     0.127 A 
ATOM      9  N   UNL     1      11.006 196.779   0.884  1.00  0.00    -0.340 N 
ATOM     10  H   UNL     1      11.393 195.851   0.604  1.00  0.00     0.168 HD
ENDROOT
BRANCH   7  11
ATOM     11  N   UNL     1       8.926 194.786   1.820  1.00  0.00    -0.382 N 
ATOM     12  H   UNL     1       8.464 194.325   1.005  1.00  0.00     0.158 HD
ATOM     13  H   UNL     1       9.435 194.189   2.508  1.00  0.00     0.158 HD
ENDBRANCH   7  11
TORSDOF 1
ENDMDL
MODEL 8
REMARK VINA RESULT:    -4.181      7.673      8.541
REMARK INTER + INTRA:          -4.303
REMARK INTER:                  -4.303
REMARK INTRA:                   0.000
REMARK UNBOUND:                 0.000
REMARK SMILES Nc1ncnc2nc[nH]c12
REMARK SMILES IDX 8 1 7 2 6 3 5 4 4 5 3 6 2 7 10 8 9 9 1 11
REMARK H PARENT 9 10 1 12 1 13
REMARK Flexibility Score: inf
ROOT
ATOM      1  C   UNL     1      15.470 200.503  10.251  1.00  0.00     0.199 A 
ATOM      2  N   UNL     1      15.441 201.502   9.326  1.00  0.00    -0.217 NA
ATOM      3  C   UNL     1      16.748 201.750   9.135  1.00  0.00     0.182 A 
ATOM      4  N   UNL     1      17.281 202.672   8.298  1.00  0.00    -0.215 NA
ATOM      5  C   UNL     1      18.643 202.777   8.239  1.00  0.00     0.226 A 
ATOM      6  N   UNL     1      19.439 201.969   9.010  1.00  0.00    -0.217 NA
ATOM      7  C   UNL     1      18.903 201.039   9.856  1.00  0.00     0.152 A 
ATOM      8  C   UNL     1      17.514 200.943   9.904  1.00  0.00     0.127 A 
ATOM      9  N   UNL     1      16.723 200.140  10.625  1.00  0.00    -0.340 N 
ATOM     10  H   UNL     1      16.992 199.404  11.313  1.00  0.00     0.168 HD
ENDROOT
BRANCH   7  11
ATOM     11  N   UNL     1      19.751 200.209  10.649  1.00  0.00    -0.382 N 
ATOM     12  H   UNL     1      19.453 199.239  10.893  1.00  0.00     0.158 HD
ATOM     13  H   UNL     1      20.674 200.549  10.997  1.00  0.00     0.158 HD
ENDBRANCH   7  11
TORSDOF 1
ENDMDL
MODEL 9
REMARK VINA RESULT:    -4.155      2.355      3.290
REMARK INTER + INTRA:          -4.276
REMARK INTER:                  -4.276
REMARK INTRA:                   0.000
REMARK UNBOUND:                 0.000
REMARK SMILES Nc1ncnc2nc[nH]c12
REMARK SMILES IDX 8 1 7 2 6 3 5 4 4 5 3 6 2 7 10 8 9 9 1 11
REMARK H PARENT 9 10 1 12 1 13
REMARK Flexibility Score: inf
ROOT
ATOM      1  C   UNL     1      14.253 194.737   3.734  1.00  0.00     0.199 A 
ATOM      2  N   UNL     1      14.252 195.601   2.683  1.00  0.00    -0.217 NA
ATOM      3  C   UNL     1      12.956 195.947   2.599  1.00  0.00     0.182 A 
ATOM      4  N   UNL     1      12.404 196.800   1.704  1.00  0.00    -0.215 NA
ATOM      5  C   UNL     1      11.057 197.029   1.777  1.00  0.00     0.226 A 
ATOM      6  N   UNL     1      10.296 196.405   2.733  1.00  0.00    -0.217 NA
ATOM      7  C   UNL     1      10.851 195.544   3.636  1.00  0.00     0.152 A 
ATOM      8  C   UNL     1      12.223 195.322   3.550  1.00  0.00     0.127 A 
ATOM      9  N   UNL     1      13.027 194.545   4.285  1.00  0.00    -0.340 N 
ATOM     10  H   UNL     1      12.782 193.933   5.094  1.00  0.00     0.168 HD
ENDROOT
BRANCH   7  11
ATOM     11  N   UNL     1      10.038 194.907   4.623  1.00  0.00    -0.382 N 
ATOM     12  H   UNL     1       9.521 194.031   4.388  1.00  0.00     0.158 HD
ATOM     13  H   UNL     1       9.946 195.298   5.586  1.00  0.00     0.158 HD
ENDBRANCH   7  11
TORSDOF 1
ENDMDL
