MODEL 1
REMARK VINA RESULT:    -4.473      0.000      0.000
REMARK INTER + INTRA:          -6.182
REMARK INTER:                  -6.303
REMARK INTRA:                   0.121
REMARK UNBOUND:                 0.121
REMARK SMILES CC1=CCC(=C(C)C)C(=O)CC(C)=CCC1
REMARK SMILES IDX 12 1 14 2 13 3 15 4 16 5 2 6 1 7 3 8 11 10 9 11 10 12 5 13
REMARK SMILES IDX 6 14 7 15 8 16 4 17
REMARK H PARENT
REMARK Flexibility Score: 60.00
ROOT
ATOM      1  C   UNL     1       9.605  39.131  25.213  1.00  0.00    -0.070 C 
ATOM      2  C   UNL     1       9.034  39.174  26.439  1.00  0.00    -0.027 C 
ATOM      3  C   UNL     1      10.615  40.191  24.862  1.00  0.00     0.039 C 
ENDROOT
BRANCH   2   4
ATOM      4  C   UNL     1       7.905  38.286  26.899  1.00  0.00     0.032 C 
BRANCH   4   5
ATOM      5  C   UNL     1       6.596  39.084  26.932  1.00  0.00     0.034 C 
BRANCH   5   6
ATOM      6  C   UNL     1       5.619  38.639  25.864  1.00  0.00    -0.077 C 
ATOM      7  C   UNL     1       4.634  37.546  26.196  1.00  0.00     0.039 C 
ATOM      8  C   UNL     1       5.528  39.219  24.641  1.00  0.00    -0.023 CG0
ATOM      9  G   UNL     1       6.434  40.287  24.057  1.00  0.00     0.000 G0
ENDBRANCH   5   6
ENDBRANCH   4   5
ENDBRANCH   2   4
BRANCH   1  10
ATOM     10  C   UNL     1       9.293  38.060  24.185  1.00  0.00     0.111 C 
BRANCH  10  11
ATOM     11  C   UNL     1       8.072  38.404  23.366  1.00  0.00     0.163 C 
ATOM     12  O   UNL     1       7.435  37.442  22.855  1.00  0.00    -0.294 OA
BRANCH  11  13
ATOM     13  C   UNL     1       7.576  39.804  23.154  1.00  0.00    -0.002 C 
ATOM     14  C   UNL     1       8.031  40.550  22.101  1.00  0.00    -0.069 C 
ATOM     15  C   UNL     1       9.235  40.123  21.292  1.00  0.00     0.039 C 
ATOM     16  C   UNL     1       7.394  41.867  21.716  1.00  0.00     0.039 C 
BRANCH  13  17
ATOM     17  C   UNL     1       6.427  40.294  24.029  1.00  0.00     0.066 CG0
ATOM     18  G   UNL     1       5.530  39.226  24.628  1.00  0.00     0.000 G0
ENDBRANCH  13  17
ENDBRANCH  11  13
ENDBRANCH  10  11
ENDBRANCH   1  10
TORSDOF 0
ENDMDL
MODEL 2
REMARK VINA RESULT:    -4.441      2.904      5.366
REMARK INTER + INTRA:          -6.138
REMARK INTER:                  -6.085
REMARK INTRA:                  -0.053
REMARK UNBOUND:                 0.121
REMARK SMILES CC1=CCC(=C(C)C)C(=O)CC(C)=CCC1
REMARK SMILES IDX 12 1 14 2 13 3 15 4 16 5 2 6 1 7 3 8 11 10 9 11 10 12 5 13
REMARK SMILES IDX 6 14 7 15 8 16 4 17
REMARK H PARENT
REMARK Flexibility Score: 60.00
ROOT
ATOM      1  C   UNL     1       6.545  38.300  24.978  1.00  0.00    -0.070 C 
ATOM      2  C   UNL     1       5.229  38.014  25.108  1.00  0.00    -0.027 C 
ATOM      3  C   UNL     1       6.941  39.414  24.044  1.00  0.00     0.039 C 
ENDROOT
BRANCH   2   4
ATOM      4  C   UNL     1       4.671  36.846  25.879  1.00  0.00     0.032 C 
BRANCH   4   5
ATOM      5  C   UNL     1       3.933  37.350  27.126  1.00  0.00     0.034 C 
BRANCH   5   6
ATOM      6  C   UNL     1       4.206  36.494  28.345  1.00  0.00    -0.077 C 
ATOM      7  C   UNL     1       3.282  35.338  28.637  1.00  0.00     0.039 C 
ATOM      8  C   UNL     1       5.280  36.662  29.156  1.00  0.00    -0.023 CG0
ATOM      9  G   UNL     1       6.310  37.776  29.103  1.00  0.00     0.000 G0
ENDBRANCH   5   6
ENDBRANCH   4   5
ENDBRANCH   2   4
BRANCH   1  10
ATOM     10  C   UNL     1       7.636  37.570  25.737  1.00  0.00     0.111 C 
BRANCH  10  11
ATOM     11  C   UNL     1       7.888  38.186  27.093  1.00  0.00     0.163 C 
ATOM     12  O   UNL     1       8.335  39.365  27.112  1.00  0.00    -0.294 OA
BRANCH  11  13
ATOM     13  C   UNL     1       7.618  37.485  28.392  1.00  0.00    -0.002 C 
ATOM     14  C   UNL     1       8.590  36.730  28.990  1.00  0.00    -0.069 C 
ATOM     15  C   UNL     1       9.851  36.337  28.253  1.00  0.00     0.039 C 
ATOM     16  C   UNL     1       8.442  36.202  30.399  1.00  0.00     0.039 C 
BRANCH  13  17
ATOM     17  C   UNL     1       6.305  37.788  29.105  1.00  0.00     0.066 CG0
ATOM     18  G   UNL     1       5.283  36.666  29.147  1.00  0.00     0.000 G0
ENDBRANCH  13  17
ENDBRANCH  11  13
ENDBRANCH  10  11
ENDBRANCH   1  10
TORSDOF 0
ENDMDL
MODEL 3
REMARK VINA RESULT:    -4.413      2.008      5.105
REMARK INTER + INTRA:          -6.098
REMARK INTER:                  -6.274
REMARK INTRA:                   0.176
REMARK UNBOUND:                 0.121
REMARK SMILES CC1=CCC(=C(C)C)C(=O)CC(C)=CCC1
REMARK SMILES IDX 12 1 14 2 13 3 15 4 16 5 2 6 1 7 3 8 11 10 9 11 10 12 5 13
REMARK SMILES IDX 6 14 7 15 8 16 4 17
REMARK H PARENT
REMARK Flexibility Score: 60.00
ROOT
ATOM      1  C   UNL     1       7.000  39.832  23.528  1.00  0.00    -0.070 C 
ATOM      2  C   UNL     1       7.029  40.983  22.818  1.00  0.00    -0.027 C 
ATOM      3  C   UNL     1       6.195  39.802  24.801  1.00  0.00     0.039 C 
ENDROOT
BRANCH   2   4
ATOM      4  C   UNL     1       7.895  41.231  21.609  1.00  0.00     0.032 C 
BRANCH   4   5
ATOM      5  C   UNL     1       9.157  41.999  22.022  1.00  0.00     0.034 C 
BRANCH   5   6
ATOM      6  C   UNL     1      10.399  41.133  21.984  1.00  0.00    -0.077 C 
ATOM      7  C   UNL     1      11.123  40.965  20.671  1.00  0.00     0.039 C 
ATOM      8  C   UNL     1      10.946  40.554  23.082  1.00  0.00    -0.023 CG0
ATOM      9  G   UNL     1      10.379  40.530  24.490  1.00  0.00     0.000 G0
ENDBRANCH   5   6
ENDBRANCH   4   5
ENDBRANCH   2   4
BRANCH   1  10
ATOM     10  C   UNL     1       7.720  38.568  23.097  1.00  0.00     0.111 C 
BRANCH  10  11
ATOM     11  C   UNL     1       9.049  38.411  23.795  1.00  0.00     0.163 C 
ATOM     12  O   UNL     1       9.792  37.467  23.408  1.00  0.00    -0.294 OA
BRANCH  11  13
ATOM     13  C   UNL     1       9.531  39.319  24.889  1.00  0.00    -0.002 C 
ATOM     14  C   UNL     1       9.373  38.969  26.202  1.00  0.00    -0.069 C 
ATOM     15  C   UNL     1       8.473  37.825  26.612  1.00  0.00     0.039 C 
ATOM     16  C   UNL     1      10.042  39.733  27.322  1.00  0.00     0.039 C 
BRANCH  13  17
ATOM     17  C   UNL     1      10.355  40.538  24.491  1.00  0.00     0.066 CG0
ATOM     18  G   UNL     1      10.932  40.537  23.087  1.00  0.00     0.000 G0
ENDBRANCH  13  17
ENDBRANCH  11  13
ENDBRANCH  10  11
ENDBRANCH   1  10
TORSDOF 0
ENDMDL
MODEL 4
REMARK VINA RESULT:    -4.358      5.974      8.255
REMARK INTER + INTRA:          -6.020
REMARK INTER:                  -6.130
REMARK INTRA:                   0.110
REMARK UNBOUND:                 0.121
REMARK SMILES CC1=CCC(=C(C)C)C(=O)CC(C)=CCC1
REMARK SMILES IDX 12 1 14 2 13 3 15 4 16 5 2 6 1 7 3 8 11 10 9 11 10 12 5 13
REMARK SMILES IDX 6 14 7 15 8 16 4 17
REMARK H PARENT
REMARK Flexibility Score: 60.00
ROOT
ATOM      1  C   UNL     1       3.264  36.080  27.593  1.00  0.00    -0.070 C 
ATOM      2  C   UNL     1       2.842  34.831  27.293  1.00  0.00    -0.027 C 
ATOM      3  C   UNL     1       4.308  36.709  26.706  1.00  0.00     0.039 C 
ENDROOT
BRANCH   2   4
ATOM      4  C   UNL     1       1.920  34.001  28.150  1.00  0.00     0.032 C 
BRANCH   4   5
ATOM      5  C   UNL     1       2.732  32.964  28.935  1.00  0.00     0.034 C 
BRANCH   5   6
ATOM      6  C   UNL     1       2.836  33.303  30.407  1.00  0.00    -0.077 C 
ATOM      7  C   UNL     1       1.763  32.805  31.342  1.00  0.00     0.039 C 
ATOM      8  C   UNL     1       3.884  33.973  30.951  1.00  0.00    -0.023 CG0
ATOM      9  G   UNL     1       5.046  34.619  30.218  1.00  0.00     0.000 G0
ENDBRANCH   5   6
ENDBRANCH   4   5
ENDBRANCH   2   4
BRANCH   1  10
ATOM     10  C   UNL     1       2.728  36.884  28.761  1.00  0.00     0.111 C 
BRANCH  10  11
ATOM     11  C   UNL     1       3.601  36.749  29.986  1.00  0.00     0.163 C 
ATOM     12  O   UNL     1       3.133  37.184  31.074  1.00  0.00    -0.294 OA
BRANCH  11  13
ATOM     13  C   UNL     1       4.961  36.116  29.977  1.00  0.00    -0.002 C 
ATOM     14  C   UNL     1       6.088  36.890  29.921  1.00  0.00    -0.069 C 
ATOM     15  C   UNL     1       6.019  38.362  29.582  1.00  0.00     0.039 C 
ATOM     16  C   UNL     1       7.468  36.313  30.141  1.00  0.00     0.039 C 
BRANCH  13  17
ATOM     17  C   UNL     1       5.048  34.612  30.215  1.00  0.00     0.066 CG0
ATOM     18  G   UNL     1       3.877  33.972  30.938  1.00  0.00     0.000 G0
ENDBRANCH  13  17
ENDBRANCH  11  13
ENDBRANCH  10  11
ENDBRANCH   1  10
TORSDOF 0
ENDMDL
MODEL 5
REMARK VINA RESULT:    -4.343      4.563      6.717
REMARK INTER + INTRA:          -5.999
REMARK INTER:                  -6.154
REMARK INTRA:                   0.155
REMARK UNBOUND:                 0.121
REMARK SMILES CC1=CCC(=C(C)C)C(=O)CC(C)=CCC1
REMARK SMILES IDX 12 1 14 2 13 3 15 4 16 5 2 6 1 7 3 8 11 10 9 11 10 12 5 13
REMARK SMILES IDX 6 14 7 15 8 16 4 17
REMARK H PARENT
REMARK Flexibility Score: 60.00
ROOT
ATOM      1  C   UNL     1       4.375  37.219  26.930  1.00  0.00    -0.070 C 
ATOM      2  C   UNL     1       3.507  36.199  27.121  1.00  0.00    -0.027 C 
ATOM      3  C   UNL     1       5.326  37.134  25.764  1.00  0.00     0.039 C 
ENDROOT
BRANCH   2   4
ATOM      4  C   UNL     1       2.594  36.051  28.311  1.00  0.00     0.032 C 
BRANCH   4   5
ATOM      5  C   UNL     1       3.162  35.004  29.276  1.00  0.00     0.034 C 
BRANCH   5   6
ATOM      6  C   UNL     1       3.668  35.618  30.565  1.00  0.00    -0.077 C 
ATOM      7  C   UNL     1       2.698  35.809  31.703  1.00  0.00     0.039 C 
ATOM      8  C   UNL     1       4.968  35.941  30.784  1.00  0.00    -0.023 CG0
ATOM      9  G   UNL     1       6.110  35.895  29.785  1.00  0.00     0.000 G0
ENDBRANCH   5   6
ENDBRANCH   4   5
ENDBRANCH   2   4
BRANCH   1  10
ATOM     10  C   UNL     1       4.425  38.448  27.817  1.00  0.00     0.111 C 
BRANCH  10  11
ATOM     11  C   UNL     1       5.347  38.254  28.997  1.00  0.00     0.163 C 
ATOM     12  O   UNL     1       5.173  39.011  29.991  1.00  0.00    -0.294 OA
BRANCH  11  13
ATOM     13  C   UNL     1       6.424  37.211  29.052  1.00  0.00    -0.002 C 
ATOM     14  C   UNL     1       7.689  37.493  28.613  1.00  0.00    -0.069 C 
ATOM     15  C   UNL     1       7.985  38.737  27.805  1.00  0.00     0.039 C 
ATOM     16  C   UNL     1       8.852  36.559  28.862  1.00  0.00     0.039 C 
BRANCH  13  17
ATOM     17  C   UNL     1       6.114  35.904  29.774  1.00  0.00     0.066 CG0
ATOM     18  G   UNL     1       4.981  35.941  30.784  1.00  0.00     0.000 G0
ENDBRANCH  13  17
ENDBRANCH  11  13
ENDBRANCH  10  11
ENDBRANCH   1  10
TORSDOF 0
ENDMDL
MODEL 6
REMARK VINA RESULT:    -4.302      2.669      5.764
REMARK INTER + INTRA:          -5.941
REMARK INTER:                  -6.125
REMARK INTRA:                   0.184
REMARK UNBOUND:                 0.121
REMARK SMILES CC1=CCC(=C(C)C)C(=O)CC(C)=CCC1
REMARK SMILES IDX 12 1 14 2 13 3 15 4 16 5 2 6 1 7 3 8 11 10 9 11 10 12 5 13
REMARK SMILES IDX 6 14 7 15 8 16 4 17
REMARK H PARENT
REMARK Flexibility Score: 60.00
ROOT
ATOM      1  C   UNL     1       6.747  37.347  28.917  1.00  0.00    -0.070 C 
ATOM      2  C   UNL     1       7.799  37.115  28.098  1.00  0.00    -0.027 C 
ATOM      3  C   UNL     1       6.458  36.344  30.003  1.00  0.00     0.039 C 
ENDROOT
BRANCH   2   4
ATOM      4  C   UNL     1       8.140  37.931  26.878  1.00  0.00     0.032 C 
BRANCH   4   5
ATOM      5  C   UNL     1       7.721  37.173  25.612  1.00  0.00     0.034 C 
BRANCH   5   6
ATOM      6  C   UNL     1       6.553  37.828  24.905  1.00  0.00    -0.077 C 
ATOM      7  C   UNL     1       6.836  38.909  23.891  1.00  0.00     0.039 C 
ATOM      8  C   UNL     1       5.262  37.448  25.077  1.00  0.00    -0.023 CG0
ATOM      9  G   UNL     1       4.724  36.434  26.070  1.00  0.00     0.000 G0
ENDBRANCH   5   6
ENDBRANCH   4   5
ENDBRANCH   2   4
BRANCH   1  10
ATOM     10  C   UNL     1       5.859  38.571  28.807  1.00  0.00     0.111 C 
BRANCH  10  11
ATOM     11  C   UNL     1       4.735  38.365  27.820  1.00  0.00     0.163 C 
ATOM     12  O   UNL     1       4.221  39.400  27.313  1.00  0.00    -0.294 OA
BRANCH  11  13
ATOM     13  C   UNL     1       4.224  37.017  27.405  1.00  0.00    -0.002 C 
ATOM     14  C   UNL     1       3.235  36.398  28.120  1.00  0.00    -0.069 C 
ATOM     15  C   UNL     1       2.822  36.892  29.489  1.00  0.00     0.039 C 
ATOM     16  C   UNL     1       2.535  35.158  27.612  1.00  0.00     0.039 C 
BRANCH  13  17
ATOM     17  C   UNL     1       4.707  36.451  26.074  1.00  0.00     0.066 CG0
ATOM     18  G   UNL     1       5.275  37.448  25.081  1.00  0.00     0.000 G0
ENDBRANCH  13  17
ENDBRANCH  11  13
ENDBRANCH  10  11
ENDBRANCH   1  10
TORSDOF 0
ENDMDL
MODEL 7
REMARK VINA RESULT:    -4.258      2.356      5.069
REMARK INTER + INTRA:          -5.879
REMARK INTER:                  -5.917
REMARK INTRA:                   0.038
REMARK UNBOUND:                 0.121
REMARK SMILES CC1=CCC(=C(C)C)C(=O)CC(C)=CCC1
REMARK SMILES IDX 12 1 14 2 13 3 15 4 16 5 2 6 1 7 3 8 11 10 9 11 10 12 5 13
REMARK SMILES IDX 6 14 7 15 8 16 4 17
REMARK H PARENT
REMARK Flexibility Score: 60.00
ROOT
ATOM      1  C   UNL     1       4.957  37.381  27.402  1.00  0.00    -0.070 C 
ATOM      2  C   UNL     1       4.756  37.231  26.073  1.00  0.00    -0.027 C 
ATOM      3  C   UNL     1       4.109  36.568  28.346  1.00  0.00     0.039 C 
ENDROOT
BRANCH   2   4
ATOM      4  C   UNL     1       5.407  38.065  25.000  1.00  0.00     0.032 C 
BRANCH   4   5
ATOM      5  C   UNL     1       6.355  37.194  24.167  1.00  0.00     0.034 C 
BRANCH   5   6
ATOM      6  C   UNL     1       7.610  37.934  23.754  1.00  0.00    -0.077 C 
ATOM      7  C   UNL     1       7.628  38.636  22.419  1.00  0.00     0.039 C 
ATOM      8  C   UNL     1       8.701  38.066  24.549  1.00  0.00    -0.023 CG0
ATOM      9  G   UNL     1       8.943  37.412  25.898  1.00  0.00     0.000 G0
ENDBRANCH   5   6
ENDBRANCH   4   5
ENDBRANCH   2   4
BRANCH   1  10
ATOM     10  C   UNL     1       6.002  38.311  27.987  1.00  0.00     0.111 C 
BRANCH  10  11
ATOM     11  C   UNL     1       7.382  37.697  27.957  1.00  0.00     0.163 C 
ATOM     12  O   UNL     1       7.566  36.665  28.658  1.00  0.00    -0.294 OA
BRANCH  11  13
ATOM     13  C   UNL     1       8.515  38.233  27.132  1.00  0.00    -0.002 C 
ATOM     14  C   UNL     1       9.236  39.314  27.560  1.00  0.00    -0.069 C 
ATOM     15  C   UNL     1       8.760  40.178  28.706  1.00  0.00     0.039 C 
ATOM     16  C   UNL     1      10.520  39.740  26.884  1.00  0.00     0.039 C 
BRANCH  13  17
ATOM     17  C   UNL     1       8.948  37.430  25.910  1.00  0.00     0.066 CG0
ATOM     18  G   UNL     1       8.701  38.072  24.556  1.00  0.00     0.000 G0
ENDBRANCH  13  17
ENDBRANCH  11  13
ENDBRANCH  10  11
ENDBRANCH   1  10
TORSDOF 0
ENDMDL
MODEL 8
REMARK VINA RESULT:    -4.204      6.631      8.676
REMARK INTER + INTRA:          -5.803
REMARK INTER:                  -5.677
REMARK INTRA:                  -0.125
REMARK UNBOUND:                 0.121
REMARK SMILES CC1=CCC(=C(C)C)C(=O)CC(C)=CCC1
REMARK SMILES IDX 12 1 14 2 13 3 15 4 16 5 2 6 1 7 3 8 11 10 9 11 10 12 5 13
REMARK SMILES IDX 6 14 7 15 8 16 4 17
REMARK H PARENT
REMARK Flexibility Score: 60.00
ROOT
ATOM      1  C   UNL     1       4.509  32.318  31.315  1.00  0.00    -0.070 C 
ATOM      2  C   UNL     1       5.677  32.594  31.938  1.00  0.00    -0.027 C 
ATOM      3  C   UNL     1       3.598  31.290  31.935  1.00  0.00     0.039 C 
ENDROOT
BRANCH   2   4
ATOM      4  C   UNL     1       6.764  33.479  31.385  1.00  0.00     0.032 C 
BRANCH   4   5
ATOM      5  C   UNL     1       6.551  34.922  31.858  1.00  0.00     0.034 C 
BRANCH   5   6
ATOM      6  C   UNL     1       6.842  35.937  30.771  1.00  0.00    -0.077 C 
ATOM      7  C   UNL     1       8.274  36.153  30.350  1.00  0.00     0.039 C 
ATOM      8  C   UNL     1       5.879  36.616  30.099  1.00  0.00    -0.023 CG0
ATOM      9  G   UNL     1       4.386  36.612  30.375  1.00  0.00     0.000 G0
ENDBRANCH   5   6
ENDBRANCH   4   5
ENDBRANCH   2   4
BRANCH   1  10
ATOM     10  C   UNL     1       4.064  33.003  30.038  1.00  0.00     0.111 C 
BRANCH  10  11
ATOM     11  C   UNL     1       3.291  34.271  30.318  1.00  0.00     0.163 C 
ATOM     12  O   UNL     1       2.394  34.211  31.203  1.00  0.00    -0.294 OA
BRANCH  11  13
ATOM     13  C   UNL     1       3.549  35.576  29.624  1.00  0.00    -0.002 C 
ATOM     14  C   UNL     1       2.926  35.870  28.443  1.00  0.00    -0.069 C 
ATOM     15  C   UNL     1       2.193  34.811  27.650  1.00  0.00     0.039 C 
ATOM     16  C   UNL     1       2.974  37.253  27.833  1.00  0.00     0.039 C 
BRANCH  13  17
ATOM     17  C   UNL     1       4.374  36.624  30.363  1.00  0.00     0.066 CG0
ATOM     18  G   UNL     1       5.868  36.620  30.098  1.00  0.00     0.000 G0
ENDBRANCH  13  17
ENDBRANCH  11  13
ENDBRANCH  10  11
ENDBRANCH   1  10
TORSDOF 0
ENDMDL
MODEL 9
REMARK VINA RESULT:    -4.154      4.475      7.734
REMARK INTER + INTRA:          -5.732
REMARK INTER:                  -6.054
REMARK INTRA:                   0.321
REMARK UNBOUND:                 0.121
REMARK SMILES CC1=CCC(=C(C)C)C(=O)CC(C)=CCC1
REMARK SMILES IDX 12 1 14 2 13 3 15 4 16 5 2 6 1 7 3 8 11 10 9 11 10 12 5 13
REMARK SMILES IDX 6 14 7 15 8 16 4 17
REMARK H PARENT
REMARK Flexibility Score: 60.00
ROOT
ATOM      1  C   UNL     1       3.139  36.135  27.727  1.00  0.00    -0.070 C 
ATOM      2  C   UNL     1       4.038  36.386  26.748  1.00  0.00    -0.027 C 
ATOM      3  C   UNL     1       2.364  34.844  27.667  1.00  0.00     0.039 C 
ENDROOT
BRANCH   2   4
ATOM      4  C   UNL     1       4.787  37.682  26.573  1.00  0.00     0.032 C 
BRANCH   4   5
ATOM      5  C   UNL     1       6.297  37.422  26.636  1.00  0.00     0.034 C 
BRANCH   5   6
ATOM      6  C   UNL     1       6.935  38.010  27.878  1.00  0.00    -0.077 C 
ATOM      7  C   UNL     1       7.580  39.370  27.784  1.00  0.00     0.039 C 
ATOM      8  C   UNL     1       6.898  37.413  29.096  1.00  0.00    -0.023 CG0
ATOM      9  G   UNL     1       6.363  36.032  29.430  1.00  0.00     0.000 G0
ENDBRANCH   5   6
ENDBRANCH   4   5
ENDBRANCH   2   4
BRANCH   1  10
ATOM     10  C   UNL     1       2.886  37.077  28.888  1.00  0.00     0.111 C 
BRANCH  10  11
ATOM     11  C   UNL     1       4.046  37.103  29.856  1.00  0.00     0.163 C 
ATOM     12  O   UNL     1       4.210  38.159  30.526  1.00  0.00    -0.294 OA
BRANCH  11  13
ATOM     13  C   UNL     1       4.980  35.948  30.070  1.00  0.00    -0.002 C 
ATOM     14  C   UNL     1       4.542  34.803  30.678  1.00  0.00    -0.069 C 
ATOM     15  C   UNL     1       3.216  34.752  31.404  1.00  0.00     0.039 C 
ATOM     16  C   UNL     1       5.375  33.541  30.706  1.00  0.00     0.039 C 
BRANCH  13  17
ATOM     17  C   UNL     1       6.362  36.023  29.431  1.00  0.00     0.066 CG0
ATOM     18  G   UNL     1       6.886  37.411  29.110  1.00  0.00     0.000 G0
ENDBRANCH  13  17
ENDBRANCH  11  13
ENDBRANCH  10  11
ENDBRANCH   1  10
TORSDOF 0
ENDMDL
