MODEL 1
REMARK VINA RESULT:    -5.033      0.000      0.000
REMARK INTER + INTRA:          -6.374
REMARK INTER:                  -6.063
REMARK INTRA:                  -0.312
REMARK UNBOUND:                -0.312
REMARK SMILES O=c1c(O)c(-c2ccc(O)c(O)c2)oc2cc(O)cc(O)c12
REMARK SMILES IDX 5 1 3 2 2 3 1 4 22 5 20 6 19 7 17 8 16 9 15 10 14 11 6 12
REMARK SMILES IDX 7 13 8 14 9 15 13 16 11 17 10 18 12 20 4 22 21 24 18 26
REMARK H PARENT 10 19 12 21 4 23 21 25 18 27
REMARK Flexibility Score: inf
ROOT
ATOM      1  C   UNL     1       1.683  26.291  -4.610  1.00  0.00     0.180 A 
ATOM      2  C   UNL     1       0.950  27.483  -4.738  1.00  0.00     0.208 A 
ATOM      3  C   UNL     1      -0.311  27.576  -4.127  1.00  0.00     0.238 A 
ATOM      4  O   UNL     1      -0.985  28.626  -4.291  1.00  0.00    -0.285 OA
ATOM      5  C   UNL     1      -0.816  26.483  -3.383  1.00  0.00     0.111 A 
ATOM      6  C   UNL     1      -2.063  26.482  -2.688  1.00  0.00     0.134 A 
ATOM      7  C   UNL     1      -2.522  25.300  -2.094  1.00  0.00     0.093 A 
ATOM      8  C   UNL     1      -1.747  24.137  -2.112  1.00  0.00     0.123 A 
ATOM      9  C   UNL     1      -0.502  24.145  -2.736  1.00  0.00     0.094 A 
ATOM     10  C   UNL     1      -0.033  25.299  -3.369  1.00  0.00     0.146 A 
ATOM     11  O   UNL     1       1.154  25.259  -3.961  1.00  0.00    -0.452 OA
ENDROOT
BRANCH   1  12
ATOM     12  C   UNL     1       3.029  26.125  -5.205  1.00  0.00     0.025 A 
ATOM     13  C   UNL     1       3.202  25.537  -6.471  1.00  0.00     0.016 A 
ATOM     14  C   UNL     1       4.479  25.412  -7.022  1.00  0.00     0.051 A 
ATOM     15  C   UNL     1       5.600  25.884  -6.326  1.00  0.00     0.157 A 
ATOM     16  C   UNL     1       4.153  26.614  -4.521  1.00  0.00     0.062 A 
ATOM     17  C   UNL     1       5.434  26.491  -5.070  1.00  0.00     0.158 A 
BRANCH  15  18
ATOM     18  O   UNL     1       6.873  25.756  -6.879  1.00  0.00    -0.504 OA
ATOM     19  H   UNL     1       7.285  26.493  -7.439  1.00  0.00     0.293 HD
ENDBRANCH  15  18
BRANCH  17  20
ATOM     20  O   UNL     1       6.528  26.978  -4.355  1.00  0.00    -0.504 OA
ATOM     21  H   UNL     1       7.463  26.985  -4.743  1.00  0.00     0.293 HD
ENDBRANCH  17  20
ENDBRANCH   1  12
BRANCH   2  22
ATOM     22  O   UNL     1       1.457  28.542  -5.495  1.00  0.00    -0.502 OA
ATOM     23  H   UNL     1       2.383  28.525  -5.905  1.00  0.00     0.293 HD
ENDBRANCH   2  22
BRANCH   6  24
ATOM     24  O   UNL     1      -2.869  27.613  -2.532  1.00  0.00    -0.507 OA
ATOM     25  H   UNL     1      -3.739  27.633  -2.023  1.00  0.00     0.293 HD
ENDBRANCH   6  24
BRANCH   8  26
ATOM     26  O   UNL     1      -2.203  22.970  -1.504  1.00  0.00    -0.508 OA
ATOM     27  H   UNL     1      -3.133  22.607  -1.683  1.00  0.00     0.293 HD
ENDBRANCH   8  26
TORSDOF 6
ENDMDL
MODEL 2
REMARK VINA RESULT:    -4.999      5.119      8.734
REMARK INTER + INTRA:          -6.334
REMARK INTER:                  -6.011
REMARK INTRA:                  -0.323
REMARK UNBOUND:                -0.312
REMARK SMILES O=c1c(O)c(-c2ccc(O)c(O)c2)oc2cc(O)cc(O)c12
REMARK SMILES IDX 5 1 3 2 2 3 1 4 22 5 20 6 19 7 17 8 16 9 15 10 14 11 6 12
REMARK SMILES IDX 7 13 8 14 9 15 13 16 11 17 10 18 12 20 4 22 21 24 18 26
REMARK H PARENT 10 19 12 21 4 23 21 25 18 27
REMARK Flexibility Score: inf
ROOT
ATOM      1  C   UNL     1       9.142  27.821  -4.650  1.00  0.00     0.180 A 
ATOM      2  C   UNL     1       9.776  27.546  -5.873  1.00  0.00     0.208 A 
ATOM      3  C   UNL     1       9.023  26.993  -6.921  1.00  0.00     0.238 A 
ATOM      4  O   UNL     1       9.608  26.699  -7.996  1.00  0.00    -0.285 OA
ATOM      5  C   UNL     1       7.643  26.736  -6.738  1.00  0.00     0.111 A 
ATOM      6  C   UNL     1       6.775  26.215  -7.744  1.00  0.00     0.134 A 
ATOM      7  C   UNL     1       5.457  25.877  -7.413  1.00  0.00     0.093 A 
ATOM      8  C   UNL     1       4.957  26.105  -6.128  1.00  0.00     0.123 A 
ATOM      9  C   UNL     1       5.779  26.669  -5.156  1.00  0.00     0.094 A 
ATOM     10  C   UNL     1       7.109  26.983  -5.446  1.00  0.00     0.146 A 
ATOM     11  O   UNL     1       7.861  27.508  -4.487  1.00  0.00    -0.452 OA
ENDROOT
BRANCH   1  12
ATOM     12  C   UNL     1       9.863  28.427  -3.507  1.00  0.00     0.025 A 
ATOM     13  C   UNL     1      10.541  27.632  -2.565  1.00  0.00     0.016 A 
ATOM     14  C   UNL     1      11.234  28.227  -1.509  1.00  0.00     0.051 A 
ATOM     15  C   UNL     1      11.272  29.622  -1.383  1.00  0.00     0.157 A 
ATOM     16  C   UNL     1       9.921  29.825  -3.388  1.00  0.00     0.062 A 
ATOM     17  C   UNL     1      10.615  30.424  -2.330  1.00  0.00     0.158 A 
BRANCH  15  18
ATOM     18  O   UNL     1      11.963  30.212  -0.325  1.00  0.00    -0.504 OA
ATOM     19  H   UNL     1      12.951  30.044  -0.178  1.00  0.00     0.293 HD
ENDBRANCH  15  18
BRANCH  17  20
ATOM     20  O   UNL     1      10.639  31.815  -2.238  1.00  0.00    -0.504 OA
ATOM     21  H   UNL     1      10.434  32.410  -3.032  1.00  0.00     0.293 HD
ENDBRANCH  17  20
ENDBRANCH   1  12
BRANCH   2  22
ATOM     22  O   UNL     1      11.144  27.787  -6.026  1.00  0.00    -0.502 OA
ATOM     23  H   UNL     1      11.517  28.343  -6.786  1.00  0.00     0.293 HD
ENDBRANCH   2  22
BRANCH   6  24
ATOM     24  O   UNL     1       7.147  26.036  -9.079  1.00  0.00    -0.507 OA
ATOM     25  H   UNL     1       7.505  26.764  -9.679  1.00  0.00     0.293 HD
ENDBRANCH   6  24
BRANCH   8  26
ATOM     26  O   UNL     1       3.639  25.782  -5.811  1.00  0.00    -0.508 OA
ATOM     27  H   UNL     1       3.417  25.015  -5.186  1.00  0.00     0.293 HD
ENDBRANCH   8  26
TORSDOF 6
ENDMDL
MODEL 3
REMARK VINA RESULT:    -4.946      2.941      5.770
REMARK INTER + INTRA:          -6.269
REMARK INTER:                  -6.066
REMARK INTRA:                  -0.203
REMARK UNBOUND:                -0.312
REMARK SMILES O=c1c(O)c(-c2ccc(O)c(O)c2)oc2cc(O)cc(O)c12
REMARK SMILES IDX 5 1 3 2 2 3 1 4 22 5 20 6 19 7 17 8 16 9 15 10 14 11 6 12
REMARK SMILES IDX 7 13 8 14 9 15 13 16 11 17 10 18 12 20 4 22 21 24 18 26
REMARK H PARENT 10 19 12 21 4 23 21 25 18 27
REMARK Flexibility Score: inf
ROOT
ATOM      1  C   UNL     1       6.527  26.923  -5.668  1.00  0.00     0.180 A 
ATOM      2  C   UNL     1       6.346  25.857  -6.565  1.00  0.00     0.208 A 
ATOM      3  C   UNL     1       5.058  25.325  -6.740  1.00  0.00     0.238 A 
ATOM      4  O   UNL     1       4.911  24.335  -7.504  1.00  0.00    -0.285 OA
ATOM      5  C   UNL     1       3.965  25.876  -6.028  1.00  0.00     0.111 A 
ATOM      6  C   UNL     1       2.611  25.442  -6.158  1.00  0.00     0.134 A 
ATOM      7  C   UNL     1       1.632  25.971  -5.309  1.00  0.00     0.093 A 
ATOM      8  C   UNL     1       1.946  26.965  -4.378  1.00  0.00     0.123 A 
ATOM      9  C   UNL     1       3.253  27.437  -4.286  1.00  0.00     0.094 A 
ATOM     10  C   UNL     1       4.259  26.903  -5.095  1.00  0.00     0.146 A 
ATOM     11  O   UNL     1       5.493  27.374  -4.965  1.00  0.00    -0.452 OA
ENDROOT
BRANCH   1  12
ATOM     12  C   UNL     1       7.849  27.552  -5.447  1.00  0.00     0.025 A 
ATOM     13  C   UNL     1       8.498  28.267  -6.471  1.00  0.00     0.016 A 
ATOM     14  C   UNL     1       9.734  28.872  -6.233  1.00  0.00     0.051 A 
ATOM     15  C   UNL     1      10.333  28.787  -4.970  1.00  0.00     0.157 A 
ATOM     16  C   UNL     1       8.444  27.488  -4.178  1.00  0.00     0.062 A 
ATOM     17  C   UNL     1       9.682  28.094  -3.936  1.00  0.00     0.158 A 
BRANCH  15  18
ATOM     18  O   UNL     1      11.568  29.391  -4.737  1.00  0.00    -0.504 OA
ATOM     19  H   UNL     1      12.177  29.082  -3.989  1.00  0.00     0.293 HD
ENDBRANCH  15  18
BRANCH  17  20
ATOM     20  O   UNL     1      10.247  27.996  -2.666  1.00  0.00    -0.504 OA
ATOM     21  H   UNL     1      10.591  27.119  -2.296  1.00  0.00     0.293 HD
ENDBRANCH  17  20
ENDBRANCH   1  12
BRANCH   2  22
ATOM     22  O   UNL     1       7.441  25.313  -7.241  1.00  0.00    -0.502 OA
ATOM     23  H   UNL     1       7.909  24.470  -6.931  1.00  0.00     0.293 HD
ENDBRANCH   2  22
BRANCH   6  24
ATOM     24  O   UNL     1       2.176  24.523  -7.117  1.00  0.00    -0.507 OA
ATOM     25  H   UNL     1       1.612  24.753  -7.920  1.00  0.00     0.293 HD
ENDBRANCH   6  24
BRANCH   8  26
ATOM     26  O   UNL     1       0.962  27.497  -3.548  1.00  0.00    -0.508 OA
ATOM     27  H   UNL     1       1.130  27.657  -2.561  1.00  0.00     0.293 HD
ENDBRANCH   8  26
TORSDOF 6
ENDMDL
MODEL 4
REMARK VINA RESULT:    -4.892      9.770     12.166
REMARK INTER + INTRA:          -6.205
REMARK INTER:                  -5.870
REMARK INTRA:                  -0.335
REMARK UNBOUND:                -0.312
REMARK SMILES O=c1c(O)c(-c2ccc(O)c(O)c2)oc2cc(O)cc(O)c12
REMARK SMILES IDX 5 1 3 2 2 3 1 4 22 5 20 6 19 7 17 8 16 9 15 10 14 11 6 12
REMARK SMILES IDX 7 13 8 14 9 15 13 16 11 17 10 18 12 20 4 22 21 24 18 26
REMARK H PARENT 10 19 12 21 4 23 21 25 18 27
REMARK Flexibility Score: inf
ROOT
ATOM      1  C   UNL     1      10.993  29.377  -1.458  1.00  0.00     0.180 A 
ATOM      2  C   UNL     1      10.336  28.723  -2.513  1.00  0.00     0.208 A 
ATOM      3  C   UNL     1      10.134  29.411  -3.721  1.00  0.00     0.238 A 
ATOM      4  O   UNL     1       9.498  28.839  -4.644  1.00  0.00    -0.285 OA
ATOM      5  C   UNL     1      10.606  30.739  -3.862  1.00  0.00     0.111 A 
ATOM      6  C   UNL     1      10.493  31.516  -5.054  1.00  0.00     0.134 A 
ATOM      7  C   UNL     1      10.877  32.863  -5.040  1.00  0.00     0.093 A 
ATOM      8  C   UNL     1      11.432  33.440  -3.895  1.00  0.00     0.123 A 
ATOM      9  C   UNL     1      11.603  32.672  -2.746  1.00  0.00     0.094 A 
ATOM     10  C   UNL     1      11.195  31.336  -2.718  1.00  0.00     0.146 A 
ATOM     11  O   UNL     1      11.365  30.645  -1.598  1.00  0.00    -0.452 OA
ENDROOT
BRANCH   1  12
ATOM     12  C   UNL     1      11.264  28.710  -0.163  1.00  0.00     0.025 A 
ATOM     13  C   UNL     1      12.446  27.978   0.048  1.00  0.00     0.016 A 
ATOM     14  C   UNL     1      12.692  27.377   1.285  1.00  0.00     0.051 A 
ATOM     15  C   UNL     1      11.770  27.509   2.331  1.00  0.00     0.157 A 
ATOM     16  C   UNL     1      10.354  28.856   0.895  1.00  0.00     0.062 A 
ATOM     17  C   UNL     1      10.597  28.256   2.135  1.00  0.00     0.158 A 
BRANCH  15  18
ATOM     18  O   UNL     1      12.018  26.905   3.564  1.00  0.00    -0.504 OA
ATOM     19  H   UNL     1      11.280  26.451   4.089  1.00  0.00     0.293 HD
ENDBRANCH  15  18
BRANCH  17  20
ATOM     20  O   UNL     1       9.663  28.412   3.159  1.00  0.00    -0.504 OA
ATOM     21  H   UNL     1       9.022  27.673   3.419  1.00  0.00     0.293 HD
ENDBRANCH  17  20
ENDBRANCH   1  12
BRANCH   2  22
ATOM     22  O   UNL     1       9.859  27.420  -2.345  1.00  0.00    -0.502 OA
ATOM     23  H   UNL     1       9.799  26.975  -1.438  1.00  0.00     0.293 HD
ENDBRANCH   2  22
BRANCH   6  24
ATOM     24  O   UNL     1      10.038  31.010  -6.275  1.00  0.00    -0.507 OA
ATOM     25  H   UNL     1       9.779  31.574  -7.070  1.00  0.00     0.293 HD
ENDBRANCH   6  24
BRANCH   8  26
ATOM     26  O   UNL     1      11.828  34.776  -3.894  1.00  0.00    -0.508 OA
ATOM     27  H   UNL     1      12.709  35.069  -4.301  1.00  0.00     0.293 HD
ENDBRANCH   8  26
TORSDOF 6
ENDMDL
MODEL 5
REMARK VINA RESULT:    -4.852      6.681     10.376
REMARK INTER + INTRA:          -6.156
REMARK INTER:                  -5.910
REMARK INTRA:                  -0.247
REMARK UNBOUND:                -0.312
REMARK SMILES O=c1c(O)c(-c2ccc(O)c(O)c2)oc2cc(O)cc(O)c12
REMARK SMILES IDX 5 1 3 2 2 3 1 4 22 5 20 6 19 7 17 8 16 9 15 10 14 11 6 12
REMARK SMILES IDX 7 13 8 14 9 15 13 16 11 17 10 18 12 20 4 22 21 24 18 26
REMARK H PARENT 10 19 12 21 4 23 21 25 18 27
REMARK Flexibility Score: inf
ROOT
ATOM      1  C   UNL     1       9.089  28.553  -4.827  1.00  0.00     0.180 A 
ATOM      2  C   UNL     1       9.669  28.538  -3.548  1.00  0.00     0.208 A 
ATOM      3  C   UNL     1      10.294  29.701  -3.070  1.00  0.00     0.238 A 
ATOM      4  O   UNL     1      10.859  29.665  -1.945  1.00  0.00    -0.285 OA
ATOM      5  C   UNL     1      10.318  30.868  -3.870  1.00  0.00     0.111 A 
ATOM      6  C   UNL     1      10.888  32.114  -3.470  1.00  0.00     0.134 A 
ATOM      7  C   UNL     1      10.971  33.164  -4.394  1.00  0.00     0.093 A 
ATOM      8  C   UNL     1      10.445  33.034  -5.681  1.00  0.00     0.123 A 
ATOM      9  C   UNL     1       9.832  31.841  -6.061  1.00  0.00     0.094 A 
ATOM     10  C   UNL     1       9.767  30.764  -5.174  1.00  0.00     0.146 A 
ATOM     11  O   UNL     1       9.185  29.643  -5.581  1.00  0.00    -0.452 OA
ENDROOT
BRANCH   1  12
ATOM     12  C   UNL     1       8.391  27.374  -5.390  1.00  0.00     0.025 A 
ATOM     13  C   UNL     1       7.147  26.952  -4.887  1.00  0.00     0.016 A 
ATOM     14  C   UNL     1       6.495  25.852  -5.450  1.00  0.00     0.051 A 
ATOM     15  C   UNL     1       7.067  25.167  -6.529  1.00  0.00     0.157 A 
ATOM     16  C   UNL     1       8.949  26.697  -6.485  1.00  0.00     0.062 A 
ATOM     17  C   UNL     1       8.299  25.594  -7.051  1.00  0.00     0.158 A 
BRANCH  15  18
ATOM     18  O   UNL     1       6.415  24.068  -7.087  1.00  0.00    -0.504 OA
ATOM     19  H   UNL     1       6.781  23.592  -7.903  1.00  0.00     0.293 HD
ENDBRANCH  15  18
BRANCH  17  20
ATOM     20  O   UNL     1       8.892  24.938  -8.130  1.00  0.00    -0.504 OA
ATOM     21  H   UNL     1       9.029  23.935  -8.139  1.00  0.00     0.293 HD
ENDBRANCH  17  20
ENDBRANCH   1  12
BRANCH   2  22
ATOM     22  O   UNL     1       9.654  27.369  -2.782  1.00  0.00    -0.502 OA
ATOM     23  H   UNL     1      10.497  26.855  -2.556  1.00  0.00     0.293 HD
ENDBRANCH   2  22
BRANCH   6  24
ATOM     24  O   UNL     1      11.358  32.379  -2.181  1.00  0.00    -0.507 OA
ATOM     25  H   UNL     1      11.347  33.285  -1.740  1.00  0.00     0.293 HD
ENDBRANCH   6  24
BRANCH   8  26
ATOM     26  O   UNL     1      10.516  34.088  -6.588  1.00  0.00    -0.508 OA
ATOM     27  H   UNL     1      10.173  35.013  -6.354  1.00  0.00     0.293 HD
ENDBRANCH   8  26
TORSDOF 6
ENDMDL
MODEL 6
REMARK VINA RESULT:    -4.805      1.661      6.839
REMARK INTER + INTRA:          -6.100
REMARK INTER:                  -5.789
REMARK INTRA:                  -0.311
REMARK UNBOUND:                -0.312
REMARK SMILES O=c1c(O)c(-c2ccc(O)c(O)c2)oc2cc(O)cc(O)c12
REMARK SMILES IDX 5 1 3 2 2 3 1 4 22 5 20 6 19 7 17 8 16 9 15 10 14 11 6 12
REMARK SMILES IDX 7 13 8 14 9 15 13 16 11 17 10 18 12 20 4 22 21 24 18 26
REMARK H PARENT 10 19 12 21 4 23 21 25 18 27
REMARK Flexibility Score: inf
ROOT
ATOM      1  C   UNL     1       1.870  26.300  -4.946  1.00  0.00     0.180 A 
ATOM      2  C   UNL     1       1.633  26.901  -6.193  1.00  0.00     0.208 A 
ATOM      3  C   UNL     1       2.724  27.380  -6.937  1.00  0.00     0.238 A 
ATOM      4  O   UNL     1       2.500  27.966  -8.028  1.00  0.00    -0.285 OA
ATOM      5  C   UNL     1       4.038  27.237  -6.431  1.00  0.00     0.111 A 
ATOM      6  C   UNL     1       5.220  27.649  -7.117  1.00  0.00     0.134 A 
ATOM      7  C   UNL     1       6.458  27.578  -6.466  1.00  0.00     0.093 A 
ATOM      8  C   UNL     1       6.563  27.049  -5.177  1.00  0.00     0.123 A 
ATOM      9  C   UNL     1       5.423  26.588  -4.523  1.00  0.00     0.094 A 
ATOM     10  C   UNL     1       4.170  26.679  -5.133  1.00  0.00     0.146 A 
ATOM     11  O   UNL     1       3.108  26.240  -4.468  1.00  0.00    -0.452 OA
ENDROOT
BRANCH   1  12
ATOM     12  C   UNL     1       0.774  25.749  -4.115  1.00  0.00     0.025 A 
ATOM     13  C   UNL     1       0.466  24.376  -4.128  1.00  0.00     0.016 A 
ATOM     14  C   UNL     1      -0.556  23.876  -3.318  1.00  0.00     0.051 A 
ATOM     15  C   UNL     1      -1.275  24.732  -2.475  1.00  0.00     0.157 A 
ATOM     16  C   UNL     1       0.064  26.599  -3.253  1.00  0.00     0.062 A 
ATOM     17  C   UNL     1      -0.960  26.101  -2.440  1.00  0.00     0.158 A 
BRANCH  15  18
ATOM     18  O   UNL     1      -2.296  24.229  -1.670  1.00  0.00    -0.504 OA
ATOM     19  H   UNL     1      -3.104  23.764  -2.067  1.00  0.00     0.293 HD
ENDBRANCH  15  18
BRANCH  17  20
ATOM     20  O   UNL     1      -1.652  26.979  -1.607  1.00  0.00    -0.504 OA
ATOM     21  H   UNL     1      -2.382  26.663  -0.981  1.00  0.00     0.293 HD
ENDBRANCH  17  20
ENDBRANCH   1  12
BRANCH   2  22
ATOM     22  O   UNL     1       0.326  27.052  -6.665  1.00  0.00    -0.502 OA
ATOM     23  H   UNL     1      -0.243  26.265  -6.953  1.00  0.00     0.293 HD
ENDBRANCH   2  22
BRANCH   6  24
ATOM     24  O   UNL     1       5.236  28.106  -8.438  1.00  0.00    -0.507 OA
ATOM     25  H   UNL     1       5.907  27.825  -9.136  1.00  0.00     0.293 HD
ENDBRANCH   6  24
BRANCH   8  26
ATOM     26  O   UNL     1       7.800  26.966  -4.542  1.00  0.00    -0.508 OA
ATOM     27  H   UNL     1       8.224  27.773  -4.098  1.00  0.00     0.293 HD
ENDBRANCH   8  26
TORSDOF 6
ENDMDL
MODEL 7
REMARK VINA RESULT:    -4.805      6.790     10.450
REMARK INTER + INTRA:          -6.099
REMARK INTER:                  -5.777
REMARK INTRA:                  -0.322
REMARK UNBOUND:                -0.312
REMARK SMILES O=c1c(O)c(-c2ccc(O)c(O)c2)oc2cc(O)cc(O)c12
REMARK SMILES IDX 5 1 3 2 2 3 1 4 22 5 20 6 19 7 17 8 16 9 15 10 14 11 6 12
REMARK SMILES IDX 7 13 8 14 9 15 13 16 11 17 10 18 12 20 4 22 21 24 18 26
REMARK H PARENT 10 19 12 21 4 23 21 25 18 27
REMARK Flexibility Score: inf
ROOT
ATOM      1  C   UNL     1       9.679  28.936  -4.738  1.00  0.00     0.180 A 
ATOM      2  C   UNL     1       9.536  30.275  -5.141  1.00  0.00     0.208 A 
ATOM      3  C   UNL     1      10.163  31.283  -4.390  1.00  0.00     0.238 A 
ATOM      4  O   UNL     1       9.987  32.483  -4.725  1.00  0.00    -0.285 OA
ATOM      5  C   UNL     1      10.936  30.938  -3.255  1.00  0.00     0.111 A 
ATOM      6  C   UNL     1      11.648  31.874  -2.445  1.00  0.00     0.134 A 
ATOM      7  C   UNL     1      12.273  31.436  -1.271  1.00  0.00     0.093 A 
ATOM      8  C   UNL     1      12.268  30.085  -0.914  1.00  0.00     0.123 A 
ATOM      9  C   UNL     1      11.627  29.156  -1.730  1.00  0.00     0.094 A 
ATOM     10  C   UNL     1      10.964  29.568  -2.889  1.00  0.00     0.146 A 
ATOM     11  O   UNL     1      10.356  28.651  -3.631  1.00  0.00    -0.452 OA
ENDROOT
BRANCH   1  12
ATOM     12  C   UNL     1       9.070  27.816  -5.492  1.00  0.00     0.025 A 
ATOM     13  C   UNL     1       9.698  27.271  -6.626  1.00  0.00     0.016 A 
ATOM     14  C   UNL     1       9.117  26.199  -7.307  1.00  0.00     0.051 A 
ATOM     15  C   UNL     1       7.909  25.648  -6.860  1.00  0.00     0.157 A 
ATOM     16  C   UNL     1       7.870  27.247  -5.036  1.00  0.00     0.062 A 
ATOM     17  C   UNL     1       7.285  26.173  -5.716  1.00  0.00     0.158 A 
BRANCH  15  18
ATOM     18  O   UNL     1       7.330  24.580  -7.544  1.00  0.00    -0.504 OA
ATOM     19  H   UNL     1       6.720  24.727  -8.340  1.00  0.00     0.293 HD
ENDBRANCH  15  18
BRANCH  17  20
ATOM     20  O   UNL     1       6.086  25.643  -5.241  1.00  0.00    -0.504 OA
ATOM     21  H   UNL     1       5.592  24.906  -5.731  1.00  0.00     0.293 HD
ENDBRANCH  17  20
ENDBRANCH   1  12
BRANCH   2  22
ATOM     22  O   UNL     1       8.751  30.595  -6.251  1.00  0.00    -0.502 OA
ATOM     23  H   UNL     1       7.983  31.254  -6.203  1.00  0.00     0.293 HD
ENDBRANCH   2  22
BRANCH   6  24
ATOM     24  O   UNL     1      11.792  33.228  -2.761  1.00  0.00    -0.507 OA
ATOM     25  H   UNL     1      12.059  33.582  -3.667  1.00  0.00     0.293 HD
ENDBRANCH   6  24
BRANCH   8  26
ATOM     26  O   UNL     1      12.906  29.655   0.247  1.00  0.00    -0.508 OA
ATOM     27  H   UNL     1      13.770  29.125   0.212  1.00  0.00     0.293 HD
ENDBRANCH   8  26
TORSDOF 6
ENDMDL
MODEL 8
REMARK VINA RESULT:    -4.751     10.529     12.130
REMARK INTER + INTRA:          -6.034
REMARK INTER:                  -5.714
REMARK INTRA:                  -0.321
REMARK UNBOUND:                -0.312
REMARK SMILES O=c1c(O)c(-c2ccc(O)c(O)c2)oc2cc(O)cc(O)c12
REMARK SMILES IDX 5 1 3 2 2 3 1 4 22 5 20 6 19 7 17 8 16 9 15 10 14 11 6 12
REMARK SMILES IDX 7 13 8 14 9 15 13 16 11 17 10 18 12 20 4 22 21 24 18 26
REMARK H PARENT 10 19 12 21 4 23 21 25 18 27
REMARK Flexibility Score: inf
ROOT
ATOM      1  C   UNL     1       0.998  32.214   5.357  1.00  0.00     0.180 A 
ATOM      2  C   UNL     1       0.297  31.040   5.034  1.00  0.00     0.208 A 
ATOM      3  C   UNL     1      -0.720  31.099   4.067  1.00  0.00     0.238 A 
ATOM      4  O   UNL     1      -1.381  30.056   3.821  1.00  0.00    -0.285 OA
ATOM      5  C   UNL     1      -1.013  32.326   3.426  1.00  0.00     0.111 A 
ATOM      6  C   UNL     1      -1.996  32.493   2.404  1.00  0.00     0.134 A 
ATOM      7  C   UNL     1      -2.292  33.778   1.933  1.00  0.00     0.093 A 
ATOM      8  C   UNL     1      -1.594  34.895   2.401  1.00  0.00     0.123 A 
ATOM      9  C   UNL     1      -0.592  34.734   3.355  1.00  0.00     0.094 A 
ATOM     10  C   UNL     1      -0.299  33.469   3.870  1.00  0.00     0.146 A 
ATOM     11  O   UNL     1       0.655  33.364   4.787  1.00  0.00    -0.452 OA
ENDROOT
BRANCH   1  12
ATOM     12  C   UNL     1       2.099  32.228   6.347  1.00  0.00     0.025 A 
ATOM     13  C   UNL     1       1.859  32.505   7.705  1.00  0.00     0.016 A 
ATOM     14  C   UNL     1       2.910  32.489   8.625  1.00  0.00     0.051 A 
ATOM     15  C   UNL     1       4.211  32.183   8.207  1.00  0.00     0.157 A 
ATOM     16  C   UNL     1       3.402  31.901   5.938  1.00  0.00     0.062 A 
ATOM     17  C   UNL     1       4.457  31.884   6.857  1.00  0.00     0.158 A 
BRANCH  15  18
ATOM     18  O   UNL     1       5.258  32.170   9.128  1.00  0.00    -0.504 OA
ATOM     19  H   UNL     1       5.534  33.006   9.630  1.00  0.00     0.293 HD
ENDBRANCH  15  18
BRANCH  17  20
ATOM     20  O   UNL     1       5.739  31.567   6.410  1.00  0.00    -0.504 OA
ATOM     21  H   UNL     1       6.412  31.091   6.999  1.00  0.00     0.293 HD
ENDBRANCH  17  20
ENDBRANCH   1  12
BRANCH   2  22
ATOM     22  O   UNL     1       0.587  29.843   5.694  1.00  0.00    -0.502 OA
ATOM     23  H   UNL     1       1.528  29.586   5.967  1.00  0.00     0.293 HD
ENDBRANCH   2  22
BRANCH   6  24
ATOM     24  O   UNL     1      -2.683  31.434   1.803  1.00  0.00    -0.507 OA
ATOM     25  H   UNL     1      -3.649  31.467   1.514  1.00  0.00     0.293 HD
ENDBRANCH   6  24
BRANCH   8  26
ATOM     26  O   UNL     1      -1.884  36.168   1.915  1.00  0.00    -0.508 OA
ATOM     27  H   UNL     1      -1.440  36.995   2.298  1.00  0.00     0.293 HD
ENDBRANCH   8  26
TORSDOF 6
ENDMDL
MODEL 9
REMARK VINA RESULT:    -4.655     13.311     15.294
REMARK INTER + INTRA:          -5.919
REMARK INTER:                  -5.600
REMARK INTRA:                  -0.319
REMARK UNBOUND:                -0.312
REMARK SMILES O=c1c(O)c(-c2ccc(O)c(O)c2)oc2cc(O)cc(O)c12
REMARK SMILES IDX 5 1 3 2 2 3 1 4 22 5 20 6 19 7 17 8 16 9 15 10 14 11 6 12
REMARK SMILES IDX 7 13 8 14 9 15 13 16 11 17 10 18 12 20 4 22 21 24 18 26
REMARK H PARENT 10 19 12 21 4 23 21 25 18 27
REMARK Flexibility Score: inf
ROOT
ATOM      1  C   UNL     1       9.410  29.791   7.071  1.00  0.00     0.180 A 
ATOM      2  C   UNL     1       9.148  28.934   8.152  1.00  0.00     0.208 A 
ATOM      3  C   UNL     1       9.542  27.588   8.066  1.00  0.00     0.238 A 
ATOM      4  O   UNL     1       9.256  26.813   9.016  1.00  0.00    -0.285 OA
ATOM      5  C   UNL     1      10.206  27.121   6.907  1.00  0.00     0.111 A 
ATOM      6  C   UNL     1      10.686  25.788   6.728  1.00  0.00     0.134 A 
ATOM      7  C   UNL     1      11.211  25.404   5.489  1.00  0.00     0.093 A 
ATOM      8  C   UNL     1      11.335  26.322   4.443  1.00  0.00     0.123 A 
ATOM      9  C   UNL     1      10.925  27.640   4.627  1.00  0.00     0.094 A 
ATOM     10  C   UNL     1      10.364  28.045   5.841  1.00  0.00     0.146 A 
ATOM     11  O   UNL     1       9.976  29.308   5.970  1.00  0.00    -0.452 OA
ENDROOT
BRANCH   1  12
ATOM     12  C   UNL     1       9.048  31.226   7.096  1.00  0.00     0.025 A 
ATOM     13  C   UNL     1       9.982  32.210   7.470  1.00  0.00     0.016 A 
ATOM     14  C   UNL     1       9.625  33.560   7.464  1.00  0.00     0.051 A 
ATOM     15  C   UNL     1       8.338  33.950   7.073  1.00  0.00     0.157 A 
ATOM     16  C   UNL     1       7.766  31.625   6.686  1.00  0.00     0.062 A 
ATOM     17  C   UNL     1       7.405  32.977   6.678  1.00  0.00     0.158 A 
BRANCH  15  18
ATOM     18  O   UNL     1       7.984  35.299   7.071  1.00  0.00    -0.504 OA
ATOM     19  H   UNL     1       8.657  36.023   6.846  1.00  0.00     0.293 HD
ENDBRANCH  15  18
BRANCH  17  20
ATOM     20  O   UNL     1       6.118  33.332   6.276  1.00  0.00    -0.504 OA
ATOM     21  H   UNL     1       5.712  32.994   5.412  1.00  0.00     0.293 HD
ENDBRANCH  17  20
ENDBRANCH   1  12
BRANCH   2  22
ATOM     22  O   UNL     1       8.472  29.409   9.279  1.00  0.00    -0.502 OA
ATOM     23  H   UNL     1       8.867  29.362  10.211  1.00  0.00     0.293 HD
ENDBRANCH   2  22
BRANCH   6  24
ATOM     24  O   UNL     1      10.693  24.821   7.737  1.00  0.00    -0.507 OA
ATOM     25  H   UNL     1      10.509  23.840   7.593  1.00  0.00     0.293 HD
ENDBRANCH   6  24
BRANCH   8  26
ATOM     26  O   UNL     1      11.874  25.935   3.218  1.00  0.00    -0.508 OA
ATOM     27  H   UNL     1      12.602  26.475   2.764  1.00  0.00     0.293 HD
ENDBRANCH   8  26
TORSDOF 6
ENDMDL
