MODEL 1
REMARK VINA RESULT:    -3.629      0.000      0.000
REMARK INTER + INTRA:          -5.788
REMARK INTER:                  -5.538
REMARK INTRA:                  -0.250
REMARK UNBOUND:                -0.250
REMARK SMILES CC1=CCC[C@@H](C)C(=O)C[C@H](C(C)C)C(=O)C1
REMARK SMILES IDX 8 1 9 2 6 3 7 4 5 5 4 6 3 7 2 8 1 9 10 11 11 12 15 13 16 14
REMARK SMILES IDX 17 15 12 17 13 18 14 19
REMARK H PARENT
REMARK Flexibility Score: 70.00
ROOT
ATOM      1  C   UNL     1      -6.527   3.602  15.697  1.00  0.00     0.136 C 
ATOM      2  O   UNL     1      -7.653   3.157  15.518  1.00  0.00    -0.299 OA
ENDROOT
BRANCH   1   3
ATOM      3  C   UNL     1      -6.335   5.097  15.868  1.00  0.00     0.053 C 
ATOM      4  C   UNL     1      -7.229   5.626  16.999  1.00  0.00     0.016 C 
BRANCH   3   5
ATOM      5  C   UNL     1      -6.626   5.836  14.542  1.00  0.00     0.015 C 
BRANCH   5   6
ATOM      6  C   UNL     1      -5.327   6.190  13.792  1.00  0.00     0.028 C 
BRANCH   6   7
ATOM      7  C   UNL     1      -4.242   6.719  14.696  1.00  0.00    -0.028 C 
ATOM      8  C   UNL     1      -3.092   6.068  15.006  1.00  0.00    -0.070 CG0
ATOM      9  C   UNL     1      -2.139   6.700  15.990  1.00  0.00     0.039 C 
ATOM     10  G   UNL     1      -2.640   4.782  14.330  1.00  0.00     0.000 G0
ENDBRANCH   6   7
ENDBRANCH   5   6
ENDBRANCH   3   5
ENDBRANCH   1   3
BRANCH   1  11
ATOM     11  C   UNL     1      -5.360   2.642  15.751  1.00  0.00     0.087 C 
BRANCH  11  12
ATOM     12  C   UNL     1      -4.388   2.838  14.560  1.00  0.00     0.066 C 
BRANCH  12  13
ATOM     13  C   UNL     1      -3.098   3.507  15.009  1.00  0.00     0.140 C 
ATOM     14  O   UNL     1      -2.420   3.015  15.901  1.00  0.00    -0.299 OA
BRANCH  13  15
ATOM     15  C   UNL     1      -2.633   4.771  14.329  1.00  0.00     0.106 CG0
ATOM     16  G   UNL     1      -3.081   6.049  15.023  1.00  0.00     0.000 G0
ENDBRANCH  13  15
ENDBRANCH  12  13
BRANCH  12  17
ATOM     17  C   UNL     1      -4.177   1.526  13.740  1.00  0.00    -0.006 C 
ATOM     18  C   UNL     1      -5.483   1.053  13.082  1.00  0.00     0.008 C 
ATOM     19  C   UNL     1      -3.045   1.595  12.699  1.00  0.00     0.008 C 
ENDBRANCH  12  17
ENDBRANCH  11  12
ENDBRANCH   1  11
TORSDOF 1
ENDMDL
MODEL 2
REMARK VINA RESULT:    -3.593      1.558      1.889
REMARK INTER + INTRA:          -5.733
REMARK INTER:                  -5.334
REMARK INTRA:                  -0.400
REMARK UNBOUND:                -0.250
REMARK SMILES CC1=CCC[C@@H](C)C(=O)C[C@H](C(C)C)C(=O)C1
REMARK SMILES IDX 8 1 9 2 6 3 7 4 5 5 4 6 3 7 2 8 1 9 10 11 11 12 15 13 16 14
REMARK SMILES IDX 17 15 12 17 13 18 14 19
REMARK H PARENT
REMARK Flexibility Score: 70.00
ROOT
ATOM      1  C   UNL     1      -6.010   3.472  16.099  1.00  0.00     0.136 C 
ATOM      2  O   UNL     1      -6.416   2.415  16.563  1.00  0.00    -0.299 OA
ENDROOT
BRANCH   1   3
ATOM      3  C   UNL     1      -6.973   4.633  15.936  1.00  0.00     0.053 C 
ATOM      4  C   UNL     1      -7.807   4.463  14.658  1.00  0.00     0.016 C 
BRANCH   3   5
ATOM      5  C   UNL     1      -6.207   5.976  15.921  1.00  0.00     0.015 C 
BRANCH   5   6
ATOM      6  C   UNL     1      -6.309   6.673  14.551  1.00  0.00     0.028 C 
BRANCH   6   7
ATOM      7  C   UNL     1      -5.107   7.524  14.224  1.00  0.00    -0.028 C 
ATOM      8  C   UNL     1      -4.007   7.102  13.550  1.00  0.00    -0.070 CG0
ATOM      9  C   UNL     1      -2.852   8.056  13.371  1.00  0.00     0.039 C 
ATOM     10  G   UNL     1      -3.907   5.752  12.855  1.00  0.00     0.000 G0
ENDBRANCH   6   7
ENDBRANCH   5   6
ENDBRANCH   3   5
ENDBRANCH   1   3
BRANCH   1  11
ATOM     11  C   UNL     1      -4.554   3.589  15.709  1.00  0.00     0.087 C 
BRANCH  11  12
ATOM     12  C   UNL     1      -4.355   3.532  14.173  1.00  0.00     0.066 C 
BRANCH  12  13
ATOM     13  C   UNL     1      -3.388   4.609  13.705  1.00  0.00     0.140 C 
ATOM     14  O   UNL     1      -2.203   4.552  14.000  1.00  0.00    -0.299 OA
BRANCH  13  15
ATOM     15  C   UNL     1      -3.889   5.742  12.842  1.00  0.00     0.106 CG0
ATOM     16  G   UNL     1      -4.005   7.072  13.571  1.00  0.00     0.000 G0
ENDBRANCH  13  15
ENDBRANCH  12  13
BRANCH  12  17
ATOM     17  C   UNL     1      -4.006   2.096  13.670  1.00  0.00    -0.006 C 
ATOM     18  C   UNL     1      -3.265   1.284  14.745  1.00  0.00     0.008 C 
ATOM     19  C   UNL     1      -5.204   1.298  13.125  1.00  0.00     0.008 C 
ENDBRANCH  12  17
ENDBRANCH  11  12
ENDBRANCH   1  11
TORSDOF 1
ENDMDL
MODEL 3
REMARK VINA RESULT:    -3.567      1.917      2.459
REMARK INTER + INTRA:          -5.694
REMARK INTER:                  -5.397
REMARK INTRA:                  -0.297
REMARK UNBOUND:                -0.250
REMARK SMILES CC1=CCC[C@@H](C)C(=O)C[C@H](C(C)C)C(=O)C1
REMARK SMILES IDX 8 1 9 2 6 3 7 4 5 5 4 6 3 7 2 8 1 9 10 11 11 12 15 13 16 14
REMARK SMILES IDX 17 15 12 17 13 18 14 19
REMARK H PARENT
REMARK Flexibility Score: 70.00
ROOT
ATOM      1  C   UNL     1      -5.532   2.954  14.158  1.00  0.00     0.136 C 
ATOM      2  O   UNL     1      -6.206   2.112  13.579  1.00  0.00    -0.299 OA
ENDROOT
BRANCH   1   3
ATOM      3  C   UNL     1      -6.160   3.776  15.268  1.00  0.00     0.053 C 
ATOM      4  C   UNL     1      -6.639   2.864  16.406  1.00  0.00     0.016 C 
BRANCH   3   5
ATOM      5  C   UNL     1      -7.325   4.631  14.717  1.00  0.00     0.015 C 
BRANCH   5   6
ATOM      6  C   UNL     1      -6.820   5.951  14.104  1.00  0.00     0.028 C 
BRANCH   6   7
ATOM      7  C   UNL     1      -5.766   6.633  14.940  1.00  0.00    -0.028 C 
ATOM      8  C   UNL     1      -4.493   6.887  14.545  1.00  0.00    -0.070 CG0
ATOM      9  C   UNL     1      -3.534   7.508  15.529  1.00  0.00     0.039 C 
ATOM     10  G   UNL     1      -3.996   6.691  13.120  1.00  0.00     0.000 G0
ENDBRANCH   6   7
ENDBRANCH   5   6
ENDBRANCH   3   5
ENDBRANCH   1   3
BRANCH   1  11
ATOM     11  C   UNL     1      -4.088   3.142  13.751  1.00  0.00     0.087 C 
BRANCH  11  12
ATOM     12  C   UNL     1      -3.941   4.109  12.549  1.00  0.00     0.066 C 
BRANCH  12  13
ATOM     13  C   UNL     1      -3.210   5.381  12.953  1.00  0.00     0.140 C 
ATOM     14  O   UNL     1      -1.998   5.377  13.111  1.00  0.00    -0.299 OA
BRANCH  13  15
ATOM     15  C   UNL     1      -3.983   6.665  13.131  1.00  0.00     0.106 CG0
ATOM     16  G   UNL     1      -4.485   6.894  14.549  1.00  0.00     0.000 G0
ENDBRANCH  13  15
ENDBRANCH  12  13
BRANCH  12  17
ATOM     17  C   UNL     1      -3.351   3.406  11.286  1.00  0.00    -0.006 C 
ATOM     18  C   UNL     1      -3.632   1.895  11.297  1.00  0.00     0.008 C 
ATOM     19  C   UNL     1      -3.787   4.024   9.945  1.00  0.00     0.008 C 
ENDBRANCH  12  17
ENDBRANCH  11  12
ENDBRANCH   1  11
TORSDOF 1
ENDMDL
MODEL 4
REMARK VINA RESULT:    -3.536      6.052      7.659
REMARK INTER + INTRA:          -5.646
REMARK INTER:                  -5.422
REMARK INTRA:                  -0.224
REMARK UNBOUND:                -0.250
REMARK SMILES CC1=CCC[C@@H](C)C(=O)C[C@H](C(C)C)C(=O)C1
REMARK SMILES IDX 8 1 9 2 6 3 7 4 5 5 4 6 3 7 2 8 1 9 10 11 11 12 15 13 16 14
REMARK SMILES IDX 17 15 12 17 13 18 14 19
REMARK H PARENT
REMARK Flexibility Score: 70.00
ROOT
ATOM      1  C   UNL     1      -3.530  -0.363  10.289  1.00  0.00     0.136 C 
ATOM      2  O   UNL     1      -4.369  -0.571   9.423  1.00  0.00    -0.299 OA
ENDROOT
BRANCH   1   3
ATOM      3  C   UNL     1      -2.818   0.977  10.330  1.00  0.00     0.053 C 
ATOM      4  C   UNL     1      -3.832   2.117  10.503  1.00  0.00     0.016 C 
BRANCH   3   5
ATOM      5  C   UNL     1      -1.971   1.180   9.052  1.00  0.00     0.015 C 
BRANCH   5   6
ATOM      6  C   UNL     1      -0.570   0.554   9.194  1.00  0.00     0.028 C 
BRANCH   6   7
ATOM      7  C   UNL     1      -0.048   0.575  10.609  1.00  0.00    -0.028 C 
ATOM      8  C   UNL     1       0.172  -0.520  11.380  1.00  0.00    -0.070 CG0
ATOM      9  C   UNL     1       0.623  -0.327  12.807  1.00  0.00     0.039 C 
ATOM     10  G   UNL     1       0.105  -1.948  10.860  1.00  0.00     0.000 G0
ENDBRANCH   6   7
ENDBRANCH   5   6
ENDBRANCH   3   5
ENDBRANCH   1   3
BRANCH   1  11
ATOM     11  C   UNL     1      -3.235  -1.448  11.300  1.00  0.00     0.087 C 
BRANCH  11  12
ATOM     12  C   UNL     1      -2.423  -2.615  10.682  1.00  0.00     0.066 C 
BRANCH  12  13
ATOM     13  C   UNL     1      -1.066  -2.756  11.354  1.00  0.00     0.140 C 
ATOM     14  O   UNL     1      -0.911  -3.533  12.286  1.00  0.00    -0.299 OA
BRANCH  13  15
ATOM     15  C   UNL     1       0.108  -1.953  10.848  1.00  0.00     0.106 CG0
ATOM     16  G   UNL     1       0.174  -0.537  11.400  1.00  0.00     0.000 G0
ENDBRANCH  13  15
ENDBRANCH  12  13
BRANCH  12  17
ATOM     17  C   UNL     1      -3.244  -3.941  10.613  1.00  0.00    -0.006 C 
ATOM     18  C   UNL     1      -4.266  -4.035  11.758  1.00  0.00     0.008 C 
ATOM     19  C   UNL     1      -3.929  -4.203   9.260  1.00  0.00     0.008 C 
ENDBRANCH  12  17
ENDBRANCH  11  12
ENDBRANCH   1  11
TORSDOF 1
ENDMDL
MODEL 5
REMARK VINA RESULT:    -3.488      1.812      4.227
REMARK INTER + INTRA:          -5.573
REMARK INTER:                  -5.216
REMARK INTRA:                  -0.358
REMARK UNBOUND:                -0.250
REMARK SMILES CC1=CCC[C@@H](C)C(=O)C[C@H](C(C)C)C(=O)C1
REMARK SMILES IDX 8 1 9 2 6 3 7 4 5 5 4 6 3 7 2 8 1 9 10 11 11 12 15 13 16 14
REMARK SMILES IDX 17 15 12 17 13 18 14 19
REMARK H PARENT
REMARK Flexibility Score: 70.00
ROOT
ATOM      1  C   UNL     1      -6.812   5.378  15.274  1.00  0.00     0.136 C 
ATOM      2  O   UNL     1      -7.007   5.938  16.346  1.00  0.00    -0.299 OA
ENDROOT
BRANCH   1   3
ATOM      3  C   UNL     1      -7.352   3.977  15.056  1.00  0.00     0.053 C 
ATOM      4  C   UNL     1      -8.883   3.968  15.180  1.00  0.00     0.016 C 
BRANCH   3   5
ATOM      5  C   UNL     1      -6.711   2.987  16.055  1.00  0.00     0.015 C 
BRANCH   5   6
ATOM      6  C   UNL     1      -5.198   2.833  15.810  1.00  0.00     0.028 C 
BRANCH   6   7
ATOM      7  C   UNL     1      -4.869   2.234  14.465  1.00  0.00    -0.028 C 
ATOM      8  C   UNL     1      -4.034   2.781  13.546  1.00  0.00    -0.070 CG0
ATOM      9  C   UNL     1      -3.870   2.096  12.212  1.00  0.00     0.039 C 
ATOM     10  G   UNL     1      -3.152   3.990  13.819  1.00  0.00     0.000 G0
ENDBRANCH   6   7
ENDBRANCH   5   6
ENDBRANCH   3   5
ENDBRANCH   1   3
BRANCH   1  11
ATOM     11  C   UNL     1      -6.043   6.108  14.196  1.00  0.00     0.087 C 
BRANCH  11  12
ATOM     12  C   UNL     1      -4.517   6.116  14.472  1.00  0.00     0.066 C 
BRANCH  12  13
ATOM     13  C   UNL     1      -3.766   5.314  13.420  1.00  0.00     0.140 C 
ATOM     14  O   UNL     1      -3.641   5.743  12.282  1.00  0.00    -0.299 OA
BRANCH  13  15
ATOM     15  C   UNL     1      -3.141   3.991  13.792  1.00  0.00     0.106 CG0
ATOM     16  G   UNL     1      -4.044   2.790  13.551  1.00  0.00     0.000 G0
ENDBRANCH  13  15
ENDBRANCH  12  13
BRANCH  12  17
ATOM     17  C   UNL     1      -3.960   7.557  14.697  1.00  0.00    -0.006 C 
ATOM     18  C   UNL     1      -5.006   8.629  14.353  1.00  0.00     0.008 C 
ATOM     19  C   UNL     1      -3.375   7.807  16.099  1.00  0.00     0.008 C 
ENDBRANCH  12  17
ENDBRANCH  11  12
ENDBRANCH   1  11
TORSDOF 1
ENDMDL
MODEL 6
REMARK VINA RESULT:    -3.468      3.127      4.982
REMARK INTER + INTRA:          -5.543
REMARK INTER:                  -5.248
REMARK INTRA:                  -0.295
REMARK UNBOUND:                -0.250
REMARK SMILES CC1=CCC[C@@H](C)C(=O)C[C@H](C(C)C)C(=O)C1
REMARK SMILES IDX 8 1 9 2 6 3 7 4 5 5 4 6 3 7 2 8 1 9 10 11 11 12 15 13 16 14
REMARK SMILES IDX 17 15 12 17 13 18 14 19
REMARK H PARENT
REMARK Flexibility Score: 70.00
ROOT
ATOM      1  C   UNL     1      -2.954   2.898   9.929  1.00  0.00     0.136 C 
ATOM      2  O   UNL     1      -1.955   2.546   9.315  1.00  0.00    -0.299 OA
ENDROOT
BRANCH   1   3
ATOM      3  C   UNL     1      -3.109   4.354  10.328  1.00  0.00     0.053 C 
ATOM      4  C   UNL     1      -3.324   5.230   9.085  1.00  0.00     0.016 C 
BRANCH   3   5
ATOM      5  C   UNL     1      -1.877   4.829  11.132  1.00  0.00     0.015 C 
BRANCH   5   6
ATOM      6  C   UNL     1      -1.921   4.326  12.588  1.00  0.00     0.028 C 
BRANCH   6   7
ATOM      7  C   UNL     1      -3.241   4.589  13.270  1.00  0.00    -0.028 C 
ATOM      8  C   UNL     1      -4.092   3.635  13.726  1.00  0.00    -0.070 CG0
ATOM      9  C   UNL     1      -5.413   4.060  14.317  1.00  0.00     0.039 C 
ATOM     10  G   UNL     1      -3.748   2.155  13.788  1.00  0.00     0.000 G0
ENDBRANCH   6   7
ENDBRANCH   5   6
ENDBRANCH   3   5
ENDBRANCH   1   3
BRANCH   1  11
ATOM     11  C   UNL     1      -4.009   1.868  10.264  1.00  0.00     0.087 C 
BRANCH  11  12
ATOM     12  C   UNL     1      -3.599   0.983  11.468  1.00  0.00     0.066 C 
BRANCH  12  13
ATOM     13  C   UNL     1      -4.402   1.340  12.710  1.00  0.00     0.140 C 
ATOM     14  O   UNL     1      -5.551   0.944  12.842  1.00  0.00    -0.299 OA
BRANCH  13  15
ATOM     15  C   UNL     1      -3.765   2.165  13.802  1.00  0.00     0.106 CG0
ATOM     16  G   UNL     1      -4.070   3.653  13.713  1.00  0.00     0.000 G0
ENDBRANCH  13  15
ENDBRANCH  12  13
BRANCH  12  17
ATOM     17  C   UNL     1      -3.603  -0.539  11.119  1.00  0.00    -0.006 C 
ATOM     18  C   UNL     1      -3.963  -0.781   9.645  1.00  0.00     0.008 C 
ATOM     19  C   UNL     1      -2.306  -1.284  11.484  1.00  0.00     0.008 C 
ENDBRANCH  12  17
ENDBRANCH  11  12
ENDBRANCH   1  11
TORSDOF 1
ENDMDL
MODEL 7
REMARK VINA RESULT:    -3.449      2.577      5.629
REMARK INTER + INTRA:          -5.513
REMARK INTER:                  -5.264
REMARK INTRA:                  -0.249
REMARK UNBOUND:                -0.250
REMARK SMILES CC1=CCC[C@@H](C)C(=O)C[C@H](C(C)C)C(=O)C1
REMARK SMILES IDX 8 1 9 2 6 3 7 4 5 5 4 6 3 7 2 8 1 9 10 11 11 12 15 13 16 14
REMARK SMILES IDX 17 15 12 17 13 18 14 19
REMARK H PARENT
REMARK Flexibility Score: 70.00
ROOT
ATOM      1  C   UNL     1      -2.368   2.243  15.376  1.00  0.00     0.136 C 
ATOM      2  O   UNL     1      -1.983   3.389  15.566  1.00  0.00    -0.299 OA
ENDROOT
BRANCH   1   3
ATOM      3  C   UNL     1      -1.359   1.110  15.367  1.00  0.00     0.053 C 
ATOM      4  C   UNL     1      -0.630   1.032  16.716  1.00  0.00     0.016 C 
BRANCH   3   5
ATOM      5  C   UNL     1      -0.354   1.287  14.206  1.00  0.00     0.015 C 
BRANCH   5   6
ATOM      6  C   UNL     1      -1.071   1.581  12.874  1.00  0.00     0.028 C 
BRANCH   6   7
ATOM      7  C   UNL     1      -1.658   0.350  12.229  1.00  0.00    -0.028 C 
ATOM      8  C   UNL     1      -2.927   0.238  11.761  1.00  0.00    -0.070 CG0
ATOM      9  C   UNL     1      -3.387  -1.089  11.212  1.00  0.00     0.039 C 
ATOM     10  G   UNL     1      -3.892   1.409  11.646  1.00  0.00     0.000 G0
ENDBRANCH   6   7
ENDBRANCH   5   6
ENDBRANCH   3   5
ENDBRANCH   1   3
BRANCH   1  11
ATOM     11  C   UNL     1      -3.844   1.992  15.163  1.00  0.00     0.087 C 
BRANCH  11  12
ATOM     12  C   UNL     1      -4.373   2.678  13.878  1.00  0.00     0.066 C 
BRANCH  12  13
ATOM     13  C   UNL     1      -4.777   1.648  12.833  1.00  0.00     0.140 C 
ATOM     14  O   UNL     1      -5.819   1.020  12.950  1.00  0.00    -0.299 OA
BRANCH  13  15
ATOM     15  C   UNL     1      -3.900   1.421  11.626  1.00  0.00     0.106 CG0
ATOM     16  G   UNL     1      -2.932   0.257  11.774  1.00  0.00     0.000 G0
ENDBRANCH  13  15
ENDBRANCH  12  13
BRANCH  12  17
ATOM     17  C   UNL     1      -5.469   3.747  14.181  1.00  0.00    -0.006 C 
ATOM     18  C   UNL     1      -6.000   3.622  15.618  1.00  0.00     0.008 C 
ATOM     19  C   UNL     1      -5.049   5.198  13.887  1.00  0.00     0.008 C 
ENDBRANCH  12  17
ENDBRANCH  11  12
ENDBRANCH   1  11
TORSDOF 1
ENDMDL
MODEL 8
REMARK VINA RESULT:    -3.420      5.113      8.124
REMARK INTER + INTRA:          -5.470
REMARK INTER:                  -5.384
REMARK INTRA:                  -0.086
REMARK UNBOUND:                -0.250
REMARK SMILES CC1=CCC[C@@H](C)C(=O)C[C@H](C(C)C)C(=O)C1
REMARK SMILES IDX 8 1 9 2 6 3 7 4 5 5 4 6 3 7 2 8 1 9 10 11 11 12 15 13 16 14
REMARK SMILES IDX 17 15 12 17 13 18 14 19
REMARK H PARENT
REMARK Flexibility Score: 70.00
ROOT
ATOM      1  C   UNL     1      -3.236  -2.033  10.710  1.00  0.00     0.136 C 
ATOM      2  O   UNL     1      -2.619  -2.450  11.682  1.00  0.00    -0.299 OA
ENDROOT
BRANCH   1   3
ATOM      3  C   UNL     1      -3.578  -2.986   9.580  1.00  0.00     0.053 C 
ATOM      4  C   UNL     1      -4.212  -4.270  10.135  1.00  0.00     0.016 C 
BRANCH   3   5
ATOM      5  C   UNL     1      -2.320  -3.310   8.743  1.00  0.00     0.015 C 
BRANCH   5   6
ATOM      6  C   UNL     1      -1.897  -2.114   7.867  1.00  0.00     0.028 C 
BRANCH   6   7
ATOM      7  C   UNL     1      -0.599  -1.483   8.307  1.00  0.00    -0.028 C 
ATOM      8  C   UNL     1      -0.460  -0.214   8.767  1.00  0.00    -0.070 CG0
ATOM      9  C   UNL     1       0.922   0.296   9.093  1.00  0.00     0.039 C 
ATOM     10  G   UNL     1      -1.632   0.702   9.089  1.00  0.00     0.000 G0
ENDBRANCH   6   7
ENDBRANCH   5   6
ENDBRANCH   3   5
ENDBRANCH   1   3
BRANCH   1  11
ATOM     11  C   UNL     1      -3.644  -0.578  10.671  1.00  0.00     0.087 C 
BRANCH  11  12
ATOM     12  C   UNL     1      -2.668   0.324  11.468  1.00  0.00     0.066 C 
BRANCH  12  13
ATOM     13  C   UNL     1      -1.764   1.114  10.534  1.00  0.00     0.140 C 
ATOM     14  O   UNL     1      -1.114   2.061  10.952  1.00  0.00    -0.299 OA
BRANCH  13  15
ATOM     15  C   UNL     1      -1.645   0.708   9.085  1.00  0.00     0.106 CG0
ATOM     16  G   UNL     1      -0.464  -0.206   8.794  1.00  0.00     0.000 G0
ENDBRANCH  13  15
ENDBRANCH  12  13
BRANCH  12  17
ATOM     17  C   UNL     1      -3.399   1.193  12.540  1.00  0.00    -0.006 C 
ATOM     18  C   UNL     1      -4.879   0.802  12.672  1.00  0.00     0.008 C 
ATOM     19  C   UNL     1      -2.722   1.210  13.922  1.00  0.00     0.008 C 
ENDBRANCH  12  17
ENDBRANCH  11  12
ENDBRANCH   1  11
TORSDOF 1
ENDMDL
MODEL 9
REMARK VINA RESULT:    -3.302      5.398      8.204
REMARK INTER + INTRA:          -5.289
REMARK INTER:                  -5.236
REMARK INTRA:                  -0.053
REMARK UNBOUND:                -0.250
REMARK SMILES CC1=CCC[C@@H](C)C(=O)C[C@H](C(C)C)C(=O)C1
REMARK SMILES IDX 8 1 9 2 6 3 7 4 5 5 4 6 3 7 2 8 1 9 10 11 11 12 15 13 16 14
REMARK SMILES IDX 17 15 12 17 13 18 14 19
REMARK H PARENT
REMARK Flexibility Score: 70.00
ROOT
ATOM      1  C   UNL     1      -3.428  -1.469   9.324  1.00  0.00     0.136 C 
ATOM      2  O   UNL     1      -4.515  -1.715   8.817  1.00  0.00    -0.299 OA
ENDROOT
BRANCH   1   3
ATOM      3  C   UNL     1      -2.519  -2.615   9.729  1.00  0.00     0.053 C 
ATOM      4  C   UNL     1      -2.573  -3.737   8.683  1.00  0.00     0.016 C 
BRANCH   3   5
ATOM      5  C   UNL     1      -2.905  -3.145  11.128  1.00  0.00     0.015 C 
BRANCH   5   6
ATOM      6  C   UNL     1      -1.717  -3.081  12.108  1.00  0.00     0.028 C 
BRANCH   6   7
ATOM      7  C   UNL     1      -0.394  -2.841  11.425  1.00  0.00    -0.028 C 
ATOM      8  C   UNL     1       0.211  -1.634  11.289  1.00  0.00    -0.070 CG0
ATOM      9  C   UNL     1       1.499  -1.548  10.509  1.00  0.00     0.039 C 
ATOM     10  G   UNL     1      -0.269  -0.365  11.978  1.00  0.00     0.000 G0
ENDBRANCH   6   7
ENDBRANCH   5   6
ENDBRANCH   3   5
ENDBRANCH   1   3
BRANCH   1  11
ATOM     11  C   UNL     1      -3.023  -0.026   9.523  1.00  0.00     0.087 C 
BRANCH  11  12
ATOM     12  C   UNL     1      -2.614   0.267  10.989  1.00  0.00     0.066 C 
BRANCH  12  13
ATOM     13  C   UNL     1      -1.119   0.529  11.100  1.00  0.00     0.140 C 
ATOM     14  O   UNL     1      -0.606   1.466  10.504  1.00  0.00    -0.299 OA
BRANCH  13  15
ATOM     15  C   UNL     1      -0.267  -0.355  11.976  1.00  0.00     0.106 CG0
ATOM     16  G   UNL     1       0.210  -1.629  11.294  1.00  0.00     0.000 G0
ENDBRANCH  13  15
ENDBRANCH  12  13
BRANCH  12  17
ATOM     17  C   UNL     1      -3.506   1.365  11.649  1.00  0.00    -0.006 C 
ATOM     18  C   UNL     1      -3.998   2.392  10.616  1.00  0.00     0.008 C 
ATOM     19  C   UNL     1      -4.690   0.822  12.470  1.00  0.00     0.008 C 
ENDBRANCH  12  17
ENDBRANCH  11  12
ENDBRANCH   1  11
TORSDOF 1
ENDMDL
