MODEL 1
REMARK VINA RESULT:    -5.327      0.000      0.000
REMARK INTER + INTRA:          -5.327
REMARK INTER:                  -5.327
REMARK INTRA:                   0.000
REMARK UNBOUND:                 0.000
REMARK SMILES CC1=CC[C@@H]2[C@H](C1)C2(C)C
REMARK SMILES IDX 1 1 2 2 3 3 4 4 5 5 6 6 7 7 8 8 9 9 10 10
REMARK H PARENT
REMARK Flexibility Score: inf
ROOT
ATOM      1  C   UNL     1     109.209 112.126 108.578  1.00  0.00     0.039 C 
ATOM      2  C   UNL     1     109.478 111.772 110.016  1.00  0.00    -0.077 C 
ATOM      3  C   UNL     1     109.202 110.533 110.454  1.00  0.00    -0.028 C 
ATOM      4  C   UNL     1     109.457 110.127 111.878  1.00  0.00     0.031 C 
ATOM      5  C   UNL     1     109.134 111.267 112.868  1.00  0.00     0.003 C 
ATOM      6  C   UNL     1     109.455 112.697 112.374  1.00  0.00     0.003 C 
ATOM      7  C   UNL     1     110.056 112.804 110.955  1.00  0.00     0.034 C 
ATOM      8  C   UNL     1     110.268 112.075 113.521  1.00  0.00    -0.029 C 
ATOM      9  C   UNL     1     109.936 112.629 114.911  1.00  0.00     0.012 C 
ATOM     10  C   UNL     1     111.738 111.670 113.303  1.00  0.00     0.012 C 
ENDROOT
TORSDOF 0
ENDMDL
MODEL 2
REMARK VINA RESULT:    -5.319      2.745      3.786
REMARK INTER + INTRA:          -5.319
REMARK INTER:                  -5.319
REMARK INTRA:                   0.000
REMARK UNBOUND:                 0.000
REMARK SMILES CC1=CC[C@@H]2[C@H](C1)C2(C)C
REMARK SMILES IDX 1 1 2 2 3 3 4 4 5 5 6 6 7 7 8 8 9 9 10 10
REMARK H PARENT
REMARK Flexibility Score: inf
ROOT
ATOM      1  C   UNL     1     113.158 110.273 108.615  1.00  0.00     0.039 C 
ATOM      2  C   UNL     1     112.874 110.577 110.061  1.00  0.00    -0.077 C 
ATOM      3  C   UNL     1     113.157 111.797 110.548  1.00  0.00    -0.028 C 
ATOM      4  C   UNL     1     112.888 112.154 111.983  1.00  0.00     0.031 C 
ATOM      5  C   UNL     1     113.186 110.976 112.934  1.00  0.00     0.003 C 
ATOM      6  C   UNL     1     112.857 109.568 112.385  1.00  0.00     0.003 C 
ATOM      7  C   UNL     1     112.273 109.518 110.956  1.00  0.00     0.034 C 
ATOM      8  C   UNL     1     112.035 110.157 113.543  1.00  0.00    -0.029 C 
ATOM      9  C   UNL     1     112.343 109.549 114.917  1.00  0.00     0.012 C 
ATOM     10  C   UNL     1     110.573 110.585 113.321  1.00  0.00     0.012 C 
ENDROOT
TORSDOF 0
ENDMDL
MODEL 3
REMARK VINA RESULT:    -5.251      2.887      4.807
REMARK INTER + INTRA:          -5.251
REMARK INTER:                  -5.251
REMARK INTRA:                   0.000
REMARK UNBOUND:                 0.000
REMARK SMILES CC1=CC[C@@H]2[C@H](C1)C2(C)C
REMARK SMILES IDX 1 1 2 2 3 3 4 4 5 5 6 6 7 7 8 8 9 9 10 10
REMARK H PARENT
REMARK Flexibility Score: inf
ROOT
ATOM      1  C   UNL     1     109.213 112.148 113.392  1.00  0.00     0.039 C 
ATOM      2  C   UNL     1     109.480 111.767 114.823  1.00  0.00    -0.077 C 
ATOM      3  C   UNL     1     109.192 110.524 115.241  1.00  0.00    -0.028 C 
ATOM      4  C   UNL     1     109.444 110.091 116.658  1.00  0.00     0.031 C 
ATOM      5  C   UNL     1     109.134 111.217 117.667  1.00  0.00     0.003 C 
ATOM      6  C   UNL     1     109.469 112.652 117.197  1.00  0.00     0.003 C 
ATOM      7  C   UNL     1     110.069 112.777 115.780  1.00  0.00     0.034 C 
ATOM      8  C   UNL     1     110.277 112.003 118.333  1.00  0.00    -0.029 C 
ATOM      9  C   UNL     1     109.952 112.537 119.732  1.00  0.00     0.012 C 
ATOM     10  C   UNL     1     111.742 111.587 118.106  1.00  0.00     0.012 C 
ENDROOT
TORSDOF 0
ENDMDL
MODEL 4
REMARK VINA RESULT:    -5.239      4.466      6.192
REMARK INTER + INTRA:          -5.239
REMARK INTER:                  -5.239
REMARK INTRA:                   0.000
REMARK UNBOUND:                 0.000
REMARK SMILES CC1=CC[C@@H]2[C@H](C1)C2(C)C
REMARK SMILES IDX 1 1 2 2 3 3 4 4 5 5 6 6 7 7 8 8 9 9 10 10
REMARK H PARENT
REMARK Flexibility Score: inf
ROOT
ATOM      1  C   UNL     1     113.016 109.933 103.664  1.00  0.00     0.039 C 
ATOM      2  C   UNL     1     112.777 110.371 105.084  1.00  0.00    -0.077 C 
ATOM      3  C   UNL     1     113.063 111.633 105.444  1.00  0.00    -0.028 C 
ATOM      4  C   UNL     1     112.838 112.122 106.847  1.00  0.00     0.031 C 
ATOM      5  C   UNL     1     113.180 111.042 107.894  1.00  0.00     0.003 C 
ATOM      6  C   UNL     1     112.849 109.586 107.492  1.00  0.00     0.003 C 
ATOM      7  C   UNL     1     112.219 109.396 106.095  1.00  0.00     0.034 C 
ATOM      8  C   UNL     1     112.060 110.276 108.617  1.00  0.00    -0.029 C 
ATOM      9  C   UNL     1     112.421 109.803 110.030  1.00  0.00     0.012 C 
ATOM     10  C   UNL     1     110.586 110.669 108.406  1.00  0.00     0.012 C 
ENDROOT
TORSDOF 0
ENDMDL
MODEL 5
REMARK VINA RESULT:    -5.217      4.353      6.062
REMARK INTER + INTRA:          -5.217
REMARK INTER:                  -5.217
REMARK INTRA:                   0.000
REMARK UNBOUND:                 0.000
REMARK SMILES CC1=CC[C@@H]2[C@H](C1)C2(C)C
REMARK SMILES IDX 1 1 2 2 3 3 4 4 5 5 6 6 7 7 8 8 9 9 10 10
REMARK H PARENT
REMARK Flexibility Score: inf
ROOT
ATOM      1  C   UNL     1     112.870 109.871 113.390  1.00  0.00     0.039 C 
ATOM      2  C   UNL     1     112.659 110.310 114.814  1.00  0.00    -0.077 C 
ATOM      3  C   UNL     1     112.993 111.560 115.175  1.00  0.00    -0.028 C 
ATOM      4  C   UNL     1     112.798 112.051 116.582  1.00  0.00     0.031 C 
ATOM      5  C   UNL     1     113.112 110.956 117.622  1.00  0.00     0.003 C 
ATOM      6  C   UNL     1     112.725 109.514 117.218  1.00  0.00     0.003 C 
ATOM      7  C   UNL     1     112.076 109.352 115.826  1.00  0.00     0.034 C 
ATOM      8  C   UNL     1     111.972 110.226 118.353  1.00  0.00    -0.029 C 
ATOM      9  C   UNL     1     112.329 109.735 119.761  1.00  0.00     0.012 C 
ATOM     10  C   UNL     1     110.511 110.672 118.157  1.00  0.00     0.012 C 
ENDROOT
TORSDOF 0
ENDMDL
MODEL 6
REMARK VINA RESULT:    -5.143      2.831      5.002
REMARK INTER + INTRA:          -5.143
REMARK INTER:                  -5.143
REMARK INTRA:                   0.000
REMARK UNBOUND:                 0.000
REMARK SMILES CC1=CC[C@@H]2[C@H](C1)C2(C)C
REMARK SMILES IDX 1 1 2 2 3 3 4 4 5 5 6 6 7 7 8 8 9 9 10 10
REMARK H PARENT
REMARK Flexibility Score: inf
ROOT
ATOM      1  C   UNL     1     113.234 110.956 113.741  1.00  0.00     0.039 C 
ATOM      2  C   UNL     1     112.838 110.847 112.293  1.00  0.00    -0.077 C 
ATOM      3  C   UNL     1     112.550 109.641 111.775  1.00  0.00    -0.028 C 
ATOM      4  C   UNL     1     112.145 109.478 110.337  1.00  0.00     0.031 C 
ATOM      5  C   UNL     1     112.928 110.428 109.408  1.00  0.00     0.003 C 
ATOM      6  C   UNL     1     113.258 111.821 109.992  1.00  0.00     0.003 C 
ATOM      7  C   UNL     1     112.763 112.086 111.431  1.00  0.00     0.034 C 
ATOM      8  C   UNL     1     112.256 111.687 108.834  1.00  0.00    -0.029 C 
ATOM      9  C   UNL     1     112.794 112.132 107.470  1.00  0.00     0.012 C 
ATOM     10  C   UNL     1     110.755 111.944 109.070  1.00  0.00     0.012 C 
ENDROOT
TORSDOF 0
ENDMDL
MODEL 7
REMARK VINA RESULT:    -5.127      1.187      4.061
REMARK INTER + INTRA:          -5.127
REMARK INTER:                  -5.127
REMARK INTRA:                   0.000
REMARK UNBOUND:                 0.000
REMARK SMILES CC1=CC[C@@H]2[C@H](C1)C2(C)C
REMARK SMILES IDX 1 1 2 2 3 3 4 4 5 5 6 6 7 7 8 8 9 9 10 10
REMARK H PARENT
REMARK Flexibility Score: inf
ROOT
ATOM      1  C   UNL     1     109.503 112.492 113.721  1.00  0.00     0.039 C 
ATOM      2  C   UNL     1     109.536 111.841 112.365  1.00  0.00    -0.077 C 
ATOM      3  C   UNL     1     109.153 110.559 112.237  1.00  0.00    -0.028 C 
ATOM      4  C   UNL     1     109.161 109.864 110.905  1.00  0.00     0.031 C 
ATOM      5  C   UNL     1     110.372 110.282 110.046  1.00  0.00     0.003 C 
ATOM      6  C   UNL     1     110.816 111.757 110.180  1.00  0.00     0.003 C 
ATOM      7  C   UNL     1     109.993 112.625 111.157  1.00  0.00     0.034 C 
ATOM      8  C   UNL     1     110.194 111.254 108.868  1.00  0.00    -0.029 C 
ATOM      9  C   UNL     1     111.193 111.058 107.722  1.00  0.00     0.012 C 
ATOM     10  C   UNL     1     108.786 111.716 108.447  1.00  0.00     0.012 C 
ENDROOT
TORSDOF 0
ENDMDL
MODEL 8
REMARK VINA RESULT:    -5.113      3.048      5.906
REMARK INTER + INTRA:          -5.113
REMARK INTER:                  -5.113
REMARK INTRA:                   0.000
REMARK UNBOUND:                 0.000
REMARK SMILES CC1=CC[C@@H]2[C@H](C1)C2(C)C
REMARK SMILES IDX 1 1 2 2 3 3 4 4 5 5 6 6 7 7 8 8 9 9 10 10
REMARK H PARENT
REMARK Flexibility Score: inf
ROOT
ATOM      1  C   UNL     1     113.233 110.979 118.648  1.00  0.00     0.039 C 
ATOM      2  C   UNL     1     112.834 110.862 117.201  1.00  0.00    -0.077 C 
ATOM      3  C   UNL     1     112.516 109.657 116.699  1.00  0.00    -0.028 C 
ATOM      4  C   UNL     1     112.106 109.486 115.263  1.00  0.00     0.031 C 
ATOM      5  C   UNL     1     112.913 110.404 114.321  1.00  0.00     0.003 C 
ATOM      6  C   UNL     1     113.279 111.795 114.888  1.00  0.00     0.003 C 
ATOM      7  C   UNL     1     112.791 112.091 116.324  1.00  0.00     0.034 C 
ATOM      8  C   UNL     1     112.273 111.672 113.732  1.00  0.00    -0.029 C 
ATOM      9  C   UNL     1     112.822 112.086 112.362  1.00  0.00     0.012 C 
ATOM     10  C   UNL     1     110.780 111.970 113.965  1.00  0.00     0.012 C 
ENDROOT
TORSDOF 0
ENDMDL
MODEL 9
REMARK VINA RESULT:    -5.082      2.389      5.259
REMARK INTER + INTRA:          -5.082
REMARK INTER:                  -5.082
REMARK INTRA:                   0.000
REMARK UNBOUND:                 0.000
REMARK SMILES CC1=CC[C@@H]2[C@H](C1)C2(C)C
REMARK SMILES IDX 1 1 2 2 3 3 4 4 5 5 6 6 7 7 8 8 9 9 10 10
REMARK H PARENT
REMARK Flexibility Score: inf
ROOT
ATOM      1  C   UNL     1     109.478 112.378 118.684  1.00  0.00     0.039 C 
ATOM      2  C   UNL     1     109.516 111.787 117.301  1.00  0.00    -0.077 C 
ATOM      3  C   UNL     1     109.157 110.505 117.120  1.00  0.00    -0.028 C 
ATOM      4  C   UNL     1     109.171 109.867 115.760  1.00  0.00     0.031 C 
ATOM      5  C   UNL     1     110.370 110.345 114.914  1.00  0.00     0.003 C 
ATOM      6  C   UNL     1     110.786 111.821 115.109  1.00  0.00     0.003 C 
ATOM      7  C   UNL     1     109.951 112.631 116.126  1.00  0.00     0.034 C 
ATOM      8  C   UNL     1     110.166 111.364 113.779  1.00  0.00    -0.029 C 
ATOM      9  C   UNL     1     111.163 111.236 112.622  1.00  0.00     0.012 C 
ATOM     10  C   UNL     1     108.748 111.816 113.385  1.00  0.00     0.012 C 
ENDROOT
TORSDOF 0
ENDMDL
