MODEL 1
REMARK VINA RESULT:    -3.137      0.000      0.000
REMARK INTER + INTRA:          -3.704
REMARK INTER:                  -3.687
REMARK INTRA:                  -0.017
REMARK UNBOUND:                -0.017
REMARK SMILES CCCCC(=O)[O-]
REMARK SMILES IDX 4 1 5 2 6 3 7 4 3 5 2 6 1 7
REMARK H PARENT
REMARK Flexibility Score: inf
ROOT
ATOM      1  C   UNL     1      -6.555  -5.036   8.700  1.00  0.00     0.053 C 
ENDROOT
BRANCH   1   2
ATOM      2  C   UNL     1      -7.389  -5.184   7.464  1.00  0.00     0.041 C 
ATOM      3  O   UNL     1      -7.408  -6.276   6.838  1.00  0.00    -0.550 OA
ATOM      4  O   UNL     1      -8.121  -4.105   6.987  1.00  0.00    -0.550 OA
ENDBRANCH   1   2
BRANCH   1   5
ATOM      5  C   UNL     1      -5.139  -4.545   8.374  1.00  0.00     0.006 C 
BRANCH   5   6
ATOM      6  C   UNL     1      -4.130  -4.912   9.471  1.00  0.00    -0.003 C 
ATOM      7  C   UNL     1      -2.706  -4.934   8.923  1.00  0.00     0.004 C 
ENDBRANCH   5   6
ENDBRANCH   1   5
TORSDOF 3
ENDMDL
MODEL 2
REMARK VINA RESULT:    -3.096     14.984     16.166
REMARK INTER + INTRA:          -3.656
REMARK INTER:                  -3.641
REMARK INTRA:                  -0.015
REMARK UNBOUND:                -0.017
REMARK SMILES CCCCC(=O)[O-]
REMARK SMILES IDX 4 1 5 2 6 3 7 4 3 5 2 6 1 7
REMARK H PARENT
REMARK Flexibility Score: inf
ROOT
ATOM      1  C   UNL     1       6.431   5.777   8.313  1.00  0.00     0.053 C 
ENDROOT
BRANCH   1   2
ATOM      2  C   UNL     1       7.478   5.275   7.366  1.00  0.00     0.041 C 
ATOM      3  O   UNL     1       8.280   4.374   7.725  1.00  0.00    -0.550 OA
ATOM      4  O   UNL     1       7.586   5.826   6.095  1.00  0.00    -0.550 OA
ENDBRANCH   1   2
BRANCH   1   5
ATOM      5  C   UNL     1       5.244   4.810   8.410  1.00  0.00     0.006 C 
BRANCH   5   6
ATOM      6  C   UNL     1       4.085   5.394   9.231  1.00  0.00    -0.003 C 
ATOM      7  C   UNL     1       2.794   5.422   8.418  1.00  0.00     0.004 C 
ENDBRANCH   5   6
ENDBRANCH   1   5
TORSDOF 3
ENDMDL
MODEL 3
REMARK VINA RESULT:    -3.062     15.000     16.180
REMARK INTER + INTRA:          -3.616
REMARK INTER:                  -3.599
REMARK INTRA:                  -0.017
REMARK UNBOUND:                -0.017
REMARK SMILES CCCCC(=O)[O-]
REMARK SMILES IDX 4 1 5 2 6 3 7 4 3 5 2 6 1 7
REMARK H PARENT
REMARK Flexibility Score: inf
ROOT
ATOM      1  C   UNL     1       6.505   5.708   8.319  1.00  0.00     0.053 C 
ENDROOT
BRANCH   1   2
ATOM      2  C   UNL     1       7.470   5.282   7.254  1.00  0.00     0.041 C 
ATOM      3  O   UNL     1       7.458   5.841   6.127  1.00  0.00    -0.550 OA
ATOM      4  O   UNL     1       8.361   4.245   7.499  1.00  0.00    -0.550 OA
ENDBRANCH   1   2
BRANCH   1   5
ATOM      5  C   UNL     1       5.388   4.675   8.518  1.00  0.00     0.006 C 
BRANCH   5   6
ATOM      6  C   UNL     1       4.110   5.305   9.090  1.00  0.00    -0.003 C 
ATOM      7  C   UNL     1       2.983   5.297   8.062  1.00  0.00     0.004 C 
ENDBRANCH   5   6
ENDBRANCH   1   5
TORSDOF 3
ENDMDL
MODEL 4
REMARK VINA RESULT:    -3.059     16.130     16.871
REMARK INTER + INTRA:          -3.612
REMARK INTER:                  -3.579
REMARK INTRA:                  -0.033
REMARK UNBOUND:                -0.017
REMARK SMILES CCCCC(=O)[O-]
REMARK SMILES IDX 4 1 5 2 6 3 7 4 3 5 2 6 1 7
REMARK H PARENT
REMARK Flexibility Score: inf
ROOT
ATOM      1  C   UNL     1       7.449   4.449   8.701  1.00  0.00     0.053 C 
ENDROOT
BRANCH   1   2
ATOM      2  C   UNL     1       6.768   5.283   7.658  1.00  0.00     0.041 C 
ATOM      3  O   UNL     1       7.448   5.905   6.800  1.00  0.00    -0.550 OA
ATOM      4  O   UNL     1       5.384   5.397   7.655  1.00  0.00    -0.550 OA
ENDBRANCH   1   2
BRANCH   1   5
ATOM      5  C   UNL     1       8.819   3.951   8.224  1.00  0.00     0.006 C 
BRANCH   5   6
ATOM      6  C   UNL     1       9.860   3.944   9.353  1.00  0.00    -0.003 C 
ATOM      7  C   UNL     1       9.537   2.873  10.391  1.00  0.00     0.004 C 
ENDBRANCH   5   6
ENDBRANCH   1   5
TORSDOF 3
ENDMDL
MODEL 5
REMARK VINA RESULT:    -3.027      2.890      4.182
REMARK INTER + INTRA:          -3.574
REMARK INTER:                  -3.526
REMARK INTRA:                  -0.048
REMARK UNBOUND:                -0.017
REMARK SMILES CCCCC(=O)[O-]
REMARK SMILES IDX 4 1 5 2 6 3 7 4 3 5 2 6 1 7
REMARK H PARENT
REMARK Flexibility Score: inf
ROOT
ATOM      1  C   UNL     1      -4.294  -4.864   9.415  1.00  0.00     0.053 C 
ENDROOT
BRANCH   1   2
ATOM      2  C   UNL     1      -3.215  -4.864   8.375  1.00  0.00     0.041 C 
ATOM      3  O   UNL     1      -3.485  -4.570   7.181  1.00  0.00    -0.550 OA
ATOM      4  O   UNL     1      -1.917  -5.218   8.721  1.00  0.00    -0.550 OA
ENDBRANCH   1   2
BRANCH   1   5
ATOM      5  C   UNL     1      -5.439  -3.913   9.045  1.00  0.00     0.006 C 
BRANCH   5   6
ATOM      6  C   UNL     1      -6.732  -4.668   8.699  1.00  0.00    -0.003 C 
ATOM      7  C   UNL     1      -7.963  -3.823   9.014  1.00  0.00     0.004 C 
ENDBRANCH   5   6
ENDBRANCH   1   5
TORSDOF 3
ENDMDL
MODEL 6
REMARK VINA RESULT:    -3.007     13.694     14.604
REMARK INTER + INTRA:          -3.551
REMARK INTER:                  -3.504
REMARK INTRA:                  -0.047
REMARK UNBOUND:                -0.017
REMARK SMILES CCCCC(=O)[O-]
REMARK SMILES IDX 4 1 5 2 6 3 7 4 3 5 2 6 1 7
REMARK H PARENT
REMARK Flexibility Score: inf
ROOT
ATOM      1  C   UNL     1       4.115   5.275   9.077  1.00  0.00     0.053 C 
ENDROOT
BRANCH   1   2
ATOM      2  C   UNL     1       3.084   5.301   7.990  1.00  0.00     0.041 C 
ATOM      3  O   UNL     1       1.912   5.690   8.236  1.00  0.00    -0.550 OA
ATOM      4  O   UNL     1       3.410   4.865   6.712  1.00  0.00    -0.550 OA
ENDBRANCH   1   2
BRANCH   1   5
ATOM      5  C   UNL     1       5.317   4.401   8.697  1.00  0.00     0.006 C 
BRANCH   5   6
ATOM      6  C   UNL     1       6.559   5.238   8.355  1.00  0.00    -0.003 C 
ATOM      7  C   UNL     1       7.840   4.447   8.600  1.00  0.00     0.004 C 
ENDBRANCH   5   6
ENDBRANCH   1   5
TORSDOF 3
ENDMDL
MODEL 7
REMARK VINA RESULT:    -3.000      2.615      4.152
REMARK INTER + INTRA:          -3.543
REMARK INTER:                  -3.526
REMARK INTRA:                  -0.017
REMARK UNBOUND:                -0.017
REMARK SMILES CCCCC(=O)[O-]
REMARK SMILES IDX 4 1 5 2 6 3 7 4 3 5 2 6 1 7
REMARK H PARENT
REMARK Flexibility Score: inf
ROOT
ATOM      1  C   UNL     1      -7.555  -4.134   8.797  1.00  0.00     0.053 C 
ENDROOT
BRANCH   1   2
ATOM      2  C   UNL     1      -6.972  -4.784   7.579  1.00  0.00     0.041 C 
ATOM      3  O   UNL     1      -6.134  -4.167   6.871  1.00  0.00    -0.550 OA
ATOM      4  O   UNL     1      -7.378  -6.060   7.211  1.00  0.00    -0.550 OA
ENDBRANCH   1   2
BRANCH   1   5
ATOM      5  C   UNL     1      -8.860  -3.395   8.475  1.00  0.00     0.006 C 
BRANCH   5   6
ATOM      6  C   UNL     1      -9.824  -3.371   9.670  1.00  0.00    -0.003 C 
ATOM      7  C   UNL     1      -9.602  -2.131  10.531  1.00  0.00     0.004 C 
ENDBRANCH   5   6
ENDBRANCH   1   5
TORSDOF 3
ENDMDL
MODEL 8
REMARK VINA RESULT:    -2.900     19.920     21.099
REMARK INTER + INTRA:          -3.425
REMARK INTER:                  -3.377
REMARK INTRA:                  -0.048
REMARK UNBOUND:                -0.017
REMARK SMILES CCCCC(=O)[O-]
REMARK SMILES IDX 4 1 5 2 6 3 7 4 3 5 2 6 1 7
REMARK H PARENT
REMARK Flexibility Score: inf
ROOT
ATOM      1  C   UNL     1       8.720   7.306   1.402  1.00  0.00     0.053 C 
ENDROOT
BRANCH   1   2
ATOM      2  C   UNL     1       8.898   7.264   2.889  1.00  0.00     0.041 C 
ATOM      3  O   UNL     1       8.550   6.245   3.541  1.00  0.00    -0.550 OA
ATOM      4  O   UNL     1       9.419   8.364   3.557  1.00  0.00    -0.550 OA
ENDBRANCH   1   2
BRANCH   1   5
ATOM      5  C   UNL     1       9.509   8.460   0.769  1.00  0.00     0.006 C 
BRANCH   5   6
ATOM      6  C   UNL     1       8.591   9.583   0.263  1.00  0.00    -0.003 C 
ATOM      7  C   UNL     1       8.518   9.589  -1.261  1.00  0.00     0.004 C 
ENDBRANCH   5   6
ENDBRANCH   1   5
TORSDOF 3
ENDMDL
MODEL 9
REMARK VINA RESULT:    -2.868      2.704      4.071
REMARK INTER + INTRA:          -3.388
REMARK INTER:                  -3.346
REMARK INTRA:                  -0.042
REMARK UNBOUND:                -0.017
REMARK SMILES CCCCC(=O)[O-]
REMARK SMILES IDX 4 1 5 2 6 3 7 4 3 5 2 6 1 7
REMARK H PARENT
REMARK Flexibility Score: inf
ROOT
ATOM      1  C   UNL     1      -6.551  -5.055   8.742  1.00  0.00     0.053 C 
ENDROOT
BRANCH   1   2
ATOM      2  C   UNL     1      -5.201  -4.421   8.595  1.00  0.00     0.041 C 
ATOM      3  O   UNL     1      -4.439  -4.764   7.653  1.00  0.00    -0.550 OA
ATOM      4  O   UNL     1      -4.774  -3.474   9.517  1.00  0.00    -0.550 OA
ENDBRANCH   1   2
BRANCH   1   5
ATOM      5  C   UNL     1      -7.673  -4.112   8.288  1.00  0.00     0.006 C 
BRANCH   5   6
ATOM      6  C   UNL     1      -8.284  -3.330   9.459  1.00  0.00    -0.003 C 
ATOM      7  C   UNL     1      -9.808  -3.341   9.392  1.00  0.00     0.004 C 
ENDBRANCH   5   6
ENDBRANCH   1   5
TORSDOF 3
ENDMDL
