MODEL 1
REMARK VINA RESULT:    -3.489      0.000      0.000
REMARK INTER + INTRA:          -6.633
REMARK INTER:                  -5.324
REMARK INTRA:                  -1.309
REMARK UNBOUND:                -1.309
REMARK SMILES CCCCCCCCCC=CC(=O)[O-]
REMARK SMILES IDX 7 1 8 2 9 3 10 4 11 5 12 6 13 7 14 8 6 9 5 10 4 11 3 12 2 13
REMARK SMILES IDX 1 14
REMARK H PARENT
REMARK Flexibility Score: inf
ROOT
ATOM      1  C   UNL     1      15.453  24.760  82.679  1.00  0.00     0.000 C 
ENDROOT
BRANCH   1   2
ATOM      2  C   UNL     1      14.412  25.050  83.771  1.00  0.00     0.004 C 
BRANCH   2   3
ATOM      3  C   UNL     1      12.973  24.912  83.249  1.00  0.00     0.027 C 
BRANCH   3   4
ATOM      4  C   UNL     1      12.196  26.197  83.366  1.00  0.00    -0.025 C 
ATOM      5  C   UNL     1      12.194  27.204  82.476  1.00  0.00     0.020 C 
BRANCH   5   6
ATOM      6  C   UNL     1      12.985  27.281  81.230  1.00  0.00     0.064 C 
ATOM      7  O   UNL     1      14.185  27.659  81.221  1.00  0.00    -0.545 OA
ATOM      8  O   UNL     1      12.375  26.951  80.027  1.00  0.00    -0.545 OA
ENDBRANCH   5   6
ENDBRANCH   3   4
ENDBRANCH   2   3
ENDBRANCH   1   2
BRANCH   1   9
ATOM      9  C   UNL     1      14.919  23.739  81.667  1.00  0.00     0.000 C 
BRANCH   9  10
ATOM     10  C   UNL     1      14.973  24.302  80.240  1.00  0.00     0.000 C 
BRANCH  10  11
ATOM     11  C   UNL     1      13.846  23.760  79.345  1.00  0.00    -0.000 C 
BRANCH  11  12
ATOM     12  C   UNL     1      12.565  23.442  80.134  1.00  0.00    -0.000 C 
BRANCH  12  13
ATOM     13  C   UNL     1      12.146  21.969  80.009  1.00  0.00    -0.003 C 
ATOM     14  C   UNL     1      13.197  21.112  79.304  1.00  0.00     0.004 C 
ENDBRANCH  12  13
ENDBRANCH  11  12
ENDBRANCH  10  11
ENDBRANCH   9  10
ENDBRANCH   1   9
TORSDOF 9
ENDMDL
MODEL 2
REMARK VINA RESULT:    -3.427     13.525     15.053
REMARK INTER + INTRA:          -6.539
REMARK INTER:                  -5.506
REMARK INTRA:                  -1.033
REMARK UNBOUND:                -1.309
REMARK SMILES CCCCCCCCCC=CC(=O)[O-]
REMARK SMILES IDX 7 1 8 2 9 3 10 4 11 5 12 6 13 7 14 8 6 9 5 10 4 11 3 12 2 13
REMARK SMILES IDX 1 14
REMARK H PARENT
REMARK Flexibility Score: inf
ROOT
ATOM      1  C   UNL     1       3.986  25.181  73.303  1.00  0.00     0.000 C 
ENDROOT
BRANCH   1   2
ATOM      2  C   UNL     1       2.986  26.024  72.498  1.00  0.00     0.004 C 
BRANCH   2   3
ATOM      3  C   UNL     1       2.227  25.183  71.459  1.00  0.00     0.027 C 
BRANCH   3   4
ATOM      4  C   UNL     1       0.755  25.085  71.765  1.00  0.00    -0.025 C 
ATOM      5  C   UNL     1      -0.219  25.825  71.210  1.00  0.00     0.020 C 
BRANCH   5   6
ATOM      6  C   UNL     1      -0.047  26.913  70.225  1.00  0.00     0.064 C 
ATOM      7  O   UNL     1      -0.288  26.753  69.000  1.00  0.00    -0.545 OA
ATOM      8  O   UNL     1       0.422  28.145  70.661  1.00  0.00    -0.545 OA
ENDBRANCH   5   6
ENDBRANCH   3   4
ENDBRANCH   2   3
ENDBRANCH   1   2
BRANCH   1   9
ATOM      9  C   UNL     1       5.247  24.888  72.480  1.00  0.00     0.000 C 
BRANCH   9  10
ATOM     10  C   UNL     1       5.721  23.444  72.698  1.00  0.00     0.000 C 
BRANCH  10  11
ATOM     11  C   UNL     1       5.476  22.547  71.473  1.00  0.00    -0.000 C 
BRANCH  11  12
ATOM     12  C   UNL     1       5.304  23.353  70.175  1.00  0.00    -0.000 C 
BRANCH  12  13
ATOM     13  C   UNL     1       4.091  22.890  69.352  1.00  0.00    -0.003 C 
ATOM     14  C   UNL     1       3.679  23.901  68.283  1.00  0.00     0.004 C 
ENDBRANCH  12  13
ENDBRANCH  11  12
ENDBRANCH  10  11
ENDBRANCH   9  10
ENDBRANCH   1   9
TORSDOF 9
ENDMDL
MODEL 3
REMARK VINA RESULT:    -3.413      2.698      5.408
REMARK INTER + INTRA:          -6.517
REMARK INTER:                  -5.226
REMARK INTRA:                  -1.290
REMARK UNBOUND:                -1.309
REMARK SMILES CCCCCCCCCC=CC(=O)[O-]
REMARK SMILES IDX 7 1 8 2 9 3 10 4 11 5 12 6 13 7 14 8 6 9 5 10 4 11 3 12 2 13
REMARK SMILES IDX 1 14
REMARK H PARENT
REMARK Flexibility Score: inf
ROOT
ATOM      1  C   UNL     1      12.655  25.218  79.579  1.00  0.00     0.000 C 
ENDROOT
BRANCH   1   2
ATOM      2  C   UNL     1      12.630  24.517  78.212  1.00  0.00     0.004 C 
BRANCH   2   3
ATOM      3  C   UNL     1      11.638  23.343  78.183  1.00  0.00     0.027 C 
BRANCH   3   4
ATOM      4  C   UNL     1      11.537  22.645  79.515  1.00  0.00    -0.025 C 
ATOM      5  C   UNL     1      12.377  21.706  79.980  1.00  0.00     0.020 C 
BRANCH   5   6
ATOM      6  C   UNL     1      13.539  21.131  79.270  1.00  0.00     0.064 C 
ATOM      7  O   UNL     1      13.430  20.147  78.493  1.00  0.00    -0.545 OA
ATOM      8  O   UNL     1      14.796  21.678  79.489  1.00  0.00    -0.545 OA
ENDBRANCH   5   6
ENDBRANCH   3   4
ENDBRANCH   2   3
ENDBRANCH   1   2
BRANCH   1   9
ATOM      9  C   UNL     1      14.086  25.317  80.120  1.00  0.00     0.000 C 
BRANCH   9  10
ATOM     10  C   UNL     1      14.212  24.602  81.473  1.00  0.00     0.000 C 
BRANCH  10  11
ATOM     11  C   UNL     1      12.892  24.584  82.261  1.00  0.00    -0.000 C 
BRANCH  11  12
ATOM     12  C   UNL     1      12.898  25.566  83.445  1.00  0.00    -0.000 C 
BRANCH  12  13
ATOM     13  C   UNL     1      11.789  26.624  83.338  1.00  0.00    -0.003 C 
ATOM     14  C   UNL     1      12.207  27.839  82.511  1.00  0.00     0.004 C 
ENDBRANCH  12  13
ENDBRANCH  11  12
ENDBRANCH  10  11
ENDBRANCH   9  10
ENDBRANCH   1   9
TORSDOF 9
ENDMDL
MODEL 4
REMARK VINA RESULT:    -3.388      2.600      5.159
REMARK INTER + INTRA:          -6.480
REMARK INTER:                  -5.433
REMARK INTRA:                  -1.046
REMARK UNBOUND:                -1.309
REMARK SMILES CCCCCCCCCC=CC(=O)[O-]
REMARK SMILES IDX 7 1 8 2 9 3 10 4 11 5 12 6 13 7 14 8 6 9 5 10 4 11 3 12 2 13
REMARK SMILES IDX 1 14
REMARK H PARENT
REMARK Flexibility Score: inf
ROOT
ATOM      1  C   UNL     1      15.780  23.936  82.267  1.00  0.00     0.000 C 
ENDROOT
BRANCH   1   2
ATOM      2  C   UNL     1      15.176  23.088  81.138  1.00  0.00     0.004 C 
BRANCH   2   3
ATOM      3  C   UNL     1      14.064  23.836  80.385  1.00  0.00     0.027 C 
BRANCH   3   4
ATOM      4  C   UNL     1      12.713  23.198  80.575  1.00  0.00    -0.025 C 
ATOM      5  C   UNL     1      12.268  22.092  79.956  1.00  0.00     0.020 C 
BRANCH   5   6
ATOM      6  C   UNL     1      12.987  21.304  78.932  1.00  0.00     0.064 C 
ATOM      7  O   UNL     1      12.943  21.597  77.709  1.00  0.00    -0.545 OA
ATOM      8  O   UNL     1      13.711  20.188  79.331  1.00  0.00    -0.545 OA
ENDBRANCH   5   6
ENDBRANCH   3   4
ENDBRANCH   2   3
ENDBRANCH   1   2
BRANCH   1   9
ATOM      9  C   UNL     1      15.459  25.423  82.071  1.00  0.00     0.000 C 
BRANCH   9  10
ATOM     10  C   UNL     1      14.793  26.009  83.324  1.00  0.00     0.000 C 
BRANCH  10  11
ATOM     11  C   UNL     1      13.501  25.271  83.711  1.00  0.00    -0.000 C 
BRANCH  11  12
ATOM     12  C   UNL     1      12.258  25.848  83.013  1.00  0.00    -0.000 C 
BRANCH  12  13
ATOM     13  C   UNL     1      12.294  27.382  82.920  1.00  0.00    -0.003 C 
ATOM     14  C   UNL     1      11.131  28.048  83.654  1.00  0.00     0.004 C 
ENDBRANCH  12  13
ENDBRANCH  11  12
ENDBRANCH  10  11
ENDBRANCH   9  10
ENDBRANCH   1   9
TORSDOF 9
ENDMDL
MODEL 5
REMARK VINA RESULT:    -3.374     13.259     14.906
REMARK INTER + INTRA:          -6.458
REMARK INTER:                  -5.832
REMARK INTRA:                  -0.626
REMARK UNBOUND:                -1.309
REMARK SMILES CCCCCCCCCC=CC(=O)[O-]
REMARK SMILES IDX 7 1 8 2 9 3 10 4 11 5 12 6 13 7 14 8 6 9 5 10 4 11 3 12 2 13
REMARK SMILES IDX 1 14
REMARK H PARENT
REMARK Flexibility Score: inf
ROOT
ATOM      1  C   UNL     1       2.846  26.113  72.499  1.00  0.00     0.000 C 
ENDROOT
BRANCH   1   2
ATOM      2  C   UNL     1       3.018  25.735  71.020  1.00  0.00     0.004 C 
BRANCH   2   3
ATOM      3  C   UNL     1       1.827  24.920  70.490  1.00  0.00     0.027 C 
BRANCH   3   4
ATOM      4  C   UNL     1       0.678  24.884  71.464  1.00  0.00    -0.025 C 
ATOM      5  C   UNL     1      -0.504  25.503  71.314  1.00  0.00     0.020 C 
BRANCH   5   6
ATOM      6  C   UNL     1      -0.906  26.380  70.194  1.00  0.00     0.064 C 
ATOM      7  O   UNL     1      -1.676  25.988  69.279  1.00  0.00    -0.545 OA
ATOM      8  O   UNL     1      -0.394  27.669  70.136  1.00  0.00    -0.545 OA
ENDBRANCH   5   6
ENDBRANCH   3   4
ENDBRANCH   2   3
ENDBRANCH   1   2
BRANCH   1   9
ATOM      9  C   UNL     1       3.977  25.527  73.352  1.00  0.00     0.000 C 
BRANCH   9  10
ATOM     10  C   UNL     1       5.023  24.828  72.471  1.00  0.00     0.000 C 
BRANCH  10  11
ATOM     11  C   UNL     1       5.292  23.378  72.906  1.00  0.00    -0.000 C 
BRANCH  11  12
ATOM     12  C   UNL     1       6.785  23.014  72.859  1.00  0.00    -0.000 C 
BRANCH  12  13
ATOM     13  C   UNL     1       7.148  22.171  71.626  1.00  0.00    -0.003 C 
ATOM     14  C   UNL     1       8.546  21.561  71.714  1.00  0.00     0.004 C 
ENDBRANCH  12  13
ENDBRANCH  11  12
ENDBRANCH  10  11
ENDBRANCH   9  10
ENDBRANCH   1   9
TORSDOF 9
ENDMDL
MODEL 6
REMARK VINA RESULT:    -3.364      1.012      2.410
REMARK INTER + INTRA:          -6.442
REMARK INTER:                  -5.099
REMARK INTRA:                  -1.343
REMARK UNBOUND:                -1.309
REMARK SMILES CCCCCCCCCC=CC(=O)[O-]
REMARK SMILES IDX 7 1 8 2 9 3 10 4 11 5 12 6 13 7 14 8 6 9 5 10 4 11 3 12 2 13
REMARK SMILES IDX 1 14
REMARK H PARENT
REMARK Flexibility Score: inf
ROOT
ATOM      1  C   UNL     1      15.125  24.166  80.287  1.00  0.00     0.000 C 
ENDROOT
BRANCH   1   2
ATOM      2  C   UNL     1      15.203  23.608  81.716  1.00  0.00     0.004 C 
BRANCH   2   3
ATOM      3  C   UNL     1      15.339  24.723  82.765  1.00  0.00     0.027 C 
BRANCH   3   4
ATOM      4  C   UNL     1      14.148  24.794  83.684  1.00  0.00    -0.025 C 
ATOM      5  C   UNL     1      13.135  25.673  83.599  1.00  0.00     0.020 C 
BRANCH   5   6
ATOM      6  C   UNL     1      13.004  26.776  82.623  1.00  0.00     0.064 C 
ATOM      7  O   UNL     1      12.314  26.664  81.576  1.00  0.00    -0.545 OA
ATOM      8  O   UNL     1      13.686  27.962  82.856  1.00  0.00    -0.545 OA
ENDBRANCH   5   6
ENDBRANCH   3   4
ENDBRANCH   2   3
ENDBRANCH   1   2
BRANCH   1   9
ATOM      9  C   UNL     1      13.700  24.061  79.732  1.00  0.00     0.000 C 
BRANCH   9  10
ATOM     10  C   UNL     1      12.797  23.263  80.684  1.00  0.00     0.000 C 
BRANCH  10  11
ATOM     11  C   UNL     1      12.179  22.023  80.018  1.00  0.00    -0.000 C 
BRANCH  11  12
ATOM     12  C   UNL     1      13.013  21.511  78.831  1.00  0.00    -0.000 C 
BRANCH  12  13
ATOM     13  C   UNL     1      13.809  20.242  79.175  1.00  0.00    -0.003 C 
ATOM     14  C   UNL     1      15.285  20.524  79.452  1.00  0.00     0.004 C 
ENDBRANCH  12  13
ENDBRANCH  11  12
ENDBRANCH  10  11
ENDBRANCH   9  10
ENDBRANCH   1   9
TORSDOF 9
ENDMDL
MODEL 7
REMARK VINA RESULT:    -3.358      1.968      3.288
REMARK INTER + INTRA:          -6.433
REMARK INTER:                  -5.123
REMARK INTRA:                  -1.310
REMARK UNBOUND:                -1.309
REMARK SMILES CCCCCCCCCC=CC(=O)[O-]
REMARK SMILES IDX 7 1 8 2 9 3 10 4 11 5 12 6 13 7 14 8 6 9 5 10 4 11 3 12 2 13
REMARK SMILES IDX 1 14
REMARK H PARENT
REMARK Flexibility Score: inf
ROOT
ATOM      1  C   UNL     1      12.905  25.324  78.189  1.00  0.00     0.000 C 
ENDROOT
BRANCH   1   2
ATOM      2  C   UNL     1      12.670  26.038  79.529  1.00  0.00     0.004 C 
BRANCH   2   3
ATOM      3  C   UNL     1      13.767  25.714  80.556  1.00  0.00     0.027 C 
BRANCH   3   4
ATOM      4  C   UNL     1      13.250  24.888  81.704  1.00  0.00    -0.025 C 
ATOM      5  C   UNL     1      12.634  25.358  82.802  1.00  0.00     0.020 C 
BRANCH   5   6
ATOM      6  C   UNL     1      12.380  26.776  83.131  1.00  0.00     0.064 C 
ATOM      7  O   UNL     1      13.298  27.637  83.139  1.00  0.00    -0.545 OA
ATOM      8  O   UNL     1      11.091  27.164  83.470  1.00  0.00    -0.545 OA
ENDBRANCH   5   6
ENDBRANCH   3   4
ENDBRANCH   2   3
ENDBRANCH   1   2
BRANCH   1   9
ATOM      9  C   UNL     1      11.622  24.641  77.698  1.00  0.00     0.000 C 
BRANCH   9  10
ATOM     10  C   UNL     1      11.706  23.119  77.881  1.00  0.00     0.000 C 
BRANCH  10  11
ATOM     11  C   UNL     1      11.214  22.659  79.264  1.00  0.00    -0.000 C 
BRANCH  11  12
ATOM     12  C   UNL     1      12.290  21.889  80.048  1.00  0.00    -0.000 C 
BRANCH  12  13
ATOM     13  C   UNL     1      13.513  21.543  79.184  1.00  0.00    -0.003 C 
ATOM     14  C   UNL     1      14.809  22.146  79.723  1.00  0.00     0.004 C 
ENDBRANCH  12  13
ENDBRANCH  11  12
ENDBRANCH  10  11
ENDBRANCH   9  10
ENDBRANCH   1   9
TORSDOF 9
ENDMDL
MODEL 8
REMARK VINA RESULT:    -3.353      1.811      4.352
REMARK INTER + INTRA:          -6.425
REMARK INTER:                  -5.065
REMARK INTRA:                  -1.360
REMARK UNBOUND:                -1.309
REMARK SMILES CCCCCCCCCC=CC(=O)[O-]
REMARK SMILES IDX 7 1 8 2 9 3 10 4 11 5 12 6 13 7 14 8 6 9 5 10 4 11 3 12 2 13
REMARK SMILES IDX 1 14
REMARK H PARENT
REMARK Flexibility Score: inf
ROOT
ATOM      1  C   UNL     1      14.986  24.153  80.796  1.00  0.00     0.000 C 
ENDROOT
BRANCH   1   2
ATOM      2  C   UNL     1      14.096  22.939  80.489  1.00  0.00     0.004 C 
BRANCH   2   3
ATOM      3  C   UNL     1      12.601  23.271  80.617  1.00  0.00     0.027 C 
BRANCH   3   4
ATOM      4  C   UNL     1      11.777  22.629  79.531  1.00  0.00    -0.025 C 
ATOM      5  C   UNL     1      11.543  23.139  78.310  1.00  0.00     0.020 C 
BRANCH   5   6
ATOM      6  C   UNL     1      12.004  24.446  77.797  1.00  0.00     0.064 C 
ATOM      7  O   UNL     1      11.229  25.432  77.685  1.00  0.00    -0.545 OA
ATOM      8  O   UNL     1      13.327  24.582  77.400  1.00  0.00    -0.545 OA
ENDBRANCH   5   6
ENDBRANCH   3   4
ENDBRANCH   2   3
ENDBRANCH   1   2
BRANCH   1   9
ATOM      9  C   UNL     1      15.484  24.118  82.246  1.00  0.00     0.000 C 
BRANCH   9  10
ATOM     10  C   UNL     1      14.935  25.310  83.042  1.00  0.00     0.000 C 
BRANCH  10  11
ATOM     11  C   UNL     1      13.544  25.037  83.639  1.00  0.00    -0.000 C 
BRANCH  11  12
ATOM     12  C   UNL     1      12.467  25.985  83.086  1.00  0.00    -0.000 C 
BRANCH  12  13
ATOM     13  C   UNL     1      13.054  27.079  82.180  1.00  0.00    -0.003 C 
ATOM     14  C   UNL     1      12.554  26.987  80.739  1.00  0.00     0.004 C 
ENDBRANCH  12  13
ENDBRANCH  11  12
ENDBRANCH  10  11
ENDBRANCH   9  10
ENDBRANCH   1   9
TORSDOF 9
ENDMDL
MODEL 9
REMARK VINA RESULT:    -3.298      2.711      4.326
REMARK INTER + INTRA:          -6.342
REMARK INTER:                  -5.841
REMARK INTRA:                  -0.501
REMARK UNBOUND:                -1.309
REMARK SMILES CCCCCCCCCC=CC(=O)[O-]
REMARK SMILES IDX 7 1 8 2 9 3 10 4 11 5 12 6 13 7 14 8 6 9 5 10 4 11 3 12 2 13
REMARK SMILES IDX 1 14
REMARK H PARENT
REMARK Flexibility Score: inf
ROOT
ATOM      1  C   UNL     1      12.239  21.881  79.996  1.00  0.00     0.000 C 
ENDROOT
BRANCH   1   2
ATOM      2  C   UNL     1      12.535  23.202  80.721  1.00  0.00     0.004 C 
BRANCH   2   3
ATOM      3  C   UNL     1      14.043  23.437  80.901  1.00  0.00     0.027 C 
BRANCH   3   4
ATOM      4  C   UNL     1      14.397  24.902  80.912  1.00  0.00    -0.025 C 
ATOM      5  C   UNL     1      14.283  25.734  81.961  1.00  0.00     0.020 C 
BRANCH   5   6
ATOM      6  C   UNL     1      13.747  25.401  83.297  1.00  0.00     0.064 C 
ATOM      7  O   UNL     1      14.461  24.885  84.197  1.00  0.00    -0.545 OA
ATOM      8  O   UNL     1      12.404  25.639  83.559  1.00  0.00    -0.545 OA
ENDBRANCH   5   6
ENDBRANCH   3   4
ENDBRANCH   2   3
ENDBRANCH   1   2
BRANCH   1   9
ATOM      9  C   UNL     1      13.382  21.507  79.045  1.00  0.00     0.000 C 
BRANCH   9  10
ATOM     10  C   UNL     1      13.736  20.018  79.172  1.00  0.00     0.000 C 
BRANCH  10  11
ATOM     11  C   UNL     1      13.742  19.291  77.817  1.00  0.00    -0.000 C 
BRANCH  11  12
ATOM     12  C   UNL     1      13.396  17.798  77.946  1.00  0.00    -0.000 C 
BRANCH  12  13
ATOM     13  C   UNL     1      14.083  17.137  79.151  1.00  0.00    -0.003 C 
ATOM     14  C   UNL     1      13.687  15.672  79.329  1.00  0.00     0.004 C 
ENDBRANCH  12  13
ENDBRANCH  11  12
ENDBRANCH  10  11
ENDBRANCH   9  10
ENDBRANCH   1   9
TORSDOF 9
ENDMDL
