MODEL 1
REMARK VINA RESULT:     2.649      0.000      0.000
REMARK INTER + INTRA:           5.967
REMARK INTER:                   4.352
REMARK INTRA:                   1.615
REMARK UNBOUND:                 1.615
REMARK SMILES COc1ccc([C@H]2CC(=O)c3c(O)cc(O[C@@H]4O[C@H](CO[C@H]5O[C@@H](C)[C@H](O)[C@@H](O)[C@H]5O)[C@@H](O)[C@@H](O)[C@H]4O)cc3O2)cc1O
REMARK SMILES IDX 19 1 32 2 34 3 36 4 17 5 18 6 20 7 21 8 22 9 25 10 24 11
REMARK SMILES IDX 26 12 23 13 28 14 30 15 27 16 29 18 31 20 33 22 35 24 16 26
REMARK SMILES IDX 15 27 14 28 38 29 12 30 39 31 11 32 40 33 9 34 7 35 10 36
REMARK SMILES IDX 8 37 13 38 6 40 41 41 5 42 42 43 4 44 3 45 43 46 2 48 1 49
REMARK SMILES IDX 37 50
REMARK H PARENT 27 17 29 19 31 21 33 23 35 25 13 39 43 47 37 51
REMARK Flexibility Score: inf
ROOT
ATOM      1  C   UNL     1       2.390  33.419  86.849  1.00  0.00     0.180 C 
ATOM      2  C   UNL     1       2.371  33.633  88.488  1.00  0.00     0.177 C 
ATOM      3  C   UNL     1       1.424  34.832  89.036  1.00  0.00     0.180 C 
ATOM      4  C   UNL     1       0.100  34.925  88.198  1.00  0.00     0.214 C 
ATOM      5  C   UNL     1       0.484  34.720  86.695  1.00  0.00     0.339 C 
ATOM      6  O   UNL     1       1.042  33.442  86.454  1.00  0.00    -0.332 OA
ENDROOT
BRANCH   1   7
ATOM      7  C   UNL     1       3.076  32.112  86.178  1.00  0.00     0.198 C 
BRANCH   7   8
ATOM      8  O   UNL     1       4.532  31.867  86.245  1.00  0.00    -0.347 OA
BRANCH   8   9
ATOM      9  C   UNL     1       5.311  32.827  85.530  1.00  0.00     0.281 C 
ATOM     10  C   UNL     1       5.644  34.836  88.405  1.00  0.00     0.041 C 
ATOM     11  C   UNL     1       6.383  34.470  87.046  1.00  0.00     0.150 C 
ATOM     12  C   UNL     1       7.591  33.555  87.321  1.00  0.00     0.174 C 
ATOM     13  O   UNL     1       5.364  34.098  86.110  1.00  0.00    -0.344 OA
ATOM     14  C   UNL     1       7.831  32.473  86.240  1.00  0.00     0.179 C 
ATOM     15  C   UNL     1       6.709  32.323  85.168  1.00  0.00     0.202 C 
BRANCH  12  16
ATOM     16  O   UNL     1       8.697  34.348  87.482  1.00  0.00    -0.388 OA
ATOM     17  H   UNL     1       9.153  34.537  86.603  1.00  0.00     0.211 HD
ENDBRANCH  12  16
BRANCH  14  18
ATOM     18  O   UNL     1       8.032  31.206  86.902  1.00  0.00    -0.387 OA
ATOM     19  H   UNL     1       7.871  30.521  86.172  1.00  0.00     0.211 HD
ENDBRANCH  14  18
BRANCH  15  20
ATOM     20  O   UNL     1       6.823  31.021  84.690  1.00  0.00    -0.385 OA
ATOM     21  H   UNL     1       5.892  30.681  84.717  1.00  0.00     0.211 HD
ENDBRANCH  15  20
ENDBRANCH   8   9
ENDBRANCH   7   8
ENDBRANCH   1   7
BRANCH   2  22
ATOM     22  O   UNL     1       3.690  33.703  89.024  1.00  0.00    -0.387 OA
ATOM     23  H   UNL     1       3.783  32.873  89.602  1.00  0.00     0.211 HD
ENDBRANCH   2  22
BRANCH   3  24
ATOM     24  O   UNL     1       2.125  36.078  89.089  1.00  0.00    -0.387 OA
ATOM     25  H   UNL     1       2.255  36.312  90.051  1.00  0.00     0.211 HD
ENDBRANCH   3  24
BRANCH   5  26
ATOM     26  O   UNL     1      -0.628  34.857  85.801  1.00  0.00    -0.462 OA
BRANCH  26  27
ATOM     27  C   UNL     1      -1.217  33.651  85.303  1.00  0.00     0.130 A 
ATOM     28  C   UNL     1      -0.721  32.354  85.777  1.00  0.00     0.093 A 
ATOM     29  C   UNL     1      -2.261  33.733  84.323  1.00  0.00     0.094 A 
ATOM     30  C   UNL     1      -1.730  31.367  85.654  1.00  0.00     0.133 A 
ATOM     31  C   UNL     1      -2.942  32.507  83.949  1.00  0.00     0.138 A 
ATOM     32  C   UNL     1      -2.383  31.237  84.378  1.00  0.00     0.102 A 
ATOM     33  O   UNL     1      -3.713  32.560  82.836  1.00  0.00    -0.484 OA
ATOM     34  C   UNL     1      -1.601  30.907  83.117  1.00  0.00     0.174 C 
ATOM     35  C   UNL     1      -3.660  31.445  81.961  1.00  0.00     0.211 C 
ATOM     36  O   UNL     1      -0.367  30.877  83.120  1.00  0.00    -0.294 OA
ATOM     37  C   UNL     1      -2.282  30.884  81.775  1.00  0.00     0.131 C 
BRANCH  30  38
ATOM     38  O   UNL     1      -2.423  30.876  86.824  1.00  0.00    -0.507 OA
ATOM     39  H   UNL     1      -3.276  30.343  86.743  1.00  0.00     0.293 HD
ENDBRANCH  30  38
BRANCH  35  40
ATOM     40  C   UNL     1      -4.273  31.794  80.579  1.00  0.00    -0.003 A 
ATOM     41  C   UNL     1      -4.703  33.120  80.288  1.00  0.00     0.057 A 
ATOM     42  C   UNL     1      -4.031  30.887  79.515  1.00  0.00     0.011 A 
ATOM     43  C   UNL     1      -4.744  33.519  78.896  1.00  0.00     0.158 A 
ATOM     44  C   UNL     1      -4.214  31.243  78.194  1.00  0.00     0.051 A 
ATOM     45  C   UNL     1      -4.423  32.585  77.878  1.00  0.00     0.160 A 
BRANCH  43  46
ATOM     46  O   UNL     1      -5.117  34.836  78.555  1.00  0.00    -0.504 OA
ATOM     47  H   UNL     1      -5.229  35.180  77.571  1.00  0.00     0.293 HD
ENDBRANCH  43  46
BRANCH  45  48
ATOM     48  O   UNL     1      -4.413  32.944  76.536  1.00  0.00    -0.493 OA
ATOM     49  C   UNL     1      -3.440  32.379  75.678  1.00  0.00     0.278 C 
ENDBRANCH  45  48
ENDBRANCH  35  40
ENDBRANCH  26  27
ENDBRANCH   5  26
BRANCH   4  50
ATOM     50  O   UNL     1      -0.555  36.178  88.320  1.00  0.00    -0.384 OA
ATOM     51  H   UNL     1      -0.164  36.527  89.197  1.00  0.00     0.211 HD
ENDBRANCH   4  50
TORSDOF 15
ENDMDL
MODEL 2
REMARK VINA RESULT:     4.324      4.289     10.742
REMARK INTER + INTRA:           8.720
REMARK INTER:                   8.704
REMARK INTRA:                   0.016
REMARK UNBOUND:                 1.615
REMARK SMILES COc1ccc([C@H]2CC(=O)c3c(O)cc(O[C@@H]4O[C@H](CO[C@H]5O[C@@H](C)[C@H](O)[C@@H](O)[C@H]5O)[C@@H](O)[C@@H](O)[C@H]4O)cc3O2)cc1O
REMARK SMILES IDX 19 1 32 2 34 3 36 4 17 5 18 6 20 7 21 8 22 9 25 10 24 11
REMARK SMILES IDX 26 12 23 13 28 14 30 15 27 16 29 18 31 20 33 22 35 24 16 26
REMARK SMILES IDX 15 27 14 28 38 29 12 30 39 31 11 32 40 33 9 34 7 35 10 36
REMARK SMILES IDX 8 37 13 38 6 40 41 41 5 42 42 43 4 44 3 45 43 46 2 48 1 49
REMARK SMILES IDX 37 50
REMARK H PARENT 27 17 29 19 31 21 33 23 35 25 13 39 43 47 37 51
REMARK Flexibility Score: inf
ROOT
ATOM      1  C   UNL     1       1.958  31.583  85.217  1.00  0.00     0.180 C 
ATOM      2  C   UNL     1       2.260  30.909  83.738  1.00  0.00     0.177 C 
ATOM      3  C   UNL     1       3.783  31.045  83.194  1.00  0.00     0.180 C 
ATOM      4  C   UNL     1       4.811  30.894  84.370  1.00  0.00     0.214 C 
ATOM      5  C   UNL     1       4.238  31.681  85.594  1.00  0.00     0.339 C 
ATOM      6  O   UNL     1       3.007  31.149  86.045  1.00  0.00    -0.332 OA
ENDROOT
BRANCH   1   7
ATOM      7  C   UNL     1       0.566  31.306  86.000  1.00  0.00     0.198 C 
BRANCH   7   8
ATOM      8  O   UNL     1       0.510  31.134  87.467  1.00  0.00    -0.347 OA
BRANCH   8   9
ATOM      9  C   UNL     1      -0.058  32.248  88.156  1.00  0.00     0.281 C 
ATOM     10  C   UNL     1       2.022  34.500  86.419  1.00  0.00     0.041 C 
ATOM     11  C   UNL     1       0.606  34.408  87.136  1.00  0.00     0.150 C 
ATOM     12  C   UNL     1      -0.524  34.359  86.090  1.00  0.00     0.174 C 
ATOM     13  O   UNL     1       0.723  33.407  88.154  1.00  0.00    -0.344 OA
ATOM     14  C   UNL     1      -1.711  33.444  86.477  1.00  0.00     0.179 C 
ATOM     15  C   UNL     1      -1.498  32.549  87.735  1.00  0.00     0.202 C 
BRANCH  12  16
ATOM     16  O   UNL     1      -0.943  35.642  85.856  1.00  0.00    -0.388 OA
ATOM     17  H   UNL     1      -0.172  36.255  85.644  1.00  0.00     0.211 HD
ENDBRANCH  12  16
BRANCH  14  18
ATOM     18  O   UNL     1      -2.027  32.608  85.344  1.00  0.00    -0.387 OA
ATOM     19  H   UNL     1      -1.606  31.714  85.575  1.00  0.00     0.211 HD
ENDBRANCH  14  18
BRANCH  15  20
ATOM     20  O   UNL     1      -2.364  31.472  87.577  1.00  0.00    -0.385 OA
ATOM     21  H   UNL     1      -2.677  31.286  88.500  1.00  0.00     0.211 HD
ENDBRANCH  15  20
ENDBRANCH   8   9
ENDBRANCH   7   8
ENDBRANCH   1   7
BRANCH   2  22
ATOM     22  O   UNL     1       1.304  31.326  82.765  1.00  0.00    -0.387 OA
ATOM     23  H   UNL     1       1.478  30.737  81.957  1.00  0.00     0.211 HD
ENDBRANCH   2  22
BRANCH   3  24
ATOM     24  O   UNL     1       3.975  32.253  82.452  1.00  0.00    -0.387 OA
ATOM     25  H   UNL     1       3.263  32.896  82.731  1.00  0.00     0.211 HD
ENDBRANCH   3  24
BRANCH   5  26
ATOM     26  O   UNL     1       5.118  31.692  86.725  1.00  0.00    -0.462 OA
BRANCH  26  27
ATOM     27  C   UNL     1       6.094  32.737  86.784  1.00  0.00     0.130 A 
ATOM     28  C   UNL     1       7.521  32.397  86.754  1.00  0.00     0.093 A 
ATOM     29  C   UNL     1       5.657  34.098  86.902  1.00  0.00     0.094 A 
ATOM     30  C   UNL     1       8.276  33.486  86.252  1.00  0.00     0.133 A 
ATOM     31  C   UNL     1       6.658  35.146  86.806  1.00  0.00     0.138 A 
ATOM     32  C   UNL     1       8.063  34.777  86.851  1.00  0.00     0.102 A 
ATOM     33  O   UNL     1       6.275  36.384  87.199  1.00  0.00    -0.484 OA
ATOM     34  C   UNL     1       8.301  35.013  88.334  1.00  0.00     0.174 C 
ATOM     35  C   UNL     1       7.212  37.141  87.948  1.00  0.00     0.211 C 
ATOM     36  O   UNL     1       8.551  34.076  89.097  1.00  0.00    -0.294 OA
ATOM     37  C   UNL     1       7.968  36.338  88.964  1.00  0.00     0.131 C 
BRANCH  30  38
ATOM     38  O   UNL     1       8.832  33.440  84.918  1.00  0.00    -0.507 OA
ATOM     39  H   UNL     1       9.566  34.072  84.634  1.00  0.00     0.293 HD
ENDBRANCH  30  38
BRANCH  35  40
ATOM     40  C   UNL     1       6.524  38.347  88.642  1.00  0.00    -0.003 A 
ATOM     41  C   UNL     1       7.190  39.602  88.749  1.00  0.00     0.057 A 
ATOM     42  C   UNL     1       5.116  38.285  88.802  1.00  0.00     0.011 A 
ATOM     43  C   UNL     1       6.366  40.785  88.885  1.00  0.00     0.158 A 
ATOM     44  C   UNL     1       4.360  39.408  89.075  1.00  0.00     0.051 A 
ATOM     45  C   UNL     1       4.955  40.664  88.970  1.00  0.00     0.160 A 
BRANCH  43  46
ATOM     46  O   UNL     1       6.972  42.058  88.947  1.00  0.00    -0.504 OA
ATOM     47  H   UNL     1       6.628  42.899  88.424  1.00  0.00     0.293 HD
ENDBRANCH  43  46
BRANCH  45  48
ATOM     48  O   UNL     1       4.132  41.780  89.061  1.00  0.00    -0.493 OA
ATOM     49  C   UNL     1       2.730  41.612  88.979  1.00  0.00     0.278 C 
ENDBRANCH  45  48
ENDBRANCH  35  40
ENDBRANCH  26  27
ENDBRANCH   5  26
BRANCH   4  50
ATOM     50  O   UNL     1       6.093  31.420  84.066  1.00  0.00    -0.384 OA
ATOM     51  H   UNL     1       6.705  30.687  84.427  1.00  0.00     0.211 HD
ENDBRANCH   4  50
TORSDOF 15
ENDMDL
MODEL 3
REMARK VINA RESULT:     4.611      2.104     10.418
REMARK INTER + INTRA:           9.192
REMARK INTER:                   6.932
REMARK INTRA:                   2.259
REMARK UNBOUND:                 1.615
REMARK SMILES COc1ccc([C@H]2CC(=O)c3c(O)cc(O[C@@H]4O[C@H](CO[C@H]5O[C@@H](C)[C@H](O)[C@@H](O)[C@H]5O)[C@@H](O)[C@@H](O)[C@H]4O)cc3O2)cc1O
REMARK SMILES IDX 19 1 32 2 34 3 36 4 17 5 18 6 20 7 21 8 22 9 25 10 24 11
REMARK SMILES IDX 26 12 23 13 28 14 30 15 27 16 29 18 31 20 33 22 35 24 16 26
REMARK SMILES IDX 15 27 14 28 38 29 12 30 39 31 11 32 40 33 9 34 7 35 10 36
REMARK SMILES IDX 8 37 13 38 6 40 41 41 5 42 42 43 4 44 3 45 43 46 2 48 1 49
REMARK SMILES IDX 37 50
REMARK H PARENT 27 17 29 19 31 21 33 23 35 25 13 39 43 47 37 51
REMARK Flexibility Score: inf
ROOT
ATOM      1  C   UNL     1      -4.094  33.763  82.139  1.00  0.00     0.180 C 
ATOM      2  C   UNL     1      -4.319  32.150  81.850  1.00  0.00     0.177 C 
ATOM      3  C   UNL     1      -3.378  31.139  82.701  1.00  0.00     0.180 C 
ATOM      4  C   UNL     1      -3.165  31.671  84.162  1.00  0.00     0.214 C 
ATOM      5  C   UNL     1      -2.940  33.217  84.067  1.00  0.00     0.339 C 
ATOM      6  O   UNL     1      -4.066  33.890  83.537  1.00  0.00    -0.332 OA
ENDROOT
BRANCH   1   7
ATOM      7  C   UNL     1      -5.125  34.873  81.564  1.00  0.00     0.198 C 
BRANCH   7   8
ATOM      8  O   UNL     1      -5.100  35.314  80.153  1.00  0.00    -0.347 OA
BRANCH   8   9
ATOM      9  C   UNL     1      -3.825  35.166  79.527  1.00  0.00     0.281 C 
ATOM     10  C   UNL     1      -5.065  32.656  77.387  1.00  0.00     0.041 C 
ATOM     11  C   UNL     1      -3.956  33.791  77.467  1.00  0.00     0.150 C 
ATOM     12  C   UNL     1      -4.352  34.993  76.589  1.00  0.00     0.174 C 
ATOM     13  O   UNL     1      -3.633  33.955  78.853  1.00  0.00    -0.344 OA
ATOM     14  C   UNL     1      -3.963  36.371  77.180  1.00  0.00     0.179 C 
ATOM     15  C   UNL     1      -3.440  36.357  78.648  1.00  0.00     0.202 C 
BRANCH  12  16
ATOM     16  O   UNL     1      -3.800  34.813  75.348  1.00  0.00    -0.388 OA
ATOM     17  H   UNL     1      -3.240  33.976  75.305  1.00  0.00     0.211 HD
ENDBRANCH  12  16
BRANCH  14  18
ATOM     18  O   UNL     1      -5.108  37.243  77.088  1.00  0.00    -0.387 OA
ATOM     19  H   UNL     1      -5.295  37.296  76.092  1.00  0.00     0.211 HD
ENDBRANCH  14  18
BRANCH  15  20
ATOM     20  O   UNL     1      -3.689  37.633  79.144  1.00  0.00    -0.385 OA
ATOM     21  H   UNL     1      -4.672  37.732  79.048  1.00  0.00     0.211 HD
ENDBRANCH  15  20
ENDBRANCH   8   9
ENDBRANCH   7   8
ENDBRANCH   1   7
BRANCH   2  22
ATOM     22  O   UNL     1      -4.295  31.858  80.454  1.00  0.00    -0.387 OA
ATOM     23  H   UNL     1      -5.056  32.403  80.060  1.00  0.00     0.211 HD
ENDBRANCH   2  22
BRANCH   3  24
ATOM     24  O   UNL     1      -2.142  30.875  82.031  1.00  0.00    -0.387 OA
ATOM     25  H   UNL     1      -2.299  30.982  81.051  1.00  0.00     0.211 HD
ENDBRANCH   3  24
BRANCH   5  26
ATOM     26  O   UNL     1      -2.656  33.828  85.332  1.00  0.00    -0.462 OA
BRANCH  26  27
ATOM     27  C   UNL     1      -1.812  33.102  86.233  1.00  0.00     0.130 A 
ATOM     28  C   UNL     1      -2.111  33.110  87.669  1.00  0.00     0.093 A 
ATOM     29  C   UNL     1      -0.669  32.407  85.716  1.00  0.00     0.094 A 
ATOM     30  C   UNL     1      -1.580  31.951  88.288  1.00  0.00     0.133 A 
ATOM     31  C   UNL     1       0.080  31.558  86.625  1.00  0.00     0.138 A 
ATOM     32  C   UNL     1      -0.195  31.643  88.049  1.00  0.00     0.102 A 
ATOM     33  O   UNL     1       1.299  31.145  86.199  1.00  0.00    -0.484 OA
ATOM     34  C   UNL     1       0.910  32.617  88.425  1.00  0.00     0.174 C 
ATOM     35  C   UNL     1       2.347  31.138  87.154  1.00  0.00     0.211 C 
ATOM     36  O   UNL     1       0.650  33.757  88.819  1.00  0.00    -0.294 OA
ATOM     37  C   UNL     1       2.343  32.328  88.068  1.00  0.00     0.131 C 
BRANCH  30  38
ATOM     38  O   UNL     1      -2.453  30.875  88.702  1.00  0.00    -0.507 OA
ATOM     39  H   UNL     1      -3.450  30.924  88.557  1.00  0.00     0.293 HD
ENDBRANCH  30  38
BRANCH  35  40
ATOM     40  C   UNL     1       3.730  31.018  86.460  1.00  0.00    -0.003 A 
ATOM     41  C   UNL     1       3.826  30.936  85.041  1.00  0.00     0.057 A 
ATOM     42  C   UNL     1       4.870  31.384  87.219  1.00  0.00     0.011 A 
ATOM     43  C   UNL     1       5.067  31.366  84.430  1.00  0.00     0.158 A 
ATOM     44  C   UNL     1       6.089  31.652  86.628  1.00  0.00     0.051 A 
ATOM     45  C   UNL     1       6.151  31.788  85.242  1.00  0.00     0.160 A 
BRANCH  43  46
ATOM     46  O   UNL     1       5.199  31.351  83.025  1.00  0.00    -0.504 OA
ATOM     47  H   UNL     1       6.114  31.264  82.522  1.00  0.00     0.293 HD
ENDBRANCH  43  46
BRANCH  45  48
ATOM     48  O   UNL     1       7.342  32.245  84.689  1.00  0.00    -0.493 OA
ATOM     49  C   UNL     1       7.711  33.599  84.867  1.00  0.00     0.278 C 
ENDBRANCH  45  48
ENDBRANCH  35  40
ENDBRANCH  26  27
ENDBRANCH   5  26
BRANCH   4  50
ATOM     50  O   UNL     1      -2.040  31.099  84.810  1.00  0.00    -0.384 OA
ATOM     51  H   UNL     1      -1.489  30.775  84.013  1.00  0.00     0.211 HD
ENDBRANCH   4  50
TORSDOF 15
ENDMDL
MODEL 4
REMARK VINA RESULT:     5.540      4.514      8.170
REMARK INTER + INTRA:          10.718
REMARK INTER:                  11.102
REMARK INTRA:                  -0.385
REMARK UNBOUND:                 1.615
REMARK SMILES COc1ccc([C@H]2CC(=O)c3c(O)cc(O[C@@H]4O[C@H](CO[C@H]5O[C@@H](C)[C@H](O)[C@@H](O)[C@H]5O)[C@@H](O)[C@@H](O)[C@H]4O)cc3O2)cc1O
REMARK SMILES IDX 19 1 32 2 34 3 36 4 17 5 18 6 20 7 21 8 22 9 25 10 24 11
REMARK SMILES IDX 26 12 23 13 28 14 30 15 27 16 29 18 31 20 33 22 35 24 16 26
REMARK SMILES IDX 15 27 14 28 38 29 12 30 39 31 11 32 40 33 9 34 7 35 10 36
REMARK SMILES IDX 8 37 13 38 6 40 41 41 5 42 42 43 4 44 3 45 43 46 2 48 1 49
REMARK SMILES IDX 37 50
REMARK H PARENT 27 17 29 19 31 21 33 23 35 25 13 39 43 47 37 51
REMARK Flexibility Score: inf
ROOT
ATOM      1  C   UNL     1       7.261  37.527  87.867  1.00  0.00     0.180 C 
ATOM      2  C   UNL     1       8.891  37.253  87.907  1.00  0.00     0.177 C 
ATOM      3  C   UNL     1       9.366  35.743  87.549  1.00  0.00     0.180 C 
ATOM      4  C   UNL     1       8.477  35.135  86.406  1.00  0.00     0.214 C 
ATOM      5  C   UNL     1       6.996  35.549  86.697  1.00  0.00     0.339 C 
ATOM      6  O   UNL     1       6.816  36.953  86.664  1.00  0.00    -0.332 OA
ENDROOT
BRANCH   1   7
ATOM      7  C   UNL     1       6.657  39.029  87.947  1.00  0.00     0.198 C 
BRANCH   7   8
ATOM      8  O   UNL     1       6.651  39.938  86.781  1.00  0.00    -0.347 OA
BRANCH   8   9
ATOM      9  C   UNL     1       6.028  41.197  87.037  1.00  0.00     0.281 C 
ATOM     10  C   UNL     1       9.155  42.755  87.496  1.00  0.00     0.041 C 
ATOM     11  C   UNL     1       7.664  43.060  87.037  1.00  0.00     0.150 C 
ATOM     12  C   UNL     1       7.597  43.231  85.508  1.00  0.00     0.174 C 
ATOM     13  O   UNL     1       6.822  42.123  87.720  1.00  0.00    -0.344 OA
ATOM     14  C   UNL     1       6.311  42.664  84.858  1.00  0.00     0.179 C 
ATOM     15  C   UNL     1       5.393  41.821  85.793  1.00  0.00     0.202 C 
BRANCH  12  16
ATOM     16  O   UNL     1       7.751  44.562  85.222  1.00  0.00    -0.388 OA
ATOM     17  H   UNL     1       7.611  45.139  86.037  1.00  0.00     0.211 HD
ENDBRANCH  12  16
BRANCH  14  18
ATOM     18  O   UNL     1       6.693  41.868  83.717  1.00  0.00    -0.387 OA
ATOM     19  H   UNL     1       5.866  41.873  83.129  1.00  0.00     0.211 HD
ENDBRANCH  14  18
BRANCH  15  20
ATOM     20  O   UNL     1       4.669  40.985  84.949  1.00  0.00    -0.385 OA
ATOM     21  H   UNL     1       4.026  40.538  85.557  1.00  0.00     0.211 HD
ENDBRANCH  15  20
ENDBRANCH   8   9
ENDBRANCH   7   8
ENDBRANCH   1   7
BRANCH   2  22
ATOM     22  O   UNL     1       9.473  37.724  89.121  1.00  0.00    -0.387 OA
ATOM     23  H   UNL     1       9.770  36.885  89.612  1.00  0.00     0.211 HD
ENDBRANCH   2  22
BRANCH   3  24
ATOM     24  O   UNL     1       9.405  34.910  88.711  1.00  0.00    -0.387 OA
ATOM     25  H   UNL     1       8.562  34.375  88.729  1.00  0.00     0.211 HD
ENDBRANCH   3  24
BRANCH   5  26
ATOM     26  O   UNL     1       6.058  34.995  85.766  1.00  0.00    -0.462 OA
BRANCH  26  27
ATOM     27  C   UNL     1       5.399  33.783  86.148  1.00  0.00     0.130 A 
ATOM     28  C   UNL     1       6.045  32.493  85.883  1.00  0.00     0.093 A 
ATOM     29  C   UNL     1       4.102  33.852  86.756  1.00  0.00     0.094 A 
ATOM     30  C   UNL     1       5.575  31.511  86.790  1.00  0.00     0.133 A 
ATOM     31  C   UNL     1       3.523  32.623  87.270  1.00  0.00     0.138 A 
ATOM     32  C   UNL     1       4.151  31.359  86.928  1.00  0.00     0.102 A 
ATOM     33  O   UNL     1       2.204  32.658  87.575  1.00  0.00    -0.484 OA
ATOM     34  C   UNL     1       3.273  30.995  85.741  1.00  0.00     0.174 C 
ATOM     35  C   UNL     1       1.430  31.524  87.220  1.00  0.00     0.211 C 
ATOM     36  O   UNL     1       3.732  30.955  84.596  1.00  0.00    -0.294 OA
ATOM     37  C   UNL     1       1.776  30.948  85.879  1.00  0.00     0.131 C 
BRANCH  30  38
ATOM     38  O   UNL     1       6.415  31.051  87.873  1.00  0.00    -0.507 OA
ATOM     39  H   UNL     1       7.376  31.348  87.954  1.00  0.00     0.293 HD
ENDBRANCH  30  38
BRANCH  35  40
ATOM     40  C   UNL     1      -0.087  31.847  87.274  1.00  0.00    -0.003 A 
ATOM     41  C   UNL     1      -0.646  32.853  86.434  1.00  0.00     0.057 A 
ATOM     42  C   UNL     1      -0.936  30.877  87.864  1.00  0.00     0.011 A 
ATOM     43  C   UNL     1      -2.056  32.751  86.118  1.00  0.00     0.158 A 
ATOM     44  C   UNL     1      -2.302  30.881  87.667  1.00  0.00     0.051 A 
ATOM     45  C   UNL     1      -2.840  31.714  86.687  1.00  0.00     0.160 A 
BRANCH  43  46
ATOM     46  O   UNL     1      -2.650  33.693  85.253  1.00  0.00    -0.504 OA
ATOM     47  H   UNL     1      -3.673  33.924  85.248  1.00  0.00     0.293 HD
ENDBRANCH  43  46
BRANCH  45  48
ATOM     48  O   UNL     1      -4.185  31.562  86.374  1.00  0.00    -0.493 OA
ATOM     49  C   UNL     1      -4.551  31.197  85.057  1.00  0.00     0.278 C 
ENDBRANCH  45  48
ENDBRANCH  35  40
ENDBRANCH  26  27
ENDBRANCH   5  26
BRANCH   4  50
ATOM     50  O   UNL     1       8.536  33.719  86.342  1.00  0.00    -0.384 OA
ATOM     51  H   UNL     1       8.779  33.569  85.362  1.00  0.00     0.211 HD
ENDBRANCH   4  50
TORSDOF 15
ENDMDL
