MODEL 1
REMARK VINA RESULT:    -3.224      0.000      0.000
REMARK INTER + INTRA:          -3.989
REMARK INTER:                  -3.789
REMARK INTRA:                  -0.200
REMARK UNBOUND:                -0.200
REMARK SMILES [NH3+][C@H](CO)C(=O)[O-]
REMARK SMILES IDX 3 1 2 2 1 3 5 7 6 8 7 9 4 10
REMARK H PARENT 1 4 1 5 1 6 4 11
REMARK Flexibility Score: inf
ROOT
ATOM      1  C   UNL     1     175.901 162.687 169.617  1.00  0.00     0.227 C 
ENDROOT
BRANCH   1   2
ATOM      2  C   UNL     1     177.160 161.997 170.172  1.00  0.00     0.253 C 
BRANCH   2   3
ATOM      3  N   UNL     1     176.871 161.310 171.437  1.00  0.00    -0.348 N 
ATOM      4  H   UNL     1     177.587 160.571 171.630  1.00  0.00     0.345 HD
ATOM      5  H   UNL     1     175.925 160.868 171.396  1.00  0.00     0.345 HD
ATOM      6  H   UNL     1     176.872 162.002 172.223  1.00  0.00     0.345 HD
ENDBRANCH   2   3
BRANCH   2   7
ATOM      7  C   UNL     1     177.699 161.022 169.160  1.00  0.00     0.102 C 
ATOM      8  O   UNL     1     177.312 161.075 167.962  1.00  0.00    -0.544 OA
ATOM      9  O   UNL     1     178.612 160.047 169.542  1.00  0.00    -0.544 OA
ENDBRANCH   2   7
ENDBRANCH   1   2
BRANCH   1  10
ATOM     10  O   UNL     1     174.800 161.819 169.652  1.00  0.00    -0.390 OA
ATOM     11  H   UNL     1     174.712 161.435 168.741  1.00  0.00     0.210 HD
ENDBRANCH   1  10
TORSDOF 4
ENDMDL
MODEL 2
REMARK VINA RESULT:    -3.098      2.112      2.791
REMARK INTER + INTRA:          -3.840
REMARK INTER:                  -3.615
REMARK INTRA:                  -0.225
REMARK UNBOUND:                -0.200
REMARK SMILES [NH3+][C@H](CO)C(=O)[O-]
REMARK SMILES IDX 3 1 2 2 1 3 5 7 6 8 7 9 4 10
REMARK H PARENT 1 4 1 5 1 6 4 11
REMARK Flexibility Score: inf
ROOT
ATOM      1  C   UNL     1     178.044 161.548 171.044  1.00  0.00     0.227 C 
ENDROOT
BRANCH   1   2
ATOM      2  C   UNL     1     177.993 161.790 169.525  1.00  0.00     0.253 C 
BRANCH   2   3
ATOM      3  N   UNL     1     177.520 160.596 168.815  1.00  0.00    -0.348 N 
ATOM      4  H   UNL     1     176.475 160.545 168.829  1.00  0.00     0.345 HD
ATOM      5  H   UNL     1     177.910 159.736 169.265  1.00  0.00     0.345 HD
ATOM      6  H   UNL     1     177.850 160.621 167.822  1.00  0.00     0.345 HD
ENDBRANCH   2   3
BRANCH   2   7
ATOM      7  C   UNL     1     177.101 162.964 169.223  1.00  0.00     0.102 C 
ATOM      8  O   UNL     1     177.561 163.971 168.622  1.00  0.00    -0.544 OA
ATOM      9  O   UNL     1     175.769 162.953 169.619  1.00  0.00    -0.544 OA
ENDBRANCH   2   7
ENDBRANCH   1   2
BRANCH   1  10
ATOM     10  O   UNL     1     176.812 161.070 171.515  1.00  0.00    -0.390 OA
ATOM     11  H   UNL     1     176.188 161.843 171.511  1.00  0.00     0.210 HD
ENDBRANCH   1  10
TORSDOF 4
ENDMDL
MODEL 3
REMARK VINA RESULT:    -3.090     21.038     21.956
REMARK INTER + INTRA:          -3.831
REMARK INTER:                  -3.592
REMARK INTRA:                  -0.240
REMARK UNBOUND:                -0.200
REMARK SMILES [NH3+][C@H](CO)C(=O)[O-]
REMARK SMILES IDX 3 1 2 2 1 3 5 7 6 8 7 9 4 10
REMARK H PARENT 1 4 1 5 1 6 4 11
REMARK Flexibility Score: inf
ROOT
ATOM      1  C   UNL     1     161.809 178.679 167.969  1.00  0.00     0.227 C 
ENDROOT
BRANCH   1   2
ATOM      2  C   UNL     1     162.797 178.800 169.143  1.00  0.00     0.253 C 
BRANCH   2   3
ATOM      3  N   UNL     1     162.409 177.922 170.253  1.00  0.00    -0.348 N 
ATOM      4  H   UNL     1     161.441 177.551 170.111  1.00  0.00     0.345 HD
ATOM      5  H   UNL     1     162.445 178.450 171.155  1.00  0.00     0.345 HD
ATOM      6  H   UNL     1     163.078 177.120 170.320  1.00  0.00     0.345 HD
ENDBRANCH   2   3
BRANCH   2   7
ATOM      7  C   UNL     1     164.189 178.469 168.677  1.00  0.00     0.102 C 
ATOM      8  O   UNL     1     164.398 177.430 167.996  1.00  0.00    -0.544 OA
ATOM      9  O   UNL     1     165.255 179.296 169.008  1.00  0.00    -0.544 OA
ENDBRANCH   2   7
ENDBRANCH   1   2
BRANCH   1  10
ATOM     10  O   UNL     1     162.307 179.326 166.829  1.00  0.00    -0.390 OA
ATOM     11  H   UNL     1     162.467 180.272 167.087  1.00  0.00     0.210 HD
ENDBRANCH   1  10
TORSDOF 4
ENDMDL
MODEL 4
REMARK VINA RESULT:    -3.034      2.492      3.227
REMARK INTER + INTRA:          -3.765
REMARK INTER:                  -3.386
REMARK INTRA:                  -0.380
REMARK UNBOUND:                -0.200
REMARK SMILES [NH3+][C@H](CO)C(=O)[O-]
REMARK SMILES IDX 3 1 2 2 1 3 5 7 6 8 7 9 4 10
REMARK H PARENT 1 4 1 5 1 6 4 11
REMARK Flexibility Score: inf
ROOT
ATOM      1  C   UNL     1     177.740 163.263 167.507  1.00  0.00     0.227 C 
ENDROOT
BRANCH   1   2
ATOM      2  C   UNL     1     176.851 162.109 168.004  1.00  0.00     0.253 C 
BRANCH   2   3
ATOM      3  N   UNL     1     177.549 160.822 167.899  1.00  0.00    -0.348 N 
ATOM      4  H   UNL     1     177.018 160.071 168.399  1.00  0.00     0.345 HD
ATOM      5  H   UNL     1     178.505 160.899 168.314  1.00  0.00     0.345 HD
ATOM      6  H   UNL     1     177.652 160.557 166.891  1.00  0.00     0.345 HD
ENDBRANCH   2   3
BRANCH   2   7
ATOM      7  C   UNL     1     176.432 162.361 169.427  1.00  0.00     0.102 C 
ATOM      8  O   UNL     1     177.130 161.923 170.379  1.00  0.00    -0.544 OA
ATOM      9  O   UNL     1     175.265 163.065 169.701  1.00  0.00    -0.544 OA
ENDBRANCH   2   7
ENDBRANCH   1   2
BRANCH   1  10
ATOM     10  O   UNL     1     177.662 164.363 168.374  1.00  0.00    -0.390 OA
ATOM     11  H   UNL     1     177.392 165.141 167.820  1.00  0.00     0.210 HD
ENDBRANCH   1  10
TORSDOF 4
ENDMDL
MODEL 5
REMARK VINA RESULT:    -3.016      2.286      3.200
REMARK INTER + INTRA:          -3.745
REMARK INTER:                  -3.338
REMARK INTRA:                  -0.408
REMARK UNBOUND:                -0.200
REMARK SMILES [NH3+][C@H](CO)C(=O)[O-]
REMARK SMILES IDX 3 1 2 2 1 3 5 7 6 8 7 9 4 10
REMARK H PARENT 1 4 1 5 1 6 4 11
REMARK Flexibility Score: inf
ROOT
ATOM      1  C   UNL     1     178.057 162.101 167.497  1.00  0.00     0.227 C 
ENDROOT
BRANCH   1   2
ATOM      2  C   UNL     1     177.957 163.042 168.710  1.00  0.00     0.253 C 
BRANCH   2   3
ATOM      3  N   UNL     1     177.646 164.414 168.290  1.00  0.00    -0.348 N 
ATOM      4  H   UNL     1     176.869 164.811 168.868  1.00  0.00     0.345 HD
ATOM      5  H   UNL     1     177.363 164.423 167.284  1.00  0.00     0.345 HD
ATOM      6  H   UNL     1     178.495 165.017 168.395  1.00  0.00     0.345 HD
ENDBRANCH   2   3
BRANCH   2   7
ATOM      7  C   UNL     1     176.909 162.538 169.665  1.00  0.00     0.102 C 
ATOM      8  O   UNL     1     177.219 161.717 170.569  1.00  0.00    -0.544 OA
ATOM      9  O   UNL     1     175.590 162.960 169.547  1.00  0.00    -0.544 OA
ENDBRANCH   2   7
ENDBRANCH   1   2
BRANCH   1  10
ATOM     10  O   UNL     1     177.112 161.068 167.587  1.00  0.00    -0.390 OA
ATOM     11  H   UNL     1     176.406 161.384 168.211  1.00  0.00     0.210 HD
ENDBRANCH   1  10
TORSDOF 4
ENDMDL
MODEL 6
REMARK VINA RESULT:    -3.001     15.568     16.520
REMARK INTER + INTRA:          -3.727
REMARK INTER:                  -3.722
REMARK INTRA:                  -0.005
REMARK UNBOUND:                -0.200
REMARK SMILES [NH3+][C@H](CO)C(=O)[O-]
REMARK SMILES IDX 3 1 2 2 1 3 5 7 6 8 7 9 4 10
REMARK H PARENT 1 4 1 5 1 6 4 11
REMARK Flexibility Score: inf
ROOT
ATOM      1  C   UNL     1     159.854 161.516 169.747  1.00  0.00     0.227 C 
ENDROOT
BRANCH   1   2
ATOM      2  C   UNL     1     160.296 162.470 168.623  1.00  0.00     0.253 C 
BRANCH   2   3
ATOM      3  N   UNL     1     161.143 163.547 169.148  1.00  0.00    -0.348 N 
ATOM      4  H   UNL     1     161.477 164.167 168.373  1.00  0.00     0.345 HD
ATOM      5  H   UNL     1     161.971 163.142 169.642  1.00  0.00     0.345 HD
ATOM      6  H   UNL     1     160.602 164.120 169.837  1.00  0.00     0.345 HD
ENDBRANCH   2   3
BRANCH   2   7
ATOM      7  C   UNL     1     161.029 161.701 167.557  1.00  0.00     0.102 C 
ATOM      8  O   UNL     1     162.208 161.308 167.758  1.00  0.00    -0.544 OA
ATOM      9  O   UNL     1     160.417 161.435 166.338  1.00  0.00    -0.544 OA
ENDBRANCH   2   7
ENDBRANCH   1   2
BRANCH   1  10
ATOM     10  O   UNL     1     158.875 162.115 170.554  1.00  0.00    -0.390 OA
ATOM     11  H   UNL     1     158.260 161.389 170.838  1.00  0.00     0.210 HD
ENDBRANCH   1  10
TORSDOF 4
ENDMDL
MODEL 7
REMARK VINA RESULT:    -3.000     16.182     17.328
REMARK INTER + INTRA:          -3.726
REMARK INTER:                  -3.500
REMARK INTRA:                  -0.226
REMARK UNBOUND:                -0.200
REMARK SMILES [NH3+][C@H](CO)C(=O)[O-]
REMARK SMILES IDX 3 1 2 2 1 3 5 7 6 8 7 9 4 10
REMARK H PARENT 1 4 1 5 1 6 4 11
REMARK Flexibility Score: inf
ROOT
ATOM      1  C   UNL     1     161.299 162.204 169.029  1.00  0.00     0.227 C 
ENDROOT
BRANCH   1   2
ATOM      2  C   UNL     1     159.938 161.487 169.099  1.00  0.00     0.253 C 
BRANCH   2   3
ATOM      3  N   UNL     1     159.097 162.053 170.161  1.00  0.00    -0.348 N 
ATOM      4  H   UNL     1     159.457 162.989 170.459  1.00  0.00     0.345 HD
ATOM      5  H   UNL     1     159.084 161.412 170.986  1.00  0.00     0.345 HD
ATOM      6  H   UNL     1     158.114 162.157 169.815  1.00  0.00     0.345 HD
ENDBRANCH   2   3
BRANCH   2   7
ATOM      7  C   UNL     1     159.239 161.584 167.771  1.00  0.00     0.102 C 
ATOM      8  O   UNL     1     158.876 160.539 167.168  1.00  0.00    -0.544 OA
ATOM      9  O   UNL     1     159.002 162.825 167.191  1.00  0.00    -0.544 OA
ENDBRANCH   2   7
ENDBRANCH   1   2
BRANCH   1  10
ATOM     10  O   UNL     1     161.135 163.594 169.117  1.00  0.00    -0.390 OA
ATOM     11  H   UNL     1     162.005 163.963 169.423  1.00  0.00     0.210 HD
ENDBRANCH   1  10
TORSDOF 4
ENDMDL
MODEL 8
REMARK VINA RESULT:    -2.958     15.874     16.893
REMARK INTER + INTRA:          -3.676
REMARK INTER:                  -3.449
REMARK INTRA:                  -0.227
REMARK UNBOUND:                -0.200
REMARK SMILES [NH3+][C@H](CO)C(=O)[O-]
REMARK SMILES IDX 3 1 2 2 1 3 5 7 6 8 7 9 4 10
REMARK H PARENT 1 4 1 5 1 6 4 11
REMARK Flexibility Score: inf
ROOT
ATOM      1  C   UNL     1     159.251 161.011 169.498  1.00  0.00     0.227 C 
ENDROOT
BRANCH   1   2
ATOM      2  C   UNL     1     159.809 161.546 168.167  1.00  0.00     0.253 C 
BRANCH   2   3
ATOM      3  N   UNL     1     158.876 162.495 167.547  1.00  0.00    -0.348 N 
ATOM      4  H   UNL     1     159.181 162.733 166.575  1.00  0.00     0.345 HD
ATOM      5  H   UNL     1     158.828 163.371 168.115  1.00  0.00     0.345 HD
ATOM      6  H   UNL     1     157.917 162.077 167.514  1.00  0.00     0.345 HD
ENDBRANCH   2   3
BRANCH   2   7
ATOM      7  C   UNL     1     161.144 162.201 168.398  1.00  0.00     0.102 C 
ATOM      8  O   UNL     1     162.175 161.753 167.830  1.00  0.00    -0.544 OA
ATOM      9  O   UNL     1     161.251 163.294 169.249  1.00  0.00    -0.544 OA
ENDBRANCH   2   7
ENDBRANCH   1   2
BRANCH   1  10
ATOM     10  O   UNL     1     158.875 162.066 170.342  1.00  0.00    -0.390 OA
ATOM     11  H   UNL     1     159.479 162.826 170.132  1.00  0.00     0.210 HD
ENDBRANCH   1  10
TORSDOF 4
ENDMDL
