MODEL 1
REMARK VINA RESULT:    -5.234      0.000      0.000
REMARK INTER + INTRA:          -6.082
REMARK INTER:                  -5.999
REMARK INTRA:                  -0.083
REMARK UNBOUND:                -0.083
REMARK SMILES COc1cc(C(C)=O)ccc1O
REMARK SMILES IDX 5 1 4 2 3 3 11 4 10 5 9 6 6 7 7 8 8 9 2 10 1 11 12 12
REMARK H PARENT 12 13
REMARK Flexibility Score: inf
ROOT
ATOM      1  C   UNL     1       0.407  27.303  53.579  1.00  0.00     0.021 A 
ATOM      2  C   UNL     1       0.365  28.549  52.922  1.00  0.00     0.062 A 
ATOM      3  C   UNL     1      -0.757  28.926  52.159  1.00  0.00     0.161 A 
ATOM      4  C   UNL     1      -1.844  28.049  52.053  1.00  0.00     0.157 A 
ATOM      5  C   UNL     1      -1.811  26.810  52.702  1.00  0.00     0.051 A 
ATOM      6  C   UNL     1      -0.698  26.438  53.458  1.00  0.00     0.016 A 
ENDROOT
BRANCH   1   7
ATOM      7  C   UNL     1       1.601  26.922  54.381  1.00  0.00     0.159 C 
ATOM      8  C   UNL     1       2.785  26.239  53.764  1.00  0.00     0.093 C 
ATOM      9  O   UNL     1       1.633  27.174  55.616  1.00  0.00    -0.295 OA
ENDBRANCH   1   7
BRANCH   3  10
ATOM     10  O   UNL     1      -0.829  30.161  51.493  1.00  0.00    -0.493 OA
ATOM     11  C   UNL     1      -0.405  30.381  50.151  1.00  0.00     0.278 C 
ENDBRANCH   3  10
BRANCH   4  12
ATOM     12  O   UNL     1      -2.957  28.418  51.299  1.00  0.00    -0.504 OA
ATOM     13  H   UNL     1      -3.213  29.389  51.172  1.00  0.00     0.293 HD
ENDBRANCH   4  12
TORSDOF 3
ENDMDL
MODEL 2
REMARK VINA RESULT:    -5.079      1.364      4.387
REMARK INTER + INTRA:          -5.904
REMARK INTER:                  -5.850
REMARK INTRA:                  -0.054
REMARK UNBOUND:                -0.083
REMARK SMILES COc1cc(C(C)=O)ccc1O
REMARK SMILES IDX 5 1 4 2 3 3 11 4 10 5 9 6 6 7 7 8 8 9 2 10 1 11 12 12
REMARK H PARENT 12 13
REMARK Flexibility Score: inf
ROOT
ATOM      1  C   UNL     1      -1.384  29.210  51.832  1.00  0.00     0.021 A 
ATOM      2  C   UNL     1      -0.140  29.201  52.495  1.00  0.00     0.062 A 
ATOM      3  C   UNL     1       0.251  28.100  53.282  1.00  0.00     0.161 A 
ATOM      4  C   UNL     1      -0.611  27.002  53.406  1.00  0.00     0.157 A 
ATOM      5  C   UNL     1      -1.848  27.004  52.752  1.00  0.00     0.051 A 
ATOM      6  C   UNL     1      -2.233  28.096  51.972  1.00  0.00     0.016 A 
ENDROOT
BRANCH   1   7
ATOM      7  C   UNL     1      -1.779  30.383  51.005  1.00  0.00     0.159 C 
ATOM      8  C   UNL     1      -1.094  30.708  49.711  1.00  0.00     0.093 C 
ATOM      9  O   UNL     1      -2.716  31.134  51.390  1.00  0.00    -0.295 OA
ENDBRANCH   1   7
BRANCH   3  10
ATOM     10  O   UNL     1       1.484  28.060  53.954  1.00  0.00    -0.493 OA
ATOM     11  C   UNL     1       2.661  27.440  53.446  1.00  0.00     0.278 C 
ENDBRANCH   3  10
BRANCH   4  12
ATOM     12  O   UNL     1      -0.229  25.910  54.184  1.00  0.00    -0.504 OA
ATOM     13  H   UNL     1       0.492  25.989  54.891  1.00  0.00     0.293 HD
ENDBRANCH   4  12
TORSDOF 3
ENDMDL
MODEL 3
REMARK VINA RESULT:    -4.868      2.340      4.923
REMARK INTER + INTRA:          -5.662
REMARK INTER:                  -5.546
REMARK INTRA:                  -0.116
REMARK UNBOUND:                -0.083
REMARK SMILES COc1cc(C(C)=O)ccc1O
REMARK SMILES IDX 5 1 4 2 3 3 11 4 10 5 9 6 6 7 7 8 8 9 2 10 1 11 12 12
REMARK H PARENT 12 13
REMARK Flexibility Score: inf
ROOT
ATOM      1  C   UNL     1      -2.249  29.232  51.880  1.00  0.00     0.021 A 
ATOM      2  C   UNL     1      -2.216  29.405  53.278  1.00  0.00     0.062 A 
ATOM      3  C   UNL     1      -1.590  28.454  54.109  1.00  0.00     0.161 A 
ATOM      4  C   UNL     1      -0.996  27.323  53.535  1.00  0.00     0.157 A 
ATOM      5  C   UNL     1      -1.025  27.144  52.147  1.00  0.00     0.051 A 
ATOM      6  C   UNL     1      -1.644  28.087  51.326  1.00  0.00     0.016 A 
ENDROOT
BRANCH   1   7
ATOM      7  C   UNL     1      -2.914  30.247  51.019  1.00  0.00     0.159 C 
ATOM      8  C   UNL     1      -2.254  30.800  49.791  1.00  0.00     0.093 C 
ATOM      9  O   UNL     1      -4.065  30.665  51.318  1.00  0.00    -0.295 OA
ENDBRANCH   1   7
BRANCH   3  10
ATOM     10  O   UNL     1      -1.540  28.598  55.506  1.00  0.00    -0.493 OA
ATOM     11  C   UNL     1      -2.657  28.934  56.323  1.00  0.00     0.278 C 
ENDBRANCH   3  10
BRANCH   4  12
ATOM     12  O   UNL     1      -0.377  26.379  54.353  1.00  0.00    -0.504 OA
ATOM     13  H   UNL     1      -0.503  26.384  55.358  1.00  0.00     0.293 HD
ENDBRANCH   4  12
TORSDOF 3
ENDMDL
MODEL 4
REMARK VINA RESULT:    -4.835      2.112      2.906
REMARK INTER + INTRA:          -5.624
REMARK INTER:                  -5.505
REMARK INTRA:                  -0.120
REMARK UNBOUND:                -0.083
REMARK SMILES COc1cc(C(C)=O)ccc1O
REMARK SMILES IDX 5 1 4 2 3 3 11 4 10 5 9 6 6 7 7 8 8 9 2 10 1 11 12 12
REMARK H PARENT 12 13
REMARK Flexibility Score: inf
ROOT
ATOM      1  C   UNL     1       0.530  27.819  54.159  1.00  0.00     0.021 A 
ATOM      2  C   UNL     1      -0.653  27.955  54.914  1.00  0.00     0.062 A 
ATOM      3  C   UNL     1      -1.748  28.687  54.415  1.00  0.00     0.161 A 
ATOM      4  C   UNL     1      -1.656  29.289  53.153  1.00  0.00     0.157 A 
ATOM      5  C   UNL     1      -0.486  29.160  52.398  1.00  0.00     0.051 A 
ATOM      6  C   UNL     1       0.598  28.432  52.894  1.00  0.00     0.016 A 
ENDROOT
BRANCH   1   7
ATOM      7  C   UNL     1       1.676  27.042  54.703  1.00  0.00     0.159 C 
ATOM      8  C   UNL     1       2.614  26.284  53.812  1.00  0.00     0.093 C 
ATOM      9  O   UNL     1       1.876  27.008  55.948  1.00  0.00    -0.295 OA
ENDBRANCH   1   7
BRANCH   3  10
ATOM     10  O   UNL     1      -2.940  28.840  55.142  1.00  0.00    -0.493 OA
ATOM     11  C   UNL     1      -3.006  29.179  56.524  1.00  0.00     0.278 C 
ENDBRANCH   3  10
BRANCH   4  12
ATOM     12  O   UNL     1      -2.737  30.015  52.655  1.00  0.00    -0.504 OA
ATOM     13  H   UNL     1      -2.609  30.766  51.987  1.00  0.00     0.293 HD
ENDBRANCH   4  12
TORSDOF 3
ENDMDL
MODEL 5
REMARK VINA RESULT:    -4.801      1.907      2.649
REMARK INTER + INTRA:          -5.585
REMARK INTER:                  -5.478
REMARK INTRA:                  -0.107
REMARK UNBOUND:                -0.083
REMARK SMILES COc1cc(C(C)=O)ccc1O
REMARK SMILES IDX 5 1 4 2 3 3 11 4 10 5 9 6 6 7 7 8 8 9 2 10 1 11 12 12
REMARK H PARENT 12 13
REMARK Flexibility Score: inf
ROOT
ATOM      1  C   UNL     1      -0.907  28.769  52.473  1.00  0.00     0.021 A 
ATOM      2  C   UNL     1      -0.465  29.386  51.286  1.00  0.00     0.062 A 
ATOM      3  C   UNL     1      -1.263  30.342  50.628  1.00  0.00     0.161 A 
ATOM      4  C   UNL     1      -2.514  30.679  51.162  1.00  0.00     0.157 A 
ATOM      5  C   UNL     1      -2.960  30.071  52.340  1.00  0.00     0.051 A 
ATOM      6  C   UNL     1      -2.167  29.125  52.991  1.00  0.00     0.016 A 
ENDROOT
BRANCH   1   7
ATOM      7  C   UNL     1      -0.049  27.761  53.154  1.00  0.00     0.159 C 
ATOM      8  C   UNL     1      -0.539  26.377  53.457  1.00  0.00     0.093 C 
ATOM      9  O   UNL     1       1.127  28.067  53.494  1.00  0.00    -0.295 OA
ENDBRANCH   1   7
BRANCH   3  10
ATOM     10  O   UNL     1      -0.851  30.974  49.443  1.00  0.00    -0.493 OA
ATOM     11  C   UNL     1      -0.043  30.365  48.442  1.00  0.00     0.278 C 
ENDBRANCH   3  10
BRANCH   4  12
ATOM     12  O   UNL     1      -3.308  31.624  50.514  1.00  0.00    -0.504 OA
ATOM     13  H   UNL     1      -3.010  32.066  49.653  1.00  0.00     0.293 HD
ENDBRANCH   4  12
TORSDOF 3
ENDMDL
MODEL 6
REMARK VINA RESULT:    -4.734      1.753      4.616
REMARK INTER + INTRA:          -5.509
REMARK INTER:                  -5.430
REMARK INTRA:                  -0.079
REMARK UNBOUND:                -0.083
REMARK SMILES COc1cc(C(C)=O)ccc1O
REMARK SMILES IDX 5 1 4 2 3 3 11 4 10 5 9 6 6 7 7 8 8 9 2 10 1 11 12 12
REMARK H PARENT 12 13
REMARK Flexibility Score: inf
ROOT
ATOM      1  C   UNL     1      -1.350  29.704  51.753  1.00  0.00     0.021 A 
ATOM      2  C   UNL     1      -0.117  29.165  52.171  1.00  0.00     0.062 A 
ATOM      3  C   UNL     1       0.032  28.619  53.462  1.00  0.00     0.161 A 
ATOM      4  C   UNL     1      -1.061  28.616  54.338  1.00  0.00     0.157 A 
ATOM      5  C   UNL     1      -2.288  29.150  53.931  1.00  0.00     0.051 A 
ATOM      6  C   UNL     1      -2.433  29.690  52.651  1.00  0.00     0.016 A 
ENDROOT
BRANCH   1   7
ATOM      7  C   UNL     1      -1.488  30.276  50.386  1.00  0.00     0.159 C 
ATOM      8  C   UNL     1      -0.339  30.316  49.423  1.00  0.00     0.093 C 
ATOM      9  O   UNL     1      -2.597  30.745  50.012  1.00  0.00    -0.295 OA
ENDBRANCH   1   7
BRANCH   3  10
ATOM     10  O   UNL     1       1.247  28.073  53.908  1.00  0.00    -0.493 OA
ATOM     11  C   UNL     1       1.607  26.701  53.791  1.00  0.00     0.278 C 
ENDBRANCH   3  10
BRANCH   4  12
ATOM     12  O   UNL     1      -0.918  28.078  55.616  1.00  0.00    -0.504 OA
ATOM     13  H   UNL     1      -1.641  27.504  56.034  1.00  0.00     0.293 HD
ENDBRANCH   4  12
TORSDOF 3
ENDMDL
MODEL 7
REMARK VINA RESULT:    -4.694      2.482      5.318
REMARK INTER + INTRA:          -5.462
REMARK INTER:                  -5.348
REMARK INTRA:                  -0.114
REMARK UNBOUND:                -0.083
REMARK SMILES COc1cc(C(C)=O)ccc1O
REMARK SMILES IDX 5 1 4 2 3 3 11 4 10 5 9 6 6 7 7 8 8 9 2 10 1 11 12 12
REMARK H PARENT 12 13
REMARK Flexibility Score: inf
ROOT
ATOM      1  C   UNL     1      -1.806  30.178  50.994  1.00  0.00     0.021 A 
ATOM      2  C   UNL     1      -2.485  29.498  52.024  1.00  0.00     0.062 A 
ATOM      3  C   UNL     1      -1.779  28.933  53.105  1.00  0.00     0.161 A 
ATOM      4  C   UNL     1      -0.384  29.049  53.150  1.00  0.00     0.157 A 
ATOM      5  C   UNL     1       0.298  29.722  52.131  1.00  0.00     0.051 A 
ATOM      6  C   UNL     1      -0.404  30.282  51.062  1.00  0.00     0.016 A 
ENDROOT
BRANCH   1   7
ATOM      7  C   UNL     1      -2.570  30.769  49.861  1.00  0.00     0.159 C 
ATOM      8  C   UNL     1      -1.901  31.182  48.584  1.00  0.00     0.093 C 
ATOM      9  O   UNL     1      -3.816  30.933  49.963  1.00  0.00    -0.295 OA
ENDBRANCH   1   7
BRANCH   3  10
ATOM     10  O   UNL     1      -2.427  28.250  54.147  1.00  0.00    -0.493 OA
ATOM     11  C   UNL     1      -2.923  28.867  55.331  1.00  0.00     0.278 C 
ENDBRANCH   3  10
BRANCH   4  12
ATOM     12  O   UNL     1       0.320  28.491  54.217  1.00  0.00    -0.504 OA
ATOM     13  H   UNL     1       0.834  29.067  54.873  1.00  0.00     0.293 HD
ENDBRANCH   4  12
TORSDOF 3
ENDMDL
MODEL 8
REMARK VINA RESULT:    -4.549      2.074      5.035
REMARK INTER + INTRA:          -5.297
REMARK INTER:                  -5.190
REMARK INTRA:                  -0.107
REMARK UNBOUND:                -0.083
REMARK SMILES COc1cc(C(C)=O)ccc1O
REMARK SMILES IDX 5 1 4 2 3 3 11 4 10 5 9 6 6 7 7 8 8 9 2 10 1 11 12 12
REMARK H PARENT 12 13
REMARK Flexibility Score: inf
ROOT
ATOM      1  C   UNL     1      -1.303  30.409  50.072  1.00  0.00     0.021 A 
ATOM      2  C   UNL     1      -0.395  29.856  50.997  1.00  0.00     0.062 A 
ATOM      3  C   UNL     1      -0.817  29.487  52.290  1.00  0.00     0.161 A 
ATOM      4  C   UNL     1      -2.156  29.675  52.657  1.00  0.00     0.157 A 
ATOM      5  C   UNL     1      -3.063  30.223  51.744  1.00  0.00     0.051 A 
ATOM      6  C   UNL     1      -2.643  30.587  50.464  1.00  0.00     0.016 A 
ENDROOT
BRANCH   1   7
ATOM      7  C   UNL     1      -0.839  30.793  48.711  1.00  0.00     0.159 C 
ATOM      8  C   UNL     1       0.481  30.336  48.165  1.00  0.00     0.093 C 
ATOM      9  O   UNL     1      -1.565  31.523  47.984  1.00  0.00    -0.295 OA
ENDBRANCH   1   7
BRANCH   3  10
ATOM     10  O   UNL     1       0.064  28.934  53.235  1.00  0.00    -0.493 OA
ATOM     11  C   UNL     1       0.397  27.552  53.316  1.00  0.00     0.278 C 
ENDBRANCH   3  10
BRANCH   4  12
ATOM     12  O   UNL     1      -2.577  29.311  53.935  1.00  0.00    -0.504 OA
ATOM     13  H   UNL     1      -3.532  29.460  54.241  1.00  0.00     0.293 HD
ENDBRANCH   4  12
TORSDOF 3
ENDMDL
MODEL 9
REMARK VINA RESULT:    -4.386      1.867      2.910
REMARK INTER + INTRA:          -5.109
REMARK INTER:                  -5.249
REMARK INTRA:                   0.139
REMARK UNBOUND:                -0.083
REMARK SMILES COc1cc(C(C)=O)ccc1O
REMARK SMILES IDX 5 1 4 2 3 3 11 4 10 5 9 6 6 7 7 8 8 9 2 10 1 11 12 12
REMARK H PARENT 12 13
REMARK Flexibility Score: inf
ROOT
ATOM      1  C   UNL     1      -0.800  27.977  52.767  1.00  0.00     0.021 A 
ATOM      2  C   UNL     1      -2.056  28.287  52.209  1.00  0.00     0.062 A 
ATOM      3  C   UNL     1      -2.327  29.576  51.709  1.00  0.00     0.161 A 
ATOM      4  C   UNL     1      -1.332  30.561  51.770  1.00  0.00     0.157 A 
ATOM      5  C   UNL     1      -0.082  30.262  52.322  1.00  0.00     0.051 A 
ATOM      6  C   UNL     1       0.184  28.983  52.816  1.00  0.00     0.016 A 
ENDROOT
BRANCH   1   7
ATOM      7  C   UNL     1      -0.532  26.610  53.289  1.00  0.00     0.159 C 
ATOM      8  C   UNL     1       0.750  26.263  53.985  1.00  0.00     0.093 C 
ATOM      9  O   UNL     1      -1.400  25.705  53.149  1.00  0.00    -0.295 OA
ENDBRANCH   1   7
BRANCH   3  10
ATOM     10  O   UNL     1      -3.569  29.916  51.147  1.00  0.00    -0.493 OA
ATOM     11  C   UNL     1      -3.764  30.296  49.789  1.00  0.00     0.278 C 
ENDBRANCH   3  10
BRANCH   4  12
ATOM     12  O   UNL     1      -1.595  31.838  51.277  1.00  0.00    -0.504 OA
ATOM     13  H   UNL     1      -1.589  32.035  50.284  1.00  0.00     0.293 HD
ENDBRANCH   4  12
TORSDOF 3
ENDMDL
