MODEL 1
REMARK VINA RESULT:    -4.265      0.000      0.000
REMARK INTER + INTRA:         -10.322
REMARK INTER:                  -7.756
REMARK INTRA:                  -2.566
REMARK UNBOUND:                -2.566
REMARK SMILES CCCCCCCCCCCCCC[C@H](C)C(=O)[O-]
REMARK SMILES IDX 9 1 10 2 11 3 12 4 13 5 14 6 15 7 16 8 17 9 18 10 19 11 8 12
REMARK SMILES IDX 7 13 6 14 5 15 4 16 3 17 2 18 1 19
REMARK H PARENT
REMARK Flexibility Score: inf
ROOT
ATOM      1  C   UNL     1      -0.681 -24.176 -15.585  1.00  0.00     0.000 C 
ENDROOT
BRANCH   1   2
ATOM      2  C   UNL     1       0.008 -23.214 -16.562  1.00  0.00     0.000 C 
BRANCH   2   3
ATOM      3  C   UNL     1       0.108 -21.781 -16.013  1.00  0.00     0.000 C 
BRANCH   3   4
ATOM      4  C   UNL     1       1.508 -21.448 -15.479  1.00  0.00     0.000 C 
BRANCH   4   5
ATOM      5  C   UNL     1       1.423 -20.634 -14.183  1.00  0.00     0.001 C 
BRANCH   5   6
ATOM      6  C   UNL     1       2.796 -20.535 -13.501  1.00  0.00     0.009 C 
BRANCH   6   7
ATOM      7  C   UNL     1       2.762 -21.043 -12.046  1.00  0.00     0.032 C 
ATOM      8  C   UNL     1       2.405 -19.904 -11.084  1.00  0.00     0.014 C 
BRANCH   7   9
ATOM      9  C   UNL     1       4.081 -21.648 -11.647  1.00  0.00     0.044 C 
ATOM     10  O   UNL     1       4.156 -22.384 -10.626  1.00  0.00    -0.550 OA
ATOM     11  O   UNL     1       5.224 -21.400 -12.397  1.00  0.00    -0.550 OA
ENDBRANCH   7   9
ENDBRANCH   6   7
ENDBRANCH   5   6
ENDBRANCH   4   5
ENDBRANCH   3   4
ENDBRANCH   2   3
ENDBRANCH   1   2
BRANCH   1  12
ATOM     12  C   UNL     1       0.349 -24.918 -14.726  1.00  0.00     0.000 C 
BRANCH  12  13
ATOM     13  C   UNL     1       0.379 -24.363 -13.297  1.00  0.00    -0.000 C 
BRANCH  13  14
ATOM     14  C   UNL     1      -0.964 -23.711 -12.933  1.00  0.00    -0.000 C 
BRANCH  14  15
ATOM     15  C   UNL     1      -0.795 -22.453 -12.065  1.00  0.00    -0.000 C 
BRANCH  15  16
ATOM     16  C   UNL     1      -1.804 -21.347 -12.421  1.00  0.00    -0.000 C 
BRANCH  16  17
ATOM     17  C   UNL     1      -2.552 -21.643 -13.738  1.00  0.00    -0.000 C 
BRANCH  17  18
ATOM     18  C   UNL     1      -3.041 -20.378 -14.465  1.00  0.00    -0.003 C 
ATOM     19  C   UNL     1      -2.127 -19.173 -14.251  1.00  0.00     0.004 C 
ENDBRANCH  17  18
ENDBRANCH  16  17
ENDBRANCH  15  16
ENDBRANCH  14  15
ENDBRANCH  13  14
ENDBRANCH  12  13
ENDBRANCH   1  12
TORSDOF 14
ENDMDL
MODEL 2
REMARK VINA RESULT:    -4.193     10.555     12.548
REMARK INTER + INTRA:         -10.190
REMARK INTER:                  -8.209
REMARK INTRA:                  -1.982
REMARK UNBOUND:                -2.566
REMARK SMILES CCCCCCCCCCCCCC[C@H](C)C(=O)[O-]
REMARK SMILES IDX 9 1 10 2 11 3 12 4 13 5 14 6 15 7 16 8 17 9 18 10 19 11 8 12
REMARK SMILES IDX 7 13 6 14 5 15 4 16 3 17 2 18 1 19
REMARK H PARENT
REMARK Flexibility Score: inf
ROOT
ATOM      1  C   UNL     1      -7.993 -26.530 -18.986  1.00  0.00     0.000 C 
ENDROOT
BRANCH   1   2
ATOM      2  C   UNL     1      -9.483 -26.190 -19.125  1.00  0.00     0.000 C 
BRANCH   2   3
ATOM      3  C   UNL     1      -9.958 -25.165 -18.083  1.00  0.00     0.000 C 
BRANCH   3   4
ATOM      4  C   UNL     1      -9.020 -25.076 -16.869  1.00  0.00     0.000 C 
BRANCH   4   5
ATOM      5  C   UNL     1      -9.341 -23.843 -16.017  1.00  0.00     0.001 C 
BRANCH   5   6
ATOM      6  C   UNL     1      -9.121 -24.132 -14.524  1.00  0.00     0.009 C 
BRANCH   6   7
ATOM      7  C   UNL     1      -9.824 -25.428 -14.071  1.00  0.00     0.032 C 
ATOM      8  C   UNL     1     -11.220 -25.119 -13.518  1.00  0.00     0.014 C 
BRANCH   7   9
ATOM      9  C   UNL     1      -9.015 -26.153 -13.030  1.00  0.00     0.044 C 
ATOM     10  O   UNL     1      -8.186 -27.036 -13.377  1.00  0.00    -0.550 OA
ATOM     11  O   UNL     1      -9.178 -25.859 -11.682  1.00  0.00    -0.550 OA
ENDBRANCH   7   9
ENDBRANCH   6   7
ENDBRANCH   5   6
ENDBRANCH   4   5
ENDBRANCH   3   4
ENDBRANCH   2   3
ENDBRANCH   1   2
BRANCH   1  12
ATOM     12  C   UNL     1      -7.770 -28.047 -19.017  1.00  0.00     0.000 C 
BRANCH  12  13
ATOM     13  C   UNL     1      -8.890 -28.784 -18.272  1.00  0.00    -0.000 C 
BRANCH  13  14
ATOM     14  C   UNL     1      -8.639 -28.775 -16.756  1.00  0.00    -0.000 C 
BRANCH  14  15
ATOM     15  C   UNL     1      -9.943 -28.774 -15.941  1.00  0.00    -0.000 C 
BRANCH  15  16
ATOM     16  C   UNL     1     -11.194 -28.936 -16.822  1.00  0.00    -0.000 C 
BRANCH  16  17
ATOM     17  C   UNL     1     -12.003 -30.199 -16.458  1.00  0.00    -0.000 C 
BRANCH  17  18
ATOM     18  C   UNL     1     -11.223 -31.509 -16.660  1.00  0.00    -0.003 C 
ATOM     19  C   UNL     1     -12.130 -32.727 -16.825  1.00  0.00     0.004 C 
ENDBRANCH  17  18
ENDBRANCH  16  17
ENDBRANCH  15  16
ENDBRANCH  14  15
ENDBRANCH  13  14
ENDBRANCH  12  13
ENDBRANCH   1  12
TORSDOF 14
ENDMDL
MODEL 3
REMARK VINA RESULT:    -4.178      1.369      3.723
REMARK INTER + INTRA:         -10.163
REMARK INTER:                  -7.893
REMARK INTRA:                  -2.270
REMARK UNBOUND:                -2.566
REMARK SMILES CCCCCCCCCCCCCC[C@H](C)C(=O)[O-]
REMARK SMILES IDX 9 1 10 2 11 3 12 4 13 5 14 6 15 7 16 8 17 9 18 10 19 11 8 12
REMARK SMILES IDX 7 13 6 14 5 15 4 16 3 17 2 18 1 19
REMARK H PARENT
REMARK Flexibility Score: inf
ROOT
ATOM      1  C   UNL     1      -1.084 -20.643 -14.656  1.00  0.00     0.000 C 
ENDROOT
BRANCH   1   2
ATOM      2  C   UNL     1      -1.440 -19.280 -14.047  1.00  0.00     0.000 C 
BRANCH   2   3
ATOM      3  C   UNL     1      -0.434 -18.827 -12.978  1.00  0.00     0.000 C 
BRANCH   3   4
ATOM      4  C   UNL     1      -0.596 -19.584 -11.652  1.00  0.00     0.000 C 
BRANCH   4   5
ATOM      5  C   UNL     1       0.747 -19.714 -10.925  1.00  0.00     0.001 C 
BRANCH   5   6
ATOM      6  C   UNL     1       1.717 -20.609 -11.712  1.00  0.00     0.009 C 
BRANCH   6   7
ATOM      7  C   UNL     1       3.079 -19.927 -11.947  1.00  0.00     0.032 C 
ATOM      8  C   UNL     1       3.503 -20.058 -13.415  1.00  0.00     0.014 C 
BRANCH   7   9
ATOM      9  C   UNL     1       4.144 -20.511 -11.058  1.00  0.00     0.044 C 
ATOM     10  O   UNL     1       4.704 -19.793 -10.187  1.00  0.00    -0.550 OA
ATOM     11  O   UNL     1       4.520 -21.842 -11.193  1.00  0.00    -0.550 OA
ENDBRANCH   7   9
ENDBRANCH   6   7
ENDBRANCH   5   6
ENDBRANCH   4   5
ENDBRANCH   3   4
ENDBRANCH   2   3
ENDBRANCH   1   2
BRANCH   1  12
ATOM     12  C   UNL     1       0.373 -20.667 -15.134  1.00  0.00     0.000 C 
BRANCH  12  13
ATOM     13  C   UNL     1       0.766 -22.063 -15.634  1.00  0.00    -0.000 C 
BRANCH  13  14
ATOM     14  C   UNL     1      -0.389 -22.715 -16.409  1.00  0.00    -0.000 C 
BRANCH  14  15
ATOM     15  C   UNL     1      -0.772 -24.095 -15.851  1.00  0.00    -0.000 C 
BRANCH  15  16
ATOM     16  C   UNL     1       0.381 -24.765 -15.084  1.00  0.00    -0.000 C 
BRANCH  16  17
ATOM     17  C   UNL     1      -0.081 -25.349 -13.732  1.00  0.00    -0.000 C 
BRANCH  17  18
ATOM     18  C   UNL     1      -1.180 -24.519 -13.047  1.00  0.00    -0.003 C 
ATOM     19  C   UNL     1      -0.625 -23.388 -12.183  1.00  0.00     0.004 C 
ENDBRANCH  17  18
ENDBRANCH  16  17
ENDBRANCH  15  16
ENDBRANCH  14  15
ENDBRANCH  13  14
ENDBRANCH  12  13
ENDBRANCH   1  12
TORSDOF 14
ENDMDL
MODEL 4
REMARK VINA RESULT:    -4.073      1.738      3.120
REMARK INTER + INTRA:          -9.973
REMARK INTER:                  -7.929
REMARK INTRA:                  -2.044
REMARK UNBOUND:                -2.566
REMARK SMILES CCCCCCCCCCCCCC[C@H](C)C(=O)[O-]
REMARK SMILES IDX 9 1 10 2 11 3 12 4 13 5 14 6 15 7 16 8 17 9 18 10 19 11 8 12
REMARK SMILES IDX 7 13 6 14 5 15 4 16 3 17 2 18 1 19
REMARK H PARENT
REMARK Flexibility Score: inf
ROOT
ATOM      1  C   UNL     1       0.902 -22.067 -15.900  1.00  0.00     0.000 C 
ENDROOT
BRANCH   1   2
ATOM      2  C   UNL     1       0.081 -20.985 -15.187  1.00  0.00     0.000 C 
BRANCH   2   3
ATOM      3  C   UNL     1       0.928 -20.129 -14.232  1.00  0.00     0.000 C 
BRANCH   3   4
ATOM      4  C   UNL     1       2.070 -20.922 -13.580  1.00  0.00     0.000 C 
BRANCH   4   5
ATOM      5  C   UNL     1       3.346 -20.079 -13.494  1.00  0.00     0.001 C 
BRANCH   5   6
ATOM      6  C   UNL     1       3.889 -20.043 -12.057  1.00  0.00     0.009 C 
BRANCH   6   7
ATOM      7  C   UNL     1       2.909 -20.675 -11.048  1.00  0.00     0.032 C 
ATOM      8  C   UNL     1       2.149 -19.587 -10.281  1.00  0.00     0.014 C 
BRANCH   7   9
ATOM      9  C   UNL     1       3.628 -21.571 -10.076  1.00  0.00     0.044 C 
ATOM     10  O   UNL     1       4.061 -21.105  -8.988  1.00  0.00    -0.550 OA
ATOM     11  O   UNL     1       3.822 -22.915 -10.371  1.00  0.00    -0.550 OA
ENDBRANCH   7   9
ENDBRANCH   6   7
ENDBRANCH   5   6
ENDBRANCH   4   5
ENDBRANCH   3   4
ENDBRANCH   2   3
ENDBRANCH   1   2
BRANCH   1  12
ATOM     12  C   UNL     1       0.004 -23.220 -16.367  1.00  0.00     0.000 C 
BRANCH  12  13
ATOM     13  C   UNL     1      -1.447 -23.004 -15.921  1.00  0.00    -0.000 C 
BRANCH  13  14
ATOM     14  C   UNL     1      -2.214 -24.334 -15.882  1.00  0.00    -0.000 C 
BRANCH  14  15
ATOM     15  C   UNL     1      -1.594 -25.346 -14.905  1.00  0.00    -0.000 C 
BRANCH  15  16
ATOM     16  C   UNL     1      -1.285 -24.730 -13.530  1.00  0.00    -0.000 C 
BRANCH  16  17
ATOM     17  C   UNL     1       0.166 -25.005 -13.081  1.00  0.00    -0.000 C 
BRANCH  17  18
ATOM     18  C   UNL     1       0.783 -23.861 -12.260  1.00  0.00    -0.003 C 
ATOM     19  C   UNL     1      -0.258 -23.026 -11.518  1.00  0.00     0.004 C 
ENDBRANCH  17  18
ENDBRANCH  16  17
ENDBRANCH  15  16
ENDBRANCH  14  15
ENDBRANCH  13  14
ENDBRANCH  12  13
ENDBRANCH   1  12
TORSDOF 14
ENDMDL
MODEL 5
REMARK VINA RESULT:    -4.024      1.331      3.572
REMARK INTER + INTRA:          -9.883
REMARK INTER:                  -7.849
REMARK INTRA:                  -2.034
REMARK UNBOUND:                -2.566
REMARK SMILES CCCCCCCCCCCCCC[C@H](C)C(=O)[O-]
REMARK SMILES IDX 9 1 10 2 11 3 12 4 13 5 14 6 15 7 16 8 17 9 18 10 19 11 8 12
REMARK SMILES IDX 7 13 6 14 5 15 4 16 3 17 2 18 1 19
REMARK H PARENT
REMARK Flexibility Score: inf
ROOT
ATOM      1  C   UNL     1      -3.494 -21.109 -15.116  1.00  0.00     0.000 C 
ENDROOT
BRANCH   1   2
ATOM      2  C   UNL     1      -2.410 -20.243 -14.458  1.00  0.00     0.000 C 
BRANCH   2   3
ATOM      3  C   UNL     1      -1.109 -21.018 -14.197  1.00  0.00     0.000 C 
BRANCH   3   4
ATOM      4  C   UNL     1       0.144 -20.146 -14.365  1.00  0.00     0.000 C 
BRANCH   4   5
ATOM      5  C   UNL     1       1.411 -21.007 -14.411  1.00  0.00     0.001 C 
BRANCH   5   6
ATOM      6  C   UNL     1       2.547 -20.364 -13.601  1.00  0.00     0.009 C 
BRANCH   6   7
ATOM      7  C   UNL     1       2.925 -21.200 -12.361  1.00  0.00     0.032 C 
ATOM      8  C   UNL     1       1.896 -21.003 -11.243  1.00  0.00     0.014 C 
BRANCH   7   9
ATOM      9  C   UNL     1       4.297 -20.841 -11.857  1.00  0.00     0.044 C 
ATOM     10  O   UNL     1       4.426 -20.015 -10.914  1.00  0.00    -0.550 OA
ATOM     11  O   UNL     1       5.428 -21.412 -12.427  1.00  0.00    -0.550 OA
ENDBRANCH   7   9
ENDBRANCH   6   7
ENDBRANCH   5   6
ENDBRANCH   4   5
ENDBRANCH   3   4
ENDBRANCH   2   3
ENDBRANCH   1   2
BRANCH   1  12
ATOM     12  C   UNL     1      -2.870 -22.169 -16.031  1.00  0.00     0.000 C 
BRANCH  12  13
ATOM     13  C   UNL     1      -3.305 -23.581 -15.616  1.00  0.00    -0.000 C 
BRANCH  13  14
ATOM     14  C   UNL     1      -2.149 -24.579 -15.769  1.00  0.00    -0.000 C 
BRANCH  14  15
ATOM     15  C   UNL     1      -0.831 -23.902 -16.178  1.00  0.00    -0.000 C 
BRANCH  15  16
ATOM     16  C   UNL     1       0.383 -24.454 -15.412  1.00  0.00    -0.000 C 
BRANCH  16  17
ATOM     17  C   UNL     1      -0.026 -25.163 -14.104  1.00  0.00    -0.000 C 
BRANCH  17  18
ATOM     18  C   UNL     1       0.136 -24.285 -12.851  1.00  0.00    -0.003 C 
ATOM     19  C   UNL     1       1.171 -24.828 -11.869  1.00  0.00     0.004 C 
ENDBRANCH  17  18
ENDBRANCH  16  17
ENDBRANCH  15  16
ENDBRANCH  14  15
ENDBRANCH  13  14
ENDBRANCH  12  13
ENDBRANCH   1  12
TORSDOF 14
ENDMDL
MODEL 6
REMARK VINA RESULT:    -3.980      1.618      3.318
REMARK INTER + INTRA:          -9.804
REMARK INTER:                  -7.744
REMARK INTRA:                  -2.059
REMARK UNBOUND:                -2.566
REMARK SMILES CCCCCCCCCCCCCC[C@H](C)C(=O)[O-]
REMARK SMILES IDX 9 1 10 2 11 3 12 4 13 5 14 6 15 7 16 8 17 9 18 10 19 11 8 12
REMARK SMILES IDX 7 13 6 14 5 15 4 16 3 17 2 18 1 19
REMARK H PARENT
REMARK Flexibility Score: inf
ROOT
ATOM      1  C   UNL     1       0.171 -23.432 -16.084  1.00  0.00     0.000 C 
ENDROOT
BRANCH   1   2
ATOM      2  C   UNL     1      -0.981 -22.653 -15.436  1.00  0.00     0.000 C 
BRANCH   2   3
ATOM      3  C   UNL     1      -0.611 -21.193 -15.130  1.00  0.00     0.000 C 
BRANCH   3   4
ATOM      4  C   UNL     1       0.234 -21.050 -13.855  1.00  0.00     0.000 C 
BRANCH   4   5
ATOM      5  C   UNL     1       1.368 -20.040 -14.058  1.00  0.00     0.001 C 
BRANCH   5   6
ATOM      6  C   UNL     1       2.733 -20.668 -13.737  1.00  0.00     0.009 C 
BRANCH   6   7
ATOM      7  C   UNL     1       2.948 -20.852 -12.222  1.00  0.00     0.032 C 
ATOM      8  C   UNL     1       2.137 -19.818 -11.432  1.00  0.00     0.014 C 
BRANCH   7   9
ATOM      9  C   UNL     1       4.404 -20.740 -11.858  1.00  0.00     0.044 C 
ATOM     10  O   UNL     1       5.266 -21.407 -12.491  1.00  0.00    -0.550 OA
ATOM     11  O   UNL     1       4.809 -19.904 -10.825  1.00  0.00    -0.550 OA
ENDBRANCH   7   9
ENDBRANCH   6   7
ENDBRANCH   5   6
ENDBRANCH   4   5
ENDBRANCH   3   4
ENDBRANCH   2   3
ENDBRANCH   1   2
BRANCH   1  12
ATOM     12  C   UNL     1       0.575 -24.634 -15.221  1.00  0.00     0.000 C 
BRANCH  12  13
ATOM     13  C   UNL     1      -0.397 -24.823 -14.049  1.00  0.00    -0.000 C 
BRANCH  13  14
ATOM     14  C   UNL     1       0.356 -25.224 -12.771  1.00  0.00    -0.000 C 
BRANCH  14  15
ATOM     15  C   UNL     1       1.023 -24.026 -12.077  1.00  0.00    -0.000 C 
BRANCH  15  16
ATOM     16  C   UNL     1       0.142 -23.413 -10.974  1.00  0.00    -0.000 C 
BRANCH  16  17
ATOM     17  C   UNL     1       0.978 -22.866  -9.798  1.00  0.00    -0.000 C 
BRANCH  17  18
ATOM     18  C   UNL     1       2.224 -23.711  -9.482  1.00  0.00    -0.003 C 
ATOM     19  C   UNL     1       3.408 -22.875  -9.001  1.00  0.00     0.004 C 
ENDBRANCH  17  18
ENDBRANCH  16  17
ENDBRANCH  15  16
ENDBRANCH  14  15
ENDBRANCH  13  14
ENDBRANCH  12  13
ENDBRANCH   1  12
TORSDOF 14
ENDMDL
MODEL 7
REMARK VINA RESULT:    -3.978      8.989     11.275
REMARK INTER + INTRA:          -9.801
REMARK INTER:                  -8.596
REMARK INTRA:                  -1.205
REMARK UNBOUND:                -2.566
REMARK SMILES CCCCCCCCCCCCCC[C@H](C)C(=O)[O-]
REMARK SMILES IDX 9 1 10 2 11 3 12 4 13 5 14 6 15 7 16 8 17 9 18 10 19 11 8 12
REMARK SMILES IDX 7 13 6 14 5 15 4 16 3 17 2 18 1 19
REMARK H PARENT
REMARK Flexibility Score: inf
ROOT
ATOM      1  C   UNL     1      -6.721 -14.794 -12.483  1.00  0.00     0.000 C 
ENDROOT
BRANCH   1   2
ATOM      2  C   UNL     1      -7.433 -15.466 -11.301  1.00  0.00     0.000 C 
BRANCH   2   3
ATOM      3  C   UNL     1      -7.135 -16.971 -11.206  1.00  0.00     0.000 C 
BRANCH   3   4
ATOM      4  C   UNL     1      -8.000 -17.681 -10.154  1.00  0.00     0.000 C 
BRANCH   4   5
ATOM      5  C   UNL     1      -7.173 -18.042  -8.915  1.00  0.00     0.001 C 
BRANCH   5   6
ATOM      6  C   UNL     1      -7.830 -19.185  -8.126  1.00  0.00     0.009 C 
BRANCH   6   7
ATOM      7  C   UNL     1      -9.197 -18.777  -7.540  1.00  0.00     0.032 C 
ATOM      8  C   UNL     1      -9.128 -18.703  -6.010  1.00  0.00     0.014 C 
BRANCH   7   9
ATOM      9  C   UNL     1     -10.278 -19.740  -7.952  1.00  0.00     0.044 C 
ATOM     10  O   UNL     1     -11.170 -20.078  -7.129  1.00  0.00    -0.550 OA
ATOM     11  O   UNL     1     -10.299 -20.265  -9.238  1.00  0.00    -0.550 OA
ENDBRANCH   7   9
ENDBRANCH   6   7
ENDBRANCH   5   6
ENDBRANCH   4   5
ENDBRANCH   3   4
ENDBRANCH   2   3
ENDBRANCH   1   2
BRANCH   1  12
ATOM     12  C   UNL     1      -6.442 -15.804 -13.603  1.00  0.00     0.000 C 
BRANCH  12  13
ATOM     13  C   UNL     1      -5.682 -15.147 -14.762  1.00  0.00    -0.000 C 
BRANCH  13  14
ATOM     14  C   UNL     1      -6.566 -15.054 -16.015  1.00  0.00    -0.000 C 
BRANCH  14  15
ATOM     15  C   UNL     1      -7.270 -16.381 -16.342  1.00  0.00    -0.000 C 
BRANCH  15  16
ATOM     16  C   UNL     1      -6.448 -17.271 -17.291  1.00  0.00    -0.000 C 
BRANCH  16  17
ATOM     17  C   UNL     1      -5.823 -18.479 -16.561  1.00  0.00    -0.000 C 
BRANCH  17  18
ATOM     18  C   UNL     1      -6.862 -19.408 -15.910  1.00  0.00    -0.003 C 
ATOM     19  C   UNL     1      -6.844 -19.350 -14.384  1.00  0.00     0.004 C 
ENDBRANCH  17  18
ENDBRANCH  16  17
ENDBRANCH  15  16
ENDBRANCH  14  15
ENDBRANCH  13  14
ENDBRANCH  12  13
ENDBRANCH   1  12
TORSDOF 14
ENDMDL
MODEL 8
REMARK VINA RESULT:    -3.940      1.453      2.742
REMARK INTER + INTRA:          -9.731
REMARK INTER:                  -7.421
REMARK INTRA:                  -2.310
REMARK UNBOUND:                -2.566
REMARK SMILES CCCCCCCCCCCCCC[C@H](C)C(=O)[O-]
REMARK SMILES IDX 9 1 10 2 11 3 12 4 13 5 14 6 15 7 16 8 17 9 18 10 19 11 8 12
REMARK SMILES IDX 7 13 6 14 5 15 4 16 3 17 2 18 1 19
REMARK H PARENT
REMARK Flexibility Score: inf
ROOT
ATOM      1  C   UNL     1      -1.069 -22.159 -15.409  1.00  0.00     0.000 C 
ENDROOT
BRANCH   1   2
ATOM      2  C   UNL     1      -0.252 -21.111 -14.641  1.00  0.00     0.000 C 
BRANCH   2   3
ATOM      3  C   UNL     1       1.210 -21.038 -15.111  1.00  0.00     0.000 C 
BRANCH   3   4
ATOM      4  C   UNL     1       2.176 -20.648 -13.983  1.00  0.00     0.000 C 
BRANCH   4   5
ATOM      5  C   UNL     1       1.413 -20.106 -12.769  1.00  0.00     0.001 C 
BRANCH   5   6
ATOM      6  C   UNL     1       1.909 -20.758 -11.468  1.00  0.00     0.009 C 
BRANCH   6   7
ATOM      7  C   UNL     1       3.105 -21.700 -11.708  1.00  0.00     0.032 C 
ATOM      8  C   UNL     1       3.049 -22.897 -10.752  1.00  0.00     0.014 C 
BRANCH   7   9
ATOM      9  C   UNL     1       4.414 -20.977 -11.539  1.00  0.00     0.044 C 
ATOM     10  O   UNL     1       4.573 -20.176 -10.579  1.00  0.00    -0.550 OA
ATOM     11  O   UNL     1       5.454 -21.183 -12.437  1.00  0.00    -0.550 OA
ENDBRANCH   7   9
ENDBRANCH   6   7
ENDBRANCH   5   6
ENDBRANCH   4   5
ENDBRANCH   3   4
ENDBRANCH   2   3
ENDBRANCH   1   2
BRANCH   1  12
ATOM     12  C   UNL     1      -0.164 -23.017 -16.300  1.00  0.00     0.000 C 
BRANCH  12  13
ATOM     13  C   UNL     1       0.306 -24.276 -15.560  1.00  0.00    -0.000 C 
BRANCH  13  14
ATOM     14  C   UNL     1      -0.851 -24.916 -14.778  1.00  0.00    -0.000 C 
BRANCH  14  15
ATOM     15  C   UNL     1      -0.374 -25.661 -13.521  1.00  0.00    -0.000 C 
BRANCH  15  16
ATOM     16  C   UNL     1       0.453 -24.767 -12.580  1.00  0.00    -0.000 C 
BRANCH  16  17
ATOM     17  C   UNL     1      -0.371 -24.274 -11.371  1.00  0.00    -0.000 C 
BRANCH  17  18
ATOM     18  C   UNL     1      -1.005 -22.889 -11.583  1.00  0.00    -0.003 C 
ATOM     19  C   UNL     1      -2.476 -22.959 -11.986  1.00  0.00     0.004 C 
ENDBRANCH  17  18
ENDBRANCH  16  17
ENDBRANCH  15  16
ENDBRANCH  14  15
ENDBRANCH  13  14
ENDBRANCH  12  13
ENDBRANCH   1  12
TORSDOF 14
ENDMDL
MODEL 9
REMARK VINA RESULT:    -3.929      1.606      3.831
REMARK INTER + INTRA:          -9.710
REMARK INTER:                  -7.528
REMARK INTRA:                  -2.182
REMARK UNBOUND:                -2.566
REMARK SMILES CCCCCCCCCCCCCC[C@H](C)C(=O)[O-]
REMARK SMILES IDX 9 1 10 2 11 3 12 4 13 5 14 6 15 7 16 8 17 9 18 10 19 11 8 12
REMARK SMILES IDX 7 13 6 14 5 15 4 16 3 17 2 18 1 19
REMARK H PARENT
REMARK Flexibility Score: inf
ROOT
ATOM      1  C   UNL     1       0.008 -20.231 -13.052  1.00  0.00     0.000 C 
ENDROOT
BRANCH   1   2
ATOM      2  C   UNL     1       0.908 -20.006 -14.274  1.00  0.00     0.000 C 
BRANCH   2   3
ATOM      3  C   UNL     1       2.246 -20.756 -14.171  1.00  0.00     0.000 C 
BRANCH   3   4
ATOM      4  C   UNL     1       3.353 -19.909 -13.526  1.00  0.00     0.000 C 
BRANCH   4   5
ATOM      5  C   UNL     1       4.273 -20.776 -12.659  1.00  0.00     0.001 C 
BRANCH   5   6
ATOM      6  C   UNL     1       4.259 -20.305 -11.197  1.00  0.00     0.009 C 
BRANCH   6   7
ATOM      7  C   UNL     1       3.028 -20.826 -10.429  1.00  0.00     0.032 C 
ATOM      8  C   UNL     1       2.167 -19.658  -9.933  1.00  0.00     0.014 C 
BRANCH   7   9
ATOM      9  C   UNL     1       3.435 -21.686  -9.262  1.00  0.00     0.044 C 
ATOM     10  O   UNL     1       3.792 -22.880  -9.453  1.00  0.00    -0.550 OA
ATOM     11  O   UNL     1       3.418 -21.174  -7.971  1.00  0.00    -0.550 OA
ENDBRANCH   7   9
ENDBRANCH   6   7
ENDBRANCH   5   6
ENDBRANCH   4   5
ENDBRANCH   3   4
ENDBRANCH   2   3
ENDBRANCH   1   2
BRANCH   1  12
ATOM     12  C   UNL     1      -1.306 -20.910 -13.455  1.00  0.00     0.000 C 
BRANCH  12  13
ATOM     13  C   UNL     1      -1.450 -20.971 -14.981  1.00  0.00    -0.000 C 
BRANCH  13  14
ATOM     14  C   UNL     1      -1.910 -22.365 -15.434  1.00  0.00    -0.000 C 
BRANCH  14  15
ATOM     15  C   UNL     1      -0.879 -23.065 -16.334  1.00  0.00    -0.000 C 
BRANCH  15  16
ATOM     16  C   UNL     1       0.399 -23.461 -15.575  1.00  0.00    -0.000 C 
BRANCH  16  17
ATOM     17  C   UNL     1       0.322 -24.896 -15.013  1.00  0.00    -0.000 C 
BRANCH  17  18
ATOM     18  C   UNL     1      -0.065 -24.955 -13.525  1.00  0.00    -0.003 C 
ATOM     19  C   UNL     1       0.647 -23.900 -12.680  1.00  0.00     0.004 C 
ENDBRANCH  17  18
ENDBRANCH  16  17
ENDBRANCH  15  16
ENDBRANCH  14  15
ENDBRANCH  13  14
ENDBRANCH  12  13
ENDBRANCH   1  12
TORSDOF 14
ENDMDL
