MODEL 1
REMARK VINA RESULT:    -3.861      0.000      0.000
REMARK INTER + INTRA:          -4.778
REMARK INTER:                  -4.651
REMARK INTRA:                  -0.127
REMARK UNBOUND:                -0.127
REMARK SMILES CC[C@H](C)[C@@H]([NH3+])C(=O)[O-]
REMARK SMILES IDX 3 1 4 2 5 3 6 4 7 8 8 9 9 10 2 11 1 12
REMARK H PARENT 6 5 6 6 6 7
REMARK Flexibility Score: inf
ROOT
ATOM      1  C   UNL     1      -9.768  -5.780 -15.219  1.00  0.00     0.050 C 
ATOM      2  C   UNL     1     -11.106  -6.381 -14.748  1.00  0.00     0.014 C 
ENDROOT
BRANCH   1   3
ATOM      3  C   UNL     1      -8.731  -5.729 -14.049  1.00  0.00     0.230 C 
BRANCH   3   4
ATOM      4  N   UNL     1      -9.231  -6.401 -12.839  1.00  0.00    -0.350 N 
ATOM      5  H   UNL     1     -10.276  -6.435 -12.837  1.00  0.00     0.345 HD
ATOM      6  H   UNL     1      -8.859  -7.378 -12.786  1.00  0.00     0.345 HD
ATOM      7  H   UNL     1      -8.895  -5.903 -11.983  1.00  0.00     0.345 HD
ENDBRANCH   3   4
BRANCH   3   8
ATOM      8  C   UNL     1      -7.419  -6.349 -14.458  1.00  0.00     0.099 C 
ATOM      9  O   UNL     1      -7.157  -7.545 -14.159  1.00  0.00    -0.544 OA
ATOM     10  O   UNL     1      -6.496  -5.606 -15.184  1.00  0.00    -0.544 OA
ENDBRANCH   3   8
ENDBRANCH   1   3
BRANCH   1  11
ATOM     11  C   UNL     1     -10.022  -4.368 -15.829  1.00  0.00     0.006 C 
ATOM     12  C   UNL     1      -9.223  -3.266 -15.130  1.00  0.00     0.004 C 
ENDBRANCH   1  11
TORSDOF 4
ENDMDL
MODEL 2
REMARK VINA RESULT:    -3.592      1.833      2.873
REMARK INTER + INTRA:          -4.454
REMARK INTER:                  -4.666
REMARK INTRA:                   0.212
REMARK UNBOUND:                -0.127
REMARK SMILES CC[C@H](C)[C@@H]([NH3+])C(=O)[O-]
REMARK SMILES IDX 3 1 4 2 5 3 6 4 7 8 8 9 9 10 2 11 1 12
REMARK H PARENT 6 5 6 6 6 7
REMARK Flexibility Score: inf
ROOT
ATOM      1  C   UNL     1      -9.843  -7.020 -14.009  1.00  0.00     0.050 C 
ATOM      2  C   UNL     1     -10.859  -6.409 -14.993  1.00  0.00     0.014 C 
ENDROOT
BRANCH   1   3
ATOM      3  C   UNL     1      -8.801  -5.952 -13.541  1.00  0.00     0.230 C 
BRANCH   3   4
ATOM      4  N   UNL     1      -7.766  -6.534 -12.672  1.00  0.00    -0.350 N 
ATOM      5  H   UNL     1      -7.674  -7.563 -12.840  1.00  0.00     0.345 HD
ATOM      6  H   UNL     1      -6.842  -6.076 -12.852  1.00  0.00     0.345 HD
ATOM      7  H   UNL     1      -7.997  -6.362 -11.667  1.00  0.00     0.345 HD
ENDBRANCH   3   4
BRANCH   3   8
ATOM      8  C   UNL     1      -8.143  -5.281 -14.720  1.00  0.00     0.099 C 
ATOM      9  O   UNL     1      -7.024  -5.680 -15.138  1.00  0.00    -0.544 OA
ATOM     10  O   UNL     1      -8.779  -4.226 -15.363  1.00  0.00    -0.544 OA
ENDBRANCH   3   8
ENDBRANCH   1   3
BRANCH   1  11
ATOM     11  C   UNL     1      -9.154  -8.249 -14.675  1.00  0.00     0.006 C 
ATOM     12  C   UNL     1     -10.136  -9.376 -15.001  1.00  0.00     0.004 C 
ENDBRANCH   1  11
TORSDOF 4
ENDMDL
MODEL 3
REMARK VINA RESULT:    -3.502      2.772      4.069
REMARK INTER + INTRA:          -4.346
REMARK INTER:                  -4.284
REMARK INTRA:                  -0.062
REMARK UNBOUND:                -0.127
REMARK SMILES CC[C@H](C)[C@@H]([NH3+])C(=O)[O-]
REMARK SMILES IDX 3 1 4 2 5 3 6 4 7 8 8 9 9 10 2 11 1 12
REMARK H PARENT 6 5 6 6 6 7
REMARK Flexibility Score: inf
ROOT
ATOM      1  C   UNL     1      -7.973  -5.584 -15.129  1.00  0.00     0.050 C 
ATOM      2  C   UNL     1      -6.608  -4.988 -15.521  1.00  0.00     0.014 C 
ENDROOT
BRANCH   1   3
ATOM      3  C   UNL     1      -9.061  -4.467 -15.008  1.00  0.00     0.230 C 
BRANCH   3   4
ATOM      4  N   UNL     1      -8.554  -3.154 -15.439  1.00  0.00    -0.350 N 
ATOM      5  H   UNL     1      -9.194  -2.387 -15.126  1.00  0.00     0.345 HD
ATOM      6  H   UNL     1      -7.601  -2.985 -15.041  1.00  0.00     0.345 HD
ATOM      7  H   UNL     1      -8.457  -3.126 -16.480  1.00  0.00     0.345 HD
ENDBRANCH   3   4
BRANCH   3   8
ATOM      8  C   UNL     1     -10.289  -4.815 -15.810  1.00  0.00     0.099 C 
ATOM      9  O   UNL     1     -10.494  -4.276 -16.930  1.00  0.00    -0.544 OA
ATOM     10  O   UNL     1     -11.196  -5.748 -15.322  1.00  0.00    -0.544 OA
ENDBRANCH   3   8
ENDBRANCH   1   3
BRANCH   1  11
ATOM     11  C   UNL     1      -7.823  -6.392 -13.804  1.00  0.00     0.006 C 
ATOM     12  C   UNL     1      -7.350  -7.829 -14.035  1.00  0.00     0.004 C 
ENDBRANCH   1  11
TORSDOF 4
ENDMDL
MODEL 4
REMARK VINA RESULT:    -3.459      1.657      2.522
REMARK INTER + INTRA:          -4.294
REMARK INTER:                  -4.235
REMARK INTRA:                  -0.058
REMARK UNBOUND:                -0.127
REMARK SMILES CC[C@H](C)[C@@H]([NH3+])C(=O)[O-]
REMARK SMILES IDX 3 1 4 2 5 3 6 4 7 8 8 9 9 10 2 11 1 12
REMARK H PARENT 6 5 6 6 6 7
REMARK Flexibility Score: inf
ROOT
ATOM      1  C   UNL     1      -9.366  -4.821 -14.785  1.00  0.00     0.050 C 
ATOM      2  C   UNL     1      -9.110  -3.372 -15.244  1.00  0.00     0.014 C 
ENDROOT
BRANCH   1   3
ATOM      3  C   UNL     1      -8.098  -5.711 -15.002  1.00  0.00     0.230 C 
BRANCH   3   4
ATOM      4  N   UNL     1      -6.894  -4.905 -15.261  1.00  0.00    -0.350 N 
ATOM      5  H   UNL     1      -7.153  -3.945 -15.586  1.00  0.00     0.345 HD
ATOM      6  H   UNL     1      -6.317  -4.826 -14.392  1.00  0.00     0.345 HD
ATOM      7  H   UNL     1      -6.295  -5.369 -15.982  1.00  0.00     0.345 HD
ENDBRANCH   3   4
BRANCH   3   8
ATOM      8  C   UNL     1      -7.853  -6.606 -13.815  1.00  0.00     0.099 C 
ATOM      9  O   UNL     1      -7.270  -7.714 -13.960  1.00  0.00    -0.544 OA
ATOM     10  O   UNL     1      -8.255  -6.205 -12.547  1.00  0.00    -0.544 OA
ENDBRANCH   3   8
ENDBRANCH   1   3
BRANCH   1  11
ATOM     11  C   UNL     1     -10.608  -5.389 -15.536  1.00  0.00     0.006 C 
ATOM     12  C   UNL     1     -11.225  -6.599 -14.832  1.00  0.00     0.004 C 
ENDBRANCH   1  11
TORSDOF 4
ENDMDL
MODEL 5
REMARK VINA RESULT:    -3.383      2.704      3.470
REMARK INTER + INTRA:          -4.202
REMARK INTER:                  -4.139
REMARK INTRA:                  -0.063
REMARK UNBOUND:                -0.127
REMARK SMILES CC[C@H](C)[C@@H]([NH3+])C(=O)[O-]
REMARK SMILES IDX 3 1 4 2 5 3 6 4 7 8 8 9 9 10 2 11 1 12
REMARK H PARENT 6 5 6 6 6 7
REMARK Flexibility Score: inf
ROOT
ATOM      1  C   UNL     1      -7.997  -6.603 -14.359  1.00  0.00     0.050 C 
ATOM      2  C   UNL     1      -7.299  -7.961 -14.154  1.00  0.00     0.014 C 
ENDROOT
BRANCH   1   3
ATOM      3  C   UNL     1      -6.968  -5.498 -14.768  1.00  0.00     0.230 C 
BRANCH   3   4
ATOM      4  N   UNL     1      -5.700  -6.073 -15.245  1.00  0.00    -0.350 N 
ATOM      5  H   UNL     1      -5.066  -5.325 -15.609  1.00  0.00     0.345 HD
ATOM      6  H   UNL     1      -5.217  -6.581 -14.468  1.00  0.00     0.345 HD
ATOM      7  H   UNL     1      -5.882  -6.775 -15.999  1.00  0.00     0.345 HD
ENDBRANCH   3   4
BRANCH   3   8
ATOM      8  C   UNL     1      -7.536  -4.592 -15.830  1.00  0.00     0.099 C 
ATOM      9  O   UNL     1      -7.001  -4.530 -16.969  1.00  0.00    -0.544 OA
ATOM     10  O   UNL     1      -8.667  -3.831 -15.562  1.00  0.00    -0.544 OA
ENDBRANCH   3   8
ENDBRANCH   1   3
BRANCH   1  11
ATOM     11  C   UNL     1      -8.773  -6.220 -13.063  1.00  0.00     0.006 C 
ATOM     12  C   UNL     1      -7.896  -6.267 -11.809  1.00  0.00     0.004 C 
ENDBRANCH   1  11
TORSDOF 4
ENDMDL
MODEL 6
REMARK VINA RESULT:    -3.318      2.725      3.629
REMARK INTER + INTRA:          -4.124
REMARK INTER:                  -4.266
REMARK INTRA:                   0.142
REMARK UNBOUND:                -0.127
REMARK SMILES CC[C@H](C)[C@@H]([NH3+])C(=O)[O-]
REMARK SMILES IDX 3 1 4 2 5 3 6 4 7 8 8 9 9 10 2 11 1 12
REMARK H PARENT 6 5 6 6 6 7
REMARK Flexibility Score: inf
ROOT
ATOM      1  C   UNL     1      -8.689  -6.068 -14.753  1.00  0.00     0.050 C 
ATOM      2  C   UNL     1      -7.877  -6.657 -13.584  1.00  0.00     0.014 C 
ENDROOT
BRANCH   1   3
ATOM      3  C   UNL     1      -8.221  -4.614 -15.088  1.00  0.00     0.230 C 
BRANCH   3   4
ATOM      4  N   UNL     1      -7.132  -4.598 -16.078  1.00  0.00    -0.350 N 
ATOM      5  H   UNL     1      -6.272  -4.158 -15.677  1.00  0.00     0.345 HD
ATOM      6  H   UNL     1      -6.905  -5.574 -16.382  1.00  0.00     0.345 HD
ATOM      7  H   UNL     1      -7.428  -4.076 -16.933  1.00  0.00     0.345 HD
ENDBRANCH   3   4
BRANCH   3   8
ATOM      8  C   UNL     1      -9.367  -3.777 -15.594  1.00  0.00     0.099 C 
ATOM      9  O   UNL     1      -9.705  -2.724 -14.989  1.00  0.00    -0.544 OA
ATOM     10  O   UNL     1     -10.049  -4.154 -16.744  1.00  0.00    -0.544 OA
ENDBRANCH   3   8
ENDBRANCH   1   3
BRANCH   1  11
ATOM     11  C   UNL     1     -10.208  -6.123 -14.406  1.00  0.00     0.006 C 
ATOM     12  C   UNL     1     -10.878  -7.417 -14.873  1.00  0.00     0.004 C 
ENDBRANCH   1  11
TORSDOF 4
ENDMDL
MODEL 7
REMARK VINA RESULT:    -3.313      2.121      3.396
REMARK INTER + INTRA:          -4.118
REMARK INTER:                  -4.059
REMARK INTRA:                  -0.059
REMARK UNBOUND:                -0.127
REMARK SMILES CC[C@H](C)[C@@H]([NH3+])C(=O)[O-]
REMARK SMILES IDX 3 1 4 2 5 3 6 4 7 8 8 9 9 10 2 11 1 12
REMARK H PARENT 6 5 6 6 6 7
REMARK Flexibility Score: inf
ROOT
ATOM      1  C   UNL     1      -9.006  -7.211 -14.727  1.00  0.00     0.050 C 
ATOM      2  C   UNL     1      -7.822  -7.907 -14.030  1.00  0.00     0.014 C 
ENDROOT
BRANCH   1   3
ATOM      3  C   UNL     1      -9.264  -5.794 -14.119  1.00  0.00     0.230 C 
BRANCH   3   4
ATOM      4  N   UNL     1      -8.506  -5.581 -12.875  1.00  0.00    -0.350 N 
ATOM      5  H   UNL     1      -7.531  -5.949 -12.966  1.00  0.00     0.345 HD
ATOM      6  H   UNL     1      -8.464  -4.560 -12.647  1.00  0.00     0.345 HD
ATOM      7  H   UNL     1      -8.985  -6.050 -12.073  1.00  0.00     0.345 HD
ENDBRANCH   3   4
BRANCH   3   8
ATOM      8  C   UNL     1      -8.920  -4.708 -15.105  1.00  0.00     0.099 C 
ATOM      9  O   UNL     1      -9.798  -3.884 -15.480  1.00  0.00    -0.544 OA
ATOM     10  O   UNL     1      -7.625  -4.599 -15.595  1.00  0.00    -0.544 OA
ENDBRANCH   3   8
ENDBRANCH   1   3
BRANCH   1  11
ATOM     11  C   UNL     1     -10.268  -8.121 -14.633  1.00  0.00     0.006 C 
ATOM     12  C   UNL     1      -9.994  -9.563 -15.064  1.00  0.00     0.004 C 
ENDBRANCH   1  11
TORSDOF 4
ENDMDL
MODEL 8
REMARK VINA RESULT:    -3.270      2.027      3.598
REMARK INTER + INTRA:          -4.067
REMARK INTER:                  -3.997
REMARK INTRA:                  -0.069
REMARK UNBOUND:                -0.127
REMARK SMILES CC[C@H](C)[C@@H]([NH3+])C(=O)[O-]
REMARK SMILES IDX 3 1 4 2 5 3 6 4 7 8 8 9 9 10 2 11 1 12
REMARK H PARENT 6 5 6 6 6 7
REMARK Flexibility Score: inf
ROOT
ATOM      1  C   UNL     1      -7.869  -6.768 -13.972  1.00  0.00     0.050 C 
ATOM      2  C   UNL     1      -8.002  -6.487 -12.463  1.00  0.00     0.014 C 
ENDROOT
BRANCH   1   3
ATOM      3  C   UNL     1      -9.048  -6.122 -14.771  1.00  0.00     0.230 C 
BRANCH   3   4
ATOM      4  N   UNL     1     -10.291  -6.080 -13.984  1.00  0.00    -0.350 N 
ATOM      5  H   UNL     1     -10.386  -6.938 -13.393  1.00  0.00     0.345 HD
ATOM      6  H   UNL     1     -10.298  -5.237 -13.364  1.00  0.00     0.345 HD
ATOM      7  H   UNL     1     -11.118  -5.997 -14.617  1.00  0.00     0.345 HD
ENDBRANCH   3   4
BRANCH   3   8
ATOM      8  C   UNL     1      -8.698  -4.728 -15.226  1.00  0.00     0.099 C 
ATOM      9  O   UNL     1      -7.528  -4.457 -15.609  1.00  0.00    -0.544 OA
ATOM     10  O   UNL     1      -9.671  -3.737 -15.241  1.00  0.00    -0.544 OA
ENDBRANCH   3   8
ENDBRANCH   1   3
BRANCH   1  11
ATOM     11  C   UNL     1      -7.785  -8.307 -14.205  1.00  0.00     0.006 C 
ATOM     12  C   UNL     1      -6.370  -8.779 -14.549  1.00  0.00     0.004 C 
ENDBRANCH   1  11
TORSDOF 4
ENDMDL
MODEL 9
REMARK VINA RESULT:    -3.238      1.411      2.277
REMARK INTER + INTRA:          -4.027
REMARK INTER:                  -4.174
REMARK INTRA:                   0.147
REMARK UNBOUND:                -0.127
REMARK SMILES CC[C@H](C)[C@@H]([NH3+])C(=O)[O-]
REMARK SMILES IDX 3 1 4 2 5 3 6 4 7 8 8 9 9 10 2 11 1 12
REMARK H PARENT 6 5 6 6 6 7
REMARK Flexibility Score: inf
ROOT
ATOM      1  C   UNL     1      -7.981  -5.298 -14.403  1.00  0.00     0.050 C 
ATOM      2  C   UNL     1      -6.870  -5.306 -15.470  1.00  0.00     0.014 C 
ENDROOT
BRANCH   1   3
ATOM      3  C   UNL     1      -7.829  -6.507 -13.423  1.00  0.00     0.230 C 
BRANCH   3   4
ATOM      4  N   UNL     1      -8.898  -6.537 -12.412  1.00  0.00    -0.350 N 
ATOM      5  H   UNL     1      -9.768  -6.085 -12.777  1.00  0.00     0.345 HD
ATOM      6  H   UNL     1      -9.116  -7.524 -12.143  1.00  0.00     0.345 HD
ATOM      7  H   UNL     1      -8.588  -6.047 -11.542  1.00  0.00     0.345 HD
ENDBRANCH   3   4
BRANCH   3   8
ATOM      8  C   UNL     1      -7.815  -7.815 -14.173  1.00  0.00     0.099 C 
ATOM      9  O   UNL     1      -6.725  -8.389 -14.434  1.00  0.00    -0.544 OA
ATOM     10  O   UNL     1      -9.011  -8.404 -14.565  1.00  0.00    -0.544 OA
ENDBRANCH   3   8
ENDBRANCH   1   3
BRANCH   1  11
ATOM     11  C   UNL     1      -9.372  -5.292 -15.106  1.00  0.00     0.006 C 
ATOM     12  C   UNL     1      -9.685  -3.961 -15.793  1.00  0.00     0.004 C 
ENDBRANCH   1  11
TORSDOF 4
ENDMDL
