MODEL 1
REMARK VINA RESULT:     7.663      0.000      0.000
REMARK INTER + INTRA:          19.299
REMARK INTER:                  17.519
REMARK INTRA:                   1.780
REMARK UNBOUND:                 1.780
REMARK SMILES CCCCCCCCCCCCCCCCCCCCCCCC(=O)[O-]
REMARK SMILES IDX 13 1 14 2 15 3 16 4 17 5 18 6 19 7 20 8 21 9 22 10 23 11
REMARK SMILES IDX 24 12 25 13 26 14 12 15 11 16 10 17 9 18 8 19 7 20 6 21 5 22
REMARK SMILES IDX 4 23 3 24 2 25 1 26
REMARK H PARENT
REMARK Flexibility Score: inf
ROOT
ATOM      1  C   UNL     1      -2.364   6.781   9.176  1.00  0.00     0.000 C 
ENDROOT
BRANCH   1   2
ATOM      2  C   UNL     1      -3.339   5.783   8.524  1.00  0.00     0.000 C 
BRANCH   2   3
ATOM      3  C   UNL     1      -4.222   4.991   9.508  1.00  0.00     0.000 C 
BRANCH   3   4
ATOM      4  C   UNL     1      -5.686   5.461   9.509  1.00  0.00     0.000 C 
BRANCH   4   5
ATOM      5  C   UNL     1      -6.683   4.322   9.786  1.00  0.00     0.000 C 
BRANCH   5   6
ATOM      6  C   UNL     1      -6.124   2.904   9.568  1.00  0.00     0.000 C 
BRANCH   6   7
ATOM      7  C   UNL     1      -4.695   2.844   8.996  1.00  0.00     0.000 C 
BRANCH   7   8
ATOM      8  C   UNL     1      -4.641   2.682   7.461  1.00  0.00     0.000 C 
BRANCH   8   9
ATOM      9  C   UNL     1      -3.885   1.414   7.027  1.00  0.00     0.000 C 
BRANCH   9  10
ATOM     10  C   UNL     1      -2.923   0.894   8.112  1.00  0.00     0.006 C 
BRANCH  10  11
ATOM     11  C   UNL     1      -2.050  -0.287   7.664  1.00  0.00     0.053 C 
BRANCH  11  12
ATOM     12  C   UNL     1      -1.195  -0.809   8.778  1.00  0.00     0.041 C 
ATOM     13  O   UNL     1      -0.310  -0.076   9.292  1.00  0.00    -0.550 OA
ATOM     14  O   UNL     1      -1.359  -2.113   9.230  1.00  0.00    -0.550 OA
ENDBRANCH  11  12
ENDBRANCH  10  11
ENDBRANCH   9  10
ENDBRANCH   8   9
ENDBRANCH   7   8
ENDBRANCH   6   7
ENDBRANCH   5   6
ENDBRANCH   4   5
ENDBRANCH   3   4
ENDBRANCH   2   3
ENDBRANCH   1   2
BRANCH   1  15
ATOM     15  C   UNL     1      -3.072   7.983   9.823  1.00  0.00     0.000 C 
BRANCH  15  16
ATOM     16  C   UNL     1      -2.704   9.320   9.157  1.00  0.00     0.000 C 
BRANCH  16  17
ATOM     17  C   UNL     1      -1.457   9.997   9.764  1.00  0.00     0.000 C 
BRANCH  17  18
ATOM     18  C   UNL     1      -0.216   9.086   9.707  1.00  0.00    -0.000 C 
BRANCH  18  19
ATOM     19  C   UNL     1       1.082   9.803  10.124  1.00  0.00    -0.000 C 
BRANCH  19  20
ATOM     20  C   UNL     1       2.379   9.010   9.881  1.00  0.00    -0.000 C 
BRANCH  20  21
ATOM     21  C   UNL     1       3.648   9.861  10.064  1.00  0.00    -0.000 C 
BRANCH  21  22
ATOM     22  C   UNL     1       4.872   9.274   9.340  1.00  0.00    -0.000 C 
BRANCH  22  23
ATOM     23  C   UNL     1       6.196   9.362  10.121  1.00  0.00    -0.000 C 
BRANCH  23  24
ATOM     24  C   UNL     1       7.427   9.470   9.204  1.00  0.00    -0.000 C 
BRANCH  24  25
ATOM     25  C   UNL     1       8.688   9.911   9.960  1.00  0.00    -0.003 C 
ATOM     26  C   UNL     1       9.955   9.235   9.436  1.00  0.00     0.004 C 
ENDBRANCH  24  25
ENDBRANCH  23  24
ENDBRANCH  22  23
ENDBRANCH  21  22
ENDBRANCH  20  21
ENDBRANCH  19  20
ENDBRANCH  18  19
ENDBRANCH  17  18
ENDBRANCH  16  17
ENDBRANCH  15  16
ENDBRANCH   1  15
TORSDOF 22
ENDMDL
MODEL 2
REMARK VINA RESULT:     7.894      6.654      8.408
REMARK INTER + INTRA:          19.828
REMARK INTER:                  20.285
REMARK INTRA:                  -0.457
REMARK UNBOUND:                 1.780
REMARK SMILES CCCCCCCCCCCCCCCCCCCCCCCC(=O)[O-]
REMARK SMILES IDX 13 1 14 2 15 3 16 4 17 5 18 6 19 7 20 8 21 9 22 10 23 11
REMARK SMILES IDX 24 12 25 13 26 14 12 15 11 16 10 17 9 18 8 19 7 20 6 21 5 22
REMARK SMILES IDX 4 23 3 24 2 25 1 26
REMARK H PARENT
REMARK Flexibility Score: inf
ROOT
ATOM      1  C   UNL     1      -4.187   6.298   5.129  1.00  0.00     0.000 C 
ENDROOT
BRANCH   1   2
ATOM      2  C   UNL     1      -2.942   6.223   6.032  1.00  0.00     0.000 C 
BRANCH   2   3
ATOM      3  C   UNL     1      -3.232   6.092   7.540  1.00  0.00     0.000 C 
BRANCH   3   4
ATOM      4  C   UNL     1      -2.054   6.545   8.418  1.00  0.00     0.000 C 
BRANCH   4   5
ATOM      5  C   UNL     1      -2.444   6.736   9.894  1.00  0.00     0.000 C 
BRANCH   5   6
ATOM      6  C   UNL     1      -3.770   7.486  10.124  1.00  0.00     0.000 C 
BRANCH   6   7
ATOM      7  C   UNL     1      -5.038   6.617  10.031  1.00  0.00     0.000 C 
BRANCH   7   8
ATOM      8  C   UNL     1      -4.766   5.100  10.125  1.00  0.00     0.000 C 
BRANCH   8   9
ATOM      9  C   UNL     1      -6.052   4.262  10.026  1.00  0.00     0.000 C 
BRANCH   9  10
ATOM     10  C   UNL     1      -5.980   3.187   8.924  1.00  0.00     0.006 C 
BRANCH  10  11
ATOM     11  C   UNL     1      -4.874   3.426   7.885  1.00  0.00     0.053 C 
BRANCH  11  12
ATOM     12  C   UNL     1      -4.033   2.207   7.670  1.00  0.00     0.041 C 
ATOM     13  O   UNL     1      -3.054   1.971   8.425  1.00  0.00    -0.550 OA
ATOM     14  O   UNL     1      -4.313   1.343   6.617  1.00  0.00    -0.550 OA
ENDBRANCH  11  12
ENDBRANCH  10  11
ENDBRANCH   9  10
ENDBRANCH   8   9
ENDBRANCH   7   8
ENDBRANCH   6   7
ENDBRANCH   5   6
ENDBRANCH   4   5
ENDBRANCH   3   4
ENDBRANCH   2   3
ENDBRANCH   1   2
BRANCH   1  15
ATOM     15  C   UNL     1      -4.445   7.705   4.568  1.00  0.00     0.000 C 
BRANCH  15  16
ATOM     16  C   UNL     1      -4.055   7.836   3.085  1.00  0.00     0.000 C 
BRANCH  16  17
ATOM     17  C   UNL     1      -4.133   9.281   2.546  1.00  0.00     0.000 C 
BRANCH  17  18
ATOM     18  C   UNL     1      -3.386   9.441   1.208  1.00  0.00    -0.000 C 
BRANCH  18  19
ATOM     19  C   UNL     1      -3.678   8.304   0.211  1.00  0.00    -0.000 C 
BRANCH  19  20
ATOM     20  C   UNL     1      -4.028   8.757  -1.219  1.00  0.00    -0.000 C 
BRANCH  20  21
ATOM     21  C   UNL     1      -2.825   8.707  -2.177  1.00  0.00    -0.000 C 
BRANCH  21  22
ATOM     22  C   UNL     1      -1.524   8.264  -1.482  1.00  0.00    -0.000 C 
BRANCH  22  23
ATOM     23  C   UNL     1      -0.641   7.306  -2.301  1.00  0.00    -0.000 C 
BRANCH  23  24
ATOM     24  C   UNL     1       0.838   7.731  -2.329  1.00  0.00    -0.000 C 
BRANCH  24  25
ATOM     25  C   UNL     1       1.575   7.387  -1.027  1.00  0.00    -0.003 C 
ATOM     26  C   UNL     1       2.354   6.075  -1.121  1.00  0.00     0.004 C 
ENDBRANCH  24  25
ENDBRANCH  23  24
ENDBRANCH  22  23
ENDBRANCH  21  22
ENDBRANCH  20  21
ENDBRANCH  19  20
ENDBRANCH  18  19
ENDBRANCH  17  18
ENDBRANCH  16  17
ENDBRANCH  15  16
ENDBRANCH   1  15
TORSDOF 22
ENDMDL
MODEL 3
REMARK VINA RESULT:     8.110     14.226     17.644
REMARK INTER + INTRA:          20.320
REMARK INTER:                  20.816
REMARK INTRA:                  -0.496
REMARK UNBOUND:                 1.780
REMARK SMILES CCCCCCCCCCCCCCCCCCCCCCCC(=O)[O-]
REMARK SMILES IDX 13 1 14 2 15 3 16 4 17 5 18 6 19 7 20 8 21 9 22 10 23 11
REMARK SMILES IDX 24 12 25 13 26 14 12 15 11 16 10 17 9 18 8 19 7 20 6 21 5 22
REMARK SMILES IDX 4 23 3 24 2 25 1 26
REMARK H PARENT
REMARK Flexibility Score: inf
ROOT
ATOM      1  C   UNL     1       5.014   9.225  -1.645  1.00  0.00     0.000 C 
ENDROOT
BRANCH   1   2
ATOM      2  C   UNL     1       6.354   8.842  -2.300  1.00  0.00     0.000 C 
BRANCH   2   3
ATOM      3  C   UNL     1       6.317   7.575  -3.177  1.00  0.00     0.000 C 
BRANCH   3   4
ATOM      4  C   UNL     1       7.601   7.380  -4.001  1.00  0.00     0.000 C 
BRANCH   4   5
ATOM      5  C   UNL     1       7.626   6.045  -4.767  1.00  0.00     0.000 C 
BRANCH   5   6
ATOM      6  C   UNL     1       8.609   5.997  -5.952  1.00  0.00     0.000 C 
BRANCH   6   7
ATOM      7  C   UNL     1       9.646   7.135  -5.990  1.00  0.00     0.000 C 
BRANCH   7   8
ATOM      8  C   UNL     1       9.885   7.717  -7.400  1.00  0.00     0.000 C 
BRANCH   8   9
ATOM      9  C   UNL     1       8.811   7.279  -8.410  1.00  0.00     0.000 C 
BRANCH   9  10
ATOM     10  C   UNL     1       8.925   8.016  -9.758  1.00  0.00     0.006 C 
BRANCH  10  11
ATOM     11  C   UNL     1       8.452   9.477  -9.716  1.00  0.00     0.053 C 
BRANCH  11  12
ATOM     12  C   UNL     1       7.054   9.601  -9.193  1.00  0.00     0.041 C 
ATOM     13  O   UNL     1       6.844  10.113  -8.062  1.00  0.00    -0.550 OA
ATOM     14  O   UNL     1       5.985   9.126  -9.944  1.00  0.00    -0.550 OA
ENDBRANCH  11  12
ENDBRANCH  10  11
ENDBRANCH   9  10
ENDBRANCH   8   9
ENDBRANCH   7   8
ENDBRANCH   6   7
ENDBRANCH   5   6
ENDBRANCH   4   5
ENDBRANCH   3   4
ENDBRANCH   2   3
ENDBRANCH   1   2
BRANCH   1  15
ATOM     15  C   UNL     1       3.795   8.629  -2.367  1.00  0.00     0.000 C 
BRANCH  15  16
ATOM     16  C   UNL     1       2.469   9.280  -1.936  1.00  0.00     0.000 C 
BRANCH  16  17
ATOM     17  C   UNL     1       1.623   8.404  -0.989  1.00  0.00     0.000 C 
BRANCH  17  18
ATOM     18  C   UNL     1       1.339   7.012  -1.585  1.00  0.00    -0.000 C 
BRANCH  18  19
ATOM     19  C   UNL     1       0.060   6.969  -2.441  1.00  0.00    -0.000 C 
BRANCH  19  20
ATOM     20  C   UNL     1      -0.832   8.221  -2.356  1.00  0.00    -0.000 C 
BRANCH  20  21
ATOM     21  C   UNL     1      -1.235   8.576  -0.914  1.00  0.00    -0.000 C 
BRANCH  21  22
ATOM     22  C   UNL     1      -2.413   7.731  -0.397  1.00  0.00    -0.000 C 
BRANCH  22  23
ATOM     23  C   UNL     1      -3.341   8.446   0.601  1.00  0.00    -0.000 C 
BRANCH  23  24
ATOM     24  C   UNL     1      -4.089   9.637  -0.025  1.00  0.00    -0.000 C 
BRANCH  24  25
ATOM     25  C   UNL     1      -4.231   9.509  -1.548  1.00  0.00    -0.003 C 
ATOM     26  C   UNL     1      -5.684   9.336  -1.991  1.00  0.00     0.004 C 
ENDBRANCH  24  25
ENDBRANCH  23  24
ENDBRANCH  22  23
ENDBRANCH  21  22
ENDBRANCH  20  21
ENDBRANCH  19  20
ENDBRANCH  18  19
ENDBRANCH  17  18
ENDBRANCH  16  17
ENDBRANCH  15  16
ENDBRANCH   1  15
TORSDOF 22
ENDMDL
MODEL 4
REMARK VINA RESULT:     8.292      7.950     10.608
REMARK INTER + INTRA:          20.738
REMARK INTER:                  21.350
REMARK INTRA:                  -0.612
REMARK UNBOUND:                 1.780
REMARK SMILES CCCCCCCCCCCCCCCCCCCCCCCC(=O)[O-]
REMARK SMILES IDX 13 1 14 2 15 3 16 4 17 5 18 6 19 7 20 8 21 9 22 10 23 11
REMARK SMILES IDX 24 12 25 13 26 14 12 15 11 16 10 17 9 18 8 19 7 20 6 21 5 22
REMARK SMILES IDX 4 23 3 24 2 25 1 26
REMARK H PARENT
REMARK Flexibility Score: inf
ROOT
ATOM      1  C   UNL     1       1.137   0.790   0.541  1.00  0.00     0.000 C 
ENDROOT
BRANCH   1   2
ATOM      2  C   UNL     1       0.190   1.929   0.964  1.00  0.00     0.000 C 
BRANCH   2   3
ATOM      3  C   UNL     1      -1.079   1.483   1.715  1.00  0.00     0.000 C 
BRANCH   3   4
ATOM      4  C   UNL     1      -2.095   2.622   1.902  1.00  0.00     0.000 C 
BRANCH   4   5
ATOM      5  C   UNL     1      -2.674   2.682   3.327  1.00  0.00     0.000 C 
BRANCH   5   6
ATOM      6  C   UNL     1      -2.279   3.934   4.134  1.00  0.00     0.000 C 
BRANCH   6   7
ATOM      7  C   UNL     1      -3.003   4.097   5.484  1.00  0.00     0.000 C 
BRANCH   7   8
ATOM      8  C   UNL     1      -3.075   5.556   5.983  1.00  0.00     0.000 C 
BRANCH   8   9
ATOM      9  C   UNL     1      -3.730   5.675   7.370  1.00  0.00     0.000 C 
BRANCH   9  10
ATOM     10  C   UNL     1      -3.552   4.404   8.223  1.00  0.00     0.006 C 
BRANCH  10  11
ATOM     11  C   UNL     1      -4.819   3.544   8.340  1.00  0.00     0.053 C 
BRANCH  11  12
ATOM     12  C   UNL     1      -5.739   4.041   9.413  1.00  0.00     0.041 C 
ATOM     13  O   UNL     1      -6.802   3.419   9.674  1.00  0.00    -0.550 OA
ATOM     14  O   UNL     1      -5.435   5.208  10.105  1.00  0.00    -0.550 OA
ENDBRANCH  11  12
ENDBRANCH  10  11
ENDBRANCH   9  10
ENDBRANCH   8   9
ENDBRANCH   7   8
ENDBRANCH   6   7
ENDBRANCH   5   6
ENDBRANCH   4   5
ENDBRANCH   3   4
ENDBRANCH   2   3
ENDBRANCH   1   2
BRANCH   1  15
ATOM     15  C   UNL     1       2.025   1.154  -0.659  1.00  0.00     0.000 C 
BRANCH  15  16
ATOM     16  C   UNL     1       2.922   2.375  -0.389  1.00  0.00     0.000 C 
BRANCH  16  17
ATOM     17  C   UNL     1       2.240   3.728  -0.685  1.00  0.00     0.000 C 
BRANCH  17  18
ATOM     18  C   UNL     1       3.248   4.892  -0.710  1.00  0.00    -0.000 C 
BRANCH  18  19
ATOM     19  C   UNL     1       2.657   6.193  -1.285  1.00  0.00    -0.000 C 
BRANCH  19  20
ATOM     20  C   UNL     1       1.141   6.373  -1.083  1.00  0.00    -0.000 C 
BRANCH  20  21
ATOM     21  C   UNL     1       0.687   7.837  -1.216  1.00  0.00    -0.000 C 
BRANCH  21  22
ATOM     22  C   UNL     1      -0.284   8.059  -2.390  1.00  0.00    -0.000 C 
BRANCH  22  23
ATOM     23  C   UNL     1      -1.762   8.221  -1.994  1.00  0.00    -0.000 C 
BRANCH  23  24
ATOM     24  C   UNL     1      -1.962   8.366  -0.475  1.00  0.00    -0.000 C 
BRANCH  24  25
ATOM     25  C   UNL     1      -3.434   8.575  -0.092  1.00  0.00    -0.003 C 
ATOM     26  C   UNL     1      -4.327   8.834  -1.306  1.00  0.00     0.004 C 
ENDBRANCH  24  25
ENDBRANCH  23  24
ENDBRANCH  22  23
ENDBRANCH  21  22
ENDBRANCH  20  21
ENDBRANCH  19  20
ENDBRANCH  18  19
ENDBRANCH  17  18
ENDBRANCH  16  17
ENDBRANCH  15  16
ENDBRANCH   1  15
TORSDOF 22
ENDMDL
MODEL 5
REMARK VINA RESULT:     8.523      6.552      7.730
REMARK INTER + INTRA:          21.265
REMARK INTER:                  21.868
REMARK INTRA:                  -0.603
REMARK UNBOUND:                 1.780
REMARK SMILES CCCCCCCCCCCCCCCCCCCCCCCC(=O)[O-]
REMARK SMILES IDX 13 1 14 2 15 3 16 4 17 5 18 6 19 7 20 8 21 9 22 10 23 11
REMARK SMILES IDX 24 12 25 13 26 14 12 15 11 16 10 17 9 18 8 19 7 20 6 21 5 22
REMARK SMILES IDX 4 23 3 24 2 25 1 26
REMARK H PARENT
REMARK Flexibility Score: inf
ROOT
ATOM      1  C   UNL     1      -4.041   6.483   5.188  1.00  0.00     0.000 C 
ENDROOT
BRANCH   1   2
ATOM      2  C   UNL     1      -3.363   6.866   6.517  1.00  0.00     0.000 C 
BRANCH   2   3
ATOM      3  C   UNL     1      -3.014   5.683   7.440  1.00  0.00     0.000 C 
BRANCH   3   4
ATOM      4  C   UNL     1      -2.627   6.126   8.861  1.00  0.00     0.000 C 
BRANCH   4   5
ATOM      5  C   UNL     1      -3.612   5.629   9.934  1.00  0.00     0.000 C 
BRANCH   5   6
ATOM      6  C   UNL     1      -5.098   5.713   9.539  1.00  0.00     0.000 C 
BRANCH   6   7
ATOM      7  C   UNL     1      -5.929   4.452   9.845  1.00  0.00     0.000 C 
BRANCH   7   8
ATOM      8  C   UNL     1      -5.264   3.138   9.382  1.00  0.00     0.000 C 
BRANCH   8   9
ATOM      9  C   UNL     1      -4.568   3.277   8.016  1.00  0.00     0.000 C 
BRANCH   9  10
ATOM     10  C   UNL     1      -3.686   2.062   7.671  1.00  0.00     0.006 C 
BRANCH  10  11
ATOM     11  C   UNL     1      -3.095   1.346   8.895  1.00  0.00     0.053 C 
BRANCH  11  12
ATOM     12  C   UNL     1      -1.841   0.600   8.558  1.00  0.00     0.041 C 
ATOM     13  O   UNL     1      -1.895  -0.443   7.856  1.00  0.00    -0.550 OA
ATOM     14  O   UNL     1      -0.615   1.043   9.042  1.00  0.00    -0.550 OA
ENDBRANCH  11  12
ENDBRANCH  10  11
ENDBRANCH   9  10
ENDBRANCH   8   9
ENDBRANCH   7   8
ENDBRANCH   6   7
ENDBRANCH   5   6
ENDBRANCH   4   5
ENDBRANCH   3   4
ENDBRANCH   2   3
ENDBRANCH   1   2
BRANCH   1  15
ATOM     15  C   UNL     1      -4.573   7.695   4.408  1.00  0.00     0.000 C 
BRANCH  15  16
ATOM     16  C   UNL     1      -4.024   7.767   2.972  1.00  0.00     0.000 C 
BRANCH  16  17
ATOM     17  C   UNL     1      -4.310   9.108   2.262  1.00  0.00     0.000 C 
BRANCH  17  18
ATOM     18  C   UNL     1      -3.364   9.346   1.070  1.00  0.00    -0.000 C 
BRANCH  18  19
ATOM     19  C   UNL     1      -3.925   8.819  -0.264  1.00  0.00    -0.000 C 
BRANCH  19  20
ATOM     20  C   UNL     1      -2.875   8.282  -1.253  1.00  0.00    -0.000 C 
BRANCH  20  21
ATOM     21  C   UNL     1      -1.429   8.574  -0.814  1.00  0.00    -0.000 C 
BRANCH  21  22
ATOM     22  C   UNL     1      -0.390   7.728  -1.570  1.00  0.00    -0.000 C 
BRANCH  22  23
ATOM     23  C   UNL     1       1.052   7.840  -1.044  1.00  0.00    -0.000 C 
BRANCH  23  24
ATOM     24  C   UNL     1       2.108   7.695  -2.153  1.00  0.00    -0.000 C 
BRANCH  24  25
ATOM     25  C   UNL     1       2.935   8.973  -2.350  1.00  0.00    -0.003 C 
ATOM     26  C   UNL     1       3.858   9.265  -1.167  1.00  0.00     0.004 C 
ENDBRANCH  24  25
ENDBRANCH  23  24
ENDBRANCH  22  23
ENDBRANCH  21  22
ENDBRANCH  20  21
ENDBRANCH  19  20
ENDBRANCH  18  19
ENDBRANCH  17  18
ENDBRANCH  16  17
ENDBRANCH  15  16
ENDBRANCH   1  15
TORSDOF 22
ENDMDL
MODEL 6
REMARK VINA RESULT:     8.532      8.221     11.646
REMARK INTER + INTRA:          21.285
REMARK INTER:                  22.754
REMARK INTRA:                  -1.468
REMARK UNBOUND:                 1.780
REMARK SMILES CCCCCCCCCCCCCCCCCCCCCCCC(=O)[O-]
REMARK SMILES IDX 13 1 14 2 15 3 16 4 17 5 18 6 19 7 20 8 21 9 22 10 23 11
REMARK SMILES IDX 24 12 25 13 26 14 12 15 11 16 10 17 9 18 8 19 7 20 6 21 5 22
REMARK SMILES IDX 4 23 3 24 2 25 1 26
REMARK H PARENT
REMARK Flexibility Score: inf
ROOT
ATOM      1  C   UNL     1      -4.037   8.200   3.361  1.00  0.00     0.000 C 
ENDROOT
BRANCH   1   2
ATOM      2  C   UNL     1      -4.092   7.758   1.887  1.00  0.00     0.000 C 
BRANCH   2   3
ATOM      3  C   UNL     1      -3.420   8.720   0.889  1.00  0.00     0.000 C 
BRANCH   3   4
ATOM      4  C   UNL     1      -4.099   8.722  -0.490  1.00  0.00     0.000 C 
BRANCH   4   5
ATOM      5  C   UNL     1      -3.095   8.795  -1.655  1.00  0.00     0.000 C 
BRANCH   5   6
ATOM      6  C   UNL     1      -1.620   8.611  -1.251  1.00  0.00     0.000 C 
BRANCH   6   7
ATOM      7  C   UNL     1      -0.784   7.739  -2.207  1.00  0.00     0.000 C 
BRANCH   7   8
ATOM      8  C   UNL     1       0.329   6.932  -1.504  1.00  0.00     0.000 C 
BRANCH   8   9
ATOM      9  C   UNL     1       1.506   7.816  -1.055  1.00  0.00     0.000 C 
BRANCH   9  10
ATOM     10  C   UNL     1       1.929   8.836  -2.129  1.00  0.00     0.006 C 
BRANCH  10  11
ATOM     11  C   UNL     1       3.374   8.668  -2.621  1.00  0.00     0.053 C 
BRANCH  11  12
ATOM     12  C   UNL     1       4.341   9.469  -1.806  1.00  0.00     0.041 C 
ATOM     13  O   UNL     1       3.944  10.101  -0.792  1.00  0.00    -0.550 OA
ATOM     14  O   UNL     1       5.678   9.540  -2.181  1.00  0.00    -0.550 OA
ENDBRANCH  11  12
ENDBRANCH  10  11
ENDBRANCH   9  10
ENDBRANCH   8   9
ENDBRANCH   7   8
ENDBRANCH   6   7
ENDBRANCH   5   6
ENDBRANCH   4   5
ENDBRANCH   3   4
ENDBRANCH   2   3
ENDBRANCH   1   2
BRANCH   1  15
ATOM     15  C   UNL     1      -4.499   7.107   4.339  1.00  0.00     0.000 C 
BRANCH  15  16
ATOM     16  C   UNL     1      -3.421   6.738   5.373  1.00  0.00     0.000 C 
BRANCH  16  17
ATOM     17  C   UNL     1      -3.951   5.891   6.550  1.00  0.00     0.000 C 
BRANCH  17  18
ATOM     18  C   UNL     1      -2.820   5.433   7.490  1.00  0.00    -0.000 C 
BRANCH  18  19
ATOM     19  C   UNL     1      -2.739   6.257   8.788  1.00  0.00    -0.000 C 
BRANCH  19  20
ATOM     20  C   UNL     1      -3.591   5.729   9.958  1.00  0.00    -0.000 C 
BRANCH  20  21
ATOM     21  C   UNL     1      -4.930   6.472  10.110  1.00  0.00    -0.000 C 
BRANCH  21  22
ATOM     22  C   UNL     1      -6.142   5.524  10.123  1.00  0.00    -0.000 C 
BRANCH  22  23
ATOM     23  C   UNL     1      -5.799   4.024  10.073  1.00  0.00    -0.000 C 
BRANCH  23  24
ATOM     24  C   UNL     1      -5.735   3.472   8.638  1.00  0.00    -0.000 C 
BRANCH  24  25
ATOM     25  C   UNL     1      -4.824   2.241   8.521  1.00  0.00    -0.003 C 
ATOM     26  C   UNL     1      -4.067   2.194   7.194  1.00  0.00     0.004 C 
ENDBRANCH  24  25
ENDBRANCH  23  24
ENDBRANCH  22  23
ENDBRANCH  21  22
ENDBRANCH  20  21
ENDBRANCH  19  20
ENDBRANCH  18  19
ENDBRANCH  17  18
ENDBRANCH  16  17
ENDBRANCH  15  16
ENDBRANCH   1  15
TORSDOF 22
ENDMDL
MODEL 7
REMARK VINA RESULT:     8.617      7.934     11.731
REMARK INTER + INTRA:          21.479
REMARK INTER:                  22.641
REMARK INTRA:                  -1.161
REMARK UNBOUND:                 1.780
REMARK SMILES CCCCCCCCCCCCCCCCCCCCCCCC(=O)[O-]
REMARK SMILES IDX 13 1 14 2 15 3 16 4 17 5 18 6 19 7 20 8 21 9 22 10 23 11
REMARK SMILES IDX 24 12 25 13 26 14 12 15 11 16 10 17 9 18 8 19 7 20 6 21 5 22
REMARK SMILES IDX 4 23 3 24 2 25 1 26
REMARK H PARENT
REMARK Flexibility Score: inf
ROOT
ATOM      1  C   UNL     1      -0.703   2.652   2.104  1.00  0.00     0.000 C 
ENDROOT
BRANCH   1   2
ATOM      2  C   UNL     1       0.103   2.244   0.857  1.00  0.00     0.000 C 
BRANCH   2   3
ATOM      3  C   UNL     1       0.568   3.413  -0.034  1.00  0.00     0.000 C 
BRANCH   3   4
ATOM      4  C   UNL     1       2.096   3.478  -0.186  1.00  0.00     0.000 C 
BRANCH   4   5
ATOM      5  C   UNL     1       2.592   4.841  -0.701  1.00  0.00     0.000 C 
BRANCH   5   6
ATOM      6  C   UNL     1       1.513   5.939  -0.770  1.00  0.00     0.000 C 
BRANCH   6   7
ATOM      7  C   UNL     1       1.938   7.228  -1.499  1.00  0.00     0.000 C 
BRANCH   7   8
ATOM      8  C   UNL     1       0.760   8.159  -1.861  1.00  0.00     0.000 C 
BRANCH   8   9
ATOM      9  C   UNL     1      -0.606   7.554  -1.493  1.00  0.00     0.000 C 
BRANCH   9  10
ATOM     10  C   UNL     1      -1.608   8.609  -0.987  1.00  0.00     0.006 C 
BRANCH  10  11
ATOM     11  C   UNL     1      -3.067   8.325  -1.372  1.00  0.00     0.053 C 
BRANCH  11  12
ATOM     12  C   UNL     1      -4.030   9.125  -0.550  1.00  0.00     0.041 C 
ATOM     13  O   UNL     1      -5.072   9.597  -1.076  1.00  0.00    -0.550 OA
ATOM     14  O   UNL     1      -3.764   9.372   0.792  1.00  0.00    -0.550 OA
ENDBRANCH  11  12
ENDBRANCH  10  11
ENDBRANCH   9  10
ENDBRANCH   8   9
ENDBRANCH   7   8
ENDBRANCH   6   7
ENDBRANCH   5   6
ENDBRANCH   4   5
ENDBRANCH   3   4
ENDBRANCH   2   3
ENDBRANCH   1   2
BRANCH   1  15
ATOM     15  C   UNL     1      -2.207   2.366   1.973  1.00  0.00     0.000 C 
BRANCH  15  16
ATOM     16  C   UNL     1      -3.000   2.753   3.234  1.00  0.00     0.000 C 
BRANCH  16  17
ATOM     17  C   UNL     1      -2.192   3.595   4.244  1.00  0.00     0.000 C 
BRANCH  17  18
ATOM     18  C   UNL     1      -3.015   4.765   4.814  1.00  0.00    -0.000 C 
BRANCH  18  19
ATOM     19  C   UNL     1      -3.073   4.772   6.353  1.00  0.00    -0.000 C 
BRANCH  19  20
ATOM     20  C   UNL     1      -3.096   6.167   7.005  1.00  0.00    -0.000 C 
BRANCH  20  21
ATOM     21  C   UNL     1      -2.503   6.177   8.425  1.00  0.00    -0.000 C 
BRANCH  21  22
ATOM     22  C   UNL     1      -3.396   5.457   9.452  1.00  0.00    -0.000 C 
BRANCH  22  23
ATOM     23  C   UNL     1      -4.909   5.579   9.199  1.00  0.00    -0.000 C 
BRANCH  23  24
ATOM     24  C   UNL     1      -5.745   4.678  10.125  1.00  0.00    -0.000 C 
BRANCH  24  25
ATOM     25  C   UNL     1      -6.292   3.438   9.403  1.00  0.00    -0.003 C 
ATOM     26  C   UNL     1      -5.293   2.848   8.408  1.00  0.00     0.004 C 
ENDBRANCH  24  25
ENDBRANCH  23  24
ENDBRANCH  22  23
ENDBRANCH  21  22
ENDBRANCH  20  21
ENDBRANCH  19  20
ENDBRANCH  18  19
ENDBRANCH  17  18
ENDBRANCH  16  17
ENDBRANCH  15  16
ENDBRANCH   1  15
TORSDOF 22
ENDMDL
MODEL 8
REMARK VINA RESULT:     8.784      7.318     10.077
REMARK INTER + INTRA:          21.861
REMARK INTER:                  22.634
REMARK INTRA:                  -0.773
REMARK UNBOUND:                 1.780
REMARK SMILES CCCCCCCCCCCCCCCCCCCCCCCC(=O)[O-]
REMARK SMILES IDX 13 1 14 2 15 3 16 4 17 5 18 6 19 7 20 8 21 9 22 10 23 11
REMARK SMILES IDX 24 12 25 13 26 14 12 15 11 16 10 17 9 18 8 19 7 20 6 21 5 22
REMARK SMILES IDX 4 23 3 24 2 25 1 26
REMARK H PARENT
REMARK Flexibility Score: inf
ROOT
ATOM      1  C   UNL     1      -0.551   2.748   1.857  1.00  0.00     0.000 C 
ENDROOT
BRANCH   1   2
ATOM      2  C   UNL     1      -1.930   2.185   2.247  1.00  0.00     0.000 C 
BRANCH   2   3
ATOM      3  C   UNL     1      -2.916   3.214   2.833  1.00  0.00     0.000 C 
BRANCH   3   4
ATOM      4  C   UNL     1      -3.050   3.112   4.361  1.00  0.00     0.000 C 
BRANCH   4   5
ATOM      5  C   UNL     1      -2.741   4.436   5.081  1.00  0.00     0.000 C 
BRANCH   5   6
ATOM      6  C   UNL     1      -3.473   4.631   6.423  1.00  0.00     0.000 C 
BRANCH   6   7
ATOM      7  C   UNL     1      -3.123   5.928   7.177  1.00  0.00     0.000 C 
BRANCH   7   8
ATOM      8  C   UNL     1      -2.465   5.693   8.554  1.00  0.00     0.000 C 
BRANCH   8   9
ATOM      9  C   UNL     1      -3.141   6.499   9.677  1.00  0.00     0.000 C 
BRANCH   9  10
ATOM     10  C   UNL     1      -4.600   6.070   9.922  1.00  0.00     0.006 C 
BRANCH  10  11
ATOM     11  C   UNL     1      -4.901   4.615   9.531  1.00  0.00     0.053 C 
BRANCH  11  12
ATOM     12  C   UNL     1      -6.322   4.240   9.818  1.00  0.00     0.041 C 
ATOM     13  O   UNL     1      -6.683   3.035   9.759  1.00  0.00    -0.550 OA
ATOM     14  O   UNL     1      -7.255   5.224  10.124  1.00  0.00    -0.550 OA
ENDBRANCH  11  12
ENDBRANCH  10  11
ENDBRANCH   9  10
ENDBRANCH   8   9
ENDBRANCH   7   8
ENDBRANCH   6   7
ENDBRANCH   5   6
ENDBRANCH   4   5
ENDBRANCH   3   4
ENDBRANCH   2   3
ENDBRANCH   1   2
BRANCH   1  15
ATOM     15  C   UNL     1       0.162   1.913   0.782  1.00  0.00     0.000 C 
BRANCH  15  16
ATOM     16  C   UNL     1       1.352   2.652   0.145  1.00  0.00     0.000 C 
BRANCH  16  17
ATOM     17  C   UNL     1       1.017   4.082  -0.328  1.00  0.00     0.000 C 
BRANCH  17  18
ATOM     18  C   UNL     1       2.279   4.876  -0.715  1.00  0.00    -0.000 C 
BRANCH  18  19
ATOM     19  C   UNL     1       1.997   6.364  -0.996  1.00  0.00    -0.000 C 
BRANCH  19  20
ATOM     20  C   UNL     1       0.575   6.682  -1.494  1.00  0.00    -0.000 C 
BRANCH  20  21
ATOM     21  C   UNL     1       0.317   8.190  -1.654  1.00  0.00    -0.000 C 
BRANCH  21  22
ATOM     22  C   UNL     1      -1.172   8.526  -1.848  1.00  0.00    -0.000 C 
BRANCH  22  23
ATOM     23  C   UNL     1      -2.096   8.081  -0.699  1.00  0.00    -0.000 C 
BRANCH  23  24
ATOM     24  C   UNL     1      -3.564   8.488  -0.919  1.00  0.00    -0.000 C 
BRANCH  24  25
ATOM     25  C   UNL     1      -4.079   9.442   0.167  1.00  0.00    -0.003 C 
ATOM     26  C   UNL     1      -2.982   9.877   1.139  1.00  0.00     0.004 C 
ENDBRANCH  24  25
ENDBRANCH  23  24
ENDBRANCH  22  23
ENDBRANCH  21  22
ENDBRANCH  20  21
ENDBRANCH  19  20
ENDBRANCH  18  19
ENDBRANCH  17  18
ENDBRANCH  16  17
ENDBRANCH  15  16
ENDBRANCH   1  15
TORSDOF 22
ENDMDL
MODEL 9
REMARK VINA RESULT:     9.128      7.685     10.488
REMARK INTER + INTRA:          22.647
REMARK INTER:                  22.784
REMARK INTRA:                  -0.136
REMARK UNBOUND:                 1.780
REMARK SMILES CCCCCCCCCCCCCCCCCCCCCCCC(=O)[O-]
REMARK SMILES IDX 13 1 14 2 15 3 16 4 17 5 18 6 19 7 20 8 21 9 22 10 23 11
REMARK SMILES IDX 24 12 25 13 26 14 12 15 11 16 10 17 9 18 8 19 7 20 6 21 5 22
REMARK SMILES IDX 4 23 3 24 2 25 1 26
REMARK H PARENT
REMARK Flexibility Score: inf
ROOT
ATOM      1  C   UNL     1      -0.210   2.321   1.283  1.00  0.00     0.000 C 
ENDROOT
BRANCH   1   2
ATOM      2  C   UNL     1      -1.520   2.532   2.064  1.00  0.00     0.000 C 
BRANCH   2   3
ATOM      3  C   UNL     1      -1.390   3.377   3.346  1.00  0.00     0.000 C 
BRANCH   3   4
ATOM      4  C   UNL     1      -2.742   3.632   4.034  1.00  0.00     0.000 C 
BRANCH   4   5
ATOM      5  C   UNL     1      -2.634   4.592   5.232  1.00  0.00     0.000 C 
BRANCH   5   6
ATOM      6  C   UNL     1      -3.372   4.129   6.503  1.00  0.00     0.000 C 
BRANCH   6   7
ATOM      7  C   UNL     1      -3.811   5.258   7.453  1.00  0.00     0.000 C 
BRANCH   7   8
ATOM      8  C   UNL     1      -3.971   4.813   8.923  1.00  0.00     0.000 C 
BRANCH   8   9
ATOM      9  C   UNL     1      -4.455   5.952   9.836  1.00  0.00     0.000 C 
BRANCH   9  10
ATOM     10  C   UNL     1      -3.462   7.128   9.898  1.00  0.00     0.006 C 
BRANCH  10  11
ATOM     11  C   UNL     1      -1.989   6.713   9.775  1.00  0.00     0.053 C 
BRANCH  11  12
ATOM     12  C   UNL     1      -1.061   7.872   9.974  1.00  0.00     0.041 C 
ATOM     13  O   UNL     1      -1.520   9.037  10.102  1.00  0.00    -0.550 OA
ATOM     14  O   UNL     1       0.315   7.668   9.992  1.00  0.00    -0.550 OA
ENDBRANCH  11  12
ENDBRANCH  10  11
ENDBRANCH   9  10
ENDBRANCH   8   9
ENDBRANCH   7   8
ENDBRANCH   6   7
ENDBRANCH   5   6
ENDBRANCH   4   5
ENDBRANCH   3   4
ENDBRANCH   2   3
ENDBRANCH   1   2
BRANCH   1  15
ATOM     15  C   UNL     1       0.249   3.574   0.520  1.00  0.00     0.000 C 
BRANCH  15  16
ATOM     16  C   UNL     1       1.685   3.452  -0.018  1.00  0.00     0.000 C 
BRANCH  16  17
ATOM     17  C   UNL     1       2.349   4.808  -0.337  1.00  0.00     0.000 C 
BRANCH  17  18
ATOM     18  C   UNL     1       1.476   5.678  -1.260  1.00  0.00    -0.000 C 
BRANCH  18  19
ATOM     19  C   UNL     1       1.777   7.183  -1.137  1.00  0.00    -0.000 C 
BRANCH  19  20
ATOM     20  C   UNL     1       0.551   8.110  -1.230  1.00  0.00    -0.000 C 
BRANCH  20  21
ATOM     21  C   UNL     1      -0.492   7.626  -2.253  1.00  0.00    -0.000 C 
BRANCH  21  22
ATOM     22  C   UNL     1      -1.890   8.222  -2.010  1.00  0.00    -0.000 C 
BRANCH  22  23
ATOM     23  C   UNL     1      -2.135   8.753  -0.586  1.00  0.00    -0.000 C 
BRANCH  23  24
ATOM     24  C   UNL     1      -3.453   8.247   0.024  1.00  0.00    -0.000 C 
BRANCH  24  25
ATOM     25  C   UNL     1      -4.637   8.370  -0.946  1.00  0.00    -0.003 C 
ATOM     26  C   UNL     1      -4.433   9.471  -1.987  1.00  0.00     0.004 C 
ENDBRANCH  24  25
ENDBRANCH  23  24
ENDBRANCH  22  23
ENDBRANCH  21  22
ENDBRANCH  20  21
ENDBRANCH  19  20
ENDBRANCH  18  19
ENDBRANCH  17  18
ENDBRANCH  16  17
ENDBRANCH  15  16
ENDBRANCH   1  15
TORSDOF 22
ENDMDL
