MODEL 1
REMARK VINA RESULT:    -7.277      0.000      0.000
REMARK INTER + INTRA:         -10.951
REMARK INTER:                 -10.042
REMARK INTRA:                  -0.909
REMARK UNBOUND:                -0.909
REMARK SMILES O=C([O-])[C@H]1O[C@H](Oc2cc3oc(-c4ccccc4)cc(=O)c3c(O)c2O)[C@@H](O)[C@H](O)[C@H]1O
REMARK SMILES IDX 7 1 6 2 4 3 31 4 5 5 29 6 27 7 2 8 1 9 3 10 32 11 30 13
REMARK SMILES IDX 28 15 8 17 25 18 9 19 23 20 10 21 22 22 11 23 20 24 12 25
REMARK SMILES IDX 19 26 21 27 26 28 24 30 13 32 14 33 18 34 15 35 17 36 16 37
REMARK H PARENT 32 12 30 14 28 16 26 29 24 31
REMARK Flexibility Score: inf
ROOT
ATOM      1  O   UNL     1     307.418 226.392 204.314  1.00  0.00    -0.458 OA
ENDROOT
BRANCH   1   2
ATOM      2  C   UNL     1     308.409 225.611 204.993  1.00  0.00     0.339 C 
ATOM      3  C   UNL     1     307.433 223.564 204.382  1.00  0.00     0.199 C 
ATOM      4  C   UNL     1     308.621 223.146 203.490  1.00  0.00     0.180 C 
ATOM      5  O   UNL     1     307.865 224.382 205.458  1.00  0.00    -0.328 OA
ATOM      6  C   UNL     1     309.322 224.402 202.947  1.00  0.00     0.181 C 
ATOM      7  C   UNL     1     309.640 225.388 204.090  1.00  0.00     0.214 C 
BRANCH   3   8
ATOM      8  C   UNL     1     306.734 222.357 204.934  1.00  0.00     0.073 C 
ATOM      9  O   UNL     1     305.878 221.749 204.238  1.00  0.00    -0.547 OA
ATOM     10  O   UNL     1     307.049 221.879 206.201  1.00  0.00    -0.547 OA
ENDBRANCH   3   8
BRANCH   4  11
ATOM     11  O   UNL     1     309.543 222.379 204.226  1.00  0.00    -0.387 OA
ATOM     12  H   UNL     1     309.066 221.565 204.536  1.00  0.00     0.211 HD
ENDBRANCH   4  11
BRANCH   6  13
ATOM     13  O   UNL     1     308.497 225.019 201.991  1.00  0.00    -0.387 OA
ATOM     14  H   UNL     1     309.059 225.181 201.189  1.00  0.00     0.211 HD
ENDBRANCH   6  13
BRANCH   7  15
ATOM     15  O   UNL     1     310.694 224.875 204.868  1.00  0.00    -0.384 OA
ATOM     16  H   UNL     1     310.670 225.337 205.747  1.00  0.00     0.211 HD
ENDBRANCH   7  15
ENDBRANCH   1   2
BRANCH   1  17
ATOM     17  C   UNL     1     307.684 227.642 203.739  1.00  0.00     0.172 A 
ATOM     18  C   UNL     1     307.041 228.074 202.566  1.00  0.00     0.201 A 
ATOM     19  C   UNL     1     308.597 228.480 204.376  1.00  0.00     0.098 A 
ATOM     20  C   UNL     1     307.359 229.325 202.000  1.00  0.00     0.176 A 
ATOM     21  C   UNL     1     308.968 229.696 203.803  1.00  0.00     0.146 A 
ATOM     22  C   UNL     1     308.380 230.127 202.587  1.00  0.00     0.111 A 
ATOM     23  O   UNL     1     309.898 230.426 204.408  1.00  0.00    -0.456 OA
ATOM     24  C   UNL     1     308.891 231.318 202.019  1.00  0.00     0.197 A 
ATOM     25  C   UNL     1     310.356 231.577 203.924  1.00  0.00     0.138 A 
ATOM     26  C   UNL     1     309.865 232.049 202.700  1.00  0.00     0.100 A 
ATOM     27  O   UNL     1     308.522 231.725 200.887  1.00  0.00    -0.289 OA
BRANCH  18  28
ATOM     28  O   UNL     1     306.050 227.274 201.995  1.00  0.00    -0.502 OA
ATOM     29  H   UNL     1     305.096 227.593 201.864  1.00  0.00     0.293 HD
ENDBRANCH  18  28
BRANCH  20  30
ATOM     30  O   UNL     1     306.618 229.734 200.887  1.00  0.00    -0.504 OA
ATOM     31  H   UNL     1     305.761 230.264 200.939  1.00  0.00     0.293 HD
ENDBRANCH  20  30
BRANCH  25  32
ATOM     32  C   UNL     1     311.403 232.306 204.683  1.00  0.00     0.017 A 
ATOM     33  C   UNL     1     312.183 233.317 204.087  1.00  0.00     0.012 A 
ATOM     34  C   UNL     1     311.614 231.999 206.041  1.00  0.00     0.012 A 
ATOM     35  C   UNL     1     313.163 233.985 204.829  1.00  0.00     0.001 A 
ATOM     36  C   UNL     1     312.596 232.669 206.777  1.00  0.00     0.001 A 
ATOM     37  C   UNL     1     313.371 233.659 206.171  1.00  0.00     0.000 A 
ENDBRANCH  25  32
ENDBRANCH   1  17
TORSDOF 9
ENDMDL
MODEL 2
REMARK VINA RESULT:    -6.863      6.005      9.221
REMARK INTER + INTRA:         -10.380
REMARK INTER:                  -8.941
REMARK INTRA:                  -1.439
REMARK UNBOUND:                -0.909
REMARK SMILES O=C([O-])[C@H]1O[C@H](Oc2cc3oc(-c4ccccc4)cc(=O)c3c(O)c2O)[C@@H](O)[C@H](O)[C@H]1O
REMARK SMILES IDX 7 1 6 2 4 3 31 4 5 5 29 6 27 7 2 8 1 9 3 10 32 11 30 13
REMARK SMILES IDX 28 15 8 17 25 18 9 19 23 20 10 21 22 22 11 23 20 24 12 25
REMARK SMILES IDX 19 26 21 27 26 28 24 30 13 32 14 33 18 34 15 35 17 36 16 37
REMARK H PARENT 32 12 30 14 28 16 26 29 24 31
REMARK Flexibility Score: inf
ROOT
ATOM      1  O   UNL     1     311.868 231.595 201.427  1.00  0.00    -0.458 OA
ENDROOT
BRANCH   1   2
ATOM      2  C   UNL     1     310.519 232.040 201.619  1.00  0.00     0.339 C 
ATOM      3  C   UNL     1     310.057 230.414 203.250  1.00  0.00     0.199 C 
ATOM      4  C   UNL     1     309.895 231.449 204.384  1.00  0.00     0.180 C 
ATOM      5  O   UNL     1     309.673 230.962 201.999  1.00  0.00    -0.328 OA
ATOM      6  C   UNL     1     310.745 232.691 204.070  1.00  0.00     0.181 C 
ATOM      7  C   UNL     1     310.468 233.196 202.639  1.00  0.00     0.214 C 
BRANCH   3   8
ATOM      8  C   UNL     1     309.231 229.192 203.526  1.00  0.00     0.073 C 
ATOM      9  O   UNL     1     307.986 229.217 203.339  1.00  0.00    -0.547 OA
ATOM     10  O   UNL     1     309.836 228.016 203.954  1.00  0.00    -0.547 OA
ENDBRANCH   3   8
BRANCH   4  11
ATOM     11  O   UNL     1     308.546 231.828 204.515  1.00  0.00    -0.387 OA
ATOM     12  H   UNL     1     308.459 232.306 205.381  1.00  0.00     0.211 HD
ENDBRANCH   4  11
BRANCH   6  13
ATOM     13  O   UNL     1     312.106 232.373 204.217  1.00  0.00    -0.387 OA
ATOM     14  H   UNL     1     312.207 231.946 205.107  1.00  0.00     0.211 HD
ENDBRANCH   6  13
BRANCH   7  15
ATOM     15  O   UNL     1     309.195 233.792 202.594  1.00  0.00    -0.384 OA
ATOM     16  H   UNL     1     309.135 234.431 203.352  1.00  0.00     0.211 HD
ENDBRANCH   7  15
ENDBRANCH   1   2
BRANCH   1  17
ATOM     17  C   UNL     1     312.742 232.169 200.493  1.00  0.00     0.172 A 
ATOM     18  C   UNL     1     313.842 232.951 200.887  1.00  0.00     0.201 A 
ATOM     19  C   UNL     1     312.514 231.928 199.140  1.00  0.00     0.098 A 
ATOM     20  C   UNL     1     314.679 233.540 199.917  1.00  0.00     0.176 A 
ATOM     21  C   UNL     1     313.295 232.545 198.164  1.00  0.00     0.146 A 
ATOM     22  C   UNL     1     314.373 233.389 198.534  1.00  0.00     0.111 A 
ATOM     23  O   UNL     1     312.992 232.344 196.886  1.00  0.00    -0.456 OA
ATOM     24  C   UNL     1     315.044 234.061 197.485  1.00  0.00     0.197 A 
ATOM     25  C   UNL     1     313.643 232.920 195.880  1.00  0.00     0.138 A 
ATOM     26  C   UNL     1     314.689 233.809 196.160  1.00  0.00     0.100 A 
ATOM     27  O   UNL     1     315.936 234.920 197.710  1.00  0.00    -0.289 OA
BRANCH  18  28
ATOM     28  O   UNL     1     314.126 233.100 202.245  1.00  0.00    -0.502 OA
ATOM     29  H   UNL     1     314.813 233.758 202.593  1.00  0.00     0.293 HD
ENDBRANCH  18  28
BRANCH  20  30
ATOM     30  O   UNL     1     315.807 234.228 200.374  1.00  0.00    -0.504 OA
ATOM     31  H   UNL     1     316.028 235.182 200.129  1.00  0.00     0.293 HD
ENDBRANCH  20  30
BRANCH  25  32
ATOM     32  C   UNL     1     313.213 232.627 194.490  1.00  0.00     0.017 A 
ATOM     33  C   UNL     1     313.955 233.066 193.375  1.00  0.00     0.012 A 
ATOM     34  C   UNL     1     312.044 231.874 194.271  1.00  0.00     0.012 A 
ATOM     35  C   UNL     1     313.523 232.775 192.077  1.00  0.00     0.001 A 
ATOM     36  C   UNL     1     311.616 231.587 192.971  1.00  0.00     0.001 A 
ATOM     37  C   UNL     1     312.353 232.040 191.876  1.00  0.00     0.000 A 
ENDBRANCH  25  32
ENDBRANCH   1  17
TORSDOF 9
ENDMDL
MODEL 3
REMARK VINA RESULT:    -6.716      2.569      8.652
REMARK INTER + INTRA:         -10.177
REMARK INTER:                  -8.781
REMARK INTRA:                  -1.396
REMARK UNBOUND:                -0.909
REMARK SMILES O=C([O-])[C@H]1O[C@H](Oc2cc3oc(-c4ccccc4)cc(=O)c3c(O)c2O)[C@@H](O)[C@H](O)[C@H]1O
REMARK SMILES IDX 7 1 6 2 4 3 31 4 5 5 29 6 27 7 2 8 1 9 3 10 32 11 30 13
REMARK SMILES IDX 28 15 8 17 25 18 9 19 23 20 10 21 22 22 11 23 20 24 12 25
REMARK SMILES IDX 19 26 21 27 26 28 24 30 13 32 14 33 18 34 15 35 17 36 16 37
REMARK H PARENT 32 12 30 14 28 16 26 29 24 31
REMARK Flexibility Score: inf
ROOT
ATOM      1  O   UNL     1     309.717 231.142 202.533  1.00  0.00    -0.458 OA
ENDROOT
BRANCH   1   2
ATOM      2  C   UNL     1     311.101 231.383 202.817  1.00  0.00     0.339 C 
ATOM      3  C   UNL     1     311.487 232.473 200.773  1.00  0.00     0.199 C 
ATOM      4  C   UNL     1     311.763 233.840 201.436  1.00  0.00     0.180 C 
ATOM      5  O   UNL     1     311.874 231.406 201.624  1.00  0.00    -0.328 OA
ATOM      6  C   UNL     1     311.000 233.926 202.769  1.00  0.00     0.181 C 
ATOM      7  C   UNL     1     311.271 232.680 203.636  1.00  0.00     0.214 C 
BRANCH   3   8
ATOM      8  C   UNL     1     312.226 232.357 199.473  1.00  0.00     0.073 C 
ATOM      9  O   UNL     1     311.615 232.514 198.383  1.00  0.00    -0.547 OA
ATOM     10  O   UNL     1     313.595 232.111 199.461  1.00  0.00    -0.547 OA
ENDBRANCH   3   8
BRANCH   4  11
ATOM     11  O   UNL     1     313.140 234.003 201.676  1.00  0.00    -0.387 OA
ATOM     12  H   UNL     1     313.240 234.302 202.617  1.00  0.00     0.211 HD
ENDBRANCH   4  11
BRANCH   6  13
ATOM     13  O   UNL     1     309.624 234.047 202.511  1.00  0.00    -0.387 OA
ATOM     14  H   UNL     1     309.397 233.362 201.830  1.00  0.00     0.211 HD
ENDBRANCH   6  13
BRANCH   7  15
ATOM     15  O   UNL     1     312.584 232.737 204.137  1.00  0.00    -0.384 OA
ATOM     16  H   UNL     1     313.202 232.762 203.360  1.00  0.00     0.211 HD
ENDBRANCH   7  15
ENDBRANCH   1   2
BRANCH   1  17
ATOM     17  C   UNL     1     308.892 230.349 203.341  1.00  0.00     0.172 A 
ATOM     18  C   UNL     1     307.947 230.910 204.218  1.00  0.00     0.201 A 
ATOM     19  C   UNL     1     309.007 228.963 203.243  1.00  0.00     0.098 A 
ATOM     20  C   UNL     1     307.158 230.080 205.040  1.00  0.00     0.176 A 
ATOM     21  C   UNL     1     308.277 228.126 204.086  1.00  0.00     0.146 A 
ATOM     22  C   UNL     1     307.362 228.670 205.022  1.00  0.00     0.111 A 
ATOM     23  O   UNL     1     308.475 226.815 204.007  1.00  0.00    -0.456 OA
ATOM     24  C   UNL     1     306.745 227.759 205.912  1.00  0.00     0.197 A 
ATOM     25  C   UNL     1     307.866 225.933 204.794  1.00  0.00     0.138 A 
ATOM     26  C   UNL     1     306.985 226.391 205.782  1.00  0.00     0.100 A 
ATOM     27  O   UNL     1     306.008 228.148 206.856  1.00  0.00    -0.289 OA
BRANCH  18  28
ATOM     28  O   UNL     1     307.764 232.294 204.232  1.00  0.00    -0.502 OA
ATOM     29  H   UNL     1     306.892 232.734 203.962  1.00  0.00     0.293 HD
ENDBRANCH  18  28
BRANCH  20  30
ATOM     30  O   UNL     1     306.175 230.696 205.820  1.00  0.00    -0.504 OA
ATOM     31  H   UNL     1     305.586 230.209 206.479  1.00  0.00     0.293 HD
ENDBRANCH  20  30
BRANCH  25  32
ATOM     32  C   UNL     1     308.170 224.491 204.621  1.00  0.00     0.017 A 
ATOM     33  C   UNL     1     307.381 223.489 205.221  1.00  0.00     0.012 A 
ATOM     34  C   UNL     1     309.262 224.104 203.820  1.00  0.00     0.012 A 
ATOM     35  C   UNL     1     307.694 222.138 205.040  1.00  0.00     0.001 A 
ATOM     36  C   UNL     1     309.570 222.753 203.644  1.00  0.00     0.001 A 
ATOM     37  C   UNL     1     308.790 221.771 204.255  1.00  0.00     0.000 A 
ENDBRANCH  25  32
ENDBRANCH   1  17
TORSDOF 9
ENDMDL
MODEL 4
REMARK VINA RESULT:    -6.457      2.197      2.843
REMARK INTER + INTRA:          -9.820
REMARK INTER:                  -8.915
REMARK INTRA:                  -0.904
REMARK UNBOUND:                -0.909
REMARK SMILES O=C([O-])[C@H]1O[C@H](Oc2cc3oc(-c4ccccc4)cc(=O)c3c(O)c2O)[C@@H](O)[C@H](O)[C@H]1O
REMARK SMILES IDX 7 1 6 2 4 3 31 4 5 5 29 6 27 7 2 8 1 9 3 10 32 11 30 13
REMARK SMILES IDX 28 15 8 17 25 18 9 19 23 20 10 21 22 22 11 23 20 24 12 25
REMARK SMILES IDX 19 26 21 27 26 28 24 30 13 32 14 33 18 34 15 35 17 36 16 37
REMARK H PARENT 32 12 30 14 28 16 26 29 24 31
REMARK Flexibility Score: inf
ROOT
ATOM      1  O   UNL     1     307.553 226.335 204.421  1.00  0.00    -0.458 OA
ENDROOT
BRANCH   1   2
ATOM      2  C   UNL     1     308.570 225.507 205.000  1.00  0.00     0.339 C 
ATOM      3  C   UNL     1     307.550 223.508 204.304  1.00  0.00     0.199 C 
ATOM      4  C   UNL     1     308.691 223.144 203.330  1.00  0.00     0.180 C 
ATOM      5  O   UNL     1     308.040 224.253 205.409  1.00  0.00    -0.328 OA
ATOM      6  C   UNL     1     309.375 224.431 202.838  1.00  0.00     0.181 C 
ATOM      7  C   UNL     1     309.754 225.338 204.025  1.00  0.00     0.214 C 
BRANCH   3   8
ATOM      8  C   UNL     1     306.870 222.270 204.809  1.00  0.00     0.073 C 
ATOM      9  O   UNL     1     305.875 221.802 204.195  1.00  0.00    -0.547 OA
ATOM     10  O   UNL     1     307.352 221.612 205.935  1.00  0.00    -0.547 OA
ENDBRANCH   3   8
BRANCH   4  11
ATOM     11  O   UNL     1     309.643 222.327 203.969  1.00  0.00    -0.387 OA
ATOM     12  H   UNL     1     310.186 222.915 204.557  1.00  0.00     0.211 HD
ENDBRANCH   4  11
BRANCH   6  13
ATOM     13  O   UNL     1     308.510 225.112 201.964  1.00  0.00    -0.387 OA
ATOM     14  H   UNL     1     308.923 225.075 201.063  1.00  0.00     0.211 HD
ENDBRANCH   6  13
BRANCH   7  15
ATOM     15  O   UNL     1     310.840 224.771 204.716  1.00  0.00    -0.384 OA
ATOM     16  H   UNL     1     311.106 225.407 205.432  1.00  0.00     0.211 HD
ENDBRANCH   7  15
ENDBRANCH   1   2
BRANCH   1  17
ATOM     17  C   UNL     1     307.621 227.734 204.397  1.00  0.00     0.172 A 
ATOM     18  C   UNL     1     306.768 228.534 205.177  1.00  0.00     0.201 A 
ATOM     19  C   UNL     1     308.586 228.334 203.590  1.00  0.00     0.098 A 
ATOM     20  C   UNL     1     306.844 229.940 205.101  1.00  0.00     0.176 A 
ATOM     21  C   UNL     1     308.642 229.721 203.457  1.00  0.00     0.146 A 
ATOM     22  C   UNL     1     307.751 230.549 204.186  1.00  0.00     0.111 A 
ATOM     23  O   UNL     1     309.529 230.244 202.619  1.00  0.00    -0.456 OA
ATOM     24  C   UNL     1     307.801 231.936 203.911  1.00  0.00     0.197 A 
ATOM     25  C   UNL     1     309.635 231.549 202.384  1.00  0.00     0.138 A 
ATOM     26  C   UNL     1     308.757 232.433 203.024  1.00  0.00     0.100 A 
ATOM     27  O   UNL     1     306.977 232.744 204.414  1.00  0.00    -0.289 OA
BRANCH  18  28
ATOM     28  O   UNL     1     305.878 227.925 206.063  1.00  0.00    -0.502 OA
ATOM     29  H   UNL     1     305.431 228.425 206.822  1.00  0.00     0.293 HD
ENDBRANCH  18  28
BRANCH  20  30
ATOM     30  O   UNL     1     306.033 230.675 205.970  1.00  0.00    -0.504 OA
ATOM     31  H   UNL     1     306.340 231.490 206.480  1.00  0.00     0.293 HD
ENDBRANCH  20  30
BRANCH  25  32
ATOM     32  C   UNL     1     310.659 232.021 201.420  1.00  0.00     0.017 A 
ATOM     33  C   UNL     1     310.340 232.907 200.372  1.00  0.00     0.012 A 
ATOM     34  C   UNL     1     311.993 231.592 201.561  1.00  0.00     0.012 A 
ATOM     35  C   UNL     1     311.329 233.333 199.479  1.00  0.00     0.001 A 
ATOM     36  C   UNL     1     312.976 232.020 200.665  1.00  0.00     0.001 A 
ATOM     37  C   UNL     1     312.644 232.887 199.623  1.00  0.00     0.000 A 
ENDBRANCH  25  32
ENDBRANCH   1  17
TORSDOF 9
ENDMDL
MODEL 5
REMARK VINA RESULT:    -6.434      3.101      8.704
REMARK INTER + INTRA:          -9.788
REMARK INTER:                  -8.574
REMARK INTRA:                  -1.214
REMARK UNBOUND:                -0.909
REMARK SMILES O=C([O-])[C@H]1O[C@H](Oc2cc3oc(-c4ccccc4)cc(=O)c3c(O)c2O)[C@@H](O)[C@H](O)[C@H]1O
REMARK SMILES IDX 7 1 6 2 4 3 31 4 5 5 29 6 27 7 2 8 1 9 3 10 32 11 30 13
REMARK SMILES IDX 28 15 8 17 25 18 9 19 23 20 10 21 22 22 11 23 20 24 12 25
REMARK SMILES IDX 19 26 21 27 26 28 24 30 13 32 14 33 18 34 15 35 17 36 16 37
REMARK H PARENT 32 12 30 14 28 16 26 29 24 31
REMARK Flexibility Score: inf
ROOT
ATOM      1  O   UNL     1     309.360 231.678 202.669  1.00  0.00    -0.458 OA
ENDROOT
BRANCH   1   2
ATOM      2  C   UNL     1     309.195 231.788 201.250  1.00  0.00     0.339 C 
ATOM      3  C   UNL     1     308.014 233.813 201.393  1.00  0.00     0.199 C 
ATOM      4  C   UNL     1     309.123 234.629 200.694  1.00  0.00     0.180 C 
ATOM      5  O   UNL     1     307.993 232.474 200.924  1.00  0.00    -0.328 OA
ATOM      6  C   UNL     1     310.485 233.961 200.946  1.00  0.00     0.181 C 
ATOM      7  C   UNL     1     310.428 232.458 200.609  1.00  0.00     0.214 C 
BRANCH   3   8
ATOM      8  C   UNL     1     306.670 234.437 201.157  1.00  0.00     0.073 C 
ATOM      9  O   UNL     1     306.072 234.255 200.064  1.00  0.00    -0.547 OA
ATOM     10  O   UNL     1     306.059 235.190 202.154  1.00  0.00    -0.547 OA
ENDBRANCH   3   8
BRANCH   4  11
ATOM     11  O   UNL     1     308.886 234.697 199.308  1.00  0.00    -0.387 OA
ATOM     12  H   UNL     1     307.904 234.626 199.175  1.00  0.00     0.211 HD
ENDBRANCH   4  11
BRANCH   6  13
ATOM     13  O   UNL     1     310.852 234.143 202.290  1.00  0.00    -0.387 OA
ATOM     14  H   UNL     1     310.032 234.420 202.777  1.00  0.00     0.211 HD
ENDBRANCH   6  13
BRANCH   7  15
ATOM     15  O   UNL     1     310.366 232.295 199.213  1.00  0.00    -0.384 OA
ATOM     16  H   UNL     1     310.105 231.353 199.032  1.00  0.00     0.211 HD
ENDBRANCH   7  15
ENDBRANCH   1   2
BRANCH   1  17
ATOM     17  C   UNL     1     308.628 230.784 203.462  1.00  0.00     0.172 A 
ATOM     18  C   UNL     1     307.674 231.227 204.396  1.00  0.00     0.201 A 
ATOM     19  C   UNL     1     308.845 229.418 203.290  1.00  0.00     0.098 A 
ATOM     20  C   UNL     1     306.982 230.298 205.199  1.00  0.00     0.176 A 
ATOM     21  C   UNL     1     308.213 228.487 204.112  1.00  0.00     0.146 A 
ATOM     22  C   UNL     1     307.293 228.911 205.104  1.00  0.00     0.111 A 
ATOM     23  O   UNL     1     308.509 227.201 203.960  1.00  0.00    -0.456 OA
ATOM     24  C   UNL     1     306.780 227.913 205.965  1.00  0.00     0.197 A 
ATOM     25  C   UNL     1     307.999 226.237 204.720  1.00  0.00     0.138 A 
ATOM     26  C   UNL     1     307.121 226.575 205.758  1.00  0.00     0.100 A 
ATOM     27  O   UNL     1     306.050 228.196 206.951  1.00  0.00    -0.289 OA
BRANCH  18  28
ATOM     28  O   UNL     1     307.386 232.589 204.486  1.00  0.00    -0.502 OA
ATOM     29  H   UNL     1     308.089 233.308 204.363  1.00  0.00     0.293 HD
ENDBRANCH  18  28
BRANCH  20  30
ATOM     30  O   UNL     1     305.983 230.796 206.041  1.00  0.00    -0.504 OA
ATOM     31  H   UNL     1     306.109 230.981 207.025  1.00  0.00     0.293 HD
ENDBRANCH  20  30
BRANCH  25  32
ATOM     32  C   UNL     1     308.406 224.833 204.465  1.00  0.00     0.017 A 
ATOM     33  C   UNL     1     307.636 223.743 204.916  1.00  0.00     0.012 A 
ATOM     34  C   UNL     1     309.583 224.575 203.735  1.00  0.00     0.012 A 
ATOM     35  C   UNL     1     308.048 222.430 204.660  1.00  0.00     0.001 A 
ATOM     36  C   UNL     1     309.989 223.262 203.483  1.00  0.00     0.001 A 
ATOM     37  C   UNL     1     309.225 222.191 203.948  1.00  0.00     0.000 A 
ENDBRANCH  25  32
ENDBRANCH   1  17
TORSDOF 9
ENDMDL
MODEL 6
REMARK VINA RESULT:    -6.407      7.084     10.103
REMARK INTER + INTRA:          -9.751
REMARK INTER:                  -8.539
REMARK INTRA:                  -1.212
REMARK UNBOUND:                -0.909
REMARK SMILES O=C([O-])[C@H]1O[C@H](Oc2cc3oc(-c4ccccc4)cc(=O)c3c(O)c2O)[C@@H](O)[C@H](O)[C@H]1O
REMARK SMILES IDX 7 1 6 2 4 3 31 4 5 5 29 6 27 7 2 8 1 9 3 10 32 11 30 13
REMARK SMILES IDX 28 15 8 17 25 18 9 19 23 20 10 21 22 22 11 23 20 24 12 25
REMARK SMILES IDX 19 26 21 27 26 28 24 30 13 32 14 33 18 34 15 35 17 36 16 37
REMARK H PARENT 32 12 30 14 28 16 26 29 24 31
REMARK Flexibility Score: inf
ROOT
ATOM      1  O   UNL     1     313.292 233.421 197.108  1.00  0.00    -0.458 OA
ENDROOT
BRANCH   1   2
ATOM      2  C   UNL     1     313.553 232.307 196.244  1.00  0.00     0.339 C 
ATOM      3  C   UNL     1     312.250 233.168 194.490  1.00  0.00     0.199 C 
ATOM      4  C   UNL     1     313.460 233.371 193.553  1.00  0.00     0.180 C 
ATOM      5  O   UNL     1     312.460 232.071 195.366  1.00  0.00    -0.328 OA
ATOM      6  C   UNL     1     314.726 233.603 194.395  1.00  0.00     0.181 C 
ATOM      7  C   UNL     1     314.874 232.512 195.475  1.00  0.00     0.214 C 
BRANCH   3   8
ATOM      8  C   UNL     1     311.000 232.930 193.696  1.00  0.00     0.073 C 
ATOM      9  O   UNL     1     310.809 231.818 193.137  1.00  0.00    -0.547 OA
ATOM     10  O   UNL     1     310.028 233.920 193.600  1.00  0.00    -0.547 OA
ENDBRANCH   3   8
BRANCH   4  11
ATOM     11  O   UNL     1     313.645 232.240 192.736  1.00  0.00    -0.387 OA
ATOM     12  H   UNL     1     312.748 231.850 192.569  1.00  0.00     0.211 HD
ENDBRANCH   4  11
BRANCH   6  13
ATOM     13  O   UNL     1     314.661 234.872 194.994  1.00  0.00    -0.387 OA
ATOM     14  H   UNL     1     315.099 234.795 195.881  1.00  0.00     0.211 HD
ENDBRANCH   6  13
BRANCH   7  15
ATOM     15  O   UNL     1     315.243 231.300 194.865  1.00  0.00    -0.384 OA
ATOM     16  H   UNL     1     314.966 230.562 195.470  1.00  0.00     0.211 HD
ENDBRANCH   7  15
ENDBRANCH   1   2
BRANCH   1  17
ATOM     17  C   UNL     1     312.865 233.283 198.435  1.00  0.00     0.172 A 
ATOM     18  C   UNL     1     311.567 232.851 198.758  1.00  0.00     0.201 A 
ATOM     19  C   UNL     1     313.775 233.561 199.454  1.00  0.00     0.098 A 
ATOM     20  C   UNL     1     311.163 232.757 200.105  1.00  0.00     0.176 A 
ATOM     21  C   UNL     1     313.380 233.528 200.790  1.00  0.00     0.146 A 
ATOM     22  C   UNL     1     312.057 233.156 201.140  1.00  0.00     0.111 A 
ATOM     23  O   UNL     1     314.261 233.874 201.722  1.00  0.00    -0.456 OA
ATOM     24  C   UNL     1     311.709 233.254 202.508  1.00  0.00     0.197 A 
ATOM     25  C   UNL     1     313.975 233.921 203.020  1.00  0.00     0.138 A 
ATOM     26  C   UNL     1     312.675 233.618 203.446  1.00  0.00     0.100 A 
ATOM     27  O   UNL     1     310.531 233.061 202.909  1.00  0.00    -0.289 OA
BRANCH  18  28
ATOM     28  O   UNL     1     310.697 232.472 197.734  1.00  0.00    -0.502 OA
ATOM     29  H   UNL     1     310.569 233.021 196.892  1.00  0.00     0.293 HD
ENDBRANCH  18  28
BRANCH  20  30
ATOM     30  O   UNL     1     309.891 232.234 200.360  1.00  0.00    -0.504 OA
ATOM     31  H   UNL     1     309.029 232.732 200.193  1.00  0.00     0.293 HD
ENDBRANCH  20  30
BRANCH  25  32
ATOM     32  C   UNL     1     315.038 234.328 203.972  1.00  0.00     0.017 A 
ATOM     33  C   UNL     1     314.747 235.063 205.139  1.00  0.00     0.012 A 
ATOM     34  C   UNL     1     316.373 233.958 203.720  1.00  0.00     0.012 A 
ATOM     35  C   UNL     1     315.771 235.433 206.017  1.00  0.00     0.001 A 
ATOM     36  C   UNL     1     317.392 234.332 204.600  1.00  0.00     0.001 A 
ATOM     37  C   UNL     1     317.093 235.071 205.745  1.00  0.00     0.000 A 
ENDBRANCH  25  32
ENDBRANCH   1  17
TORSDOF 9
ENDMDL
MODEL 7
REMARK VINA RESULT:    -6.340      8.320     10.657
REMARK INTER + INTRA:          -9.659
REMARK INTER:                  -8.289
REMARK INTRA:                  -1.369
REMARK UNBOUND:                -0.909
REMARK SMILES O=C([O-])[C@H]1O[C@H](Oc2cc3oc(-c4ccccc4)cc(=O)c3c(O)c2O)[C@@H](O)[C@H](O)[C@H]1O
REMARK SMILES IDX 7 1 6 2 4 3 31 4 5 5 29 6 27 7 2 8 1 9 3 10 32 11 30 13
REMARK SMILES IDX 28 15 8 17 25 18 9 19 23 20 10 21 22 22 11 23 20 24 12 25
REMARK SMILES IDX 19 26 21 27 26 28 24 30 13 32 14 33 18 34 15 35 17 36 16 37
REMARK H PARENT 32 12 30 14 28 16 26 29 24 31
REMARK Flexibility Score: inf
ROOT
ATOM      1  O   UNL     1     313.944 234.353 198.500  1.00  0.00    -0.458 OA
ENDROOT
BRANCH   1   2
ATOM      2  C   UNL     1     313.058 233.244 198.298  1.00  0.00     0.339 C 
ATOM      3  C   UNL     1     312.464 233.920 196.129  1.00  0.00     0.199 C 
ATOM      4  C   UNL     1     313.129 232.701 195.455  1.00  0.00     0.180 C 
ATOM      5  O   UNL     1     311.991 233.592 197.426  1.00  0.00    -0.328 OA
ATOM      6  C   UNL     1     314.292 232.203 196.330  1.00  0.00     0.181 C 
ATOM      7  C   UNL     1     313.836 232.012 197.791  1.00  0.00     0.214 C 
BRANCH   3   8
ATOM      8  C   UNL     1     311.319 234.423 195.301  1.00  0.00     0.073 C 
ATOM      9  O   UNL     1     310.690 235.455 195.653  1.00  0.00    -0.547 OA
ATOM     10  O   UNL     1     310.965 233.776 194.121  1.00  0.00    -0.547 OA
ENDBRANCH   3   8
BRANCH   4  11
ATOM     11  O   UNL     1     312.196 231.661 195.286  1.00  0.00    -0.387 OA
ATOM     12  H   UNL     1     311.292 232.073 195.304  1.00  0.00     0.211 HD
ENDBRANCH   4  11
BRANCH   6  13
ATOM     13  O   UNL     1     315.349 233.128 196.270  1.00  0.00    -0.387 OA
ATOM     14  H   UNL     1     316.065 232.785 196.865  1.00  0.00     0.211 HD
ENDBRANCH   6  13
BRANCH   7  15
ATOM     15  O   UNL     1     313.006 230.880 197.875  1.00  0.00    -0.384 OA
ATOM     16  H   UNL     1     312.622 230.855 198.791  1.00  0.00     0.211 HD
ENDBRANCH   7  15
ENDBRANCH   1   2
BRANCH   1  17
ATOM     17  C   UNL     1     314.844 234.434 199.571  1.00  0.00     0.172 A 
ATOM     18  C   UNL     1     316.233 234.518 199.372  1.00  0.00     0.201 A 
ATOM     19  C   UNL     1     314.328 234.457 200.866  1.00  0.00     0.098 A 
ATOM     20  C   UNL     1     317.108 234.564 200.476  1.00  0.00     0.176 A 
ATOM     21  C   UNL     1     315.177 234.445 201.972  1.00  0.00     0.146 A 
ATOM     22  C   UNL     1     316.584 234.467 201.798  1.00  0.00     0.111 A 
ATOM     23  O   UNL     1     314.640 234.391 203.185  1.00  0.00    -0.456 OA
ATOM     24  C   UNL     1     317.373 234.344 202.966  1.00  0.00     0.197 A 
ATOM     25  C   UNL     1     315.359 234.330 204.303  1.00  0.00     0.138 A 
ATOM     26  C   UNL     1     316.757 234.294 204.217  1.00  0.00     0.100 A 
ATOM     27  O   UNL     1     318.625 234.233 202.914  1.00  0.00    -0.289 OA
BRANCH  18  28
ATOM     28  O   UNL     1     316.734 234.603 198.072  1.00  0.00    -0.502 OA
ATOM     29  H   UNL     1     316.403 234.014 197.318  1.00  0.00     0.293 HD
ENDBRANCH  18  28
BRANCH  20  30
ATOM     30  O   UNL     1     318.470 234.740 200.210  1.00  0.00    -0.504 OA
ATOM     31  H   UNL     1     319.100 233.992 199.959  1.00  0.00     0.293 HD
ENDBRANCH  20  30
BRANCH  25  32
ATOM     32  C   UNL     1     314.651 234.266 205.605  1.00  0.00     0.017 A 
ATOM     33  C   UNL     1     313.489 233.488 205.781  1.00  0.00     0.012 A 
ATOM     34  C   UNL     1     315.157 234.984 206.705  1.00  0.00     0.012 A 
ATOM     35  C   UNL     1     312.843 233.448 207.021  1.00  0.00     0.001 A 
ATOM     36  C   UNL     1     314.508 234.942 207.942  1.00  0.00     0.001 A 
ATOM     37  C   UNL     1     313.350 234.178 208.099  1.00  0.00     0.000 A 
ENDBRANCH  25  32
ENDBRANCH   1  17
TORSDOF 9
ENDMDL
MODEL 8
REMARK VINA RESULT:    -6.269      3.023      8.822
REMARK INTER + INTRA:          -9.560
REMARK INTER:                  -8.323
REMARK INTRA:                  -1.236
REMARK UNBOUND:                -0.909
REMARK SMILES O=C([O-])[C@H]1O[C@H](Oc2cc3oc(-c4ccccc4)cc(=O)c3c(O)c2O)[C@@H](O)[C@H](O)[C@H]1O
REMARK SMILES IDX 7 1 6 2 4 3 31 4 5 5 29 6 27 7 2 8 1 9 3 10 32 11 30 13
REMARK SMILES IDX 28 15 8 17 25 18 9 19 23 20 10 21 22 22 11 23 20 24 12 25
REMARK SMILES IDX 19 26 21 27 26 28 24 30 13 32 14 33 18 34 15 35 17 36 16 37
REMARK H PARENT 32 12 30 14 28 16 26 29 24 31
REMARK Flexibility Score: inf
ROOT
ATOM      1  O   UNL     1     311.059 231.510 202.974  1.00  0.00    -0.458 OA
ENDROOT
BRANCH   1   2
ATOM      2  C   UNL     1     311.272 231.627 201.561  1.00  0.00     0.339 C 
ATOM      3  C   UNL     1     310.800 233.928 201.530  1.00  0.00     0.199 C 
ATOM      4  C   UNL     1     312.241 234.323 201.144  1.00  0.00     0.180 C 
ATOM      5  O   UNL     1     310.461 232.654 201.004  1.00  0.00    -0.328 OA
ATOM      6  C   UNL     1     313.221 233.260 201.667  1.00  0.00     0.181 C 
ATOM      7  C   UNL     1     312.767 231.846 201.253  1.00  0.00     0.214 C 
BRANCH   3   8
ATOM      8  C   UNL     1     309.819 234.944 201.024  1.00  0.00     0.073 C 
ATOM      9  O   UNL     1     310.213 236.094 200.694  1.00  0.00    -0.547 OA
ATOM     10  O   UNL     1     308.475 234.615 200.882  1.00  0.00    -0.547 OA
ENDBRANCH   3   8
BRANCH   4  11
ATOM     11  O   UNL     1     312.366 234.425 199.745  1.00  0.00    -0.387 OA
ATOM     12  H   UNL     1     312.200 233.521 199.370  1.00  0.00     0.211 HD
ENDBRANCH   4  11
BRANCH   6  13
ATOM     13  O   UNL     1     313.305 233.352 203.066  1.00  0.00    -0.387 OA
ATOM     14  H   UNL     1     313.902 232.619 203.368  1.00  0.00     0.211 HD
ENDBRANCH   6  13
BRANCH   7  15
ATOM     15  O   UNL     1     312.981 231.673 199.873  1.00  0.00    -0.384 OA
ATOM     16  H   UNL     1     312.897 230.703 199.675  1.00  0.00     0.211 HD
ENDBRANCH   7  15
ENDBRANCH   1   2
BRANCH   1  17
ATOM     17  C   UNL     1     309.991 230.797 203.535  1.00  0.00     0.172 A 
ATOM     18  C   UNL     1     308.914 231.444 204.165  1.00  0.00     0.201 A 
ATOM     19  C   UNL     1     310.000 229.407 203.434  1.00  0.00     0.098 A 
ATOM     20  C   UNL     1     307.874 230.690 204.747  1.00  0.00     0.176 A 
ATOM     21  C   UNL     1     309.012 228.641 204.051  1.00  0.00     0.146 A 
ATOM     22  C   UNL     1     307.947 229.267 204.746  1.00  0.00     0.111 A 
ATOM     23  O   UNL     1     309.103 227.317 203.991  1.00  0.00    -0.456 OA
ATOM     24  C   UNL     1     307.048 228.418 205.434  1.00  0.00     0.197 A 
ATOM     25  C   UNL     1     308.241 226.496 204.582  1.00  0.00     0.138 A 
ATOM     26  C   UNL     1     307.188 227.033 205.334  1.00  0.00     0.100 A 
ATOM     27  O   UNL     1     306.140 228.873 206.177  1.00  0.00    -0.289 OA
BRANCH  18  28
ATOM     28  O   UNL     1     308.859 232.838 204.167  1.00  0.00    -0.502 OA
ATOM     29  H   UNL     1     309.565 233.414 204.611  1.00  0.00     0.293 HD
ENDBRANCH  18  28
BRANCH  20  30
ATOM     30  O   UNL     1     306.788 231.395 205.276  1.00  0.00    -0.504 OA
ATOM     31  H   UNL     1     305.944 230.962 205.621  1.00  0.00     0.293 HD
ENDBRANCH  20  30
BRANCH  25  32
ATOM     32  C   UNL     1     308.446 225.032 204.454  1.00  0.00     0.017 A 
ATOM     33  C   UNL     1     307.578 224.105 205.065  1.00  0.00     0.012 A 
ATOM     34  C   UNL     1     309.523 224.547 203.687  1.00  0.00     0.012 A 
ATOM     35  C   UNL     1     307.798 222.730 204.927  1.00  0.00     0.001 A 
ATOM     36  C   UNL     1     309.739 223.173 203.553  1.00  0.00     0.001 A 
ATOM     37  C   UNL     1     308.880 222.265 204.175  1.00  0.00     0.000 A 
ENDBRANCH  25  32
ENDBRANCH   1  17
TORSDOF 9
ENDMDL
MODEL 9
REMARK VINA RESULT:    -6.184      7.147     10.712
REMARK INTER + INTRA:          -9.444
REMARK INTER:                  -8.425
REMARK INTRA:                  -1.019
REMARK UNBOUND:                -0.909
REMARK SMILES O=C([O-])[C@H]1O[C@H](Oc2cc3oc(-c4ccccc4)cc(=O)c3c(O)c2O)[C@@H](O)[C@H](O)[C@H]1O
REMARK SMILES IDX 7 1 6 2 4 3 31 4 5 5 29 6 27 7 2 8 1 9 3 10 32 11 30 13
REMARK SMILES IDX 28 15 8 17 25 18 9 19 23 20 10 21 22 22 11 23 20 24 12 25
REMARK SMILES IDX 19 26 21 27 26 28 24 30 13 32 14 33 18 34 15 35 17 36 16 37
REMARK H PARENT 32 12 30 14 28 16 26 29 24 31
REMARK Flexibility Score: inf
ROOT
ATOM      1  O   UNL     1     313.325 232.466 196.963  1.00  0.00    -0.458 OA
ENDROOT
BRANCH   1   2
ATOM      2  C   UNL     1     312.953 233.353 195.901  1.00  0.00     0.339 C 
ATOM      3  C   UNL     1     315.138 234.165 195.609  1.00  0.00     0.199 C 
ATOM      4  C   UNL     1     315.287 233.553 194.200  1.00  0.00     0.180 C 
ATOM      5  O   UNL     1     313.786 234.505 195.877  1.00  0.00    -0.328 OA
ATOM      6  C   UNL     1     314.397 232.304 194.086  1.00  0.00     0.181 C 
ATOM      7  C   UNL     1     312.958 232.614 194.547  1.00  0.00     0.214 C 
BRANCH   3   8
ATOM      8  C   UNL     1     315.990 235.392 195.747  1.00  0.00     0.073 C 
ATOM      9  O   UNL     1     316.058 235.992 196.852  1.00  0.00    -0.547 OA
ATOM     10  O   UNL     1     316.736 235.855 194.669  1.00  0.00    -0.547 OA
ENDBRANCH   3   8
BRANCH   4  11
ATOM     11  O   UNL     1     314.910 234.485 193.215  1.00  0.00    -0.387 OA
ATOM     12  H   UNL     1     314.482 235.249 193.684  1.00  0.00     0.211 HD
ENDBRANCH   4  11
BRANCH   6  13
ATOM     13  O   UNL     1     314.943 231.270 194.865  1.00  0.00    -0.387 OA
ATOM     14  H   UNL     1     314.475 231.291 195.740  1.00  0.00     0.211 HD
ENDBRANCH   6  13
BRANCH   7  15
ATOM     15  O   UNL     1     312.323 233.417 193.582  1.00  0.00    -0.384 OA
ATOM     16  H   UNL     1     313.007 234.031 193.204  1.00  0.00     0.211 HD
ENDBRANCH   7  15
ENDBRANCH   1   2
BRANCH   1  17
ATOM     17  C   UNL     1     312.860 232.601 198.278  1.00  0.00     0.172 A 
ATOM     18  C   UNL     1     311.508 232.408 198.612  1.00  0.00     0.201 A 
ATOM     19  C   UNL     1     313.782 232.912 199.276  1.00  0.00     0.098 A 
ATOM     20  C   UNL     1     311.072 232.586 199.941  1.00  0.00     0.176 A 
ATOM     21  C   UNL     1     313.363 233.147 200.584  1.00  0.00     0.146 A 
ATOM     22  C   UNL     1     311.995 233.020 200.935  1.00  0.00     0.111 A 
ATOM     23  O   UNL     1     314.268 233.514 201.485  1.00  0.00    -0.456 OA
ATOM     24  C   UNL     1     311.640 233.382 202.256  1.00  0.00     0.197 A 
ATOM     25  C   UNL     1     313.969 233.806 202.747  1.00  0.00     0.138 A 
ATOM     26  C   UNL     1     312.632 233.756 203.164  1.00  0.00     0.100 A 
ATOM     27  O   UNL     1     310.441 233.418 202.635  1.00  0.00    -0.289 OA
BRANCH  18  28
ATOM     28  O   UNL     1     310.612 231.993 197.626  1.00  0.00    -0.502 OA
ATOM     29  H   UNL     1     310.587 231.043 197.273  1.00  0.00     0.293 HD
ENDBRANCH  18  28
BRANCH  20  30
ATOM     30  O   UNL     1     309.735 232.290 200.223  1.00  0.00    -0.504 OA
ATOM     31  H   UNL     1     308.949 232.805 199.854  1.00  0.00     0.293 HD
ENDBRANCH  20  30
BRANCH  25  32
ATOM     32  C   UNL     1     315.061 234.212 203.665  1.00  0.00     0.017 A 
ATOM     33  C   UNL     1     314.809 234.949 204.840  1.00  0.00     0.012 A 
ATOM     34  C   UNL     1     316.387 233.837 203.373  1.00  0.00     0.012 A 
ATOM     35  C   UNL     1     315.861 235.317 205.685  1.00  0.00     0.001 A 
ATOM     36  C   UNL     1     317.434 234.209 204.221  1.00  0.00     0.001 A 
ATOM     37  C   UNL     1     317.172 234.951 205.373  1.00  0.00     0.000 A 
ENDBRANCH  25  32
ENDBRANCH   1  17
TORSDOF 9
ENDMDL
