MODEL 1
REMARK VINA RESULT:    -3.368      0.000      0.000
REMARK INTER + INTRA:          -4.245
REMARK INTER:                  -4.155
REMARK INTRA:                  -0.090
REMARK UNBOUND:                -0.090
REMARK SMILES CCCCCC(=O)[O-]
REMARK SMILES IDX 4 1 5 2 6 3 7 4 8 5 3 6 2 7 1 8
REMARK H PARENT
REMARK Flexibility Score: inf
ROOT
ATOM      1  C   UNL     1      11.159  56.299  42.474  1.00  0.00     0.006 C 
ENDROOT
BRANCH   1   2
ATOM      2  C   UNL     1       9.630  56.331  42.559  1.00  0.00     0.053 C 
BRANCH   2   3
ATOM      3  C   UNL     1       9.099  57.598  41.967  1.00  0.00     0.041 C 
ATOM      4  O   UNL     1       7.882  57.694  41.662  1.00  0.00    -0.550 OA
ATOM      5  O   UNL     1       9.959  58.657  41.707  1.00  0.00    -0.550 OA
ENDBRANCH   2   3
ENDBRANCH   1   2
BRANCH   1   6
ATOM      6  C   UNL     1      11.625  55.496  41.253  1.00  0.00     0.000 C 
BRANCH   6   7
ATOM      7  C   UNL     1      13.138  55.637  41.048  1.00  0.00    -0.003 C 
ATOM      8  C   UNL     1      13.892  54.468  41.674  1.00  0.00     0.004 C 
ENDBRANCH   6   7
ENDBRANCH   1   6
TORSDOF 4
ENDMDL
MODEL 2
REMARK VINA RESULT:    -3.364     20.504     22.061
REMARK INTER + INTRA:          -4.240
REMARK INTER:                  -4.149
REMARK INTRA:                  -0.090
REMARK UNBOUND:                -0.090
REMARK SMILES CCCCCC(=O)[O-]
REMARK SMILES IDX 4 1 5 2 6 3 7 4 8 5 3 6 2 7 1 8
REMARK H PARENT
REMARK Flexibility Score: inf
ROOT
ATOM      1  C   UNL     1      24.720  56.747  24.667  1.00  0.00     0.006 C 
ENDROOT
BRANCH   1   2
ATOM      2  C   UNL     1      26.246  56.644  24.593  1.00  0.00     0.053 C 
BRANCH   2   3
ATOM      3  C   UNL     1      26.884  57.687  25.455  1.00  0.00     0.041 C 
ATOM      4  O   UNL     1      28.044  57.510  25.910  1.00  0.00    -0.550 OA
ATOM      5  O   UNL     1      26.178  58.833  25.797  1.00  0.00    -0.550 OA
ENDBRANCH   2   3
ENDBRANCH   1   2
BRANCH   1   6
ATOM      6  C   UNL     1      24.167  55.904  25.823  1.00  0.00     0.000 C 
BRANCH   6   7
ATOM      7  C   UNL     1      22.675  56.180  26.040  1.00  0.00    -0.003 C 
ATOM      8  C   UNL     1      21.825  54.990  25.606  1.00  0.00     0.004 C 
ENDBRANCH   6   7
ENDBRANCH   1   6
TORSDOF 4
ENDMDL
MODEL 3
REMARK VINA RESULT:    -3.217     21.790     22.503
REMARK INTER + INTRA:          -4.059
REMARK INTER:                  -3.913
REMARK INTRA:                  -0.146
REMARK UNBOUND:                -0.090
REMARK SMILES CCCCCC(=O)[O-]
REMARK SMILES IDX 4 1 5 2 6 3 7 4 8 5 3 6 2 7 1 8
REMARK H PARENT
REMARK Flexibility Score: inf
ROOT
ATOM      1  C   UNL     1      26.388  56.575  24.888  1.00  0.00     0.006 C 
ENDROOT
BRANCH   1   2
ATOM      2  C   UNL     1      25.254  57.152  24.035  1.00  0.00     0.053 C 
BRANCH   2   3
ATOM      3  C   UNL     1      23.998  56.363  24.230  1.00  0.00     0.041 C 
ATOM      4  O   UNL     1      23.288  56.046  23.239  1.00  0.00    -0.550 OA
ATOM      5  O   UNL     1      23.585  56.018  25.511  1.00  0.00    -0.550 OA
ENDBRANCH   2   3
ENDBRANCH   1   2
BRANCH   1   6
ATOM      6  C   UNL     1      27.150  57.690  25.616  1.00  0.00     0.000 C 
BRANCH   6   7
ATOM      7  C   UNL     1      26.384  59.016  25.546  1.00  0.00    -0.003 C 
ATOM      8  C   UNL     1      26.967  60.041  26.514  1.00  0.00     0.004 C 
ENDBRANCH   6   7
ENDBRANCH   1   6
TORSDOF 4
ENDMDL
MODEL 4
REMARK VINA RESULT:    -3.212      1.445      2.194
REMARK INTER + INTRA:          -4.053
REMARK INTER:                  -3.907
REMARK INTRA:                  -0.145
REMARK UNBOUND:                -0.090
REMARK SMILES CCCCCC(=O)[O-]
REMARK SMILES IDX 4 1 5 2 6 3 7 4 8 5 3 6 2 7 1 8
REMARK H PARENT
REMARK Flexibility Score: inf
ROOT
ATOM      1  C   UNL     1       8.980  57.216  41.996  1.00  0.00     0.006 C 
ENDROOT
BRANCH   1   2
ATOM      2  C   UNL     1       9.714  58.357  42.709  1.00  0.00     0.053 C 
BRANCH   2   3
ATOM      3  C   UNL     1       9.852  59.538  41.802  1.00  0.00     0.041 C 
ATOM      4  O   UNL     1       8.902  60.354  41.673  1.00  0.00    -0.550 OA
ATOM      5  O   UNL     1      11.014  59.712  41.060  1.00  0.00    -0.550 OA
ENDBRANCH   2   3
ENDBRANCH   1   2
BRANCH   1   6
ATOM      6  C   UNL     1       9.825  55.936  41.993  1.00  0.00     0.000 C 
BRANCH   6   7
ATOM      7  C   UNL     1      11.280  56.237  42.371  1.00  0.00    -0.003 C 
ATOM      8  C   UNL     1      12.251  55.532  41.428  1.00  0.00     0.004 C 
ENDBRANCH   6   7
ENDBRANCH   1   6
TORSDOF 4
ENDMDL
MODEL 5
REMARK VINA RESULT:    -3.205     20.832     22.303
REMARK INTER + INTRA:          -4.044
REMARK INTER:                  -3.889
REMARK INTRA:                  -0.155
REMARK UNBOUND:                -0.090
REMARK SMILES CCCCCC(=O)[O-]
REMARK SMILES IDX 4 1 5 2 6 3 7 4 8 5 3 6 2 7 1 8
REMARK H PARENT
REMARK Flexibility Score: inf
ROOT
ATOM      1  C   UNL     1      27.134  57.567  25.530  1.00  0.00     0.006 C 
ENDROOT
BRANCH   1   2
ATOM      2  C   UNL     1      26.380  58.818  25.071  1.00  0.00     0.053 C 
BRANCH   2   3
ATOM      3  C   UNL     1      26.267  59.803  26.191  1.00  0.00     0.041 C 
ATOM      4  O   UNL     1      27.295  60.371  26.643  1.00  0.00    -0.550 OA
ATOM      5  O   UNL     1      25.030  60.057  26.771  1.00  0.00    -0.550 OA
ENDBRANCH   2   3
ENDBRANCH   1   2
BRANCH   1   6
ATOM      6  C   UNL     1      26.352  56.294  25.180  1.00  0.00     0.000 C 
BRANCH   6   7
ATOM      7  C   UNL     1      24.899  56.623  24.819  1.00  0.00    -0.003 C 
ATOM      8  C   UNL     1      23.930  56.028  25.836  1.00  0.00     0.004 C 
ENDBRANCH   6   7
ENDBRANCH   1   6
TORSDOF 4
ENDMDL
MODEL 6
REMARK VINA RESULT:    -3.132      2.438      4.005
REMARK INTER + INTRA:          -3.954
REMARK INTER:                  -3.709
REMARK INTRA:                  -0.245
REMARK UNBOUND:                -0.090
REMARK SMILES CCCCCC(=O)[O-]
REMARK SMILES IDX 4 1 5 2 6 3 7 4 8 5 3 6 2 7 1 8
REMARK H PARENT
REMARK Flexibility Score: inf
ROOT
ATOM      1  C   UNL     1       9.676  55.988  42.402  1.00  0.00     0.006 C 
ENDROOT
BRANCH   1   2
ATOM      2  C   UNL     1      10.600  55.492  41.286  1.00  0.00     0.053 C 
BRANCH   2   3
ATOM      3  C   UNL     1      12.034  55.663  41.677  1.00  0.00     0.041 C 
ATOM      4  O   UNL     1      12.337  55.952  42.865  1.00  0.00    -0.550 OA
ATOM      5  O   UNL     1      13.034  55.553  40.719  1.00  0.00    -0.550 OA
ENDBRANCH   2   3
ENDBRANCH   1   2
BRANCH   1   6
ATOM      6  C   UNL     1       9.019  57.320  42.021  1.00  0.00     0.000 C 
BRANCH   6   7
ATOM      7  C   UNL     1       9.762  58.501  42.655  1.00  0.00    -0.003 C 
ATOM      8  C   UNL     1      10.645  59.211  41.633  1.00  0.00     0.004 C 
ENDBRANCH   6   7
ENDBRANCH   1   6
TORSDOF 4
ENDMDL
MODEL 7
REMARK VINA RESULT:    -3.111     21.387     22.123
REMARK INTER + INTRA:          -3.927
REMARK INTER:                  -3.709
REMARK INTRA:                  -0.219
REMARK UNBOUND:                -0.090
REMARK SMILES CCCCCC(=O)[O-]
REMARK SMILES IDX 4 1 5 2 6 3 7 4 8 5 3 6 2 7 1 8
REMARK H PARENT
REMARK Flexibility Score: inf
ROOT
ATOM      1  C   UNL     1      17.325  46.761  24.241  1.00  0.00     0.006 C 
ENDROOT
BRANCH   1   2
ATOM      2  C   UNL     1      18.651  46.293  23.634  1.00  0.00     0.053 C 
BRANCH   2   3
ATOM      3  C   UNL     1      19.584  45.829  24.706  1.00  0.00     0.041 C 
ATOM      4  O   UNL     1      19.144  45.190  25.698  1.00  0.00    -0.550 OA
ATOM      5  O   UNL     1      20.935  46.145  24.636  1.00  0.00    -0.550 OA
ENDBRANCH   2   3
ENDBRANCH   1   2
BRANCH   1   6
ATOM      6  C   UNL     1      16.133  46.219  23.444  1.00  0.00     0.000 C 
BRANCH   6   7
ATOM      7  C   UNL     1      16.143  44.686  23.414  1.00  0.00    -0.003 C 
ATOM      8  C   UNL     1      15.651  44.105  24.736  1.00  0.00     0.004 C 
ENDBRANCH   6   7
ENDBRANCH   1   6
TORSDOF 4
ENDMDL
MODEL 8
REMARK VINA RESULT:    -3.104     21.987     22.870
REMARK INTER + INTRA:          -3.920
REMARK INTER:                  -3.680
REMARK INTRA:                  -0.240
REMARK UNBOUND:                -0.090
REMARK SMILES CCCCCC(=O)[O-]
REMARK SMILES IDX 4 1 5 2 6 3 7 4 8 5 3 6 2 7 1 8
REMARK H PARENT
REMARK Flexibility Score: inf
ROOT
ATOM      1  C   UNL     1      25.924  59.273  24.612  1.00  0.00     0.006 C 
ENDROOT
BRANCH   1   2
ATOM      2  C   UNL     1      25.883  57.776  24.293  1.00  0.00     0.053 C 
BRANCH   2   3
ATOM      3  C   UNL     1      26.702  57.007  25.280  1.00  0.00     0.041 C 
ATOM      4  O   UNL     1      26.326  55.869  25.667  1.00  0.00    -0.550 OA
ATOM      5  O   UNL     1      27.856  57.568  25.813  1.00  0.00    -0.550 OA
ENDBRANCH   2   3
ENDBRANCH   1   2
BRANCH   1   6
ATOM      6  C   UNL     1      25.047  59.601  25.828  1.00  0.00     0.000 C 
BRANCH   6   7
ATOM      7  C   UNL     1      25.816  60.449  26.847  1.00  0.00    -0.003 C 
ATOM      8  C   UNL     1      27.051  61.085  26.215  1.00  0.00     0.004 C 
ENDBRANCH   6   7
ENDBRANCH   1   6
TORSDOF 4
ENDMDL
MODEL 9
REMARK VINA RESULT:    -3.071      3.201      4.037
REMARK INTER + INTRA:          -3.879
REMARK INTER:                  -3.746
REMARK INTRA:                  -0.132
REMARK UNBOUND:                -0.090
REMARK SMILES CCCCCC(=O)[O-]
REMARK SMILES IDX 4 1 5 2 6 3 7 4 8 5 3 6 2 7 1 8
REMARK H PARENT
REMARK Flexibility Score: inf
ROOT
ATOM      1  C   UNL     1      10.574  59.585  41.586  1.00  0.00     0.006 C 
ENDROOT
BRANCH   1   2
ATOM      2  C   UNL     1       9.170  60.197  41.602  1.00  0.00     0.053 C 
BRANCH   2   3
ATOM      3  C   UNL     1       9.189  61.533  42.275  1.00  0.00     0.041 C 
ATOM      4  O   UNL     1       8.155  62.251  42.287  1.00  0.00    -0.550 OA
ATOM      5  O   UNL     1      10.363  62.007  42.845  1.00  0.00    -0.550 OA
ENDBRANCH   2   3
ENDBRANCH   1   2
BRANCH   1   6
ATOM      6  C   UNL     1      10.587  58.219  42.283  1.00  0.00     0.000 C 
BRANCH   6   7
ATOM      7  C   UNL     1       9.227  57.522  42.153  1.00  0.00    -0.003 C 
ATOM      8  C   UNL     1       9.365  56.011  42.308  1.00  0.00     0.004 C 
ENDBRANCH   6   7
ENDBRANCH   1   6
TORSDOF 4
ENDMDL
