MODEL 1
REMARK VINA RESULT:    -4.277      0.000      0.000
REMARK INTER + INTRA:          -6.583
REMARK INTER:                  -5.903
REMARK INTRA:                  -0.680
REMARK UNBOUND:                -0.680
REMARK SMILES OC[C@@H](O)[C@H](O)[C@@H](O)CO
REMARK SMILES IDX 5 1 3 2 2 3 1 4 4 6 7 8 9 9 10 10 8 12 6 14
REMARK H PARENT 1 5 4 7 10 11 8 13 6 15
REMARK Flexibility Score: inf
ROOT
ATOM      1  C   UNL     1       2.060  24.978  20.128  1.00  0.00     0.176 C 
ENDROOT
BRANCH   1   2
ATOM      2  C   UNL     1       2.418  26.053  19.065  1.00  0.00     0.171 C 
BRANCH   2   3
ATOM      3  C   UNL     1       3.626  25.636  18.214  1.00  0.00     0.190 C 
BRANCH   3   4
ATOM      4  O   UNL     1       4.664  25.150  19.025  1.00  0.00    -0.394 OA
ATOM      5  H   UNL     1       5.376  24.821  18.418  1.00  0.00     0.210 HD
ENDBRANCH   3   4
ENDBRANCH   2   3
BRANCH   2   6
ATOM      6  O   UNL     1       1.326  26.275  18.207  1.00  0.00    -0.388 OA
ATOM      7  H   UNL     1       1.550  27.057  17.639  1.00  0.00     0.211 HD
ENDBRANCH   2   6
ENDBRANCH   1   2
BRANCH   1   8
ATOM      8  C   UNL     1       0.589  25.049  20.630  1.00  0.00     0.171 C 
BRANCH   8   9
ATOM      9  C   UNL     1       0.367  24.328  21.976  1.00  0.00     0.190 C 
BRANCH   9  10
ATOM     10  O   UNL     1       0.416  22.939  21.803  1.00  0.00    -0.394 OA
ATOM     11  H   UNL     1      -0.436  22.585  22.169  1.00  0.00     0.210 HD
ENDBRANCH   9  10
ENDBRANCH   8   9
BRANCH   8  12
ATOM     12  O   UNL     1      -0.272  24.506  19.660  1.00  0.00    -0.388 OA
ATOM     13  H   UNL     1      -0.270  23.519  19.777  1.00  0.00     0.211 HD
ENDBRANCH   8  12
ENDBRANCH   1   8
BRANCH   1  14
ATOM     14  O   UNL     1       2.341  23.689  19.638  1.00  0.00    -0.388 OA
ATOM     15  H   UNL     1       2.308  23.061  20.406  1.00  0.00     0.211 HD
ENDBRANCH   1  14
TORSDOF 9
ENDMDL
MODEL 2
REMARK VINA RESULT:    -4.277      1.326      1.810
REMARK INTER + INTRA:          -6.583
REMARK INTER:                  -5.865
REMARK INTRA:                  -0.718
REMARK UNBOUND:                -0.680
REMARK SMILES OC[C@@H](O)[C@H](O)[C@@H](O)CO
REMARK SMILES IDX 5 1 3 2 2 3 1 4 4 6 7 8 9 9 10 10 8 12 6 14
REMARK H PARENT 1 5 4 7 10 11 8 13 6 15
REMARK Flexibility Score: inf
ROOT
ATOM      1  C   UNL     1       1.354  25.417  19.585  1.00  0.00     0.176 C 
ENDROOT
BRANCH   1   2
ATOM      2  C   UNL     1       2.752  24.763  19.399  1.00  0.00     0.171 C 
BRANCH   2   3
ATOM      3  C   UNL     1       3.675  25.626  18.525  1.00  0.00     0.190 C 
BRANCH   3   4
ATOM      4  O   UNL     1       5.002  25.176  18.607  1.00  0.00    -0.394 OA
ATOM      5  H   UNL     1       5.339  25.434  19.504  1.00  0.00     0.210 HD
ENDBRANCH   3   4
ENDBRANCH   2   3
BRANCH   2   6
ATOM      6  O   UNL     1       3.372  24.572  20.646  1.00  0.00    -0.388 OA
ATOM      7  H   UNL     1       2.813  23.933  21.160  1.00  0.00     0.211 HD
ENDBRANCH   2   6
ENDBRANCH   1   2
BRANCH   1   8
ATOM      8  C   UNL     1       0.285  24.461  20.189  1.00  0.00     0.171 C 
BRANCH   8   9
ATOM      9  C   UNL     1      -0.018  24.744  21.675  1.00  0.00     0.190 C 
BRANCH   9  10
ATOM     10  O   UNL     1       1.039  24.306  22.484  1.00  0.00    -0.394 OA
ATOM     11  H   UNL     1       0.621  23.839  23.254  1.00  0.00     0.210 HD
ENDBRANCH   9  10
ENDBRANCH   8   9
BRANCH   8  12
ATOM     12  O   UNL     1       0.701  23.126  20.042  1.00  0.00    -0.388 OA
ATOM     13  H   UNL     1       1.688  23.106  20.158  1.00  0.00     0.211 HD
ENDBRANCH   8  12
ENDBRANCH   1   8
BRANCH   1  14
ATOM     14  O   UNL     1       1.457  26.583  20.367  1.00  0.00    -0.388 OA
ATOM     15  H   UNL     1       1.643  26.302  21.302  1.00  0.00     0.211 HD
ENDBRANCH   1  14
TORSDOF 9
ENDMDL
MODEL 3
REMARK VINA RESULT:    -4.256      0.979      4.029
REMARK INTER + INTRA:          -6.554
REMARK INTER:                  -5.848
REMARK INTRA:                  -0.706
REMARK UNBOUND:                -0.680
REMARK SMILES OC[C@@H](O)[C@H](O)[C@@H](O)CO
REMARK SMILES IDX 5 1 3 2 2 3 1 4 4 6 7 8 9 9 10 10 8 12 6 14
REMARK H PARENT 1 5 4 7 10 11 8 13 6 15
REMARK Flexibility Score: inf
ROOT
ATOM      1  C   UNL     1       1.258  25.654  20.063  1.00  0.00     0.176 C 
ENDROOT
BRANCH   1   2
ATOM      2  C   UNL     1       0.351  24.996  21.138  1.00  0.00     0.171 C 
BRANCH   2   3
ATOM      3  C   UNL     1      -0.864  24.295  20.511  1.00  0.00     0.190 C 
BRANCH   3   4
ATOM      4  O   UNL     1      -0.462  23.188  19.748  1.00  0.00    -0.394 OA
ATOM      5  H   UNL     1      -1.227  22.946  19.164  1.00  0.00     0.210 HD
ENDBRANCH   3   4
ENDBRANCH   2   3
BRANCH   2   6
ATOM      6  O   UNL     1       1.078  24.046  21.877  1.00  0.00    -0.388 OA
ATOM      7  H   UNL     1       1.661  24.545  22.506  1.00  0.00     0.211 HD
ENDBRANCH   2   6
ENDBRANCH   1   2
BRANCH   1   8
ATOM      8  C   UNL     1       2.610  24.915  19.837  1.00  0.00     0.171 C 
BRANCH   8   9
ATOM      9  C   UNL     1       3.469  25.541  18.719  1.00  0.00     0.190 C 
BRANCH   9  10
ATOM     10  O   UNL     1       4.784  25.064  18.784  1.00  0.00    -0.394 OA
ATOM     11  H   UNL     1       5.190  25.251  17.898  1.00  0.00     0.210 HD
ENDBRANCH   9  10
ENDBRANCH   8   9
BRANCH   8  12
ATOM     12  O   UNL     1       2.369  23.562  19.541  1.00  0.00    -0.388 OA
ATOM     13  H   UNL     1       1.477  23.505  19.106  1.00  0.00     0.211 HD
ENDBRANCH   8  12
ENDBRANCH   1   8
BRANCH   1  14
ATOM     14  O   UNL     1       0.566  25.776  18.843  1.00  0.00    -0.388 OA
ATOM     15  H   UNL     1      -0.196  26.396  18.990  1.00  0.00     0.211 HD
ENDBRANCH   1  14
TORSDOF 9
ENDMDL
MODEL 4
REMARK VINA RESULT:    -4.247      1.432      4.321
REMARK INTER + INTRA:          -6.541
REMARK INTER:                  -6.241
REMARK INTRA:                  -0.300
REMARK UNBOUND:                -0.680
REMARK SMILES OC[C@@H](O)[C@H](O)[C@@H](O)CO
REMARK SMILES IDX 5 1 3 2 2 3 1 4 4 6 7 8 9 9 10 10 8 12 6 14
REMARK H PARENT 1 5 4 7 10 11 8 13 6 15
REMARK Flexibility Score: inf
ROOT
ATOM      1  C   UNL     1       2.745  25.033  19.296  1.00  0.00     0.176 C 
ENDROOT
BRANCH   1   2
ATOM      2  C   UNL     1       1.440  25.866  19.425  1.00  0.00     0.171 C 
BRANCH   2   3
ATOM      3  C   UNL     1       0.364  25.122  20.230  1.00  0.00     0.190 C 
BRANCH   3   4
ATOM      4  O   UNL     1       0.421  23.742  19.983  1.00  0.00    -0.394 OA
ATOM      5  H   UNL     1       1.369  23.523  19.786  1.00  0.00     0.210 HD
ENDBRANCH   3   4
ENDBRANCH   2   3
BRANCH   2   6
ATOM      6  O   UNL     1       1.703  27.092  20.062  1.00  0.00    -0.388 OA
ATOM      7  H   UNL     1       2.022  26.887  20.979  1.00  0.00     0.211 HD
ENDBRANCH   2   6
ENDBRANCH   1   2
BRANCH   1   8
ATOM      8  C   UNL     1       3.894  25.768  18.545  1.00  0.00     0.171 C 
BRANCH   8   9
ATOM      9  C   UNL     1       3.594  26.002  17.050  1.00  0.00     0.190 C 
BRANCH   9  10
ATOM     10  O   UNL     1       4.780  25.999  16.305  1.00  0.00    -0.394 OA
ATOM     11  H   UNL     1       4.714  25.226  15.685  1.00  0.00     0.210 HD
ENDBRANCH   9  10
ENDBRANCH   8   9
BRANCH   8  12
ATOM     12  O   UNL     1       5.090  25.040  18.675  1.00  0.00    -0.388 OA
ATOM     13  H   UNL     1       5.192  24.484  17.857  1.00  0.00     0.211 HD
ENDBRANCH   8  12
ENDBRANCH   1   8
BRANCH   1  14
ATOM     14  O   UNL     1       3.189  24.615  20.565  1.00  0.00    -0.388 OA
ATOM     15  H   UNL     1       4.177  24.525  20.523  1.00  0.00     0.211 HD
ENDBRANCH   1  14
TORSDOF 9
ENDMDL
MODEL 5
REMARK VINA RESULT:    -4.227      1.875      3.189
REMARK INTER + INTRA:          -6.514
REMARK INTER:                  -6.257
REMARK INTRA:                  -0.257
REMARK UNBOUND:                -0.680
REMARK SMILES OC[C@@H](O)[C@H](O)[C@@H](O)CO
REMARK SMILES IDX 5 1 3 2 2 3 1 4 4 6 7 8 9 9 10 10 8 12 6 14
REMARK H PARENT 1 5 4 7 10 11 8 13 6 15
REMARK Flexibility Score: inf
ROOT
ATOM      1  C   UNL     1       1.847  26.198  19.670  1.00  0.00     0.176 C 
ENDROOT
BRANCH   1   2
ATOM      2  C   UNL     1       2.841  25.097  19.208  1.00  0.00     0.171 C 
BRANCH   2   3
ATOM      3  C   UNL     1       3.919  25.657  18.268  1.00  0.00     0.190 C 
BRANCH   3   4
ATOM      4  O   UNL     1       5.181  25.135  18.590  1.00  0.00    -0.394 OA
ATOM      5  H   UNL     1       5.854  25.713  18.145  1.00  0.00     0.210 HD
ENDBRANCH   3   4
ENDBRANCH   2   3
BRANCH   2   6
ATOM      6  O   UNL     1       3.479  24.516  20.319  1.00  0.00    -0.388 OA
ATOM      7  H   UNL     1       2.770  24.235  20.954  1.00  0.00     0.211 HD
ENDBRANCH   2   6
ENDBRANCH   1   2
BRANCH   1   8
ATOM      8  C   UNL     1       1.100  26.906  18.502  1.00  0.00     0.171 C 
BRANCH   8   9
ATOM      9  C   UNL     1       1.003  28.435  18.678  1.00  0.00     0.190 C 
BRANCH   9  10
ATOM     10  O   UNL     1       1.102  28.782  20.031  1.00  0.00    -0.394 OA
ATOM     11  H   UNL     1       1.539  28.013  20.482  1.00  0.00     0.210 HD
ENDBRANCH   9  10
ENDBRANCH   8   9
BRANCH   8  12
ATOM     12  O   UNL     1      -0.192  26.367  18.366  1.00  0.00    -0.388 OA
ATOM     13  H   UNL     1      -0.150  25.415  18.650  1.00  0.00     0.211 HD
ENDBRANCH   8  12
ENDBRANCH   1   8
BRANCH   1  14
ATOM     14  O   UNL     1       0.917  25.669  20.586  1.00  0.00    -0.388 OA
ATOM     15  H   UNL     1       1.418  25.096  21.225  1.00  0.00     0.211 HD
ENDBRANCH   1  14
TORSDOF 9
ENDMDL
MODEL 6
REMARK VINA RESULT:    -4.011     20.462     21.469
REMARK INTER + INTRA:          -6.216
REMARK INTER:                  -5.964
REMARK INTRA:                  -0.252
REMARK UNBOUND:                -0.680
REMARK SMILES OC[C@@H](O)[C@H](O)[C@@H](O)CO
REMARK SMILES IDX 5 1 3 2 2 3 1 4 4 6 7 8 9 9 10 10 8 12 6 14
REMARK H PARENT 1 5 4 7 10 11 8 13 6 15
REMARK Flexibility Score: inf
ROOT
ATOM      1  C   UNL     1      12.995  14.497  34.158  1.00  0.00     0.176 C 
ENDROOT
BRANCH   1   2
ATOM      2  C   UNL     1      14.429  14.059  33.753  1.00  0.00     0.171 C 
BRANCH   2   3
ATOM      3  C   UNL     1      14.730  12.616  34.188  1.00  0.00     0.190 C 
BRANCH   3   4
ATOM      4  O   UNL     1      14.877  11.779  33.071  1.00  0.00    -0.394 OA
ATOM      5  H   UNL     1      14.560  12.291  32.282  1.00  0.00     0.210 HD
ENDBRANCH   3   4
ENDBRANCH   2   3
BRANCH   2   6
ATOM      6  O   UNL     1      14.592  14.145  32.359  1.00  0.00    -0.388 OA
ATOM      7  H   UNL     1      14.615  13.218  32.006  1.00  0.00     0.211 HD
ENDBRANCH   2   6
ENDBRANCH   1   2
BRANCH   1   8
ATOM      8  C   UNL     1      12.805  14.706  35.688  1.00  0.00     0.171 C 
BRANCH   8   9
ATOM      9  C   UNL     1      11.325  14.720  36.124  1.00  0.00     0.190 C 
BRANCH   9  10
ATOM     10  O   UNL     1      10.499  15.066  35.048  1.00  0.00    -0.394 OA
ATOM     11  H   UNL     1      10.927  14.685  34.237  1.00  0.00     0.210 HD
ENDBRANCH   9  10
ENDBRANCH   8   9
BRANCH   8  12
ATOM     12  O   UNL     1      13.422  15.905  36.086  1.00  0.00    -0.388 OA
ATOM     13  H   UNL     1      13.001  16.644  35.571  1.00  0.00     0.211 HD
ENDBRANCH   8  12
ENDBRANCH   1   8
BRANCH   1  14
ATOM     14  O   UNL     1      12.622  15.664  33.462  1.00  0.00    -0.388 OA
ATOM     15  H   UNL     1      12.306  15.389  32.562  1.00  0.00     0.211 HD
ENDBRANCH   1  14
TORSDOF 9
ENDMDL
MODEL 7
REMARK VINA RESULT:    -3.995      1.859      2.671
REMARK INTER + INTRA:          -6.194
REMARK INTER:                  -5.220
REMARK INTRA:                  -0.974
REMARK UNBOUND:                -0.680
REMARK SMILES OC[C@@H](O)[C@H](O)[C@@H](O)CO
REMARK SMILES IDX 5 1 3 2 2 3 1 4 4 6 7 8 9 9 10 10 8 12 6 14
REMARK H PARENT 1 5 4 7 10 11 8 13 6 15
REMARK Flexibility Score: inf
ROOT
ATOM      1  C   UNL     1       0.008  25.461  19.832  1.00  0.00     0.176 C 
ENDROOT
BRANCH   1   2
ATOM      2  C   UNL     1       1.348  26.108  19.387  1.00  0.00     0.171 C 
BRANCH   2   3
ATOM      3  C   UNL     1       1.147  27.539  18.864  1.00  0.00     0.190 C 
BRANCH   3   4
ATOM      4  O   UNL     1       1.127  28.459  19.923  1.00  0.00    -0.394 OA
ATOM      5  H   UNL     1       1.107  27.931  20.764  1.00  0.00     0.210 HD
ENDBRANCH   3   4
ENDBRANCH   2   3
BRANCH   2   6
ATOM      6  O   UNL     1       2.251  26.152  20.463  1.00  0.00    -0.388 OA
ATOM      7  H   UNL     1       3.092  26.560  20.128  1.00  0.00     0.211 HD
ENDBRANCH   2   6
ENDBRANCH   1   2
BRANCH   1   8
ATOM      8  C   UNL     1       0.142  23.981  20.292  1.00  0.00     0.171 C 
BRANCH   8   9
ATOM      9  C   UNL     1      -0.053  23.793  21.811  1.00  0.00     0.190 C 
BRANCH   9  10
ATOM     10  O   UNL     1       1.046  24.302  22.515  1.00  0.00    -0.394 OA
ATOM     11  H   UNL     1       1.506  23.517  22.912  1.00  0.00     0.210 HD
ENDBRANCH   9  10
ENDBRANCH   8   9
BRANCH   8  12
ATOM     12  O   UNL     1       1.400  23.477  19.916  1.00  0.00    -0.388 OA
ATOM     13  H   UNL     1       1.991  23.523  20.713  1.00  0.00     0.211 HD
ENDBRANCH   8  12
ENDBRANCH   1   8
BRANCH   1  14
ATOM     14  O   UNL     1      -0.596  26.229  20.847  1.00  0.00    -0.388 OA
ATOM     15  H   UNL     1      -0.094  27.083  20.916  1.00  0.00     0.211 HD
ENDBRANCH   1  14
TORSDOF 9
ENDMDL
MODEL 8
REMARK VINA RESULT:    -3.983      2.972      4.907
REMARK INTER + INTRA:          -6.177
REMARK INTER:                  -5.482
REMARK INTRA:                  -0.695
REMARK UNBOUND:                -0.680
REMARK SMILES OC[C@@H](O)[C@H](O)[C@@H](O)CO
REMARK SMILES IDX 5 1 3 2 2 3 1 4 4 6 7 8 9 9 10 10 8 12 6 14
REMARK H PARENT 1 5 4 7 10 11 8 13 6 15
REMARK Flexibility Score: inf
ROOT
ATOM      1  C   UNL     1       0.026  23.441  23.840  1.00  0.00     0.176 C 
ENDROOT
BRANCH   1   2
ATOM      2  C   UNL     1      -0.450  23.448  22.361  1.00  0.00     0.171 C 
BRANCH   2   3
ATOM      3  C   UNL     1       0.059  24.684  21.603  1.00  0.00     0.190 C 
BRANCH   3   4
ATOM      4  O   UNL     1       1.453  24.633  21.446  1.00  0.00    -0.394 OA
ATOM      5  H   UNL     1       1.652  23.840  20.883  1.00  0.00     0.210 HD
ENDBRANCH   3   4
ENDBRANCH   2   3
BRANCH   2   6
ATOM      6  O   UNL     1       0.007  22.298  21.694  1.00  0.00    -0.388 OA
ATOM      7  H   UNL     1      -0.380  22.313  20.781  1.00  0.00     0.211 HD
ENDBRANCH   2   6
ENDBRANCH   1   2
BRANCH   1   8
ATOM      8  C   UNL     1      -0.765  22.461  24.754  1.00  0.00     0.171 C 
BRANCH   8   9
ATOM      9  C   UNL     1      -0.529  22.703  26.260  1.00  0.00     0.190 C 
BRANCH   9  10
ATOM     10  O   UNL     1       0.304  23.813  26.454  1.00  0.00    -0.394 OA
ATOM     11  H   UNL     1       0.067  24.183  27.344  1.00  0.00     0.210 HD
ENDBRANCH   9  10
ENDBRANCH   8   9
BRANCH   8  12
ATOM     12  O   UNL     1      -0.426  21.134  24.435  1.00  0.00    -0.388 OA
ATOM     13  H   UNL     1      -0.558  21.018  23.457  1.00  0.00     0.211 HD
ENDBRANCH   8  12
ENDBRANCH   1   8
BRANCH   1  14
ATOM     14  O   UNL     1       1.404  23.161  23.912  1.00  0.00    -0.388 OA
ATOM     15  H   UNL     1       1.619  22.950  24.858  1.00  0.00     0.211 HD
ENDBRANCH   1  14
TORSDOF 9
ENDMDL
MODEL 9
REMARK VINA RESULT:    -3.835      5.087      7.075
REMARK INTER + INTRA:          -5.973
REMARK INTER:                  -5.022
REMARK INTRA:                  -0.951
REMARK UNBOUND:                -0.680
REMARK SMILES OC[C@@H](O)[C@H](O)[C@@H](O)CO
REMARK SMILES IDX 5 1 3 2 2 3 1 4 4 6 7 8 9 9 10 10 8 12 6 14
REMARK H PARENT 1 5 4 7 10 11 8 13 6 15
REMARK Flexibility Score: inf
ROOT
ATOM      1  C   UNL     1      -1.545  22.787  25.431  1.00  0.00     0.176 C 
ENDROOT
BRANCH   1   2
ATOM      2  C   UNL     1      -0.978  22.103  24.156  1.00  0.00     0.171 C 
BRANCH   2   3
ATOM      3  C   UNL     1       0.061  22.986  23.447  1.00  0.00     0.190 C 
BRANCH   3   4
ATOM      4  O   UNL     1       1.267  23.010  24.165  1.00  0.00    -0.394 OA
ATOM      5  H   UNL     1       1.087  23.485  25.017  1.00  0.00     0.210 HD
ENDBRANCH   3   4
ENDBRANCH   2   3
BRANCH   2   6
ATOM      6  O   UNL     1      -0.369  20.880  24.486  1.00  0.00    -0.388 OA
ATOM      7  H   UNL     1      -0.919  20.458  25.196  1.00  0.00     0.211 HD
ENDBRANCH   2   6
ENDBRANCH   1   2
BRANCH   1   8
ATOM      8  C   UNL     1      -2.694  21.993  26.116  1.00  0.00     0.171 C 
BRANCH   8   9
ATOM      9  C   UNL     1      -2.256  21.280  27.412  1.00  0.00     0.190 C 
BRANCH   9  10
ATOM     10  O   UNL     1      -1.444  20.177  27.116  1.00  0.00    -0.394 OA
ATOM     11  H   UNL     1      -2.028  19.520  26.656  1.00  0.00     0.210 HD
ENDBRANCH   9  10
ENDBRANCH   8   9
BRANCH   8  12
ATOM     12  O   UNL     1      -3.222  21.049  25.218  1.00  0.00    -0.388 OA
ATOM     13  H   UNL     1      -4.141  21.344  24.979  1.00  0.00     0.211 HD
ENDBRANCH   8  12
ENDBRANCH   1   8
BRANCH   1  14
ATOM     14  O   UNL     1      -0.512  23.037  26.355  1.00  0.00    -0.388 OA
ATOM     15  H   UNL     1      -0.222  22.162  26.725  1.00  0.00     0.211 HD
ENDBRANCH   1  14
TORSDOF 9
ENDMDL
