MODEL 1
REMARK VINA RESULT:    -4.590      0.000      0.000
REMARK INTER + INTRA:          -5.672
REMARK INTER:                  -5.395
REMARK INTRA:                  -0.277
REMARK UNBOUND:                -0.277
REMARK SMILES O=c1c(O)c(-c2ccc(O)cc2)oc2cc(O)cc(O)c12
REMARK SMILES IDX 5 1 3 2 2 3 1 4 21 5 19 6 18 7 16 8 15 9 14 10 13 11 6 12
REMARK SMILES IDX 7 13 8 14 9 15 12 16 11 17 10 18 4 20 20 22 17 24
REMARK H PARENT 10 19 4 21 20 23 17 25
REMARK Flexibility Score: inf
ROOT
ATOM      1  C   UNL     1      -4.322  -7.902   8.651  1.00  0.00     0.180 A 
ATOM      2  C   UNL     1      -3.791  -9.016   7.973  1.00  0.00     0.208 A 
ATOM      3  C   UNL     1      -2.398  -9.121   7.830  1.00  0.00     0.238 A 
ATOM      4  O   UNL     1      -1.911 -10.109   7.215  1.00  0.00    -0.285 OA
ATOM      5  C   UNL     1      -1.564  -8.127   8.380  1.00  0.00     0.111 A 
ATOM      6  C   UNL     1      -0.152  -8.161   8.283  1.00  0.00     0.134 A 
ATOM      7  C   UNL     1       0.610  -7.138   8.866  1.00  0.00     0.093 A 
ATOM      8  C   UNL     1      -0.012  -6.083   9.544  1.00  0.00     0.123 A 
ATOM      9  C   UNL     1      -1.404  -6.046   9.641  1.00  0.00     0.094 A 
ATOM     10  C   UNL     1      -2.181  -7.056   9.066  1.00  0.00     0.146 A 
ATOM     11  O   UNL     1      -3.504  -6.991   9.171  1.00  0.00    -0.452 OA
ENDROOT
BRANCH   1  12
ATOM     12  C   UNL     1      -5.780  -7.710   8.826  1.00  0.00     0.021 A 
ATOM     13  C   UNL     1      -6.435  -8.335   9.901  1.00  0.00     0.016 A 
ATOM     14  C   UNL     1      -7.807  -8.149  10.098  1.00  0.00     0.047 A 
ATOM     15  C   UNL     1      -8.537  -7.326   9.235  1.00  0.00     0.115 A 
ATOM     16  C   UNL     1      -6.517  -6.867   7.974  1.00  0.00     0.016 A 
ATOM     17  C   UNL     1      -7.888  -6.683   8.174  1.00  0.00     0.047 A 
BRANCH  15  18
ATOM     18  O   UNL     1      -9.904  -7.151   9.444  1.00  0.00    -0.508 OA
ATOM     19  H   UNL     1     -10.446  -7.814   9.985  1.00  0.00     0.293 HD
ENDBRANCH  15  18
ENDBRANCH   1  12
BRANCH   2  20
ATOM     20  O   UNL     1      -4.637 -10.012   7.480  1.00  0.00    -0.502 OA
ATOM     21  H   UNL     1      -4.426 -10.536   6.639  1.00  0.00     0.293 HD
ENDBRANCH   2  20
BRANCH   6  22
ATOM     22  O   UNL     1       0.498  -9.200   7.614  1.00  0.00    -0.507 OA
ATOM     23  H   UNL     1       1.469  -9.128   7.335  1.00  0.00     0.293 HD
ENDBRANCH   6  22
BRANCH   8  24
ATOM     24  O   UNL     1       0.744  -5.067  10.124  1.00  0.00    -0.508 OA
ATOM     25  H   UNL     1       0.313  -4.331  10.669  1.00  0.00     0.293 HD
ENDBRANCH   8  24
TORSDOF 5
ENDMDL
MODEL 2
REMARK VINA RESULT:    -4.329      5.900      8.239
REMARK INTER + INTRA:          -5.366
REMARK INTER:                  -5.081
REMARK INTRA:                  -0.285
REMARK UNBOUND:                -0.277
REMARK SMILES O=c1c(O)c(-c2ccc(O)cc2)oc2cc(O)cc(O)c12
REMARK SMILES IDX 5 1 3 2 2 3 1 4 21 5 19 6 18 7 16 8 15 9 14 10 13 11 6 12
REMARK SMILES IDX 7 13 8 14 9 15 12 16 11 17 10 18 4 20 20 22 17 24
REMARK H PARENT 10 19 4 21 20 23 17 25
REMARK Flexibility Score: inf
ROOT
ATOM      1  C   UNL     1      -8.636  -4.439   7.649  1.00  0.00     0.180 A 
ATOM      2  C   UNL     1      -7.938  -3.937   8.763  1.00  0.00     0.208 A 
ATOM      3  C   UNL     1      -7.750  -2.550   8.877  1.00  0.00     0.238 A 
ATOM      4  O   UNL     1      -7.116  -2.089   9.866  1.00  0.00    -0.285 OA
ATOM      5  C   UNL     1      -8.276  -1.692   7.890  1.00  0.00     0.111 A 
ATOM      6  C   UNL     1      -8.133  -0.284   7.932  1.00  0.00     0.134 A 
ATOM      7  C   UNL     1      -8.694   0.502   6.915  1.00  0.00     0.093 A 
ATOM      8  C   UNL     1      -9.396  -0.092   5.859  1.00  0.00     0.123 A 
ATOM      9  C   UNL     1      -9.538  -1.479   5.814  1.00  0.00     0.094 A 
ATOM     10  C   UNL     1      -8.985  -2.280   6.817  1.00  0.00     0.146 A 
ATOM     11  O   UNL     1      -9.132  -3.599   6.745  1.00  0.00    -0.452 OA
ENDROOT
BRANCH   1  12
ATOM     12  C   UNL     1      -8.860  -5.890   7.448  1.00  0.00     0.021 A 
ATOM     13  C   UNL     1      -7.935  -6.633   6.695  1.00  0.00     0.016 A 
ATOM     14  C   UNL     1      -8.115  -8.007   6.511  1.00  0.00     0.047 A 
ATOM     15  C   UNL     1      -9.209  -8.658   7.089  1.00  0.00     0.115 A 
ATOM     16  C   UNL     1      -9.947  -6.554   8.044  1.00  0.00     0.016 A 
ATOM     17  C   UNL     1     -10.124  -7.928   7.858  1.00  0.00     0.047 A 
BRANCH  15  18
ATOM     18  O   UNL     1      -9.375 -10.028   6.896  1.00  0.00    -0.508 OA
ATOM     19  H   UNL     1     -10.232 -10.499   7.160  1.00  0.00     0.293 HD
ENDBRANCH  15  18
ENDBRANCH   1  12
BRANCH   2  20
ATOM     20  O   UNL     1      -7.470  -4.805   9.753  1.00  0.00    -0.502 OA
ATOM     21  H   UNL     1      -8.094  -5.320  10.363  1.00  0.00     0.293 HD
ENDBRANCH   2  20
BRANCH   6  22
ATOM     22  O   UNL     1      -7.440   0.337   8.972  1.00  0.00    -0.507 OA
ATOM     23  H   UNL     1      -7.067  -0.189   9.753  1.00  0.00     0.293 HD
ENDBRANCH   6  22
BRANCH   8  24
ATOM     24  O   UNL     1      -9.954   0.690   4.850  1.00  0.00    -0.508 OA
ATOM     25  H   UNL     1     -10.875   1.100   4.946  1.00  0.00     0.293 HD
ENDBRANCH   8  24
TORSDOF 5
ENDMDL
MODEL 3
REMARK VINA RESULT:    -4.303      1.751      3.190
REMARK INTER + INTRA:          -5.334
REMARK INTER:                  -5.038
REMARK INTRA:                  -0.297
REMARK UNBOUND:                -0.277
REMARK SMILES O=c1c(O)c(-c2ccc(O)cc2)oc2cc(O)cc(O)c12
REMARK SMILES IDX 5 1 3 2 2 3 1 4 21 5 19 6 18 7 16 8 15 9 14 10 13 11 6 12
REMARK SMILES IDX 7 13 8 14 9 15 12 16 11 17 10 18 4 20 20 22 17 24
REMARK H PARENT 10 19 4 21 20 23 17 25
REMARK Flexibility Score: inf
ROOT
ATOM      1  C   UNL     1      -4.771  -7.893   8.459  1.00  0.00     0.180 A 
ATOM      2  C   UNL     1      -4.599  -6.577   8.926  1.00  0.00     0.208 A 
ATOM      3  C   UNL     1      -3.301  -6.121   9.208  1.00  0.00     0.238 A 
ATOM      4  O   UNL     1      -3.136  -4.946   9.638  1.00  0.00    -0.285 OA
ATOM      5  C   UNL     1      -2.202  -6.978   9.000  1.00  0.00     0.111 A 
ATOM      6  C   UNL     1      -0.862  -6.594   9.255  1.00  0.00     0.134 A 
ATOM      7  C   UNL     1       0.179  -7.502   9.013  1.00  0.00     0.093 A 
ATOM      8  C   UNL     1      -0.093  -8.785   8.521  1.00  0.00     0.123 A 
ATOM      9  C   UNL     1      -1.411  -9.166   8.269  1.00  0.00     0.094 A 
ATOM     10  C   UNL     1      -2.463  -8.276   8.504  1.00  0.00     0.146 A 
ATOM     11  O   UNL     1      -3.708  -8.669   8.260  1.00  0.00    -0.452 OA
ENDROOT
BRANCH   1  12
ATOM     12  C   UNL     1      -6.109  -8.454   8.159  1.00  0.00     0.021 A 
ATOM     13  C   UNL     1      -6.576  -8.452   6.833  1.00  0.00     0.016 A 
ATOM     14  C   UNL     1      -7.827  -8.995   6.524  1.00  0.00     0.047 A 
ATOM     15  C   UNL     1      -8.618  -9.560   7.530  1.00  0.00     0.115 A 
ATOM     16  C   UNL     1      -6.900  -9.042   9.162  1.00  0.00     0.016 A 
ATOM     17  C   UNL     1      -8.150  -9.585   8.849  1.00  0.00     0.047 A 
BRANCH  15  18
ATOM     18  O   UNL     1      -9.862 -10.098   7.206  1.00  0.00    -0.508 OA
ATOM     19  H   UNL     1     -10.629  -9.510   6.900  1.00  0.00     0.293 HD
ENDBRANCH  15  18
ENDBRANCH   1  12
BRANCH   2  20
ATOM     20  O   UNL     1      -5.702  -5.731   9.077  1.00  0.00    -0.502 OA
ATOM     21  H   UNL     1      -5.703  -4.952   9.725  1.00  0.00     0.293 HD
ENDBRANCH   2  20
BRANCH   6  22
ATOM     22  O   UNL     1      -0.560  -5.323   9.745  1.00  0.00    -0.507 OA
ATOM     23  H   UNL     1       0.165  -5.178  10.438  1.00  0.00     0.293 HD
ENDBRANCH   6  22
BRANCH   8  24
ATOM     24  O   UNL     1       0.942  -9.686   8.279  1.00  0.00    -0.508 OA
ATOM     25  H   UNL     1       1.191 -10.399   8.955  1.00  0.00     0.293 HD
ENDBRANCH   8  24
TORSDOF 5
ENDMDL
MODEL 4
REMARK VINA RESULT:    -4.258     14.610     17.036
REMARK INTER + INTRA:          -5.282
REMARK INTER:                  -4.985
REMARK INTRA:                  -0.297
REMARK UNBOUND:                -0.277
REMARK SMILES O=c1c(O)c(-c2ccc(O)cc2)oc2cc(O)cc(O)c12
REMARK SMILES IDX 5 1 3 2 2 3 1 4 21 5 19 6 18 7 16 8 15 9 14 10 13 11 6 12
REMARK SMILES IDX 7 13 8 14 9 15 12 16 11 17 10 18 4 20 20 22 17 24
REMARK H PARENT 10 19 4 21 20 23 17 25
REMARK Flexibility Score: inf
ROOT
ATOM      1  C   UNL     1       6.662   4.352   9.195  1.00  0.00     0.180 A 
ATOM      2  C   UNL     1       7.255   5.629   9.212  1.00  0.00     0.208 A 
ATOM      3  C   UNL     1       6.436   6.755   9.394  1.00  0.00     0.238 A 
ATOM      4  O   UNL     1       6.954   7.905   9.399  1.00  0.00    -0.285 OA
ATOM      5  C   UNL     1       5.048   6.584   9.574  1.00  0.00     0.111 A 
ATOM      6  C   UNL     1       4.154   7.666   9.767  1.00  0.00     0.134 A 
ATOM      7  C   UNL     1       2.787   7.413   9.949  1.00  0.00     0.093 A 
ATOM      8  C   UNL     1       2.296   6.102   9.943  1.00  0.00     0.123 A 
ATOM      9  C   UNL     1       3.174   5.034   9.752  1.00  0.00     0.094 A 
ATOM     10  C   UNL     1       4.540   5.265   9.568  1.00  0.00     0.146 A 
ATOM     11  O   UNL     1       5.351   4.229   9.384  1.00  0.00    -0.452 OA
ENDROOT
BRANCH   1  12
ATOM     12  C   UNL     1       7.456   3.118   8.989  1.00  0.00     0.021 A 
ATOM     13  C   UNL     1       7.912   2.397  10.105  1.00  0.00     0.016 A 
ATOM     14  C   UNL     1       8.645   1.218   9.934  1.00  0.00     0.047 A 
ATOM     15  C   UNL     1       8.916   0.738   8.649  1.00  0.00     0.115 A 
ATOM     16  C   UNL     1       7.715   2.620   7.699  1.00  0.00     0.016 A 
ATOM     17  C   UNL     1       8.447   1.440   7.531  1.00  0.00     0.047 A 
BRANCH  15  18
ATOM     18  O   UNL     1       9.647  -0.438   8.494  1.00  0.00    -0.508 OA
ATOM     19  H   UNL     1       9.286  -1.218   7.957  1.00  0.00     0.293 HD
ENDBRANCH  15  18
ENDBRANCH   1  12
BRANCH   2  20
ATOM     20  O   UNL     1       8.639   5.767   9.080  1.00  0.00    -0.502 OA
ATOM     21  H   UNL     1       9.069   6.140   8.242  1.00  0.00     0.293 HD
ENDBRANCH   2  20
BRANCH   6  22
ATOM     22  O   UNL     1       4.613   8.984   9.779  1.00  0.00    -0.507 OA
ATOM     23  H   UNL     1       4.097   9.732   9.332  1.00  0.00     0.293 HD
ENDBRANCH   6  22
BRANCH   8  24
ATOM     24  O   UNL     1       0.938   5.851  10.125  1.00  0.00    -0.508 OA
ATOM     25  H   UNL     1       0.404   5.313   9.453  1.00  0.00     0.293 HD
ENDBRANCH   8  24
TORSDOF 5
ENDMDL
MODEL 5
REMARK VINA RESULT:    -4.222      5.268      8.378
REMARK INTER + INTRA:          -5.239
REMARK INTER:                  -5.036
REMARK INTRA:                  -0.203
REMARK UNBOUND:                -0.277
REMARK SMILES O=c1c(O)c(-c2ccc(O)cc2)oc2cc(O)cc(O)c12
REMARK SMILES IDX 5 1 3 2 2 3 1 4 21 5 19 6 18 7 16 8 15 9 14 10 13 11 6 12
REMARK SMILES IDX 7 13 8 14 9 15 12 16 11 17 10 18 4 20 20 22 17 24
REMARK H PARENT 10 19 4 21 20 23 17 25
REMARK Flexibility Score: inf
ROOT
ATOM      1  C   UNL     1      -8.898  -7.584   3.935  1.00  0.00     0.180 A 
ATOM      2  C   UNL     1      -9.452  -6.385   4.421  1.00  0.00     0.208 A 
ATOM      3  C   UNL     1      -9.408  -6.128   5.800  1.00  0.00     0.238 A 
ATOM      4  O   UNL     1      -9.912  -5.062   6.249  1.00  0.00    -0.285 OA
ATOM      5  C   UNL     1      -8.796  -7.059   6.663  1.00  0.00     0.111 A 
ATOM      6  C   UNL     1      -8.707  -6.873   8.064  1.00  0.00     0.134 A 
ATOM      7  C   UNL     1      -8.074  -7.843   8.855  1.00  0.00     0.093 A 
ATOM      8  C   UNL     1      -7.527  -8.993   8.273  1.00  0.00     0.123 A 
ATOM      9  C   UNL     1      -7.614  -9.180   6.893  1.00  0.00     0.094 A 
ATOM     10  C   UNL     1      -8.243  -8.226   6.087  1.00  0.00     0.146 A 
ATOM     11  O   UNL     1      -8.315  -8.433   4.777  1.00  0.00    -0.452 OA
ENDROOT
BRANCH   1  12
ATOM     12  C   UNL     1      -8.923  -7.937   2.496  1.00  0.00     0.021 A 
ATOM     13  C   UNL     1      -7.715  -8.008   1.782  1.00  0.00     0.016 A 
ATOM     14  C   UNL     1      -7.713  -8.360   0.429  1.00  0.00     0.047 A 
ATOM     15  C   UNL     1      -8.913  -8.660  -0.222  1.00  0.00     0.115 A 
ATOM     16  C   UNL     1     -10.125  -8.259   1.840  1.00  0.00     0.016 A 
ATOM     17  C   UNL     1     -10.120  -8.612   0.488  1.00  0.00     0.047 A 
BRANCH  15  18
ATOM     18  O   UNL     1      -8.896  -9.009  -1.572  1.00  0.00    -0.508 OA
ATOM     19  H   UNL     1      -8.100  -9.480  -1.986  1.00  0.00     0.293 HD
ENDBRANCH  15  18
ENDBRANCH   1  12
BRANCH   2  20
ATOM     20  O   UNL     1     -10.009  -5.456   3.538  1.00  0.00    -0.502 OA
ATOM     21  H   UNL     1     -10.527  -4.646   3.859  1.00  0.00     0.293 HD
ENDBRANCH   2  20
BRANCH   6  22
ATOM     22  O   UNL     1      -9.240  -5.737   8.674  1.00  0.00    -0.507 OA
ATOM     23  H   UNL     1     -10.239  -5.578   8.723  1.00  0.00     0.293 HD
ENDBRANCH   6  22
BRANCH   8  24
ATOM     24  O   UNL     1      -6.897  -9.956   9.058  1.00  0.00    -0.508 OA
ATOM     25  H   UNL     1      -6.548  -9.738   9.984  1.00  0.00     0.293 HD
ENDBRANCH   8  24
TORSDOF 5
ENDMDL
MODEL 6
REMARK VINA RESULT:    -4.132      1.898      6.715
REMARK INTER + INTRA:          -5.134
REMARK INTER:                  -5.000
REMARK INTRA:                  -0.135
REMARK UNBOUND:                -0.277
REMARK SMILES O=c1c(O)c(-c2ccc(O)cc2)oc2cc(O)cc(O)c12
REMARK SMILES IDX 5 1 3 2 2 3 1 4 21 5 19 6 18 7 16 8 15 9 14 10 13 11 6 12
REMARK SMILES IDX 7 13 8 14 9 15 12 16 11 17 10 18 4 20 20 22 17 24
REMARK H PARENT 10 19 4 21 20 23 17 25
REMARK Flexibility Score: inf
ROOT
ATOM      1  C   UNL     1      -3.924  -8.951   7.623  1.00  0.00     0.180 A 
ATOM      2  C   UNL     1      -4.362  -9.533   6.419  1.00  0.00     0.208 A 
ATOM      3  C   UNL     1      -5.737  -9.544   6.131  1.00  0.00     0.238 A 
ATOM      4  O   UNL     1      -6.142 -10.074   5.061  1.00  0.00    -0.285 OA
ATOM      5  C   UNL     1      -6.642  -8.959   7.039  1.00  0.00     0.111 A 
ATOM      6  C   UNL     1      -8.041  -8.925   6.822  1.00  0.00     0.134 A 
ATOM      7  C   UNL     1      -8.877  -8.315   7.770  1.00  0.00     0.093 A 
ATOM      8  C   UNL     1      -8.341  -7.738   8.927  1.00  0.00     0.123 A 
ATOM      9  C   UNL     1      -6.963  -7.770   9.143  1.00  0.00     0.094 A 
ATOM     10  C   UNL     1      -6.113  -8.374   8.212  1.00  0.00     0.146 A 
ATOM     11  O   UNL     1      -4.806  -8.394   8.448  1.00  0.00    -0.452 OA
ENDROOT
BRANCH   1  12
ATOM     12  C   UNL     1      -2.493  -8.917   8.006  1.00  0.00     0.021 A 
ATOM     13  C   UNL     1      -1.813 -10.123   8.243  1.00  0.00     0.016 A 
ATOM     14  C   UNL     1      -0.458 -10.116   8.585  1.00  0.00     0.047 A 
ATOM     15  C   UNL     1       0.238  -8.907   8.678  1.00  0.00     0.115 A 
ATOM     16  C   UNL     1      -1.782  -7.705   8.082  1.00  0.00     0.016 A 
ATOM     17  C   UNL     1      -0.427  -7.701   8.423  1.00  0.00     0.047 A 
BRANCH  15  18
ATOM     18  O   UNL     1       1.589  -8.915   9.020  1.00  0.00    -0.508 OA
ATOM     19  H   UNL     1       1.890  -8.922   9.988  1.00  0.00     0.293 HD
ENDBRANCH  15  18
ENDBRANCH   1  12
BRANCH   2  20
ATOM     20  O   UNL     1      -3.439 -10.063   5.513  1.00  0.00    -0.502 OA
ATOM     21  H   UNL     1      -3.700 -10.347   4.576  1.00  0.00     0.293 HD
ENDBRANCH   2  20
BRANCH   6  22
ATOM     22  O   UNL     1      -8.606  -9.491   5.678  1.00  0.00    -0.507 OA
ATOM     23  H   UNL     1      -9.518  -9.931   5.696  1.00  0.00     0.293 HD
ENDBRANCH   6  22
BRANCH   8  24
ATOM     24  O   UNL     1      -9.171  -7.131   9.867  1.00  0.00    -0.508 OA
ATOM     25  H   UNL     1      -8.815  -6.447  10.524  1.00  0.00     0.293 HD
ENDBRANCH   8  24
TORSDOF 5
ENDMDL
