MODEL 1
REMARK VINA RESULT:    -0.792      0.000      0.000
REMARK INTER + INTRA:           1.668
REMARK INTER:                  -1.116
REMARK INTRA:                   2.783
REMARK UNBOUND:                 2.783
REMARK SMILES CC1=CCC(=C(C)C)C(=O)CC(C)=CCC1
REMARK SMILES IDX 12 1 14 2 13 3 15 4 16 5 2 6 1 7 3 8 11 10 9 11 10 12 5 13
REMARK SMILES IDX 6 14 7 15 8 16 4 17
REMARK H PARENT
REMARK Flexibility Score: 60.00
ROOT
ATOM      1  C   UNL     1      29.607  11.945  21.236  1.00  0.00    -0.070 C 
ATOM      2  C   UNL     1      28.824  10.864  21.620  1.00  0.00    -0.027 C 
ATOM      3  C   UNL     1      29.914  12.026  19.755  1.00  0.00     0.039 C 
ENDROOT
BRANCH   2   4
ATOM      4  C   UNL     1      28.374  10.398  23.017  1.00  0.00     0.032 C 
BRANCH   4   5
ATOM      5  C   UNL     1      29.569  10.350  23.911  1.00  0.00     0.034 C 
BRANCH   5   6
ATOM      6  C   UNL     1      29.678  10.151  25.374  1.00  0.00    -0.077 C 
ATOM      7  C   UNL     1      29.659   8.794  26.018  1.00  0.00     0.039 C 
ATOM      8  C   UNL     1      29.812  11.291  26.104  1.00  0.00    -0.023 CG0
ATOM      9  G   UNL     1      29.816  12.706  25.474  1.00  0.00     0.000 G0
ENDBRANCH   5   6
ENDBRANCH   4   5
ENDBRANCH   2   4
BRANCH   1  10
ATOM     10  C   UNL     1      30.125  13.129  22.112  1.00  0.00     0.111 C 
BRANCH  10  11
ATOM     11  C   UNL     1      29.117  13.710  23.116  1.00  0.00     0.163 C 
ATOM     12  O   UNL     1      28.536  14.754  22.724  1.00  0.00    -0.294 OA
BRANCH  11  13
ATOM     13  C   UNL     1      28.738  13.114  24.489  1.00  0.00    -0.002 C 
ATOM     14  C   UNL     1      27.423  12.891  24.827  1.00  0.00    -0.069 C 
ATOM     15  C   UNL     1      26.268  13.340  23.958  1.00  0.00     0.039 C 
ATOM     16  C   UNL     1      27.041  12.199  26.125  1.00  0.00     0.039 C 
BRANCH  13  17
ATOM     17  C   UNL     1      29.828  12.766  25.529  1.00  0.00     0.066 CG0
ATOM     18  G   UNL     1      29.781  11.308  26.051  1.00  0.00     0.000 G0
ENDBRANCH  13  17
ENDBRANCH  11  13
ENDBRANCH  10  11
ENDBRANCH   1  10
TORSDOF 0
ENDMDL
MODEL 2
REMARK VINA RESULT:    -0.241      1.995      3.919
REMARK INTER + INTRA:           2.444
REMARK INTER:                  -0.040
REMARK INTRA:                   2.483
REMARK UNBOUND:                 2.783
REMARK SMILES CC1=CCC(=C(C)C)C(=O)CC(C)=CCC1
REMARK SMILES IDX 12 1 14 2 13 3 15 4 16 5 2 6 1 7 3 8 11 10 9 11 10 12 5 13
REMARK SMILES IDX 6 14 7 15 8 16 4 17
REMARK H PARENT
REMARK Flexibility Score: 60.00
ROOT
ATOM      1  C   UNL     1      26.558  12.520  25.961  1.00  0.00    -0.070 C 
ATOM      2  C   UNL     1      26.116  11.208  26.082  1.00  0.00    -0.027 C 
ATOM      3  C   UNL     1      25.463  13.562  25.865  1.00  0.00     0.039 C 
ENDROOT
BRANCH   2   4
ATOM      4  C   UNL     1      26.904   9.886  26.124  1.00  0.00     0.032 C 
BRANCH   4   5
ATOM      5  C   UNL     1      28.252  10.115  25.524  1.00  0.00     0.034 C 
BRANCH   5   6
ATOM      6  C   UNL     1      28.959   9.413  24.429  1.00  0.00    -0.077 C 
ATOM      7  C   UNL     1      29.867   8.240  24.663  1.00  0.00     0.039 C 
ATOM      8  C   UNL     1      28.716   9.897  23.181  1.00  0.00    -0.023 CG0
ATOM      9  G   UNL     1      27.801  11.117  22.908  1.00  0.00     0.000 G0
ENDBRANCH   5   6
ENDBRANCH   4   5
ENDBRANCH   2   4
BRANCH   1  10
ATOM     10  C   UNL     1      28.021  13.060  26.007  1.00  0.00     0.111 C 
BRANCH  10  11
ATOM     11  C   UNL     1      28.914  12.679  24.815  1.00  0.00     0.163 C 
ATOM     12  O   UNL     1      30.121  12.486  25.111  1.00  0.00    -0.294 OA
BRANCH  11  13
ATOM     13  C   UNL     1      28.460  12.473  23.354  1.00  0.00    -0.002 C 
ATOM     14  C   UNL     1      28.599  13.474  22.420  1.00  0.00    -0.069 C 
ATOM     15  C   UNL     1      29.061  14.870  22.780  1.00  0.00     0.039 C 
ATOM     16  C   UNL     1      28.265  13.248  20.955  1.00  0.00     0.039 C 
BRANCH  13  17
ATOM     17  C   UNL     1      27.820  11.139  22.904  1.00  0.00     0.066 CG0
ATOM     18  G   UNL     1      28.684   9.883  23.180  1.00  0.00     0.000 G0
ENDBRANCH  13  17
ENDBRANCH  11  13
ENDBRANCH  10  11
ENDBRANCH   1  10
TORSDOF 0
ENDMDL
