MODEL 1
REMARK VINA RESULT:    -2.642      0.000      0.000
REMARK INTER + INTRA:          -2.979
REMARK INTER:                  -2.951
REMARK INTRA:                  -0.027
REMARK UNBOUND:                -0.027
REMARK SMILES CCCC(=O)[O-]
REMARK SMILES IDX 3 1 4 2 5 3 6 4 2 5 1 6
REMARK H PARENT
REMARK Flexibility Score: inf
ROOT
ATOM      1  C   UNL     1     -41.987 -45.103  41.913  1.00  0.00     0.052 C 
ENDROOT
BRANCH   1   2
ATOM      2  C   UNL     1     -41.143 -43.868  41.899  1.00  0.00     0.041 C 
ATOM      3  O   UNL     1     -40.584 -43.471  42.955  1.00  0.00    -0.550 OA
ATOM      4  O   UNL     1     -40.932 -43.183  40.709  1.00  0.00    -0.550 OA
ENDBRANCH   1   2
BRANCH   1   5
ATOM      5  C   UNL     1     -42.564 -45.374  40.521  1.00  0.00     0.003 C 
ATOM      6  C   UNL     1     -44.085 -45.495  40.568  1.00  0.00     0.004 C 
ENDBRANCH   1   5
TORSDOF 2
ENDMDL
MODEL 2
REMARK VINA RESULT:    -2.559      2.792      3.545
REMARK INTER + INTRA:          -2.885
REMARK INTER:                  -2.879
REMARK INTRA:                  -0.006
REMARK UNBOUND:                -0.027
REMARK SMILES CCCC(=O)[O-]
REMARK SMILES IDX 3 1 4 2 5 3 6 4 2 5 1 6
REMARK H PARENT
REMARK Flexibility Score: inf
ROOT
ATOM      1  C   UNL     1     -42.522 -45.380  41.616  1.00  0.00     0.052 C 
ENDROOT
BRANCH   1   2
ATOM      2  C   UNL     1     -43.459 -45.875  40.561  1.00  0.00     0.041 C 
ATOM      3  O   UNL     1     -44.610 -45.376  40.452  1.00  0.00    -0.550 OA
ATOM      4  O   UNL     1     -43.045 -46.852  39.666  1.00  0.00    -0.550 OA
ENDBRANCH   1   2
BRANCH   1   5
ATOM      5  C   UNL     1     -41.520 -44.387  41.021  1.00  0.00     0.003 C 
ATOM      6  C   UNL     1     -40.932 -43.482  42.100  1.00  0.00     0.004 C 
ENDBRANCH   1   5
TORSDOF 2
ENDMDL
MODEL 3
REMARK VINA RESULT:    -2.493      7.630      8.410
REMARK INTER + INTRA:          -2.812
REMARK INTER:                  -2.778
REMARK INTRA:                  -0.034
REMARK UNBOUND:                -0.027
REMARK SMILES CCCC(=O)[O-]
REMARK SMILES IDX 3 1 4 2 5 3 6 4 2 5 1 6
REMARK H PARENT
REMARK Flexibility Score: inf
ROOT
ATOM      1  C   UNL     1     -43.423 -49.644  34.598  1.00  0.00     0.052 C 
ENDROOT
BRANCH   1   2
ATOM      2  C   UNL     1     -44.254 -49.653  35.841  1.00  0.00     0.041 C 
ATOM      3  O   UNL     1     -44.936 -50.668  36.140  1.00  0.00    -0.550 OA
ATOM      4  O   UNL     1     -44.238 -48.559  36.697  1.00  0.00    -0.550 OA
ENDBRANCH   1   2
BRANCH   1   5
ATOM      5  C   UNL     1     -42.751 -48.281  34.412  1.00  0.00     0.003 C 
ATOM      6  C   UNL     1     -41.273 -48.340  34.789  1.00  0.00     0.004 C 
ENDBRANCH   1   5
TORSDOF 2
ENDMDL
MODEL 4
REMARK VINA RESULT:    -2.478      6.905      7.792
REMARK INTER + INTRA:          -2.795
REMARK INTER:                  -2.785
REMARK INTRA:                  -0.010
REMARK UNBOUND:                -0.027
REMARK SMILES CCCC(=O)[O-]
REMARK SMILES IDX 3 1 4 2 5 3 6 4 2 5 1 6
REMARK H PARENT
REMARK Flexibility Score: inf
ROOT
ATOM      1  C   UNL     1     -43.760 -48.769  36.690  1.00  0.00     0.052 C 
ENDROOT
BRANCH   1   2
ATOM      2  C   UNL     1     -45.194 -48.936  37.083  1.00  0.00     0.041 C 
ATOM      3  O   UNL     1     -45.791 -48.018  37.705  1.00  0.00    -0.550 OA
ATOM      4  O   UNL     1     -45.886 -50.084  36.719  1.00  0.00    -0.550 OA
ENDBRANCH   1   2
BRANCH   1   5
ATOM      5  C   UNL     1     -43.519 -49.335  35.288  1.00  0.00     0.003 C 
ATOM      6  C   UNL     1     -42.737 -48.350  34.424  1.00  0.00     0.004 C 
ENDBRANCH   1   5
TORSDOF 2
ENDMDL
MODEL 5
REMARK VINA RESULT:    -2.477      6.961      7.858
REMARK INTER + INTRA:          -2.794
REMARK INTER:                  -2.785
REMARK INTRA:                  -0.009
REMARK UNBOUND:                -0.027
REMARK SMILES CCCC(=O)[O-]
REMARK SMILES IDX 3 1 4 2 5 3 6 4 2 5 1 6
REMARK H PARENT
REMARK Flexibility Score: inf
ROOT
ATOM      1  C   UNL     1     -43.772 -48.794  36.589  1.00  0.00     0.052 C 
ENDROOT
BRANCH   1   2
ATOM      2  C   UNL     1     -45.198 -48.978  37.003  1.00  0.00     0.041 C 
ATOM      3  O   UNL     1     -45.800 -50.052  36.741  1.00  0.00    -0.550 OA
ATOM      4  O   UNL     1     -45.847 -47.983  37.723  1.00  0.00    -0.550 OA
ENDBRANCH   1   2
BRANCH   1   5
ATOM      5  C   UNL     1     -43.563 -49.285  35.154  1.00  0.00     0.003 C 
ATOM      6  C   UNL     1     -42.658 -48.336  34.372  1.00  0.00     0.004 C 
ENDBRANCH   1   5
TORSDOF 2
ENDMDL
MODEL 6
REMARK VINA RESULT:    -2.432     10.110     11.005
REMARK INTER + INTRA:          -2.744
REMARK INTER:                  -2.710
REMARK INTRA:                  -0.034
REMARK UNBOUND:                -0.027
REMARK SMILES CCCC(=O)[O-]
REMARK SMILES IDX 3 1 4 2 5 3 6 4 2 5 1 6
REMARK H PARENT
REMARK Flexibility Score: inf
ROOT
ATOM      1  C   UNL     1     -48.090 -53.721  40.292  1.00  0.00     0.052 C 
ENDROOT
BRANCH   1   2
ATOM      2  C   UNL     1     -47.828 -53.087  38.963  1.00  0.00     0.041 C 
ATOM      3  O   UNL     1     -48.330 -53.579  37.918  1.00  0.00    -0.550 OA
ATOM      4  O   UNL     1     -47.072 -51.925  38.883  1.00  0.00    -0.550 OA
ENDBRANCH   1   2
BRANCH   1   5
ATOM      5  C   UNL     1     -49.259 -53.026  40.997  1.00  0.00     0.003 C 
ATOM      6  C   UNL     1     -48.761 -51.956  41.965  1.00  0.00     0.004 C 
ENDBRANCH   1   5
TORSDOF 2
ENDMDL
MODEL 7
REMARK VINA RESULT:    -2.404      9.478     10.238
REMARK INTER + INTRA:          -2.712
REMARK INTER:                  -2.654
REMARK INTRA:                  -0.058
REMARK UNBOUND:                -0.027
REMARK SMILES CCCC(=O)[O-]
REMARK SMILES IDX 3 1 4 2 5 3 6 4 2 5 1 6
REMARK H PARENT
REMARK Flexibility Score: inf
ROOT
ATOM      1  C   UNL     1     -48.391 -51.002  41.663  1.00  0.00     0.052 C 
ENDROOT
BRANCH   1   2
ATOM      2  C   UNL     1     -48.772 -52.446  41.760  1.00  0.00     0.041 C 
ATOM      3  O   UNL     1     -49.619 -52.932  40.966  1.00  0.00    -0.550 OA
ATOM      4  O   UNL     1     -48.155 -53.266  42.696  1.00  0.00    -0.550 OA
ENDBRANCH   1   2
BRANCH   1   5
ATOM      5  C   UNL     1     -46.929 -50.862  41.233  1.00  0.00     0.003 C 
ATOM      6  C   UNL     1     -46.778 -51.039  39.725  1.00  0.00     0.004 C 
ENDBRANCH   1   5
TORSDOF 2
ENDMDL
MODEL 8
REMARK VINA RESULT:    -2.388      2.939      3.640
REMARK INTER + INTRA:          -2.695
REMARK INTER:                  -2.658
REMARK INTRA:                  -0.037
REMARK UNBOUND:                -0.027
REMARK SMILES CCCC(=O)[O-]
REMARK SMILES IDX 3 1 4 2 5 3 6 4 2 5 1 6
REMARK H PARENT
REMARK Flexibility Score: inf
ROOT
ATOM      1  C   UNL     1     -43.102 -46.989  39.844  1.00  0.00     0.052 C 
ENDROOT
BRANCH   1   2
ATOM      2  C   UNL     1     -43.558 -45.810  40.644  1.00  0.00     0.041 C 
ATOM      3  O   UNL     1     -44.694 -45.307  40.438  1.00  0.00    -0.550 OA
ATOM      4  O   UNL     1     -42.750 -45.298  41.651  1.00  0.00    -0.550 OA
ENDBRANCH   1   2
BRANCH   1   5
ATOM      5  C   UNL     1     -44.221 -48.028  39.735  1.00  0.00     0.003 C 
ATOM      6  C   UNL     1     -44.546 -48.337  38.276  1.00  0.00     0.004 C 
ENDBRANCH   1   5
TORSDOF 2
ENDMDL
MODEL 9
REMARK VINA RESULT:    -2.377      7.872      8.716
REMARK INTER + INTRA:          -2.682
REMARK INTER:                  -2.666
REMARK INTRA:                  -0.016
REMARK UNBOUND:                -0.027
REMARK SMILES CCCC(=O)[O-]
REMARK SMILES IDX 3 1 4 2 5 3 6 4 2 5 1 6
REMARK H PARENT
REMARK Flexibility Score: inf
ROOT
ATOM      1  C   UNL     1     -45.242 -50.413  36.686  1.00  0.00     0.052 C 
ENDROOT
BRANCH   1   2
ATOM      2  C   UNL     1     -46.661 -50.411  37.157  1.00  0.00     0.041 C 
ATOM      3  O   UNL     1     -47.229 -51.492  37.464  1.00  0.00    -0.550 OA
ATOM      4  O   UNL     1     -47.343 -49.210  37.304  1.00  0.00    -0.550 OA
ENDBRANCH   1   2
BRANCH   1   5
ATOM      5  C   UNL     1     -44.646 -49.006  36.773  1.00  0.00     0.003 C 
ATOM      6  C   UNL     1     -43.569 -48.796  35.711  1.00  0.00     0.004 C 
ENDBRANCH   1   5
TORSDOF 2
ENDMDL
