MODEL 1
REMARK VINA RESULT:    -3.552      0.000      0.000
REMARK INTER + INTRA:          -4.429
REMARK INTER:                  -4.382
REMARK INTRA:                  -0.046
REMARK UNBOUND:                -0.046
REMARK SMILES CCCCCC(=O)[O-]
REMARK SMILES IDX 4 1 5 2 6 3 7 4 8 5 3 6 2 7 1 8
REMARK H PARENT
REMARK Flexibility Score: inf
ROOT
ATOM      1  C   UNL     1      18.296  -6.009  11.506  1.00  0.00     0.006 C 
ENDROOT
BRANCH   1   2
ATOM      2  C   UNL     1      17.969  -4.866  12.471  1.00  0.00     0.053 C 
BRANCH   2   3
ATOM      3  C   UNL     1      19.167  -4.519  13.298  1.00  0.00     0.041 C 
ATOM      4  O   UNL     1      19.802  -5.422  13.903  1.00  0.00    -0.550 OA
ATOM      5  O   UNL     1      19.550  -3.191  13.442  1.00  0.00    -0.550 OA
ENDBRANCH   2   3
ENDBRANCH   1   2
BRANCH   1   6
ATOM      6  C   UNL     1      17.301  -6.048  10.341  1.00  0.00     0.000 C 
BRANCH   6   7
ATOM      7  C   UNL     1      18.004  -6.416   9.029  1.00  0.00    -0.003 C 
ATOM      8  C   UNL     1      17.039  -6.349   7.850  1.00  0.00     0.004 C 
ENDBRANCH   6   7
ENDBRANCH   1   6
TORSDOF 4
ENDMDL
MODEL 2
REMARK VINA RESULT:    -3.330      3.128      4.751
REMARK INTER + INTRA:          -4.155
REMARK INTER:                  -4.105
REMARK INTRA:                  -0.051
REMARK UNBOUND:                -0.046
REMARK SMILES CCCCCC(=O)[O-]
REMARK SMILES IDX 4 1 5 2 6 3 7 4 8 5 3 6 2 7 1 8
REMARK H PARENT
REMARK Flexibility Score: inf
ROOT
ATOM      1  C   UNL     1      18.062  -6.192  11.127  1.00  0.00     0.006 C 
ENDROOT
BRANCH   1   2
ATOM      2  C   UNL     1      17.009  -6.169  10.016  1.00  0.00     0.053 C 
BRANCH   2   3
ATOM      3  C   UNL     1      17.660  -6.268   8.672  1.00  0.00     0.041 C 
ATOM      4  O   UNL     1      18.051  -7.383   8.239  1.00  0.00    -0.550 OA
ATOM      5  O   UNL     1      17.880  -5.120   7.921  1.00  0.00    -0.550 OA
ENDBRANCH   2   3
ENDBRANCH   1   2
BRANCH   1   6
ATOM      6  C   UNL     1      17.811  -5.076  12.147  1.00  0.00     0.000 C 
BRANCH   6   7
ATOM      7  C   UNL     1      19.012  -4.910  13.087  1.00  0.00    -0.003 C 
ATOM      8  C   UNL     1      19.211  -3.448  13.473  1.00  0.00     0.004 C 
ENDBRANCH   6   7
ENDBRANCH   1   6
TORSDOF 4
ENDMDL
MODEL 3
REMARK VINA RESULT:    -3.247     19.733     20.600
REMARK INTER + INTRA:          -4.052
REMARK INTER:                  -3.923
REMARK INTRA:                  -0.130
REMARK UNBOUND:                -0.046
REMARK SMILES CCCCCC(=O)[O-]
REMARK SMILES IDX 4 1 5 2 6 3 7 4 8 5 3 6 2 7 1 8
REMARK H PARENT
REMARK Flexibility Score: inf
ROOT
ATOM      1  C   UNL     1      31.699  -1.601  -3.103  1.00  0.00     0.006 C 
ENDROOT
BRANCH   1   2
ATOM      2  C   UNL     1      31.788  -0.690  -1.876  1.00  0.00     0.053 C 
BRANCH   2   3
ATOM      3  C   UNL     1      30.747   0.384  -1.943  1.00  0.00     0.041 C 
ATOM      4  O   UNL     1      30.150   0.753  -0.898  1.00  0.00    -0.550 OA
ATOM      5  O   UNL     1      30.400   0.940  -3.168  1.00  0.00    -0.550 OA
ENDBRANCH   2   3
ENDBRANCH   1   2
BRANCH   1   6
ATOM      6  C   UNL     1      32.790  -1.258  -4.123  1.00  0.00     0.000 C 
BRANCH   6   7
ATOM      7  C   UNL     1      34.009  -0.632  -3.436  1.00  0.00    -0.003 C 
ATOM      8  C   UNL     1      35.244  -1.513  -3.596  1.00  0.00     0.004 C 
ENDBRANCH   6   7
ENDBRANCH   1   6
TORSDOF 4
ENDMDL
MODEL 4
REMARK VINA RESULT:    -3.134     12.941     14.289
REMARK INTER + INTRA:          -3.914
REMARK INTER:                  -3.646
REMARK INTRA:                  -0.268
REMARK UNBOUND:                -0.046
REMARK SMILES CCCCCC(=O)[O-]
REMARK SMILES IDX 4 1 5 2 6 3 7 4 8 5 3 6 2 7 1 8
REMARK H PARENT
REMARK Flexibility Score: inf
ROOT
ATOM      1  C   UNL     1      18.499   9.283  12.504  1.00  0.00     0.006 C 
ENDROOT
BRANCH   1   2
ATOM      2  C   UNL     1      19.040   9.902  11.212  1.00  0.00     0.053 C 
BRANCH   2   3
ATOM      3  C   UNL     1      20.475   9.528  11.012  1.00  0.00     0.041 C 
ATOM      4  O   UNL     1      20.908   9.272   9.858  1.00  0.00    -0.550 OA
ATOM      5  O   UNL     1      21.322   9.412  12.108  1.00  0.00    -0.550 OA
ENDBRANCH   2   3
ENDBRANCH   1   2
BRANCH   1   6
ATOM      6  C   UNL     1      18.119   7.813  12.293  1.00  0.00     0.000 C 
BRANCH   6   7
ATOM      7  C   UNL     1      18.899   6.900  13.246  1.00  0.00    -0.003 C 
ATOM      8  C   UNL     1      19.920   6.057  12.489  1.00  0.00     0.004 C 
ENDBRANCH   6   7
ENDBRANCH   1   6
TORSDOF 4
ENDMDL
MODEL 5
REMARK VINA RESULT:    -3.099     12.478     13.804
REMARK INTER + INTRA:          -3.870
REMARK INTER:                  -3.695
REMARK INTRA:                  -0.175
REMARK UNBOUND:                -0.046
REMARK SMILES CCCCCC(=O)[O-]
REMARK SMILES IDX 4 1 5 2 6 3 7 4 8 5 3 6 2 7 1 8
REMARK H PARENT
REMARK Flexibility Score: inf
ROOT
ATOM      1  C   UNL     1      18.660   8.168  12.641  1.00  0.00     0.006 C 
ENDROOT
BRANCH   1   2
ATOM      2  C   UNL     1      18.947   9.294  11.644  1.00  0.00     0.053 C 
BRANCH   2   3
ATOM      3  C   UNL     1      20.405   9.342  11.312  1.00  0.00     0.041 C 
ATOM      4  O   UNL     1      21.257   9.504  12.224  1.00  0.00    -0.550 OA
ATOM      5  O   UNL     1      20.819   9.259   9.988  1.00  0.00    -0.550 OA
ENDBRANCH   2   3
ENDBRANCH   1   2
BRANCH   1   6
ATOM      6  C   UNL     1      18.943   6.797  12.019  1.00  0.00     0.000 C 
BRANCH   6   7
ATOM      7  C   UNL     1      19.877   5.970  12.912  1.00  0.00    -0.003 C 
ATOM      8  C   UNL     1      19.146   5.456  14.147  1.00  0.00     0.004 C 
ENDBRANCH   6   7
ENDBRANCH   1   6
TORSDOF 4
ENDMDL
MODEL 6
REMARK VINA RESULT:    -3.025     17.670     18.643
REMARK INTER + INTRA:          -3.778
REMARK INTER:                  -3.723
REMARK INTRA:                  -0.056
REMARK UNBOUND:                -0.046
REMARK SMILES CCCCCC(=O)[O-]
REMARK SMILES IDX 4 1 5 2 6 3 7 4 8 5 3 6 2 7 1 8
REMARK H PARENT
REMARK Flexibility Score: inf
ROOT
ATOM      1  C   UNL     1      36.582  -7.116  12.453  1.00  0.00     0.006 C 
ENDROOT
BRANCH   1   2
ATOM      2  C   UNL     1      37.022  -7.960  11.254  1.00  0.00     0.053 C 
BRANCH   2   3
ATOM      3  C   UNL     1      35.848  -8.300  10.392  1.00  0.00     0.041 C 
ATOM      4  O   UNL     1      35.880  -8.064   9.156  1.00  0.00    -0.550 OA
ATOM      5  O   UNL     1      34.698  -8.831  10.962  1.00  0.00    -0.550 OA
ENDBRANCH   2   3
ENDBRANCH   1   2
BRANCH   1   6
ATOM      6  C   UNL     1      37.125  -5.686  12.348  1.00  0.00     0.000 C 
BRANCH   6   7
ATOM      7  C   UNL     1      36.758  -4.865  13.591  1.00  0.00    -0.003 C 
ATOM      8  C   UNL     1      37.085  -3.389  13.391  1.00  0.00     0.004 C 
ENDBRANCH   6   7
ENDBRANCH   1   6
TORSDOF 4
ENDMDL
MODEL 7
REMARK VINA RESULT:    -2.934     10.434     11.529
REMARK INTER + INTRA:          -3.667
REMARK INTER:                  -3.452
REMARK INTRA:                  -0.215
REMARK UNBOUND:                -0.046
REMARK SMILES CCCCCC(=O)[O-]
REMARK SMILES IDX 4 1 5 2 6 3 7 4 8 5 3 6 2 7 1 8
REMARK H PARENT
REMARK Flexibility Score: inf
ROOT
ATOM      1  C   UNL     1      16.881  -8.191   1.463  1.00  0.00     0.006 C 
ENDROOT
BRANCH   1   2
ATOM      2  C   UNL     1      18.030  -7.219   1.748  1.00  0.00     0.053 C 
BRANCH   2   3
ATOM      3  C   UNL     1      18.056  -6.124   0.728  1.00  0.00     0.041 C 
ATOM      4  O   UNL     1      17.119  -6.013  -0.106  1.00  0.00    -0.550 OA
ATOM      5  O   UNL     1      19.140  -5.258   0.667  1.00  0.00    -0.550 OA
ENDBRANCH   2   3
ENDBRANCH   1   2
BRANCH   1   6
ATOM      6  C   UNL     1      17.406  -9.507   0.879  1.00  0.00     0.000 C 
BRANCH   6   7
ATOM      7  C   UNL     1      16.878  -9.727  -0.544  1.00  0.00    -0.003 C 
ATOM      8  C   UNL     1      17.767  -9.036  -1.573  1.00  0.00     0.004 C 
ENDBRANCH   6   7
ENDBRANCH   1   6
TORSDOF 4
ENDMDL
MODEL 8
REMARK VINA RESULT:    -2.893     20.875     21.739
REMARK INTER + INTRA:          -3.616
REMARK INTER:                  -3.551
REMARK INTRA:                  -0.065
REMARK UNBOUND:                -0.046
REMARK SMILES CCCCCC(=O)[O-]
REMARK SMILES IDX 4 1 5 2 6 3 7 4 8 5 3 6 2 7 1 8
REMARK H PARENT
REMARK Flexibility Score: inf
ROOT
ATOM      1  C   UNL     1      32.326   1.472  -3.637  1.00  0.00     0.006 C 
ENDROOT
BRANCH   1   2
ATOM      2  C   UNL     1      31.875   2.851  -4.125  1.00  0.00     0.053 C 
BRANCH   2   3
ATOM      3  C   UNL     1      32.887   3.893  -3.765  1.00  0.00     0.041 C 
ATOM      4  O   UNL     1      34.086   3.762  -4.125  1.00  0.00    -0.550 OA
ATOM      5  O   UNL     1      32.515   4.983  -2.987  1.00  0.00    -0.550 OA
ENDBRANCH   2   3
ENDBRANCH   1   2
BRANCH   1   6
ATOM      6  C   UNL     1      31.124   0.547  -3.414  1.00  0.00     0.000 C 
BRANCH   6   7
ATOM      7  C   UNL     1      31.534  -0.711  -2.638  1.00  0.00    -0.003 C 
ATOM      8  C   UNL     1      31.561  -0.446  -1.136  1.00  0.00     0.004 C 
ENDBRANCH   6   7
ENDBRANCH   1   6
TORSDOF 4
ENDMDL
