MODEL 1
REMARK VINA RESULT:     6.820      0.000      0.000
REMARK INTER + INTRA:           7.957
REMARK INTER:                   7.618
REMARK INTRA:                   0.339
REMARK UNBOUND:                 0.339
REMARK SMILES C=C(C)[C@H]1CC[C@]2(C(=O)[O-])CC[C@]3(C)[C@H](CC[C@@H]4[C@@]5(C)CCC(=O)C(C)(C)[C@H]5CC[C@]43C)[C@H]12
REMARK SMILES IDX 7 1 6 2 33 3 11 4 5 5 15 6 4 7 12 8 16 9 13 10 17 11 31 12
REMARK SMILES IDX 14 13 18 14 30 15 32 16 19 17 29 18 21 19 20 20 28 21 22 22
REMARK SMILES IDX 25 23 23 24 26 25 27 26 24 27 8 28 9 29 10 30 2 31 3 32 1 33
REMARK H PARENT
REMARK Flexibility Score: inf
ROOT
ATOM      1  C   UNL     1     -11.281  14.008 -31.991  1.00  0.00     0.014 C 
ATOM      2  C   UNL     1      -9.979  14.845 -31.848  1.00  0.00     0.014 C 
ATOM      3  C   UNL     1     -11.893  14.000 -30.564  1.00  0.00     0.012 C 
ATOM      4  C   UNL     1     -12.224  14.724 -33.005  1.00  0.00     0.014 C 
ATOM      5  C   UNL     1     -10.026  15.551 -30.486  1.00  0.00     0.009 C 
ATOM      6  C   UNL     1     -13.412  13.611 -30.527  1.00  0.00     0.000 C 
ATOM      7  C   UNL     1     -11.429  15.323 -29.924  1.00  0.00     0.018 C 
ATOM      8  C   UNL     1     -13.682  14.225 -32.971  1.00  0.00     0.008 C 
ATOM      9  C   UNL     1     -13.988  13.580 -29.095  1.00  0.00     0.005 C 
ATOM     10  C   UNL     1     -14.371  14.309 -31.565  1.00  0.00    -0.024 C 
ATOM     11  C   UNL     1     -15.378  12.944 -29.048  1.00  0.00     0.005 C 
ATOM     12  C   UNL     1     -15.807  13.543 -31.543  1.00  0.00    -0.024 C 
ATOM     13  C   UNL     1     -14.570  15.833 -31.208  1.00  0.00     0.012 C 
ATOM     14  C   UNL     1     -16.374  13.608 -30.055  1.00  0.00     0.002 C 
ATOM     15  C   UNL     1     -16.816  14.193 -32.559  1.00  0.00     0.008 C 
ATOM     16  C   UNL     1     -15.691  12.043 -32.006  1.00  0.00     0.012 C 
ATOM     17  C   UNL     1     -17.896  13.181 -29.821  1.00  0.00    -0.025 C 
ATOM     18  C   UNL     1     -18.129  14.660 -31.943  1.00  0.00     0.006 C 
ATOM     19  C   UNL     1     -18.419  13.907 -28.518  1.00  0.00     0.015 C 
ATOM     20  C   UNL     1     -17.977  11.647 -29.530  1.00  0.00     0.012 C 
ATOM     21  C   UNL     1     -18.811  13.552 -31.079  1.00  0.00     0.008 C 
ATOM     22  C   UNL     1     -19.124  15.239 -28.764  1.00  0.00     0.077 C 
ATOM     23  C   UNL     1     -20.311  13.954 -30.717  1.00  0.00     0.027 C 
ATOM     24  C   UNL     1     -20.313  15.044 -29.655  1.00  0.00     0.138 C 
ATOM     25  C   UNL     1     -21.085  14.451 -31.969  1.00  0.00     0.020 C 
ATOM     26  C   UNL     1     -21.111  12.743 -30.173  1.00  0.00     0.020 C 
ATOM     27  O   UNL     1     -21.295  15.758 -29.503  1.00  0.00    -0.299 OA
ENDROOT
BRANCH   1  28
ATOM     28  C   UNL     1     -10.940  12.586 -32.448  1.00  0.00     0.048 C 
ATOM     29  O   UNL     1     -10.551  12.380 -33.637  1.00  0.00    -0.550 OA
ATOM     30  O   UNL     1     -11.068  11.496 -31.586  1.00  0.00    -0.550 OA
ENDBRANCH   1  28
BRANCH   7  31
ATOM     31  C   UNL     1     -11.430  15.346 -28.398  1.00  0.00    -0.077 C 
ATOM     32  C   UNL     1     -11.719  14.111 -27.573  1.00  0.00     0.039 C 
ATOM     33  C   UNL     1     -11.137  16.488 -27.748  1.00  0.00     0.008 C 
ENDBRANCH   7  31
TORSDOF 2
ENDMDL
MODEL 2
REMARK VINA RESULT:     8.575      1.254      7.806
REMARK INTER + INTRA:           9.917
REMARK INTER:                   9.494
REMARK INTRA:                   0.423
REMARK UNBOUND:                 0.339
REMARK SMILES C=C(C)[C@H]1CC[C@]2(C(=O)[O-])CC[C@]3(C)[C@H](CC[C@@H]4[C@@]5(C)CCC(=O)C(C)(C)[C@H]5CC[C@]43C)[C@H]12
REMARK SMILES IDX 7 1 6 2 33 3 11 4 5 5 15 6 4 7 12 8 16 9 13 10 17 11 31 12
REMARK SMILES IDX 14 13 18 14 30 15 32 16 19 17 29 18 21 19 20 20 28 21 22 22
REMARK SMILES IDX 25 23 23 24 26 25 27 26 24 27 8 28 9 29 10 30 2 31 3 32 1 33
REMARK H PARENT
REMARK Flexibility Score: inf
ROOT
ATOM      1  C   UNL     1     -19.909  14.237 -30.570  1.00  0.00     0.014 C 
ATOM      2  C   UNL     1     -21.194  13.368 -30.469  1.00  0.00     0.014 C 
ATOM      3  C   UNL     1     -18.899  13.546 -29.615  1.00  0.00     0.012 C 
ATOM      4  C   UNL     1     -19.402  14.208 -32.044  1.00  0.00     0.014 C 
ATOM      5  C   UNL     1     -20.818  12.064 -29.751  1.00  0.00     0.009 C 
ATOM      6  C   UNL     1     -17.405  13.954 -29.867  1.00  0.00     0.000 C 
ATOM      7  C   UNL     1     -19.294  12.056 -29.627  1.00  0.00     0.018 C 
ATOM      8  C   UNL     1     -17.955  14.708 -32.223  1.00  0.00     0.008 C 
ATOM      9  C   UNL     1     -16.425  13.277 -28.886  1.00  0.00     0.005 C 
ATOM     10  C   UNL     1     -16.889  13.953 -31.357  1.00  0.00    -0.024 C 
ATOM     11  C   UNL     1     -15.022  13.883 -28.963  1.00  0.00     0.005 C 
ATOM     12  C   UNL     1     -15.436  14.686 -31.403  1.00  0.00    -0.024 C 
ATOM     13  C   UNL     1     -16.765  12.480 -31.906  1.00  0.00     0.012 C 
ATOM     14  C   UNL     1     -14.458  13.898 -30.423  1.00  0.00     0.002 C 
ATOM     15  C   UNL     1     -14.860  14.718 -32.867  1.00  0.00     0.008 C 
ATOM     16  C   UNL     1     -15.516  16.199 -30.976  1.00  0.00     0.012 C 
ATOM     17  C   UNL     1     -12.898  14.236 -30.499  1.00  0.00    -0.025 C 
ATOM     18  C   UNL     1     -13.484  14.084 -33.024  1.00  0.00     0.006 C 
ATOM     19  C   UNL     1     -12.092  12.976 -29.988  1.00  0.00     0.015 C 
ATOM     20  C   UNL     1     -12.561  15.402 -29.513  1.00  0.00     0.012 C 
ATOM     21  C   UNL     1     -12.453  14.626 -31.984  1.00  0.00     0.008 C 
ATOM     22  C   UNL     1     -11.650  12.010 -31.083  1.00  0.00     0.077 C 
ATOM     23  C   UNL     1     -10.969  14.189 -32.372  1.00  0.00     0.027 C 
ATOM     24  C   UNL     1     -10.770  12.710 -32.074  1.00  0.00     0.138 C 
ATOM     25  C   UNL     1     -10.669  14.460 -33.872  1.00  0.00     0.020 C 
ATOM     26  C   UNL     1      -9.911  14.994 -31.573  1.00  0.00     0.020 C 
ATOM     27  O   UNL     1      -9.875  12.084 -32.624  1.00  0.00    -0.299 OA
ENDROOT
BRANCH   1  28
ATOM     28  C   UNL     1     -20.210  15.666 -30.107  1.00  0.00     0.048 C 
ATOM     29  O   UNL     1     -19.732  16.091 -29.012  1.00  0.00    -0.550 OA
ATOM     30  O   UNL     1     -21.024  16.516 -30.857  1.00  0.00    -0.550 OA
ENDBRANCH   1  28
BRANCH   7  31
ATOM     31  C   UNL     1     -18.836  11.249 -28.415  1.00  0.00    -0.077 C 
ATOM     32  C   UNL     1     -17.386  10.875 -28.197  1.00  0.00     0.039 C 
ATOM     33  C   UNL     1     -19.734  10.876 -27.485  1.00  0.00     0.008 C 
ENDBRANCH   7  31
TORSDOF 2
ENDMDL
