MODEL 1
REMARK VINA RESULT:    -3.436      0.000      0.000
REMARK INTER + INTRA:          -3.654
REMARK INTER:                  -3.637
REMARK INTRA:                  -0.017
REMARK UNBOUND:                -0.017
REMARK SMILES O=C([O-])c1cccnc1
REMARK SMILES IDX 4 1 5 2 9 3 6 4 8 5 7 6 2 7 1 8 3 9
REMARK H PARENT
REMARK Flexibility Score: inf
ROOT
ATOM      1  C   UNL     1     -10.514  20.456   9.629  1.00  0.00     0.016 A 
ATOM      2  C   UNL     1      -9.122  20.526   9.803  1.00  0.00     0.013 A 
ATOM      3  C   UNL     1     -11.094  21.190   8.580  1.00  0.00     0.120 A 
ATOM      4  C   UNL     1      -8.348  21.310   8.947  1.00  0.00     0.021 A 
ATOM      5  N   UNL     1     -10.316  21.947   7.760  1.00  0.00    -0.264 NA
ATOM      6  C   UNL     1      -8.968  22.021   7.920  1.00  0.00     0.111 A 
ENDROOT
BRANCH   1   7
ATOM      7  C   UNL     1     -11.346  19.628  10.529  1.00  0.00     0.073 C 
ATOM      8  O   UNL     1     -11.470  19.931  11.745  1.00  0.00    -0.545 OA
ATOM      9  O   UNL     1     -12.003  18.503  10.044  1.00  0.00    -0.545 OA
ENDBRANCH   1   7
TORSDOF 1
ENDMDL
MODEL 2
REMARK VINA RESULT:    -3.389      3.175      3.750
REMARK INTER + INTRA:          -3.605
REMARK INTER:                  -3.585
REMARK INTRA:                  -0.019
REMARK UNBOUND:                -0.017
REMARK SMILES O=C([O-])c1cccnc1
REMARK SMILES IDX 4 1 5 2 9 3 6 4 8 5 7 6 2 7 1 8 3 9
REMARK H PARENT
REMARK Flexibility Score: inf
ROOT
ATOM      1  C   UNL     1     -10.382  21.962   7.641  1.00  0.00     0.016 A 
ATOM      2  C   UNL     1      -8.992  21.994   7.841  1.00  0.00     0.013 A 
ATOM      3  C   UNL     1     -11.165  21.187   8.515  1.00  0.00     0.120 A 
ATOM      4  C   UNL     1      -8.418  21.268   8.886  1.00  0.00     0.021 A 
ATOM      5  N   UNL     1     -10.580  20.490   9.525  1.00  0.00    -0.264 NA
ATOM      6  C   UNL     1      -9.236  20.514   9.727  1.00  0.00     0.111 A 
ENDROOT
BRANCH   1   7
ATOM      7  C   UNL     1     -11.003  22.727   6.538  1.00  0.00     0.073 C 
ATOM      8  O   UNL     1     -10.707  23.937   6.351  1.00  0.00    -0.545 OA
ATOM      9  O   UNL     1     -11.923  22.119   5.691  1.00  0.00    -0.545 OA
ENDBRANCH   1   7
TORSDOF 1
ENDMDL
MODEL 3
REMARK VINA RESULT:    -3.328      5.699      7.164
REMARK INTER + INTRA:          -3.540
REMARK INTER:                  -3.516
REMARK INTRA:                  -0.024
REMARK UNBOUND:                -0.017
REMARK SMILES O=C([O-])c1cccnc1
REMARK SMILES IDX 4 1 5 2 9 3 6 4 8 5 7 6 2 7 1 8 3 9
REMARK H PARENT
REMARK Flexibility Score: inf
ROOT
ATOM      1  C   UNL     1     -12.403  15.048  10.205  1.00  0.00     0.016 A 
ATOM      2  C   UNL     1     -12.018  15.060  11.556  1.00  0.00     0.013 A 
ATOM      3  C   UNL     1     -12.981  13.877   9.685  1.00  0.00     0.120 A 
ATOM      4  C   UNL     1     -12.213  13.928  12.349  1.00  0.00     0.021 A 
ATOM      5  N   UNL     1     -13.159  12.788  10.481  1.00  0.00    -0.264 NA
ATOM      6  C   UNL     1     -12.792  12.790  11.789  1.00  0.00     0.111 A 
ENDROOT
BRANCH   1   7
ATOM      7  C   UNL     1     -12.202  16.240   9.353  1.00  0.00     0.073 C 
ATOM      8  O   UNL     1     -11.725  17.300   9.837  1.00  0.00    -0.545 OA
ATOM      9  O   UNL     1     -12.539  16.207   8.005  1.00  0.00    -0.545 OA
ENDBRANCH   1   7
TORSDOF 1
ENDMDL
MODEL 4
REMARK VINA RESULT:    -3.217      6.725      7.744
REMARK INTER + INTRA:          -3.422
REMARK INTER:                  -3.400
REMARK INTRA:                  -0.023
REMARK UNBOUND:                -0.017
REMARK SMILES O=C([O-])c1cccnc1
REMARK SMILES IDX 4 1 5 2 9 3 6 4 8 5 7 6 2 7 1 8 3 9
REMARK H PARENT
REMARK Flexibility Score: inf
ROOT
ATOM      1  C   UNL     1     -12.770  14.196   9.640  1.00  0.00     0.016 A 
ATOM      2  C   UNL     1     -12.230  15.175  10.490  1.00  0.00     0.013 A 
ATOM      3  C   UNL     1     -13.127  12.955  10.193  1.00  0.00     0.120 A 
ATOM      4  C   UNL     1     -12.059  14.906  11.849  1.00  0.00     0.021 A 
ATOM      5  N   UNL     1     -12.950  12.719  11.521  1.00  0.00    -0.264 NA
ATOM      6  C   UNL     1     -12.429  13.659  12.352  1.00  0.00     0.111 A 
ENDROOT
BRANCH   1   7
ATOM      7  C   UNL     1     -12.956  14.469   8.198  1.00  0.00     0.073 C 
ATOM      8  O   UNL     1     -13.068  13.522   7.376  1.00  0.00    -0.545 OA
ATOM      9  O   UNL     1     -13.009  15.777   7.731  1.00  0.00    -0.545 OA
ENDBRANCH   1   7
TORSDOF 1
ENDMDL
MODEL 5
REMARK VINA RESULT:    -3.198      2.951      3.812
REMARK INTER + INTRA:          -3.402
REMARK INTER:                  -3.381
REMARK INTRA:                  -0.022
REMARK UNBOUND:                -0.017
REMARK SMILES O=C([O-])c1cccnc1
REMARK SMILES IDX 4 1 5 2 9 3 6 4 8 5 7 6 2 7 1 8 3 9
REMARK H PARENT
REMARK Flexibility Score: inf
ROOT
ATOM      1  C   UNL     1      -9.856  21.911   7.541  1.00  0.00     0.016 A 
ATOM      2  C   UNL     1     -10.124  23.207   7.070  1.00  0.00     0.013 A 
ATOM      3  C   UNL     1     -10.688  20.860   7.117  1.00  0.00     0.120 A 
ATOM      4  C   UNL     1     -11.195  23.429   6.203  1.00  0.00     0.021 A 
ATOM      5  N   UNL     1     -11.725  21.105   6.272  1.00  0.00    -0.264 NA
ATOM      6  C   UNL     1     -11.993  22.354   5.810  1.00  0.00     0.111 A 
ENDROOT
BRANCH   1   7
ATOM      7  C   UNL     1      -8.724  21.662   8.460  1.00  0.00     0.073 C 
ATOM      8  O   UNL     1      -8.770  20.719   9.293  1.00  0.00    -0.545 OA
ATOM      9  O   UNL     1      -7.593  22.469   8.418  1.00  0.00    -0.545 OA
ENDBRANCH   1   7
TORSDOF 1
ENDMDL
MODEL 6
REMARK VINA RESULT:    -3.177      6.401      7.284
REMARK INTER + INTRA:          -3.380
REMARK INTER:                  -3.361
REMARK INTRA:                  -0.019
REMARK UNBOUND:                -0.017
REMARK SMILES O=C([O-])c1cccnc1
REMARK SMILES IDX 4 1 5 2 9 3 6 4 8 5 7 6 2 7 1 8 3 9
REMARK H PARENT
REMARK Flexibility Score: inf
ROOT
ATOM      1  C   UNL     1     -12.534  14.518  10.350  1.00  0.00     0.016 A 
ATOM      2  C   UNL     1     -12.509  15.143   9.093  1.00  0.00     0.013 A 
ATOM      3  C   UNL     1     -13.109  13.239  10.449  1.00  0.00     0.120 A 
ATOM      4  C   UNL     1     -13.046  14.496   7.978  1.00  0.00     0.021 A 
ATOM      5  N   UNL     1     -13.626  12.631   9.347  1.00  0.00    -0.264 NA
ATOM      6  C   UNL     1     -13.606  13.227   8.126  1.00  0.00     0.111 A 
ENDROOT
BRANCH   1   7
ATOM      7  C   UNL     1     -11.969  15.192  11.538  1.00  0.00     0.073 C 
ATOM      8  O   UNL     1     -11.155  14.592  12.289  1.00  0.00    -0.545 OA
ATOM      9  O   UNL     1     -12.330  16.499  11.844  1.00  0.00    -0.545 OA
ENDBRANCH   1   7
TORSDOF 1
ENDMDL
MODEL 7
REMARK VINA RESULT:    -3.162      2.879      3.737
REMARK INTER + INTRA:          -3.364
REMARK INTER:                  -3.342
REMARK INTRA:                  -0.021
REMARK UNBOUND:                -0.017
REMARK SMILES O=C([O-])c1cccnc1
REMARK SMILES IDX 4 1 5 2 9 3 6 4 8 5 7 6 2 7 1 8 3 9
REMARK H PARENT
REMARK Flexibility Score: inf
ROOT
ATOM      1  C   UNL     1      -9.875  21.907   7.503  1.00  0.00     0.016 A 
ATOM      2  C   UNL     1     -10.637  20.803   7.086  1.00  0.00     0.013 A 
ATOM      3  C   UNL     1     -10.224  23.180   7.019  1.00  0.00     0.120 A 
ATOM      4  C   UNL     1     -11.711  20.982   6.212  1.00  0.00     0.021 A 
ATOM      5  N   UNL     1     -11.275  23.326   6.169  1.00  0.00    -0.264 NA
ATOM      6  C   UNL     1     -12.018  22.265   5.760  1.00  0.00     0.111 A 
ENDROOT
BRANCH   1   7
ATOM      7  C   UNL     1      -8.735  21.730   8.428  1.00  0.00     0.073 C 
ATOM      8  O   UNL     1      -7.736  22.494   8.367  1.00  0.00    -0.545 OA
ATOM      9  O   UNL     1      -8.752  20.717   9.379  1.00  0.00    -0.545 OA
ENDBRANCH   1   7
TORSDOF 1
ENDMDL
MODEL 8
REMARK VINA RESULT:    -3.161     14.635     15.190
REMARK INTER + INTRA:          -3.363
REMARK INTER:                  -3.341
REMARK INTRA:                  -0.021
REMARK UNBOUND:                -0.017
REMARK SMILES O=C([O-])c1cccnc1
REMARK SMILES IDX 4 1 5 2 9 3 6 4 8 5 7 6 2 7 1 8 3 9
REMARK H PARENT
REMARK Flexibility Score: inf
ROOT
ATOM      1  C   UNL     1      -0.166   9.487  10.358  1.00  0.00     0.016 A 
ATOM      2  C   UNL     1      -1.175  10.374   9.951  1.00  0.00     0.013 A 
ATOM      3  C   UNL     1       0.624   8.875   9.370  1.00  0.00     0.120 A 
ATOM      4  C   UNL     1      -1.375  10.632   8.594  1.00  0.00     0.021 A 
ATOM      5  N   UNL     1       0.408   9.144   8.055  1.00  0.00    -0.264 NA
ATOM      6  C   UNL     1      -0.565  10.002   7.650  1.00  0.00     0.111 A 
ENDROOT
BRANCH   1   7
ATOM      7  C   UNL     1       0.056   9.205  11.793  1.00  0.00     0.073 C 
ATOM      8  O   UNL     1       1.208   8.933  12.222  1.00  0.00    -0.545 OA
ATOM      9  O   UNL     1      -1.007   9.236  12.689  1.00  0.00    -0.545 OA
ENDBRANCH   1   7
TORSDOF 1
ENDMDL
MODEL 9
REMARK VINA RESULT:    -2.996      4.360      5.294
REMARK INTER + INTRA:          -3.189
REMARK INTER:                  -3.167
REMARK INTRA:                  -0.021
REMARK UNBOUND:                -0.017
REMARK SMILES O=C([O-])c1cccnc1
REMARK SMILES IDX 4 1 5 2 9 3 6 4 8 5 7 6 2 7 1 8 3 9
REMARK H PARENT
REMARK Flexibility Score: inf
ROOT
ATOM      1  C   UNL     1     -12.249  16.191  10.985  1.00  0.00     0.016 A 
ATOM      2  C   UNL     1     -11.899  16.831   9.785  1.00  0.00     0.013 A 
ATOM      3  C   UNL     1     -12.564  16.987  12.100  1.00  0.00     0.120 A 
ATOM      4  C   UNL     1     -11.870  18.225   9.718  1.00  0.00     0.021 A 
ATOM      5  N   UNL     1     -12.527  18.343  12.007  1.00  0.00    -0.264 NA
ATOM      6  C   UNL     1     -12.191  18.972  10.851  1.00  0.00     0.111 A 
ENDROOT
BRANCH   1   7
ATOM      7  C   UNL     1     -12.283  14.715  11.069  1.00  0.00     0.073 C 
ATOM      8  O   UNL     1     -12.654  14.025  10.083  1.00  0.00    -0.545 OA
ATOM      9  O   UNL     1     -11.907  14.068  12.240  1.00  0.00    -0.545 OA
ENDBRANCH   1   7
TORSDOF 1
ENDMDL
