MODEL 1
REMARK VINA RESULT:    -7.908      0.000      0.000
REMARK INTER + INTRA:          -8.399
REMARK INTER:                  -8.601
REMARK INTRA:                   0.202
REMARK UNBOUND:                 0.202
REMARK SMILES C[C@@H]1[C@@H](C)CC[C@]2(C(=O)[O-])CC[C@]3(C)C(=CC[C@H]4[C@]5(C)CC[C@@H](O)C(C)(C)[C@H]5CC[C@]43C)[C@@H]12
REMARK SMILES IDX 7 1 6 2 11 3 33 4 5 5 12 6 15 7 2 8 3 9 13 10 16 11 1 12
REMARK SMILES IDX 4 13 14 14 31 15 17 16 18 17 30 18 32 19 19 20 29 21 28 22
REMARK SMILES IDX 21 23 20 24 25 25 22 26 23 27 26 28 27 29 8 30 9 31 10 32
REMARK SMILES IDX 24 33
REMARK H PARENT 24 34
REMARK Flexibility Score: inf
ROOT
ATOM      1  C   UNL     1      29.214 -21.817 -32.399  1.00  0.00     0.017 C 
ATOM      2  C   UNL     1      29.569 -21.640 -33.899  1.00  0.00     0.014 C 
ATOM      3  C   UNL     1      30.370 -21.212 -31.519  1.00  0.00     0.014 C 
ATOM      4  C   UNL     1      29.071 -23.344 -32.113  1.00  0.00     0.030 C 
ATOM      5  C   UNL     1      28.508 -22.260 -34.811  1.00  0.00     0.004 C 
ATOM      6  C   UNL     1      31.044 -22.187 -30.515  1.00  0.00     0.013 C 
ATOM      7  C   UNL     1      28.910 -23.546 -30.601  1.00  0.00    -0.063 C 
ATOM      8  C   UNL     1      28.067 -24.091 -33.062  1.00  0.00    -0.003 C 
ATOM      9  C   UNL     1      28.376 -23.771 -34.560  1.00  0.00    -0.011 C 
ATOM     10  C   UNL     1      30.086 -23.149 -29.700  1.00  0.00    -0.006 C 
ATOM     11  C   UNL     1      27.781 -24.028 -30.047  1.00  0.00    -0.027 C 
ATOM     12  C   UNL     1      28.150 -25.621 -32.844  1.00  0.00     0.008 C 
ATOM     13  C   UNL     1      27.305 -24.342 -35.508  1.00  0.00     0.008 C 
ATOM     14  C   UNL     1      30.904 -24.452 -29.451  1.00  0.00     0.017 C 
ATOM     15  C   UNL     1      29.560 -22.500 -28.310  1.00  0.00    -0.020 C 
ATOM     16  C   UNL     1      27.741 -24.407 -28.605  1.00  0.00     0.032 C 
ATOM     17  C   UNL     1      28.280 -23.269 -27.707  1.00  0.00     0.006 C 
ATOM     18  C   UNL     1      30.722 -22.432 -27.264  1.00  0.00     0.008 C 
ATOM     19  C   UNL     1      29.125 -21.023 -28.559  1.00  0.00     0.012 C 
ATOM     20  C   UNL     1      28.328 -23.649 -26.159  1.00  0.00    -0.025 C 
ATOM     21  C   UNL     1      30.317 -21.951 -25.864  1.00  0.00     0.005 C 
ATOM     22  C   UNL     1      28.915 -22.416 -25.377  1.00  0.00     0.003 C 
ATOM     23  C   UNL     1      26.861 -23.880 -25.662  1.00  0.00     0.010 C 
ATOM     24  C   UNL     1      29.121 -24.970 -25.920  1.00  0.00     0.012 C 
ATOM     25  C   UNL     1      28.752 -22.422 -23.800  1.00  0.00    -0.006 C 
ATOM     26  C   UNL     1      26.724 -23.973 -24.139  1.00  0.00     0.033 C 
ATOM     27  C   UNL     1      27.259 -22.712 -23.445  1.00  0.00     0.120 C 
ATOM     28  C   UNL     1      29.085 -21.000 -23.265  1.00  0.00     0.014 C 
ATOM     29  C   UNL     1      29.691 -23.430 -23.061  1.00  0.00     0.014 C 
ENDROOT
BRANCH   1  30
ATOM     30  C   UNL     1      27.929 -21.037 -32.113  1.00  0.00     0.048 C 
ATOM     31  O   UNL     1      28.000 -19.875 -31.625  1.00  0.00    -0.550 OA
ATOM     32  O   UNL     1      26.672 -21.567 -32.375  1.00  0.00    -0.550 OA
ENDBRANCH   1  30
BRANCH  27  33
ATOM     33  O   UNL     1      27.104 -22.839 -22.052  1.00  0.00    -0.393 OA
ATOM     34  H   UNL     1      27.404 -23.754 -21.808  1.00  0.00     0.210 HD
ENDBRANCH  27  33
TORSDOF 2
ENDMDL
MODEL 2
REMARK VINA RESULT:    -7.757      1.257      1.418
REMARK INTER + INTRA:          -8.236
REMARK INTER:                  -8.447
REMARK INTRA:                   0.211
REMARK UNBOUND:                 0.202
REMARK SMILES C[C@@H]1[C@@H](C)CC[C@]2(C(=O)[O-])CC[C@]3(C)C(=CC[C@H]4[C@]5(C)CC[C@@H](O)C(C)(C)[C@H]5CC[C@]43C)[C@@H]12
REMARK SMILES IDX 7 1 6 2 11 3 33 4 5 5 12 6 15 7 2 8 3 9 13 10 16 11 1 12
REMARK SMILES IDX 4 13 14 14 31 15 17 16 18 17 30 18 32 19 19 20 29 21 28 22
REMARK SMILES IDX 21 23 20 24 25 25 22 26 23 27 26 28 27 29 8 30 9 31 10 32
REMARK SMILES IDX 24 33
REMARK H PARENT 24 34
REMARK Flexibility Score: inf
ROOT
ATOM      1  C   UNL     1      28.933 -22.655 -33.337  1.00  0.00     0.017 C 
ATOM      2  C   UNL     1      29.197 -22.609 -34.865  1.00  0.00     0.014 C 
ATOM      3  C   UNL     1      29.644 -21.430 -32.652  1.00  0.00     0.014 C 
ATOM      4  C   UNL     1      29.522 -23.990 -32.785  1.00  0.00     0.030 C 
ATOM      5  C   UNL     1      28.577 -23.808 -35.586  1.00  0.00     0.004 C 
ATOM      6  C   UNL     1      30.675 -21.774 -31.541  1.00  0.00     0.013 C 
ATOM      7  C   UNL     1      29.439 -23.964 -31.253  1.00  0.00    -0.063 C 
ATOM      8  C   UNL     1      29.012 -25.279 -33.524  1.00  0.00    -0.003 C 
ATOM      9  C   UNL     1      29.169 -25.130 -35.071  1.00  0.00    -0.011 C 
ATOM     10  C   UNL     1      30.266 -22.906 -30.513  1.00  0.00    -0.006 C 
ATOM     11  C   UNL     1      28.660 -24.809 -30.552  1.00  0.00    -0.027 C 
ATOM     12  C   UNL     1      29.804 -26.523 -33.052  1.00  0.00     0.008 C 
ATOM     13  C   UNL     1      28.518 -26.299 -35.834  1.00  0.00     0.008 C 
ATOM     14  C   UNL     1      31.596 -23.603 -30.097  1.00  0.00     0.017 C 
ATOM     15  C   UNL     1      29.463 -22.338 -29.223  1.00  0.00    -0.020 C 
ATOM     16  C   UNL     1      28.769 -24.893 -29.067  1.00  0.00     0.032 C 
ATOM     17  C   UNL     1      28.685 -23.493 -28.415  1.00  0.00     0.006 C 
ATOM     18  C   UNL     1      30.430 -21.544 -28.283  1.00  0.00     0.008 C 
ATOM     19  C   UNL     1      28.388 -21.310 -29.693  1.00  0.00     0.012 C 
ATOM     20  C   UNL     1      28.870 -23.517 -26.831  1.00  0.00    -0.025 C 
ATOM     21  C   UNL     1      29.812 -21.064 -26.962  1.00  0.00     0.005 C 
ATOM     22  C   UNL     1      28.786 -22.034 -26.313  1.00  0.00     0.003 C 
ATOM     23  C   UNL     1      27.675 -24.314 -26.206  1.00  0.00     0.010 C 
ATOM     24  C   UNL     1      30.187 -24.244 -26.422  1.00  0.00     0.012 C 
ATOM     25  C   UNL     1      28.607 -21.828 -24.750  1.00  0.00    -0.006 C 
ATOM     26  C   UNL     1      27.562 -24.181 -24.685  1.00  0.00     0.033 C 
ATOM     27  C   UNL     1      27.421 -22.713 -24.254  1.00  0.00     0.120 C 
ATOM     28  C   UNL     1      28.216 -20.345 -24.490  1.00  0.00     0.014 C 
ATOM     29  C   UNL     1      29.893 -22.125 -23.912  1.00  0.00     0.014 C 
ENDROOT
BRANCH   1  30
ATOM     30  C   UNL     1      27.425 -22.531 -33.106  1.00  0.00     0.048 C 
ATOM     31  O   UNL     1      26.928 -21.406 -32.820  1.00  0.00    -0.550 OA
ATOM     32  O   UNL     1      26.574 -23.623 -33.200  1.00  0.00    -0.550 OA
ENDBRANCH   1  30
BRANCH  27  33
ATOM     33  O   UNL     1      27.311 -22.642 -22.853  1.00  0.00    -0.393 OA
ATOM     34  H   UNL     1      28.017 -23.230 -22.475  1.00  0.00     0.210 HD
ENDBRANCH  27  33
TORSDOF 2
ENDMDL
MODEL 3
REMARK VINA RESULT:    -7.334      3.950      7.389
REMARK INTER + INTRA:          -7.776
REMARK INTER:                  -7.959
REMARK INTRA:                   0.184
REMARK UNBOUND:                 0.202
REMARK SMILES C[C@@H]1[C@@H](C)CC[C@]2(C(=O)[O-])CC[C@]3(C)C(=CC[C@H]4[C@]5(C)CC[C@@H](O)C(C)(C)[C@H]5CC[C@]43C)[C@@H]12
REMARK SMILES IDX 7 1 6 2 11 3 33 4 5 5 12 6 15 7 2 8 3 9 13 10 16 11 1 12
REMARK SMILES IDX 4 13 14 14 31 15 17 16 18 17 30 18 32 19 19 20 29 21 28 22
REMARK SMILES IDX 21 23 20 24 25 25 22 26 23 27 26 28 27 29 8 30 9 31 10 32
REMARK SMILES IDX 24 33
REMARK H PARENT 24 34
REMARK Flexibility Score: inf
ROOT
ATOM      1  C   UNL     1      24.508 -26.725 -36.347  1.00  0.00     0.017 C 
ATOM      2  C   UNL     1      23.562 -27.321 -37.422  1.00  0.00     0.014 C 
ATOM      3  C   UNL     1      24.486 -25.154 -36.453  1.00  0.00     0.014 C 
ATOM      4  C   UNL     1      25.949 -27.256 -36.622  1.00  0.00     0.030 C 
ATOM      5  C   UNL     1      23.582 -28.851 -37.409  1.00  0.00     0.004 C 
ATOM      6  C   UNL     1      25.858 -24.468 -36.702  1.00  0.00     0.013 C 
ATOM      7  C   UNL     1      26.925 -26.528 -35.690  1.00  0.00    -0.063 C 
ATOM      8  C   UNL     1      26.057 -28.820 -36.718  1.00  0.00    -0.003 C 
ATOM      9  C   UNL     1      24.990 -29.390 -37.707  1.00  0.00    -0.011 C 
ATOM     10  C   UNL     1      27.091 -25.014 -35.873  1.00  0.00    -0.006 C 
ATOM     11  C   UNL     1      27.611 -27.159 -34.718  1.00  0.00    -0.027 C 
ATOM     12  C   UNL     1      27.468 -29.238 -37.198  1.00  0.00     0.008 C 
ATOM     13  C   UNL     1      24.950 -30.930 -37.690  1.00  0.00     0.008 C 
ATOM     14  C   UNL     1      28.338 -24.818 -36.786  1.00  0.00     0.017 C 
ATOM     15  C   UNL     1      27.277 -24.272 -34.442  1.00  0.00    -0.020 C 
ATOM     16  C   UNL     1      28.702 -26.461 -33.978  1.00  0.00     0.032 C 
ATOM     17  C   UNL     1      28.229 -25.092 -33.434  1.00  0.00     0.006 C 
ATOM     18  C   UNL     1      27.797 -22.811 -34.648  1.00  0.00     0.008 C 
ATOM     19  C   UNL     1      25.889 -24.136 -33.744  1.00  0.00     0.012 C 
ATOM     20  C   UNL     1      29.379 -24.269 -32.696  1.00  0.00    -0.025 C 
ATOM     21  C   UNL     1      28.133 -22.048 -33.359  1.00  0.00     0.005 C 
ATOM     22  C   UNL     1      28.764 -22.901 -32.222  1.00  0.00     0.003 C 
ATOM     23  C   UNL     1      29.817 -25.067 -31.422  1.00  0.00     0.010 C 
ATOM     24  C   UNL     1      30.635 -24.104 -33.604  1.00  0.00     0.012 C 
ATOM     25  C   UNL     1      29.610 -22.056 -31.179  1.00  0.00    -0.006 C 
ATOM     26  C   UNL     1      30.707 -24.273 -30.462  1.00  0.00     0.033 C 
ATOM     27  C   UNL     1      30.021 -22.982 -29.991  1.00  0.00     0.120 C 
ATOM     28  C   UNL     1      28.700 -20.936 -30.598  1.00  0.00     0.014 C 
ATOM     29  C   UNL     1      30.871 -21.362 -31.788  1.00  0.00     0.014 C 
ENDROOT
BRANCH   1  30
ATOM     30  C   UNL     1      23.982 -27.124 -34.967  1.00  0.00     0.048 C 
ATOM     31  O   UNL     1      23.175 -26.364 -34.363  1.00  0.00    -0.550 OA
ATOM     32  O   UNL     1      24.363 -28.307 -34.348  1.00  0.00    -0.550 OA
ENDBRANCH   1  30
BRANCH  27  33
ATOM     33  O   UNL     1      30.870 -22.292 -29.106  1.00  0.00    -0.393 OA
ATOM     34  H   UNL     1      30.826 -22.763 -28.233  1.00  0.00     0.210 HD
ENDBRANCH  27  33
TORSDOF 2
ENDMDL
MODEL 4
REMARK VINA RESULT:    -7.185      2.222      3.347
REMARK INTER + INTRA:          -7.613
REMARK INTER:                  -7.803
REMARK INTRA:                   0.191
REMARK UNBOUND:                 0.202
REMARK SMILES C[C@@H]1[C@@H](C)CC[C@]2(C(=O)[O-])CC[C@]3(C)C(=CC[C@H]4[C@]5(C)CC[C@@H](O)C(C)(C)[C@H]5CC[C@]43C)[C@@H]12
REMARK SMILES IDX 7 1 6 2 11 3 33 4 5 5 12 6 15 7 2 8 3 9 13 10 16 11 1 12
REMARK SMILES IDX 4 13 14 14 31 15 17 16 18 17 30 18 32 19 19 20 29 21 28 22
REMARK SMILES IDX 21 23 20 24 25 25 22 26 23 27 26 28 27 29 8 30 9 31 10 32
REMARK SMILES IDX 24 33
REMARK H PARENT 24 34
REMARK Flexibility Score: inf
ROOT
ATOM      1  C   UNL     1      29.352 -24.039 -34.378  1.00  0.00     0.017 C 
ATOM      2  C   UNL     1      29.080 -24.620 -35.790  1.00  0.00     0.014 C 
ATOM      3  C   UNL     1      30.714 -24.613 -33.837  1.00  0.00     0.014 C 
ATOM      4  C   UNL     1      28.182 -24.474 -33.442  1.00  0.00     0.030 C 
ATOM      5  C   UNL     1      27.738 -24.143 -36.351  1.00  0.00     0.004 C 
ATOM      6  C   UNL     1      30.643 -25.381 -32.488  1.00  0.00     0.013 C 
ATOM      7  C   UNL     1      28.531 -24.072 -32.004  1.00  0.00    -0.063 C 
ATOM      8  C   UNL     1      26.752 -24.108 -33.978  1.00  0.00    -0.003 C 
ATOM      9  C   UNL     1      26.572 -24.589 -35.454  1.00  0.00    -0.011 C 
ATOM     10  C   UNL     1      29.745 -24.745 -31.350  1.00  0.00    -0.006 C 
ATOM     11  C   UNL     1      27.834 -23.147 -31.317  1.00  0.00    -0.027 C 
ATOM     12  C   UNL     1      25.659 -24.759 -33.096  1.00  0.00     0.008 C 
ATOM     13  C   UNL     1      25.250 -24.092 -36.068  1.00  0.00     0.008 C 
ATOM     14  C   UNL     1      29.189 -25.945 -30.526  1.00  0.00     0.017 C 
ATOM     15  C   UNL     1      30.552 -23.699 -30.409  1.00  0.00    -0.020 C 
ATOM     16  C   UNL     1      28.071 -22.940 -29.859  1.00  0.00     0.032 C 
ATOM     17  C   UNL     1      29.575 -22.747 -29.554  1.00  0.00     0.006 C 
ATOM     18  C   UNL     1      31.554 -24.461 -29.480  1.00  0.00     0.008 C 
ATOM     19  C   UNL     1      31.427 -22.765 -31.303  1.00  0.00     0.012 C 
ATOM     20  C   UNL     1      29.894 -22.595 -27.998  1.00  0.00    -0.025 C 
ATOM     21  C   UNL     1      32.288 -23.588 -28.452  1.00  0.00     0.005 C 
ATOM     22  C   UNL     1      31.450 -22.430 -27.839  1.00  0.00     0.003 C 
ATOM     23  C   UNL     1      29.216 -21.281 -27.482  1.00  0.00     0.010 C 
ATOM     24  C   UNL     1      29.307 -23.782 -27.177  1.00  0.00     0.012 C 
ATOM     25  C   UNL     1      31.979 -21.931 -26.429  1.00  0.00    -0.006 C 
ATOM     26  C   UNL     1      29.667 -20.853 -26.082  1.00  0.00     0.033 C 
ATOM     27  C   UNL     1      31.188 -20.651 -26.015  1.00  0.00     0.120 C 
ATOM     28  C   UNL     1      33.472 -21.522 -26.580  1.00  0.00     0.014 C 
ATOM     29  C   UNL     1      31.903 -23.007 -25.297  1.00  0.00     0.014 C 
ENDROOT
BRANCH   1  30
ATOM     30  C   UNL     1      29.482 -22.519 -34.499  1.00  0.00     0.048 C 
ATOM     31  O   UNL     1      30.625 -21.998 -34.620  1.00  0.00    -0.550 OA
ATOM     32  O   UNL     1      28.374 -21.683 -34.482  1.00  0.00    -0.550 OA
ENDBRANCH   1  30
BRANCH  27  33
ATOM     33  O   UNL     1      31.553 -20.251 -24.716  1.00  0.00    -0.393 OA
ATOM     34  H   UNL     1      32.072 -20.997 -24.316  1.00  0.00     0.210 HD
ENDBRANCH  27  33
TORSDOF 2
ENDMDL
MODEL 5
REMARK VINA RESULT:    -7.156      2.293      8.277
REMARK INTER + INTRA:          -7.581
REMARK INTER:                  -7.765
REMARK INTRA:                   0.184
REMARK UNBOUND:                 0.202
REMARK SMILES C[C@@H]1[C@@H](C)CC[C@]2(C(=O)[O-])CC[C@]3(C)C(=CC[C@H]4[C@]5(C)CC[C@@H](O)C(C)(C)[C@H]5CC[C@]43C)[C@@H]12
REMARK SMILES IDX 7 1 6 2 11 3 33 4 5 5 12 6 15 7 2 8 3 9 13 10 16 11 1 12
REMARK SMILES IDX 4 13 14 14 31 15 17 16 18 17 30 18 32 19 19 20 29 21 28 22
REMARK SMILES IDX 21 23 20 24 25 25 22 26 23 27 26 28 27 29 8 30 9 31 10 32
REMARK SMILES IDX 24 33
REMARK H PARENT 24 34
REMARK Flexibility Score: inf
ROOT
ATOM      1  C   UNL     1      30.145 -24.460 -27.661  1.00  0.00     0.017 C 
ATOM      2  C   UNL     1      30.813 -24.582 -26.267  1.00  0.00     0.014 C 
ATOM      3  C   UNL     1      31.035 -25.199 -28.728  1.00  0.00     0.014 C 
ATOM      4  C   UNL     1      30.038 -22.944 -28.015  1.00  0.00     0.030 C 
ATOM      5  C   UNL     1      30.024 -23.834 -25.191  1.00  0.00     0.004 C 
ATOM      6  C   UNL     1      31.528 -24.335 -29.921  1.00  0.00     0.013 C 
ATOM      7  C   UNL     1      29.557 -22.813 -29.466  1.00  0.00    -0.063 C 
ATOM      8  C   UNL     1      29.320 -22.072 -26.925  1.00  0.00    -0.003 C 
ATOM      9  C   UNL     1      29.934 -22.333 -25.512  1.00  0.00    -0.011 C 
ATOM     10  C   UNL     1      30.476 -23.348 -30.572  1.00  0.00    -0.006 C 
ATOM     11  C   UNL     1      28.366 -22.277 -29.792  1.00  0.00    -0.027 C 
ATOM     12  C   UNL     1      29.449 -20.566 -27.262  1.00  0.00     0.008 C 
ATOM     13  C   UNL     1      29.139 -21.630 -24.396  1.00  0.00     0.008 C 
ATOM     14  C   UNL     1      31.298 -22.127 -31.085  1.00  0.00     0.017 C 
ATOM     15  C   UNL     1      29.614 -24.029 -31.765  1.00  0.00    -0.020 C 
ATOM     16  C   UNL     1      28.030 -21.974 -31.214  1.00  0.00     0.032 C 
ATOM     17  C   UNL     1      28.282 -23.197 -32.126  1.00  0.00     0.006 C 
ATOM     18  C   UNL     1      30.507 -24.243 -33.032  1.00  0.00     0.008 C 
ATOM     19  C   UNL     1      29.153 -25.453 -31.324  1.00  0.00     0.012 C 
ATOM     20  C   UNL     1      28.008 -22.907 -33.670  1.00  0.00    -0.025 C 
ATOM     21  C   UNL     1      29.770 -24.767 -34.273  1.00  0.00     0.005 C 
ATOM     22  C   UNL     1      28.327 -24.222 -34.472  1.00  0.00     0.003 C 
ATOM     23  C   UNL     1      26.485 -22.591 -33.849  1.00  0.00     0.010 C 
ATOM     24  C   UNL     1      28.809 -21.666 -34.168  1.00  0.00     0.012 C 
ATOM     25  C   UNL     1      27.817 -24.290 -35.973  1.00  0.00    -0.006 C 
ATOM     26  C   UNL     1      26.018 -22.571 -35.308  1.00  0.00     0.033 C 
ATOM     27  C   UNL     1      26.305 -23.906 -36.012  1.00  0.00     0.120 C 
ATOM     28  C   UNL     1      27.933 -25.760 -36.466  1.00  0.00     0.014 C 
ATOM     29  C   UNL     1      28.629 -23.399 -36.967  1.00  0.00     0.014 C 
ENDROOT
BRANCH   1  30
ATOM     30  C   UNL     1      28.782 -25.153 -27.604  1.00  0.00     0.048 C 
ATOM     31  O   UNL     1      28.692 -26.377 -27.899  1.00  0.00    -0.550 OA
ATOM     32  O   UNL     1      27.627 -24.477 -27.235  1.00  0.00    -0.550 OA
ENDBRANCH   1  30
BRANCH  27  33
ATOM     33  O   UNL     1      25.851 -23.843 -37.343  1.00  0.00    -0.393 OA
ATOM     34  H   UNL     1      25.070 -23.230 -37.356  1.00  0.00     0.210 HD
ENDBRANCH  27  33
TORSDOF 2
ENDMDL
MODEL 6
REMARK VINA RESULT:    -7.084      2.034      3.369
REMARK INTER + INTRA:          -7.503
REMARK INTER:                  -7.684
REMARK INTRA:                   0.181
REMARK UNBOUND:                 0.202
REMARK SMILES C[C@@H]1[C@@H](C)CC[C@]2(C(=O)[O-])CC[C@]3(C)C(=CC[C@H]4[C@]5(C)CC[C@@H](O)C(C)(C)[C@H]5CC[C@]43C)[C@@H]12
REMARK SMILES IDX 7 1 6 2 11 3 33 4 5 5 12 6 15 7 2 8 3 9 13 10 16 11 1 12
REMARK SMILES IDX 4 13 14 14 31 15 17 16 18 17 30 18 32 19 19 20 29 21 28 22
REMARK SMILES IDX 21 23 20 24 25 25 22 26 23 27 26 28 27 29 8 30 9 31 10 32
REMARK SMILES IDX 24 33
REMARK H PARENT 24 34
REMARK Flexibility Score: inf
ROOT
ATOM      1  C   UNL     1      27.707 -24.303 -33.778  1.00  0.00     0.017 C 
ATOM      2  C   UNL     1      27.306 -24.483 -35.266  1.00  0.00     0.014 C 
ATOM      3  C   UNL     1      27.453 -22.810 -33.351  1.00  0.00     0.014 C 
ATOM      4  C   UNL     1      29.224 -24.645 -33.641  1.00  0.00     0.030 C 
ATOM      5  C   UNL     1      27.582 -25.904 -35.761  1.00  0.00     0.004 C 
ATOM      6  C   UNL     1      28.688 -22.036 -32.810  1.00  0.00     0.013 C 
ATOM      7  C   UNL     1      29.679 -24.290 -32.221  1.00  0.00    -0.063 C 
ATOM      8  C   UNL     1      29.624 -26.055 -34.207  1.00  0.00    -0.003 C 
ATOM      9  C   UNL     1      29.078 -26.246 -35.658  1.00  0.00    -0.011 C 
ATOM     10  C   UNL     1      29.635 -22.813 -31.807  1.00  0.00    -0.006 C 
ATOM     11  C   UNL     1      30.086 -25.216 -31.333  1.00  0.00    -0.027 C 
ATOM     12  C   UNL     1      31.164 -26.216 -34.220  1.00  0.00     0.008 C 
ATOM     13  C   UNL     1      29.299 -27.680 -36.176  1.00  0.00     0.008 C 
ATOM     14  C   UNL     1      31.066 -22.248 -32.050  1.00  0.00     0.017 C 
ATOM     15  C   UNL     1      29.188 -22.657 -30.256  1.00  0.00    -0.020 C 
ATOM     16  C   UNL     1      30.719 -24.813 -30.044  1.00  0.00     0.032 C 
ATOM     17  C   UNL     1      29.861 -23.764 -29.298  1.00  0.00     0.006 C 
ATOM     18  C   UNL     1      29.487 -21.210 -29.743  1.00  0.00     0.008 C 
ATOM     19  C   UNL     1      27.642 -22.838 -30.140  1.00  0.00     0.012 C 
ATOM     20  C   UNL     1      30.527 -23.241 -27.947  1.00  0.00    -0.025 C 
ATOM     21  C   UNL     1      29.223 -20.976 -28.249  1.00  0.00     0.005 C 
ATOM     22  C   UNL     1      29.561 -22.172 -27.315  1.00  0.00     0.003 C 
ATOM     23  C   UNL     1      30.630 -24.445 -26.951  1.00  0.00     0.010 C 
ATOM     24  C   UNL     1      31.970 -22.707 -28.192  1.00  0.00     0.012 C 
ATOM     25  C   UNL     1      29.839 -21.754 -25.810  1.00  0.00    -0.006 C 
ATOM     26  C   UNL     1      30.985 -24.041 -25.517  1.00  0.00     0.033 C 
ATOM     27  C   UNL     1      29.968 -23.044 -24.941  1.00  0.00     0.120 C 
ATOM     28  C   UNL     1      28.606 -20.964 -25.283  1.00  0.00     0.014 C 
ATOM     29  C   UNL     1      31.093 -20.842 -25.618  1.00  0.00     0.014 C 
ENDROOT
BRANCH   1  30
ATOM     30  C   UNL     1      26.815 -25.208 -32.926  1.00  0.00     0.048 C 
ATOM     31  O   UNL     1      25.752 -24.746 -32.428  1.00  0.00    -0.550 OA
ATOM     32  O   UNL     1      27.137 -26.536 -32.678  1.00  0.00    -0.550 OA
ENDBRANCH   1  30
BRANCH  27  33
ATOM     33  O   UNL     1      30.330 -22.710 -23.623  1.00  0.00    -0.393 OA
ATOM     34  H   UNL     1      30.238 -23.535 -23.077  1.00  0.00     0.210 HD
ENDBRANCH  27  33
TORSDOF 2
ENDMDL
MODEL 7
REMARK VINA RESULT:    -7.070      2.327      3.683
REMARK INTER + INTRA:          -7.489
REMARK INTER:                  -7.669
REMARK INTRA:                   0.180
REMARK UNBOUND:                 0.202
REMARK SMILES C[C@@H]1[C@@H](C)CC[C@]2(C(=O)[O-])CC[C@]3(C)C(=CC[C@H]4[C@]5(C)CC[C@@H](O)C(C)(C)[C@H]5CC[C@]43C)[C@@H]12
REMARK SMILES IDX 7 1 6 2 11 3 33 4 5 5 12 6 15 7 2 8 3 9 13 10 16 11 1 12
REMARK SMILES IDX 4 13 14 14 31 15 17 16 18 17 30 18 32 19 19 20 29 21 28 22
REMARK SMILES IDX 21 23 20 24 25 25 22 26 23 27 26 28 27 29 8 30 9 31 10 32
REMARK SMILES IDX 24 33
REMARK H PARENT 24 34
REMARK Flexibility Score: inf
ROOT
ATOM      1  C   UNL     1      29.471 -24.368 -33.096  1.00  0.00     0.017 C 
ATOM      2  C   UNL     1      28.947 -24.950 -34.434  1.00  0.00     0.014 C 
ATOM      3  C   UNL     1      29.855 -25.552 -32.132  1.00  0.00     0.014 C 
ATOM      4  C   UNL     1      28.332 -23.512 -32.460  1.00  0.00     0.030 C 
ATOM      5  C   UNL     1      28.502 -23.848 -35.398  1.00  0.00     0.004 C 
ATOM      6  C   UNL     1      29.126 -25.577 -30.760  1.00  0.00     0.013 C 
ATOM      7  C   UNL     1      28.766 -23.089 -31.052  1.00  0.00    -0.063 C 
ATOM      8  C   UNL     1      27.745 -22.407 -33.409  1.00  0.00    -0.003 C 
ATOM      9  C   UNL     1      27.359 -23.013 -34.796  1.00  0.00    -0.011 C 
ATOM     10  C   UNL     1      28.972 -24.193 -30.007  1.00  0.00    -0.006 C 
ATOM     11  C   UNL     1      28.991 -21.805 -30.714  1.00  0.00    -0.027 C 
ATOM     12  C   UNL     1      26.490 -21.758 -32.774  1.00  0.00     0.008 C 
ATOM     13  C   UNL     1      26.947 -21.928 -35.808  1.00  0.00     0.008 C 
ATOM     14  C   UNL     1      27.639 -24.291 -29.206  1.00  0.00     0.017 C 
ATOM     15  C   UNL     1      30.225 -23.849 -29.037  1.00  0.00    -0.020 C 
ATOM     16  C   UNL     1      29.202 -21.416 -29.290  1.00  0.00     0.032 C 
ATOM     17  C   UNL     1      30.283 -22.295 -28.619  1.00  0.00     0.006 C 
ATOM     18  C   UNL     1      30.210 -24.774 -27.775  1.00  0.00     0.008 C 
ATOM     19  C   UNL     1      31.559 -24.168 -29.781  1.00  0.00     0.012 C 
ATOM     20  C   UNL     1      30.497 -21.971 -27.072  1.00  0.00    -0.025 C 
ATOM     21  C   UNL     1      31.278 -24.459 -26.718  1.00  0.00     0.005 C 
ATOM     22  C   UNL     1      31.599 -22.950 -26.522  1.00  0.00     0.003 C 
ATOM     23  C   UNL     1      31.046 -20.509 -26.946  1.00  0.00     0.010 C 
ATOM     24  C   UNL     1      29.155 -22.040 -26.284  1.00  0.00     0.012 C 
ATOM     25  C   UNL     1      32.223 -22.605 -25.105  1.00  0.00    -0.006 C 
ATOM     26  C   UNL     1      31.567 -20.155 -25.550  1.00  0.00     0.033 C 
ATOM     27  C   UNL     1      32.681 -21.113 -25.102  1.00  0.00     0.120 C 
ATOM     28  C   UNL     1      33.495 -23.478 -24.902  1.00  0.00     0.014 C 
ATOM     29  C   UNL     1      31.270 -22.882 -23.898  1.00  0.00     0.014 C 
ENDROOT
BRANCH   1  30
ATOM     30  C   UNL     1      30.734 -23.553 -33.387  1.00  0.00     0.048 C 
ATOM     31  O   UNL     1      31.863 -24.115 -33.343  1.00  0.00    -0.550 OA
ATOM     32  O   UNL     1      30.680 -22.202 -33.703  1.00  0.00    -0.550 OA
ENDBRANCH   1  30
BRANCH  27  33
ATOM     33  O   UNL     1      33.133 -20.743 -23.822  1.00  0.00    -0.393 OA
ATOM     34  H   UNL     1      34.103 -20.543 -23.902  1.00  0.00     0.210 HD
ENDBRANCH  27  33
TORSDOF 2
ENDMDL
MODEL 8
REMARK VINA RESULT:    -6.994      1.798      8.115
REMARK INTER + INTRA:          -7.406
REMARK INTER:                  -7.589
REMARK INTRA:                   0.183
REMARK UNBOUND:                 0.202
REMARK SMILES C[C@@H]1[C@@H](C)CC[C@]2(C(=O)[O-])CC[C@]3(C)C(=CC[C@H]4[C@]5(C)CC[C@@H](O)C(C)(C)[C@H]5CC[C@]43C)[C@@H]12
REMARK SMILES IDX 7 1 6 2 11 3 33 4 5 5 12 6 15 7 2 8 3 9 13 10 16 11 1 12
REMARK SMILES IDX 4 13 14 14 31 15 17 16 18 17 30 18 32 19 19 20 29 21 28 22
REMARK SMILES IDX 21 23 20 24 25 25 22 26 23 27 26 28 27 29 8 30 9 31 10 32
REMARK SMILES IDX 24 33
REMARK H PARENT 24 34
REMARK Flexibility Score: inf
ROOT
ATOM      1  C   UNL     1      30.232 -23.283 -23.955  1.00  0.00     0.017 C 
ATOM      2  C   UNL     1      30.810 -23.502 -22.533  1.00  0.00     0.014 C 
ATOM      3  C   UNL     1      29.815 -24.673 -24.564  1.00  0.00     0.014 C 
ATOM      4  C   UNL     1      31.344 -22.630 -24.834  1.00  0.00     0.030 C 
ATOM      5  C   UNL     1      31.289 -22.191 -21.905  1.00  0.00     0.004 C 
ATOM      6  C   UNL     1      30.489 -25.059 -25.909  1.00  0.00     0.013 C 
ATOM      7  C   UNL     1      30.855 -22.583 -26.287  1.00  0.00    -0.063 C 
ATOM      8  C   UNL     1      31.965 -21.321 -24.228  1.00  0.00    -0.003 C 
ATOM      9  C   UNL     1      32.406 -21.550 -22.746  1.00  0.00    -0.011 C 
ATOM     10  C   UNL     1      30.611 -23.918 -27.000  1.00  0.00    -0.006 C 
ATOM     11  C   UNL     1      30.613 -21.428 -26.936  1.00  0.00    -0.027 C 
ATOM     12  C   UNL     1      33.192 -20.869 -25.056  1.00  0.00     0.008 C 
ATOM     13  C   UNL     1      32.854 -20.243 -22.066  1.00  0.00     0.008 C 
ATOM     14  C   UNL     1      31.912 -24.231 -27.799  1.00  0.00     0.017 C 
ATOM     15  C   UNL     1      29.320 -23.828 -27.978  1.00  0.00    -0.020 C 
ATOM     16  C   UNL     1      30.346 -21.420 -28.404  1.00  0.00     0.032 C 
ATOM     17  C   UNL     1      29.242 -22.435 -28.782  1.00  0.00     0.006 C 
ATOM     18  C   UNL     1      29.288 -25.048 -28.957  1.00  0.00     0.008 C 
ATOM     19  C   UNL     1      28.016 -23.933 -27.126  1.00  0.00     0.012 C 
ATOM     20  C   UNL     1      28.967 -22.521 -30.351  1.00  0.00    -0.025 C 
ATOM     21  C   UNL     1      28.179 -25.009 -30.017  1.00  0.00     0.005 C 
ATOM     22  C   UNL     1      27.847 -23.600 -30.586  1.00  0.00     0.003 C 
ATOM     23  C   UNL     1      28.410 -21.138 -30.830  1.00  0.00     0.010 C 
ATOM     24  C   UNL     1      30.278 -22.802 -31.145  1.00  0.00     0.012 C 
ATOM     25  C   UNL     1      27.167 -23.630 -32.019  1.00  0.00    -0.006 C 
ATOM     26  C   UNL     1      27.834 -21.153 -32.249  1.00  0.00     0.033 C 
ATOM     27  C   UNL     1      26.706 -22.186 -32.390  1.00  0.00     0.120 C 
ATOM     28  C   UNL     1      25.891 -24.516 -31.940  1.00  0.00     0.014 C 
ATOM     29  C   UNL     1      28.074 -24.218 -33.147  1.00  0.00     0.014 C 
ENDROOT
BRANCH   1  30
ATOM     30  C   UNL     1      28.981 -22.411 -23.837  1.00  0.00     0.048 C 
ATOM     31  O   UNL     1      27.849 -22.957 -23.718  1.00  0.00    -0.550 OA
ATOM     32  O   UNL     1      29.046 -21.024 -23.855  1.00  0.00    -0.550 OA
ENDBRANCH   1  30
BRANCH  27  33
ATOM     33  O   UNL     1      26.203 -22.157 -33.704  1.00  0.00    -0.393 OA
ATOM     34  H   UNL     1      25.378 -21.605 -33.689  1.00  0.00     0.210 HD
ENDBRANCH  27  33
TORSDOF 2
ENDMDL
MODEL 9
REMARK VINA RESULT:    -6.966      2.648      4.458
REMARK INTER + INTRA:          -7.375
REMARK INTER:                  -7.555
REMARK INTRA:                   0.181
REMARK UNBOUND:                 0.202
REMARK SMILES C[C@@H]1[C@@H](C)CC[C@]2(C(=O)[O-])CC[C@]3(C)C(=CC[C@H]4[C@]5(C)CC[C@@H](O)C(C)(C)[C@H]5CC[C@]43C)[C@@H]12
REMARK SMILES IDX 7 1 6 2 11 3 33 4 5 5 12 6 15 7 2 8 3 9 13 10 16 11 1 12
REMARK SMILES IDX 4 13 14 14 31 15 17 16 18 17 30 18 32 19 19 20 29 21 28 22
REMARK SMILES IDX 21 23 20 24 25 25 22 26 23 27 26 28 27 29 8 30 9 31 10 32
REMARK SMILES IDX 24 33
REMARK H PARENT 24 34
REMARK Flexibility Score: inf
ROOT
ATOM      1  C   UNL     1      27.310 -22.686 -34.407  1.00  0.00     0.017 C 
ATOM      2  C   UNL     1      26.549 -22.118 -35.633  1.00  0.00     0.014 C 
ATOM      3  C   UNL     1      26.386 -22.592 -33.136  1.00  0.00     0.014 C 
ATOM      4  C   UNL     1      28.595 -21.827 -34.195  1.00  0.00     0.030 C 
ATOM      5  C   UNL     1      27.416 -22.129 -36.894  1.00  0.00     0.004 C 
ATOM      6  C   UNL     1      26.954 -21.781 -31.939  1.00  0.00     0.013 C 
ATOM      7  C   UNL     1      29.257 -22.253 -32.878  1.00  0.00    -0.063 C 
ATOM      8  C   UNL     1      29.509 -21.702 -35.466  1.00  0.00    -0.003 C 
ATOM      9  C   UNL     1      28.673 -21.263 -36.710  1.00  0.00    -0.011 C 
ATOM     10  C   UNL     1      28.478 -22.010 -31.579  1.00  0.00    -0.006 C 
ATOM     11  C   UNL     1      30.465 -22.844 -32.828  1.00  0.00    -0.027 C 
ATOM     12  C   UNL     1      30.637 -20.670 -35.223  1.00  0.00     0.008 C 
ATOM     13  C   UNL     1      29.501 -21.303 -38.008  1.00  0.00     0.008 C 
ATOM     14  C   UNL     1      28.989 -20.652 -31.010  1.00  0.00     0.017 C 
ATOM     15  C   UNL     1      28.711 -23.222 -30.526  1.00  0.00    -0.020 C 
ATOM     16  C   UNL     1      31.162 -23.047 -31.524  1.00  0.00     0.032 C 
ATOM     17  C   UNL     1      30.238 -23.734 -30.491  1.00  0.00     0.006 C 
ATOM     18  C   UNL     1      28.221 -22.808 -29.099  1.00  0.00     0.008 C 
ATOM     19  C   UNL     1      27.833 -24.444 -30.939  1.00  0.00     0.012 C 
ATOM     20  C   UNL     1      30.909 -23.909 -29.055  1.00  0.00    -0.025 C 
ATOM     21  C   UNL     1      28.505 -23.828 -27.987  1.00  0.00     0.005 C 
ATOM     22  C   UNL     1      29.853 -24.593 -28.110  1.00  0.00     0.003 C 
ATOM     23  C   UNL     1      32.129 -24.880 -29.196  1.00  0.00     0.010 C 
ATOM     24  C   UNL     1      31.446 -22.552 -28.507  1.00  0.00     0.012 C 
ATOM     25  C   UNL     1      30.391 -25.173 -26.735  1.00  0.00    -0.006 C 
ATOM     26  C   UNL     1      32.699 -25.367 -27.861  1.00  0.00     0.033 C 
ATOM     27  C   UNL     1      31.631 -26.078 -27.016  1.00  0.00     0.120 C 
ATOM     28  C   UNL     1      29.287 -26.081 -26.119  1.00  0.00     0.014 C 
ATOM     29  C   UNL     1      30.744 -24.083 -25.672  1.00  0.00     0.014 C 
ENDROOT
BRANCH   1  30
ATOM     30  C   UNL     1      27.619 -24.161 -34.672  1.00  0.00     0.048 C 
ATOM     31  O   UNL     1      26.804 -25.047 -34.293  1.00  0.00    -0.550 OA
ATOM     32  O   UNL     1      28.777 -24.564 -35.324  1.00  0.00    -0.550 OA
ENDBRANCH   1  30
BRANCH  27  33
ATOM     33  O   UNL     1      32.201 -26.515 -25.806  1.00  0.00    -0.393 OA
ATOM     34  H   UNL     1      31.505 -27.037 -25.327  1.00  0.00     0.210 HD
ENDBRANCH  27  33
TORSDOF 2
ENDMDL
