MODEL 1
REMARK VINA RESULT:     7.931      0.000      0.000
REMARK INTER + INTRA:          11.695
REMARK INTER:                  10.017
REMARK INTRA:                   1.678
REMARK UNBOUND:                 1.678
REMARK SMILES Oc1ccc(CCc2cc(O)cc(O)c2)cc1
REMARK SMILES IDX 6 1 5 2 4 3 3 4 2 5 16 6 17 7 1 8 7 10 8 11 15 12 9 13 13 14
REMARK SMILES IDX 10 15 12 16 14 17 11 19
REMARK H PARENT 1 9 14 18 11 20
REMARK Flexibility Score: inf
ROOT
ATOM      1  C   UNL     1      15.904  94.971   8.575  1.00  0.00     0.040 C 
ENDROOT
BRANCH   1   2
ATOM      2  C   UNL     1      17.233  94.263   8.591  1.00  0.00    -0.047 A 
ATOM      3  C   UNL     1      17.876  93.936   7.386  1.00  0.00     0.007 A 
ATOM      4  C   UNL     1      19.095  93.250   7.401  1.00  0.00     0.046 A 
ATOM      5  C   UNL     1      19.676  92.876   8.617  1.00  0.00     0.115 A 
ATOM      6  C   UNL     1      17.814  93.874   9.809  1.00  0.00     0.007 A 
ATOM      7  C   UNL     1      19.032  93.189   9.822  1.00  0.00     0.046 A 
BRANCH   5   8
ATOM      8  O   UNL     1      20.891  92.192   8.617  1.00  0.00    -0.508 OA
ATOM      9  H   UNL     1      21.396  92.011   9.476  1.00  0.00     0.293 HD
ENDBRANCH   5   8
ENDBRANCH   1   2
BRANCH   1  10
ATOM     10  C   UNL     1      15.970  96.258   9.401  1.00  0.00     0.040 C 
BRANCH  10  11
ATOM     11  C   UNL     1      17.082  97.145   8.911  1.00  0.00    -0.040 A 
ATOM     12  C   UNL     1      17.052  98.526   9.167  1.00  0.00     0.050 A 
ATOM     13  C   UNL     1      18.186  96.592   8.241  1.00  0.00     0.050 A 
ATOM     14  C   UNL     1      18.104  99.348   8.739  1.00  0.00     0.119 A 
ATOM     15  C   UNL     1      19.238  97.413   7.813  1.00  0.00     0.119 A 
ATOM     16  C   UNL     1      19.192  98.789   8.061  1.00  0.00     0.092 A 
BRANCH  14  17
ATOM     17  O   UNL     1      18.078 100.718   8.985  1.00  0.00    -0.508 OA
ATOM     18  H   UNL     1      18.923 101.235   9.196  1.00  0.00     0.293 HD
ENDBRANCH  14  17
BRANCH  15  19
ATOM     19  O   UNL     1      20.334  96.872   7.144  1.00  0.00    -0.508 OA
ATOM     20  H   UNL     1      20.246  96.485   6.211  1.00  0.00     0.293 HD
ENDBRANCH  15  19
ENDBRANCH  10  11
ENDBRANCH   1  10
TORSDOF 6
ENDMDL
MODEL 2
REMARK VINA RESULT:     7.950      0.029      2.031
REMARK INTER + INTRA:          11.719
REMARK INTER:                   9.916
REMARK INTRA:                   1.803
REMARK UNBOUND:                 1.678
REMARK SMILES Oc1ccc(CCc2cc(O)cc(O)c2)cc1
REMARK SMILES IDX 6 1 5 2 4 3 3 4 2 5 16 6 17 7 1 8 7 10 8 11 15 12 9 13 13 14
REMARK SMILES IDX 10 15 12 16 14 17 11 19
REMARK H PARENT 1 9 14 18 11 20
REMARK Flexibility Score: inf
ROOT
ATOM      1  C   UNL     1      15.896  94.975   8.554  1.00  0.00     0.040 C 
ENDROOT
BRANCH   1   2
ATOM      2  C   UNL     1      17.223  94.264   8.571  1.00  0.00    -0.047 A 
ATOM      3  C   UNL     1      17.868  93.938   7.367  1.00  0.00     0.007 A 
ATOM      4  C   UNL     1      19.084  93.249   7.383  1.00  0.00     0.046 A 
ATOM      5  C   UNL     1      19.662  92.870   8.599  1.00  0.00     0.115 A 
ATOM      6  C   UNL     1      17.800  93.870   9.789  1.00  0.00     0.007 A 
ATOM      7  C   UNL     1      19.016  93.181   9.803  1.00  0.00     0.046 A 
BRANCH   5   8
ATOM      8  O   UNL     1      20.875  92.183   8.600  1.00  0.00    -0.508 OA
ATOM      9  H   UNL     1      21.755  92.664   8.463  1.00  0.00     0.293 HD
ENDBRANCH   5   8
ENDBRANCH   1   2
BRANCH   1  10
ATOM     10  C   UNL     1      15.960  96.253   9.395  1.00  0.00     0.040 C 
BRANCH  10  11
ATOM     11  C   UNL     1      17.102  97.124   8.947  1.00  0.00    -0.040 A 
ATOM     12  C   UNL     1      18.183  96.569   8.244  1.00  0.00     0.050 A 
ATOM     13  C   UNL     1      17.068  98.510   9.179  1.00  0.00     0.050 A 
ATOM     14  C   UNL     1      19.232  97.386   7.798  1.00  0.00     0.119 A 
ATOM     15  C   UNL     1      18.117  99.327   8.733  1.00  0.00     0.119 A 
ATOM     16  C   UNL     1      19.196  98.761   8.047  1.00  0.00     0.092 A 
BRANCH  14  17
ATOM     17  O   UNL     1      20.309  96.840   7.105  1.00  0.00    -0.508 OA
ATOM     18  H   UNL     1      20.174  96.213   6.321  1.00  0.00     0.293 HD
ENDBRANCH  14  17
BRANCH  15  19
ATOM     19  O   UNL     1      18.094 100.701   8.965  1.00  0.00    -0.508 OA
ATOM     20  H   UNL     1      18.332 101.089   9.870  1.00  0.00     0.293 HD
ENDBRANCH  15  19
ENDBRANCH  10  11
ENDBRANCH   1  10
TORSDOF 6
ENDMDL
MODEL 3
REMARK VINA RESULT:     8.889      1.421      5.431
REMARK INTER + INTRA:          12.906
REMARK INTER:                  13.253
REMARK INTRA:                  -0.347
REMARK UNBOUND:                 1.678
REMARK SMILES Oc1ccc(CCc2cc(O)cc(O)c2)cc1
REMARK SMILES IDX 6 1 5 2 4 3 3 4 2 5 16 6 17 7 1 8 7 10 8 11 15 12 9 13 13 14
REMARK SMILES IDX 10 15 12 16 14 17 11 19
REMARK H PARENT 1 9 14 18 11 20
REMARK Flexibility Score: inf
ROOT
ATOM      1  C   UNL     1      15.901  96.336   8.487  1.00  0.00     0.040 C 
ENDROOT
BRANCH   1   2
ATOM      2  C   UNL     1      16.778  97.543   8.682  1.00  0.00    -0.047 A 
ATOM      3  C   UNL     1      16.206  98.816   8.848  1.00  0.00     0.007 A 
ATOM      4  C   UNL     1      17.022  99.942   8.996  1.00  0.00     0.046 A 
ATOM      5  C   UNL     1      18.414  99.810   8.970  1.00  0.00     0.115 A 
ATOM      6  C   UNL     1      18.177  97.418   8.643  1.00  0.00     0.007 A 
ATOM      7  C   UNL     1      18.990  98.544   8.792  1.00  0.00     0.046 A 
BRANCH   5   8
ATOM      8  O   UNL     1      19.215 100.941   9.119  1.00  0.00    -0.508 OA
ATOM      9  H   UNL     1      18.842 101.873   8.993  1.00  0.00     0.293 HD
ENDBRANCH   5   8
ENDBRANCH   1   2
BRANCH   1  10
ATOM     10  C   UNL     1      16.264  95.239   9.492  1.00  0.00     0.040 C 
BRANCH  10  11
ATOM     11  C   UNL     1      17.369  94.372   8.953  1.00  0.00    -0.040 A 
ATOM     12  C   UNL     1      17.399  94.028   7.592  1.00  0.00     0.050 A 
ATOM     13  C   UNL     1      18.410  93.948   9.796  1.00  0.00     0.050 A 
ATOM     14  C   UNL     1      18.447  93.247   7.082  1.00  0.00     0.119 A 
ATOM     15  C   UNL     1      19.459  93.167   9.287  1.00  0.00     0.119 A 
ATOM     16  C   UNL     1      19.471  92.818   7.932  1.00  0.00     0.092 A 
BRANCH  14  17
ATOM     17  O   UNL     1      18.480  92.897   5.735  1.00  0.00    -0.508 OA
ATOM     18  H   UNL     1      18.900  93.503   5.040  1.00  0.00     0.293 HD
ENDBRANCH  14  17
BRANCH  15  19
ATOM     19  O   UNL     1      20.491  92.737  10.117  1.00  0.00    -0.508 OA
ATOM     20  H   UNL     1      21.216  93.371  10.431  1.00  0.00     0.293 HD
ENDBRANCH  15  19
ENDBRANCH  10  11
ENDBRANCH   1  10
TORSDOF 6
ENDMDL
MODEL 4
REMARK VINA RESULT:     8.931      1.379      5.338
REMARK INTER + INTRA:          12.959
REMARK INTER:                  13.128
REMARK INTRA:                  -0.170
REMARK UNBOUND:                 1.678
REMARK SMILES Oc1ccc(CCc2cc(O)cc(O)c2)cc1
REMARK SMILES IDX 6 1 5 2 4 3 3 4 2 5 16 6 17 7 1 8 7 10 8 11 15 12 9 13 13 14
REMARK SMILES IDX 10 15 12 16 14 17 11 19
REMARK H PARENT 1 9 14 18 11 20
REMARK Flexibility Score: inf
ROOT
ATOM      1  C   UNL     1      15.778  96.220   8.582  1.00  0.00     0.040 C 
ENDROOT
BRANCH   1   2
ATOM      2  C   UNL     1      16.680  97.418   8.713  1.00  0.00    -0.047 A 
ATOM      3  C   UNL     1      16.137  98.692   8.947  1.00  0.00     0.007 A 
ATOM      4  C   UNL     1      16.973  99.809   9.036  1.00  0.00     0.046 A 
ATOM      5  C   UNL     1      18.356  99.667   8.883  1.00  0.00     0.115 A 
ATOM      6  C   UNL     1      18.068  97.282   8.546  1.00  0.00     0.007 A 
ATOM      7  C   UNL     1      18.902  98.399   8.636  1.00  0.00     0.046 A 
BRANCH   5   8
ATOM      8  O   UNL     1      19.177 100.789   8.973  1.00  0.00    -0.508 OA
ATOM      9  H   UNL     1      18.829 101.717   8.765  1.00  0.00     0.293 HD
ENDBRANCH   5   8
ENDBRANCH   1   2
BRANCH   1  10
ATOM     10  C   UNL     1      16.208  95.114   9.549  1.00  0.00     0.040 C 
BRANCH  10  11
ATOM     11  C   UNL     1      17.367  94.338   8.984  1.00  0.00    -0.040 A 
ATOM     12  C   UNL     1      18.413  93.916   9.821  1.00  0.00     0.050 A 
ATOM     13  C   UNL     1      17.384  93.981   7.626  1.00  0.00     0.050 A 
ATOM     14  C   UNL     1      19.476  93.165   9.301  1.00  0.00     0.119 A 
ATOM     15  C   UNL     1      18.447  93.229   7.105  1.00  0.00     0.119 A 
ATOM     16  C   UNL     1      19.491  92.827   7.944  1.00  0.00     0.092 A 
BRANCH  14  17
ATOM     17  O   UNL     1      20.519  92.749  10.125  1.00  0.00    -0.508 OA
ATOM     18  H   UNL     1      20.727  93.220  10.997  1.00  0.00     0.293 HD
ENDBRANCH  14  17
BRANCH  15  19
ATOM     19  O   UNL     1      18.474  92.876   5.757  1.00  0.00    -0.508 OA
ATOM     20  H   UNL     1      18.748  93.539   5.042  1.00  0.00     0.293 HD
ENDBRANCH  15  19
ENDBRANCH  10  11
ENDBRANCH   1  10
TORSDOF 6
ENDMDL
MODEL 5
REMARK VINA RESULT:     9.387      1.200      4.526
REMARK INTER + INTRA:          13.534
REMARK INTER:                  10.895
REMARK INTRA:                   2.638
REMARK UNBOUND:                 1.678
REMARK SMILES Oc1ccc(CCc2cc(O)cc(O)c2)cc1
REMARK SMILES IDX 6 1 5 2 4 3 3 4 2 5 16 6 17 7 1 8 7 10 8 11 15 12 9 13 13 14
REMARK SMILES IDX 10 15 12 16 14 17 11 19
REMARK H PARENT 1 9 14 18 11 20
REMARK Flexibility Score: inf
ROOT
ATOM      1  C   UNL     1      15.346  95.905  10.078  1.00  0.00     0.040 C 
ENDROOT
BRANCH   1   2
ATOM      2  C   UNL     1      16.244  97.051   9.697  1.00  0.00    -0.047 A 
ATOM      3  C   UNL     1      15.746  98.119   8.932  1.00  0.00     0.007 A 
ATOM      4  C   UNL     1      16.589  99.167   8.551  1.00  0.00     0.046 A 
ATOM      5  C   UNL     1      17.938  99.155   8.920  1.00  0.00     0.115 A 
ATOM      6  C   UNL     1      17.603  97.036  10.054  1.00  0.00     0.007 A 
ATOM      7  C   UNL     1      18.444  98.085   9.672  1.00  0.00     0.046 A 
BRANCH   5   8
ATOM      8  O   UNL     1      18.767 100.206   8.533  1.00  0.00    -0.508 OA
ATOM      9  H   UNL     1      19.433 100.618   9.175  1.00  0.00     0.293 HD
ENDBRANCH   5   8
ENDBRANCH   1   2
BRANCH   1  10
ATOM     10  C   UNL     1      15.422  94.791   9.031  1.00  0.00     0.040 C 
BRANCH  10  11
ATOM     11  C   UNL     1      16.802  94.715   8.437  1.00  0.00    -0.040 A 
ATOM     12  C   UNL     1      17.306  95.784   7.677  1.00  0.00     0.050 A 
ATOM     13  C   UNL     1      17.619  93.600   8.686  1.00  0.00     0.050 A 
ATOM     14  C   UNL     1      18.605  95.728   7.152  1.00  0.00     0.119 A 
ATOM     15  C   UNL     1      18.918  93.543   8.161  1.00  0.00     0.119 A 
ATOM     16  C   UNL     1      19.405  94.607   7.393  1.00  0.00     0.092 A 
BRANCH  14  17
ATOM     17  O   UNL     1      19.108  96.781   6.393  1.00  0.00    -0.508 OA
ATOM     18  H   UNL     1      19.849  97.378   6.739  1.00  0.00     0.293 HD
ENDBRANCH  14  17
BRANCH  15  19
ATOM     19  O   UNL     1      19.732  92.438   8.398  1.00  0.00    -0.508 OA
ATOM     20  H   UNL     1      20.636  92.533   8.847  1.00  0.00     0.293 HD
ENDBRANCH  15  19
ENDBRANCH  10  11
ENDBRANCH   1  10
TORSDOF 6
ENDMDL
MODEL 6
REMARK VINA RESULT:     9.489      1.246      4.760
REMARK INTER + INTRA:          13.663
REMARK INTER:                  10.882
REMARK INTRA:                   2.781
REMARK UNBOUND:                 1.678
REMARK SMILES Oc1ccc(CCc2cc(O)cc(O)c2)cc1
REMARK SMILES IDX 6 1 5 2 4 3 3 4 2 5 16 6 17 7 1 8 7 10 8 11 15 12 9 13 13 14
REMARK SMILES IDX 10 15 12 16 14 17 11 19
REMARK H PARENT 1 9 14 18 11 20
REMARK Flexibility Score: inf
ROOT
ATOM      1  C   UNL     1      15.161  96.098  10.060  1.00  0.00     0.040 C 
ENDROOT
BRANCH   1   2
ATOM      2  C   UNL     1      16.172  97.161   9.725  1.00  0.00    -0.047 A 
ATOM      3  C   UNL     1      15.796  98.286   8.973  1.00  0.00     0.007 A 
ATOM      4  C   UNL     1      16.743  99.257   8.634  1.00  0.00     0.046 A 
ATOM      5  C   UNL     1      18.075  99.110   9.035  1.00  0.00     0.115 A 
ATOM      6  C   UNL     1      17.514  97.011  10.114  1.00  0.00     0.007 A 
ATOM      7  C   UNL     1      18.459  97.982   9.775  1.00  0.00     0.046 A 
BRANCH   5   8
ATOM      8  O   UNL     1      19.010 100.085   8.691  1.00  0.00    -0.508 OA
ATOM      9  H   UNL     1      19.824 100.264   9.266  1.00  0.00     0.293 HD
ENDBRANCH   5   8
ENDBRANCH   1   2
BRANCH   1  10
ATOM     10  C   UNL     1      15.284  94.915   9.096  1.00  0.00     0.040 C 
BRANCH  10  11
ATOM     11  C   UNL     1      16.678  94.831   8.537  1.00  0.00    -0.040 A 
ATOM     12  C   UNL     1      17.485  93.715   8.810  1.00  0.00     0.050 A 
ATOM     13  C   UNL     1      17.163  95.843   7.691  1.00  0.00     0.050 A 
ATOM     14  C   UNL     1      18.773  93.621   8.262  1.00  0.00     0.119 A 
ATOM     15  C   UNL     1      18.451  95.750   7.143  1.00  0.00     0.119 A 
ATOM     16  C   UNL     1      19.252  94.641   7.433  1.00  0.00     0.092 A 
BRANCH  14  17
ATOM     17  O   UNL     1      19.580  92.520   8.533  1.00  0.00    -0.508 OA
ATOM     18  H   UNL     1      20.339  92.570   9.203  1.00  0.00     0.293 HD
ENDBRANCH  14  17
BRANCH  15  19
ATOM     19  O   UNL     1      18.941  96.752   6.309  1.00  0.00    -0.508 OA
ATOM     20  H   UNL     1      18.339  97.484   5.949  1.00  0.00     0.293 HD
ENDBRANCH  15  19
ENDBRANCH  10  11
ENDBRANCH   1  10
TORSDOF 6
ENDMDL
MODEL 7
REMARK VINA RESULT:     9.572      2.870      5.317
REMARK INTER + INTRA:          13.767
REMARK INTER:                  12.484
REMARK INTRA:                   1.283
REMARK UNBOUND:                 1.678
REMARK SMILES Oc1ccc(CCc2cc(O)cc(O)c2)cc1
REMARK SMILES IDX 6 1 5 2 4 3 3 4 2 5 16 6 17 7 1 8 7 10 8 11 15 12 9 13 13 14
REMARK SMILES IDX 10 15 12 16 14 17 11 19
REMARK H PARENT 1 9 14 18 11 20
REMARK Flexibility Score: inf
ROOT
ATOM      1  C   UNL     1      18.395  96.612   7.295  1.00  0.00     0.040 C 
ENDROOT
BRANCH   1   2
ATOM      2  C   UNL     1      18.615  97.892   8.055  1.00  0.00    -0.047 A 
ATOM      3  C   UNL     1      18.021  99.088   7.619  1.00  0.00     0.007 A 
ATOM      4  C   UNL     1      18.252 100.283   8.307  1.00  0.00     0.046 A 
ATOM      5  C   UNL     1      19.086 100.297   9.430  1.00  0.00     0.115 A 
ATOM      6  C   UNL     1      19.463  97.914   9.175  1.00  0.00     0.007 A 
ATOM      7  C   UNL     1      19.693  99.109   9.862  1.00  0.00     0.046 A 
BRANCH   5   8
ATOM      8  O   UNL     1      19.309 101.496  10.106  1.00  0.00    -0.508 OA
ATOM      9  H   UNL     1      19.416 102.371   9.609  1.00  0.00     0.293 HD
ENDBRANCH   5   8
ENDBRANCH   1   2
BRANCH   1  10
ATOM     10  C   UNL     1      17.937  95.497   8.239  1.00  0.00     0.040 C 
BRANCH  10  11
ATOM     11  C   UNL     1      16.649  95.875   8.919  1.00  0.00    -0.040 A 
ATOM     12  C   UNL     1      16.375  97.220   9.217  1.00  0.00     0.050 A 
ATOM     13  C   UNL     1      15.687  94.894   9.209  1.00  0.00     0.050 A 
ATOM     14  C   UNL     1      15.161  97.577   9.821  1.00  0.00     0.119 A 
ATOM     15  C   UNL     1      14.472  95.250   9.813  1.00  0.00     0.119 A 
ATOM     16  C   UNL     1      14.215  96.591  10.119  1.00  0.00     0.092 A 
BRANCH  14  17
ATOM     17  O   UNL     1      14.885  98.908  10.125  1.00  0.00    -0.508 OA
ATOM     18  H   UNL     1      14.346  99.164  10.944  1.00  0.00     0.293 HD
ENDBRANCH  14  17
BRANCH  15  19
ATOM     19  O   UNL     1      13.516  94.282  10.109  1.00  0.00    -0.508 OA
ATOM     20  H   UNL     1      13.224  93.598   9.421  1.00  0.00     0.293 HD
ENDBRANCH  15  19
ENDBRANCH  10  11
ENDBRANCH   1  10
TORSDOF 6
ENDMDL
MODEL 8
REMARK VINA RESULT:     9.605      2.755      5.670
REMARK INTER + INTRA:          13.810
REMARK INTER:                  12.921
REMARK INTRA:                   0.889
REMARK UNBOUND:                 1.678
REMARK SMILES Oc1ccc(CCc2cc(O)cc(O)c2)cc1
REMARK SMILES IDX 6 1 5 2 4 3 3 4 2 5 16 6 17 7 1 8 7 10 8 11 15 12 9 13 13 14
REMARK SMILES IDX 10 15 12 16 14 17 11 19
REMARK H PARENT 1 9 14 18 11 20
REMARK Flexibility Score: inf
ROOT
ATOM      1  C   UNL     1      18.592  96.561   7.267  1.00  0.00     0.040 C 
ENDROOT
BRANCH   1   2
ATOM      2  C   UNL     1      18.757  97.864   8.000  1.00  0.00    -0.047 A 
ATOM      3  C   UNL     1      19.612  97.949   9.112  1.00  0.00     0.007 A 
ATOM      4  C   UNL     1      19.740  99.152   9.813  1.00  0.00     0.046 A 
ATOM      5  C   UNL     1      19.011 100.278   9.417  1.00  0.00     0.115 A 
ATOM      6  C   UNL     1      18.017  98.994   7.615  1.00  0.00     0.007 A 
ATOM      7  C   UNL     1      18.146 100.195   8.316  1.00  0.00     0.046 A 
BRANCH   5   8
ATOM      8  O   UNL     1      19.148 101.471  10.125  1.00  0.00    -0.508 OA
ATOM      9  H   UNL     1      18.918 102.364   9.706  1.00  0.00     0.293 HD
ENDBRANCH   5   8
ENDBRANCH   1   2
BRANCH   1  10
ATOM     10  C   UNL     1      18.211  95.440   8.239  1.00  0.00     0.040 C 
BRANCH  10  11
ATOM     11  C   UNL     1      16.847  95.687   8.822  1.00  0.00    -0.040 A 
ATOM     12  C   UNL     1      15.974  94.613   9.060  1.00  0.00     0.050 A 
ATOM     13  C   UNL     1      16.457  96.987   9.186  1.00  0.00     0.050 A 
ATOM     14  C   UNL     1      14.714  94.839   9.635  1.00  0.00     0.119 A 
ATOM     15  C   UNL     1      15.198  97.214   9.760  1.00  0.00     0.119 A 
ATOM     16  C   UNL     1      14.330  96.139   9.980  1.00  0.00     0.092 A 
BRANCH  14  17
ATOM     17  O   UNL     1      13.842  93.780   9.868  1.00  0.00    -0.508 OA
ATOM     18  H   UNL     1      12.910  93.763   9.471  1.00  0.00     0.293 HD
ENDBRANCH  14  17
BRANCH  15  19
ATOM     19  O   UNL     1      14.802  98.500  10.118  1.00  0.00    -0.508 OA
ATOM     20  H   UNL     1      15.480  99.221  10.337  1.00  0.00     0.293 HD
ENDBRANCH  15  19
ENDBRANCH  10  11
ENDBRANCH   1  10
TORSDOF 6
ENDMDL
MODEL 9
REMARK VINA RESULT:     9.870      2.672      4.265
REMARK INTER + INTRA:          14.145
REMARK INTER:                  13.245
REMARK INTRA:                   0.899
REMARK UNBOUND:                 1.678
REMARK SMILES Oc1ccc(CCc2cc(O)cc(O)c2)cc1
REMARK SMILES IDX 6 1 5 2 4 3 3 4 2 5 16 6 17 7 1 8 7 10 8 11 15 12 9 13 13 14
REMARK SMILES IDX 10 15 12 16 14 17 11 19
REMARK H PARENT 1 9 14 18 11 20
REMARK Flexibility Score: inf
ROOT
ATOM      1  C   UNL     1      18.140  95.445   8.827  1.00  0.00     0.040 C 
ENDROOT
BRANCH   1   2
ATOM      2  C   UNL     1      16.695  95.650   9.197  1.00  0.00    -0.047 A 
ATOM      3  C   UNL     1      15.739  94.668   8.890  1.00  0.00     0.007 A 
ATOM      4  C   UNL     1      14.392  94.873   9.204  1.00  0.00     0.046 A 
ATOM      5  C   UNL     1      13.986  96.062   9.818  1.00  0.00     0.115 A 
ATOM      6  C   UNL     1      16.281  96.849   9.800  1.00  0.00     0.007 A 
ATOM      7  C   UNL     1      14.934  97.052  10.114  1.00  0.00     0.046 A 
BRANCH   5   8
ATOM      8  O   UNL     1      12.640  96.254  10.125  1.00  0.00    -0.508 OA
ATOM      9  H   UNL     1      11.971  95.495  10.067  1.00  0.00     0.293 HD
ENDBRANCH   5   8
ENDBRANCH   1   2
BRANCH   1  10
ATOM     10  C   UNL     1      18.583  96.484   7.793  1.00  0.00     0.040 C 
BRANCH  10  11
ATOM     11  C   UNL     1      18.760  97.831   8.440  1.00  0.00    -0.040 A 
ATOM     12  C   UNL     1      19.999  98.193   8.995  1.00  0.00     0.050 A 
ATOM     13  C   UNL     1      17.705  98.759   8.443  1.00  0.00     0.050 A 
ATOM     14  C   UNL     1      20.174  99.461   9.568  1.00  0.00     0.119 A 
ATOM     15  C   UNL     1      17.880 100.027   9.016  1.00  0.00     0.119 A 
ATOM     16  C   UNL     1      19.113 100.372   9.579  1.00  0.00     0.092 A 
BRANCH  14  17
ATOM     17  O   UNL     1      21.397  99.824  10.125  1.00  0.00    -0.508 OA
ATOM     18  H   UNL     1      22.224  99.948   9.553  1.00  0.00     0.293 HD
ENDBRANCH  14  17
BRANCH  15  19
ATOM     19  O   UNL     1      16.836 100.949   9.029  1.00  0.00    -0.508 OA
ATOM     20  H   UNL     1      16.893 101.806   9.566  1.00  0.00     0.293 HD
ENDBRANCH  15  19
ENDBRANCH  10  11
ENDBRANCH   1  10
TORSDOF 6
ENDMDL
