MODEL 1
REMARK VINA RESULT:    -5.533      0.000      0.000
REMARK INTER + INTRA:          -6.266
REMARK INTER:                  -6.180
REMARK INTRA:                  -0.086
REMARK UNBOUND:                -0.086
REMARK SMILES CCc1ccc(O)cc1O
REMARK SMILES IDX 3 1 9 2 8 3 6 4 5 5 4 6 2 7 1 8 10 9 7 11
REMARK H PARENT 10 10 7 12
REMARK Flexibility Score: inf
ROOT
ATOM      1  C   UNL     1      38.832   4.210 103.463  1.00  0.00    -0.006 A 
ATOM      2  C   UNL     1      39.334   3.560 104.609  1.00  0.00     0.122 A 
ATOM      3  C   UNL     1      39.058   2.201 104.818  1.00  0.00     0.092 A 
ATOM      4  C   UNL     1      38.277   1.488 103.903  1.00  0.00     0.119 A 
ATOM      5  C   UNL     1      37.766   2.135 102.773  1.00  0.00     0.047 A 
ATOM      6  C   UNL     1      38.037   3.488 102.555  1.00  0.00     0.011 A 
ENDROOT
BRANCH   1   7
ATOM      7  C   UNL     1      39.089   5.677 103.227  1.00  0.00     0.036 C 
ATOM      8  C   UNL     1      38.126   6.233 102.183  1.00  0.00     0.009 C 
ENDBRANCH   1   7
BRANCH   2   9
ATOM      9  O   UNL     1      40.102   4.264 105.534  1.00  0.00    -0.508 OA
ATOM     10  H   UNL     1      39.848   5.197 105.836  1.00  0.00     0.293 HD
ENDBRANCH   2   9
BRANCH   4  11
ATOM     11  O   UNL     1      38.014   0.139 104.129  1.00  0.00    -0.508 OA
ATOM     12  H   UNL     1      38.232  -0.303 105.014  1.00  0.00     0.293 HD
ENDBRANCH   4  11
TORSDOF 3
ENDMDL
MODEL 2
REMARK VINA RESULT:    -5.262      0.944      3.440
REMARK INTER + INTRA:          -5.963
REMARK INTER:                  -5.877
REMARK INTRA:                  -0.086
REMARK UNBOUND:                -0.086
REMARK SMILES CCc1ccc(O)cc1O
REMARK SMILES IDX 3 1 9 2 8 3 6 4 5 5 4 6 2 7 1 8 10 9 7 11
REMARK H PARENT 10 10 7 12
REMARK Flexibility Score: inf
ROOT
ATOM      1  C   UNL     1      38.005   2.556 102.655  1.00  0.00    -0.006 A 
ATOM      2  C   UNL     1      38.627   1.801 103.671  1.00  0.00     0.122 A 
ATOM      3  C   UNL     1      39.302   2.453 104.713  1.00  0.00     0.092 A 
ATOM      4  C   UNL     1      39.373   3.849 104.746  1.00  0.00     0.119 A 
ATOM      5  C   UNL     1      38.769   4.601 103.731  1.00  0.00     0.047 A 
ATOM      6  C   UNL     1      38.093   3.958 102.690  1.00  0.00     0.011 A 
ENDROOT
BRANCH   1   7
ATOM      7  C   UNL     1      37.298   1.880 101.507  1.00  0.00     0.036 C 
ATOM      8  C   UNL     1      35.843   1.593 101.863  1.00  0.00     0.009 C 
ENDBRANCH   1   7
BRANCH   2   9
ATOM      9  O   UNL     1      38.574   0.408 103.641  1.00  0.00    -0.508 OA
ATOM     10  H   UNL     1      38.376  -0.098 102.786  1.00  0.00     0.293 HD
ENDBRANCH   2   9
BRANCH   4  11
ATOM     11  O   UNL     1      40.048   4.479 105.789  1.00  0.00    -0.508 OA
ATOM     12  H   UNL     1      39.668   4.502 106.728  1.00  0.00     0.293 HD
ENDBRANCH   4  11
TORSDOF 3
ENDMDL
MODEL 3
REMARK VINA RESULT:    -5.081      1.928      2.873
REMARK INTER + INTRA:          -5.762
REMARK INTER:                  -5.677
REMARK INTRA:                  -0.085
REMARK UNBOUND:                -0.086
REMARK SMILES CCc1ccc(O)cc1O
REMARK SMILES IDX 3 1 9 2 8 3 6 4 5 5 4 6 2 7 1 8 10 9 7 11
REMARK H PARENT 10 10 7 12
REMARK Flexibility Score: inf
ROOT
ATOM      1  C   UNL     1      38.431   2.277 102.977  1.00  0.00    -0.006 A 
ATOM      2  C   UNL     1      38.891   0.945 102.923  1.00  0.00     0.122 A 
ATOM      3  C   UNL     1      38.200  -0.001 102.152  1.00  0.00     0.092 A 
ATOM      4  C   UNL     1      37.050   0.364 101.446  1.00  0.00     0.119 A 
ATOM      5  C   UNL     1      36.583   1.682 101.511  1.00  0.00     0.047 A 
ATOM      6  C   UNL     1      37.266   2.632 102.275  1.00  0.00     0.011 A 
ENDROOT
BRANCH   1   7
ATOM      7  C   UNL     1      39.137   3.308 103.821  1.00  0.00     0.036 C 
ATOM      8  C   UNL     1      38.817   4.717 103.333  1.00  0.00     0.009 C 
ENDBRANCH   1   7
BRANCH   2   9
ATOM      9  O   UNL     1      40.029   0.567 103.633  1.00  0.00    -0.508 OA
ATOM     10  H   UNL     1      40.602   1.246 104.120  1.00  0.00     0.293 HD
ENDBRANCH   2   9
BRANCH   4  11
ATOM     11  O   UNL     1      36.377  -0.590 100.687  1.00  0.00    -0.508 OA
ATOM     12  H   UNL     1      36.789  -1.493 100.483  1.00  0.00     0.293 HD
ENDBRANCH   4  11
TORSDOF 3
ENDMDL
MODEL 4
REMARK VINA RESULT:    -5.067     11.236     12.705
REMARK INTER + INTRA:          -5.746
REMARK INTER:                  -5.659
REMARK INTRA:                  -0.087
REMARK UNBOUND:                -0.086
REMARK SMILES CCc1ccc(O)cc1O
REMARK SMILES IDX 3 1 9 2 8 3 6 4 5 5 4 6 2 7 1 8 10 9 7 11
REMARK H PARENT 10 10 7 12
REMARK Flexibility Score: inf
ROOT
ATOM      1  C   UNL     1      37.002  -8.154 108.621  1.00  0.00    -0.006 A 
ATOM      2  C   UNL     1      38.061  -7.224 108.642  1.00  0.00     0.122 A 
ATOM      3  C   UNL     1      37.960  -6.068 109.430  1.00  0.00     0.092 A 
ATOM      4  C   UNL     1      36.810  -5.826 110.188  1.00  0.00     0.119 A 
ATOM      5  C   UNL     1      35.751  -6.741 110.157  1.00  0.00     0.047 A 
ATOM      6  C   UNL     1      35.844  -7.896 109.375  1.00  0.00     0.011 A 
ENDROOT
BRANCH   1   7
ATOM      7  C   UNL     1      37.071  -9.391 107.760  1.00  0.00     0.036 C 
ATOM      8  C   UNL     1      36.533 -10.603 108.512  1.00  0.00     0.009 C 
ENDBRANCH   1   7
BRANCH   2   9
ATOM      9  O   UNL     1      39.207  -7.448 107.881  1.00  0.00    -0.508 OA
ATOM     10  H   UNL     1      39.176  -7.470 106.868  1.00  0.00     0.293 HD
ENDBRANCH   2   9
BRANCH   4  11
ATOM     11  O   UNL     1      36.728  -4.673 110.964  1.00  0.00    -0.508 OA
ATOM     12  H   UNL     1      37.323  -3.872 110.788  1.00  0.00     0.293 HD
ENDBRANCH   4  11
TORSDOF 3
ENDMDL
MODEL 5
REMARK VINA RESULT:    -5.060      7.457      9.832
REMARK INTER + INTRA:          -5.738
REMARK INTER:                  -5.651
REMARK INTRA:                  -0.087
REMARK UNBOUND:                -0.086
REMARK SMILES CCc1ccc(O)cc1O
REMARK SMILES IDX 3 1 9 2 8 3 6 4 5 5 4 6 2 7 1 8 10 9 7 11
REMARK H PARENT 10 10 7 12
REMARK Flexibility Score: inf
ROOT
ATOM      1  C   UNL     1      37.151  -5.798 101.621  1.00  0.00    -0.006 A 
ATOM      2  C   UNL     1      36.373  -5.581 100.466  1.00  0.00     0.122 A 
ATOM      3  C   UNL     1      36.213  -4.280  99.966  1.00  0.00     0.092 A 
ATOM      4  C   UNL     1      36.811  -3.194 100.613  1.00  0.00     0.119 A 
ATOM      5  C   UNL     1      37.572  -3.406 101.769  1.00  0.00     0.047 A 
ATOM      6  C   UNL     1      37.738  -4.699 102.273  1.00  0.00     0.011 A 
ENDROOT
BRANCH   1   7
ATOM      7  C   UNL     1      37.316  -7.182 102.198  1.00  0.00     0.036 C 
ATOM      8  C   UNL     1      37.569  -7.115 103.700  1.00  0.00     0.009 C 
ENDBRANCH   1   7
BRANCH   2   9
ATOM      9  O   UNL     1      35.761  -6.654  99.820  1.00  0.00    -0.508 OA
ATOM     10  H   UNL     1      36.147  -7.590  99.864  1.00  0.00     0.293 HD
ENDBRANCH   2   9
BRANCH   4  11
ATOM     11  O   UNL     1      36.640  -1.910 100.102  1.00  0.00    -0.508 OA
ATOM     12  H   UNL     1      35.718  -1.523  99.938  1.00  0.00     0.293 HD
ENDBRANCH   4  11
TORSDOF 3
ENDMDL
MODEL 6
REMARK VINA RESULT:    -4.954     10.290     11.652
REMARK INTER + INTRA:          -5.620
REMARK INTER:                  -5.533
REMARK INTRA:                  -0.086
REMARK UNBOUND:                -0.086
REMARK SMILES CCc1ccc(O)cc1O
REMARK SMILES IDX 3 1 9 2 8 3 6 4 5 5 4 6 2 7 1 8 10 9 7 11
REMARK H PARENT 10 10 7 12
REMARK Flexibility Score: inf
ROOT
ATOM      1  C   UNL     1      37.664  -7.712 105.524  1.00  0.00    -0.006 A 
ATOM      2  C   UNL     1      37.817  -8.853 104.711  1.00  0.00     0.122 A 
ATOM      3  C   UNL     1      37.774  -8.727 103.314  1.00  0.00     0.092 A 
ATOM      4  C   UNL     1      37.568  -7.477 102.723  1.00  0.00     0.119 A 
ATOM      5  C   UNL     1      37.402  -6.345 103.528  1.00  0.00     0.047 A 
ATOM      6  C   UNL     1      37.445  -6.461 104.921  1.00  0.00     0.011 A 
ENDROOT
BRANCH   1   7
ATOM      7  C   UNL     1      37.677  -7.822 107.028  1.00  0.00     0.036 C 
ATOM      8  C   UNL     1      36.993  -6.617 107.664  1.00  0.00     0.009 C 
ENDBRANCH   1   7
BRANCH   2   9
ATOM      9  O   UNL     1      38.009 -10.107 105.290  1.00  0.00    -0.508 OA
ATOM     10  H   UNL     1      38.843 -10.324 105.822  1.00  0.00     0.293 HD
ENDBRANCH   2   9
BRANCH   4  11
ATOM     11  O   UNL     1      37.528  -7.372 101.334  1.00  0.00    -0.508 OA
ATOM     12  H   UNL     1      37.523  -6.471 100.871  1.00  0.00     0.293 HD
ENDBRANCH   4  11
TORSDOF 3
ENDMDL
MODEL 7
REMARK VINA RESULT:    -4.936      7.443      8.806
REMARK INTER + INTRA:          -5.600
REMARK INTER:                  -5.492
REMARK INTRA:                  -0.108
REMARK UNBOUND:                -0.086
REMARK SMILES CCc1ccc(O)cc1O
REMARK SMILES IDX 3 1 9 2 8 3 6 4 5 5 4 6 2 7 1 8 10 9 7 11
REMARK H PARENT 10 10 7 12
REMARK Flexibility Score: inf
ROOT
ATOM      1  C   UNL     1      38.353  -0.325 111.234  1.00  0.00    -0.006 A 
ATOM      2  C   UNL     1      36.994  -0.206 111.592  1.00  0.00     0.122 A 
ATOM      3  C   UNL     1      36.168  -1.339 111.583  1.00  0.00     0.092 A 
ATOM      4  C   UNL     1      36.678  -2.586 111.208  1.00  0.00     0.119 A 
ATOM      5  C   UNL     1      38.023  -2.703 110.837  1.00  0.00     0.047 A 
ATOM      6  C   UNL     1      38.854  -1.580 110.846  1.00  0.00     0.011 A 
ENDROOT
BRANCH   1   7
ATOM      7  C   UNL     1      39.258   0.881 111.207  1.00  0.00     0.036 C 
ATOM      8  C   UNL     1      39.312   1.484 109.807  1.00  0.00     0.009 C 
ENDBRANCH   1   7
BRANCH   2   9
ATOM      9  O   UNL     1      36.471   1.034 111.955  1.00  0.00    -0.508 OA
ATOM     10  H   UNL     1      36.183   1.712 111.260  1.00  0.00     0.293 HD
ENDBRANCH   2   9
BRANCH   4  11
ATOM     11  O   UNL     1      35.841  -3.699 111.204  1.00  0.00    -0.508 OA
ATOM     12  H   UNL     1      36.208  -4.638 111.101  1.00  0.00     0.293 HD
ENDBRANCH   4  11
TORSDOF 3
ENDMDL
MODEL 8
REMARK VINA RESULT:    -4.892      6.151      7.434
REMARK INTER + INTRA:          -5.551
REMARK INTER:                  -5.464
REMARK INTRA:                  -0.086
REMARK UNBOUND:                -0.086
REMARK SMILES CCc1ccc(O)cc1O
REMARK SMILES IDX 3 1 9 2 8 3 6 4 5 5 4 6 2 7 1 8 10 9 7 11
REMARK H PARENT 10 10 7 12
REMARK Flexibility Score: inf
ROOT
ATOM      1  C   UNL     1      37.868   0.186 109.137  1.00  0.00    -0.006 A 
ATOM      2  C   UNL     1      38.055   0.852 110.365  1.00  0.00     0.122 A 
ATOM      3  C   UNL     1      37.376   0.411 111.510  1.00  0.00     0.092 A 
ATOM      4  C   UNL     1      36.504  -0.679 111.440  1.00  0.00     0.119 A 
ATOM      5  C   UNL     1      36.305  -1.334 110.219  1.00  0.00     0.047 A 
ATOM      6  C   UNL     1      36.980  -0.901 109.073  1.00  0.00     0.011 A 
ENDROOT
BRANCH   1   7
ATOM      7  C   UNL     1      38.563   0.656 107.884  1.00  0.00     0.036 C 
ATOM      8  C   UNL     1      37.864   0.114 106.642  1.00  0.00     0.009 C 
ENDBRANCH   1   7
BRANCH   2   9
ATOM      9  O   UNL     1      38.912   1.949 110.444  1.00  0.00    -0.508 OA
ATOM     10  H   UNL     1      39.914   1.835 110.542  1.00  0.00     0.293 HD
ENDBRANCH   2   9
BRANCH   4  11
ATOM     11  O   UNL     1      35.838  -1.102 112.588  1.00  0.00    -0.508 OA
ATOM     12  H   UNL     1      35.158  -0.513 113.054  1.00  0.00     0.293 HD
ENDBRANCH   4  11
TORSDOF 3
ENDMDL
MODEL 9
REMARK VINA RESULT:    -4.841      9.067     11.138
REMARK INTER + INTRA:          -5.494
REMARK INTER:                  -5.408
REMARK INTRA:                  -0.086
REMARK UNBOUND:                -0.086
REMARK SMILES CCc1ccc(O)cc1O
REMARK SMILES IDX 3 1 9 2 8 3 6 4 5 5 4 6 2 7 1 8 10 9 7 11
REMARK H PARENT 10 10 7 12
REMARK Flexibility Score: inf
ROOT
ATOM      1  C   UNL     1      37.708  -7.567 104.044  1.00  0.00    -0.006 A 
ATOM      2  C   UNL     1      37.694  -7.811 102.655  1.00  0.00     0.122 A 
ATOM      3  C   UNL     1      37.333  -6.785 101.770  1.00  0.00     0.092 A 
ATOM      4  C   UNL     1      36.975  -5.524 102.256  1.00  0.00     0.119 A 
ATOM      5  C   UNL     1      36.974  -5.284 103.635  1.00  0.00     0.047 A 
ATOM      6  C   UNL     1      37.334  -6.300 104.524  1.00  0.00     0.011 A 
ENDROOT
BRANCH   1   7
ATOM      7  C   UNL     1      38.064  -8.660 105.020  1.00  0.00     0.036 C 
ATOM      8  C   UNL     1      37.831  -8.199 106.455  1.00  0.00     0.009 C 
ENDBRANCH   1   7
BRANCH   2   9
ATOM      9  O   UNL     1      38.035  -9.069 102.160  1.00  0.00    -0.508 OA
ATOM     10  H   UNL     1      37.578  -9.911 102.488  1.00  0.00     0.293 HD
ENDBRANCH   2   9
BRANCH   4  11
ATOM     11  O   UNL     1      36.619  -4.518 101.361  1.00  0.00    -0.508 OA
ATOM     12  H   UNL     1      36.143  -3.677 101.669  1.00  0.00     0.293 HD
ENDBRANCH   4  11
TORSDOF 3
ENDMDL
