MODEL 1
REMARK VINA RESULT:    -3.493      0.000      0.000
REMARK INTER + INTRA:         -10.621
REMARK INTER:                  -7.577
REMARK INTRA:                  -3.044
REMARK UNBOUND:                -3.044
REMARK SMILES CCCCCCCCCCCCCCCCCCCCCC(=O)[O-]
REMARK SMILES IDX 12 1 11 2 10 3 9 4 8 5 7 6 6 7 5 8 4 9 3 10 2 11 1 12 13 13
REMARK SMILES IDX 14 14 15 15 16 16 17 17 18 18 19 19 20 20 21 21 22 22 23 23
REMARK SMILES IDX 24 24
REMARK H PARENT
REMARK Flexibility Score: inf
ROOT
ATOM      1  C   UNL     1      10.858  43.821 152.086  1.00  0.00     0.000 C 
ENDROOT
BRANCH   1   2
ATOM      2  C   UNL     1      11.855  44.001 153.245  1.00  0.00     0.000 C 
BRANCH   2   3
ATOM      3  C   UNL     1      11.884  42.793 154.195  1.00  0.00     0.000 C 
BRANCH   3   4
ATOM      4  C   UNL     1      10.481  42.222 154.465  1.00  0.00    -0.000 C 
BRANCH   4   5
ATOM      5  C   UNL     1       9.944  42.612 155.853  1.00  0.00    -0.000 C 
BRANCH   5   6
ATOM      6  C   UNL     1       8.461  43.007 155.824  1.00  0.00    -0.000 C 
BRANCH   6   7
ATOM      7  C   UNL     1       8.261  44.429 156.370  1.00  0.00    -0.000 C 
BRANCH   7   8
ATOM      8  C   UNL     1       9.059  45.482 155.586  1.00  0.00    -0.000 C 
BRANCH   8   9
ATOM      9  C   UNL     1       8.354  45.911 154.286  1.00  0.00    -0.000 C 
BRANCH   9  10
ATOM     10  C   UNL     1       9.125  47.006 153.530  1.00  0.00    -0.000 C 
BRANCH  10  11
ATOM     11  C   UNL     1      10.286  47.584 154.353  1.00  0.00    -0.003 C 
ATOM     12  C   UNL     1      10.089  49.077 154.606  1.00  0.00     0.004 C 
ENDBRANCH  10  11
ENDBRANCH   9  10
ENDBRANCH   8   9
ENDBRANCH   7   8
ENDBRANCH   6   7
ENDBRANCH   5   6
ENDBRANCH   4   5
ENDBRANCH   3   4
ENDBRANCH   2   3
ENDBRANCH   1   2
BRANCH   1  13
ATOM     13  C   UNL     1      11.545  43.819 150.712  1.00  0.00     0.000 C 
BRANCH  13  14
ATOM     14  C   UNL     1      12.578  42.690 150.568  1.00  0.00     0.000 C 
BRANCH  14  15
ATOM     15  C   UNL     1      11.889  41.357 150.240  1.00  0.00     0.000 C 
BRANCH  15  16
ATOM     16  C   UNL     1      12.024  40.321 151.369  1.00  0.00     0.000 C 
BRANCH  16  17
ATOM     17  C   UNL     1      10.693  39.724 151.863  1.00  0.00     0.000 C 
BRANCH  17  18
ATOM     18  C   UNL     1       9.443  40.412 151.274  1.00  0.00     0.000 C 
BRANCH  18  19
ATOM     19  C   UNL     1       8.461  39.407 150.652  1.00  0.00     0.000 C 
BRANCH  19  20
ATOM     20  C   UNL     1       9.141  38.575 149.559  1.00  0.00     0.006 C 
BRANCH  20  21
ATOM     21  C   UNL     1       8.324  37.321 149.236  1.00  0.00     0.053 C 
BRANCH  21  22
ATOM     22  C   UNL     1       9.064  36.090 149.655  1.00  0.00     0.041 C 
ATOM     23  O   UNL     1       8.472  34.980 149.701  1.00  0.00    -0.550 OA
ATOM     24  O   UNL     1      10.395  36.177 150.043  1.00  0.00    -0.550 OA
ENDBRANCH  21  22
ENDBRANCH  20  21
ENDBRANCH  19  20
ENDBRANCH  18  19
ENDBRANCH  17  18
ENDBRANCH  16  17
ENDBRANCH  15  16
ENDBRANCH  14  15
ENDBRANCH  13  14
ENDBRANCH   1  13
TORSDOF 20
ENDMDL
MODEL 2
REMARK VINA RESULT:    -3.469      2.436      3.181
REMARK INTER + INTRA:         -10.568
REMARK INTER:                  -6.154
REMARK INTRA:                  -4.414
REMARK UNBOUND:                -3.044
REMARK SMILES CCCCCCCCCCCCCCCCCCCCCC(=O)[O-]
REMARK SMILES IDX 12 1 11 2 10 3 9 4 8 5 7 6 6 7 5 8 4 9 3 10 2 11 1 12 13 13
REMARK SMILES IDX 14 14 15 15 16 16 17 17 18 18 19 19 20 20 21 21 22 22 23 23
REMARK SMILES IDX 24 24
REMARK H PARENT
REMARK Flexibility Score: inf
ROOT
ATOM      1  C   UNL     1      12.188  43.217 152.204  1.00  0.00     0.000 C 
ENDROOT
BRANCH   1   2
ATOM      2  C   UNL     1      12.161  42.749 153.670  1.00  0.00     0.000 C 
BRANCH   2   3
ATOM      3  C   UNL     1      10.940  43.277 154.439  1.00  0.00     0.000 C 
BRANCH   3   4
ATOM      4  C   UNL     1      10.527  42.352 155.597  1.00  0.00    -0.000 C 
BRANCH   4   5
ATOM      5  C   UNL     1       9.413  42.959 156.467  1.00  0.00    -0.000 C 
BRANCH   5   6
ATOM      6  C   UNL     1       8.620  44.050 155.735  1.00  0.00    -0.000 C 
BRANCH   6   7
ATOM      7  C   UNL     1       8.726  45.394 156.471  1.00  0.00    -0.000 C 
BRANCH   7   8
ATOM      8  C   UNL     1       9.005  46.570 155.521  1.00  0.00    -0.000 C 
BRANCH   8   9
ATOM      9  C   UNL     1       8.592  46.268 154.069  1.00  0.00    -0.000 C 
BRANCH   9  10
ATOM     10  C   UNL     1       9.773  46.348 153.090  1.00  0.00    -0.000 C 
BRANCH  10  11
ATOM     11  C   UNL     1       9.323  46.577 151.639  1.00  0.00    -0.003 C 
ATOM     12  C   UNL     1      10.391  46.111 150.653  1.00  0.00     0.004 C 
ENDBRANCH  10  11
ENDBRANCH   9  10
ENDBRANCH   8   9
ENDBRANCH   7   8
ENDBRANCH   6   7
ENDBRANCH   5   6
ENDBRANCH   4   5
ENDBRANCH   3   4
ENDBRANCH   2   3
ENDBRANCH   1   2
BRANCH   1  13
ATOM     13  C   UNL     1      11.961  42.066 151.212  1.00  0.00     0.000 C 
BRANCH  13  14
ATOM     14  C   UNL     1      11.970  40.689 151.893  1.00  0.00     0.000 C 
BRANCH  14  15
ATOM     15  C   UNL     1      10.634  39.963 151.677  1.00  0.00     0.000 C 
BRANCH  15  16
ATOM     16  C   UNL     1       9.675  40.110 152.870  1.00  0.00     0.000 C 
BRANCH  16  17
ATOM     17  C   UNL     1       8.234  40.507 152.498  1.00  0.00     0.000 C 
BRANCH  17  18
ATOM     18  C   UNL     1       7.828  41.914 152.986  1.00  0.00     0.000 C 
BRANCH  18  19
ATOM     19  C   UNL     1       8.273  43.019 152.016  1.00  0.00     0.000 C 
BRANCH  19  20
ATOM     20  C   UNL     1       7.743  42.759 150.601  1.00  0.00     0.006 C 
BRANCH  20  21
ATOM     21  C   UNL     1       8.873  42.833 149.571  1.00  0.00     0.053 C 
BRANCH  21  22
ATOM     22  C   UNL     1       9.008  41.530 148.846  1.00  0.00     0.041 C 
ATOM     23  O   UNL     1       8.101  40.660 148.933  1.00  0.00    -0.550 OA
ATOM     24  O   UNL     1      10.157  41.257 148.116  1.00  0.00    -0.550 OA
ENDBRANCH  21  22
ENDBRANCH  20  21
ENDBRANCH  19  20
ENDBRANCH  18  19
ENDBRANCH  17  18
ENDBRANCH  16  17
ENDBRANCH  15  16
ENDBRANCH  14  15
ENDBRANCH  13  14
ENDBRANCH   1  13
TORSDOF 20
ENDMDL
MODEL 3
REMARK VINA RESULT:    -3.406      4.128      7.476
REMARK INTER + INTRA:         -10.433
REMARK INTER:                  -6.466
REMARK INTRA:                  -3.966
REMARK UNBOUND:                -3.044
REMARK SMILES CCCCCCCCCCCCCCCCCCCCCC(=O)[O-]
REMARK SMILES IDX 12 1 11 2 10 3 9 4 8 5 7 6 6 7 5 8 4 9 3 10 2 11 1 12 13 13
REMARK SMILES IDX 14 14 15 15 16 16 17 17 18 18 19 19 20 20 21 21 22 22 23 23
REMARK SMILES IDX 24 24
REMARK H PARENT
REMARK Flexibility Score: inf
ROOT
ATOM      1  C   UNL     1      12.174  42.731 153.716  1.00  0.00     0.000 C 
ENDROOT
BRANCH   1   2
ATOM      2  C   UNL     1      12.113  43.284 152.280  1.00  0.00     0.000 C 
BRANCH   2   3
ATOM      3  C   UNL     1      11.957  42.178 151.225  1.00  0.00     0.000 C 
BRANCH   3   4
ATOM      4  C   UNL     1      12.002  40.768 151.839  1.00  0.00    -0.000 C 
BRANCH   4   5
ATOM      5  C   UNL     1      10.702  39.981 151.602  1.00  0.00    -0.000 C 
BRANCH   5   6
ATOM      6  C   UNL     1       9.689  40.155 152.742  1.00  0.00    -0.000 C 
BRANCH   6   7
ATOM      7  C   UNL     1       8.303  40.528 152.194  1.00  0.00    -0.000 C 
BRANCH   7   8
ATOM      8  C   UNL     1       8.267  41.938 151.585  1.00  0.00    -0.000 C 
BRANCH   8   9
ATOM      9  C   UNL     1       7.839  43.012 152.603  1.00  0.00    -0.000 C 
BRANCH   9  10
ATOM     10  C   UNL     1       8.521  44.366 152.355  1.00  0.00    -0.000 C 
BRANCH  10  11
ATOM     11  C   UNL     1       8.842  44.602 150.871  1.00  0.00    -0.003 C 
ATOM     12  C   UNL     1       9.902  45.689 150.704  1.00  0.00     0.004 C 
ENDBRANCH  10  11
ENDBRANCH   9  10
ENDBRANCH   8   9
ENDBRANCH   7   8
ENDBRANCH   6   7
ENDBRANCH   5   6
ENDBRANCH   4   5
ENDBRANCH   3   4
ENDBRANCH   2   3
ENDBRANCH   1   2
BRANCH   1  13
ATOM     13  C   UNL     1      10.991  43.197 154.579  1.00  0.00     0.000 C 
BRANCH  13  14
ATOM     14  C   UNL     1      10.484  42.099 155.527  1.00  0.00     0.000 C 
BRANCH  14  15
ATOM     15  C   UNL     1       9.693  42.708 156.694  1.00  0.00     0.000 C 
BRANCH  15  16
ATOM     16  C   UNL     1       8.494  43.551 156.229  1.00  0.00     0.000 C 
BRANCH  16  17
ATOM     17  C   UNL     1       8.462  44.990 156.778  1.00  0.00     0.000 C 
BRANCH  17  18
ATOM     18  C   UNL     1       8.387  46.076 155.683  1.00  0.00     0.000 C 
BRANCH  18  19
ATOM     19  C   UNL     1       9.686  46.889 155.576  1.00  0.00     0.000 C 
BRANCH  19  20
ATOM     20  C   UNL     1      10.011  47.222 154.116  1.00  0.00     0.006 C 
BRANCH  20  21
ATOM     21  C   UNL     1       9.727  48.696 153.814  1.00  0.00     0.053 C 
BRANCH  21  22
ATOM     22  C   UNL     1       8.425  48.842 153.091  1.00  0.00     0.041 C 
ATOM     23  O   UNL     1       7.884  47.840 152.552  1.00  0.00    -0.550 OA
ATOM     24  O   UNL     1       7.833  50.092 152.969  1.00  0.00    -0.550 OA
ENDBRANCH  21  22
ENDBRANCH  20  21
ENDBRANCH  19  20
ENDBRANCH  18  19
ENDBRANCH  17  18
ENDBRANCH  16  17
ENDBRANCH  15  16
ENDBRANCH  14  15
ENDBRANCH  13  14
ENDBRANCH   1  13
TORSDOF 20
ENDMDL
MODEL 4
REMARK VINA RESULT:    -3.380      3.209      4.329
REMARK INTER + INTRA:         -10.375
REMARK INTER:                  -7.050
REMARK INTRA:                  -3.325
REMARK UNBOUND:                -3.044
REMARK SMILES CCCCCCCCCCCCCCCCCCCCCC(=O)[O-]
REMARK SMILES IDX 12 1 11 2 10 3 9 4 8 5 7 6 6 7 5 8 4 9 3 10 2 11 1 12 13 13
REMARK SMILES IDX 14 14 15 15 16 16 17 17 18 18 19 19 20 20 21 21 22 22 23 23
REMARK SMILES IDX 24 24
REMARK H PARENT
REMARK Flexibility Score: inf
ROOT
ATOM      1  C   UNL     1      12.710  43.147 149.665  1.00  0.00     0.000 C 
ENDROOT
BRANCH   1   2
ATOM      2  C   UNL     1      13.125  43.861 150.964  1.00  0.00     0.000 C 
BRANCH   2   3
ATOM      3  C   UNL     1      11.985  43.932 151.992  1.00  0.00     0.000 C 
BRANCH   3   4
ATOM      4  C   UNL     1      12.495  43.873 153.443  1.00  0.00    -0.000 C 
BRANCH   4   5
ATOM      5  C   UNL     1      11.873  42.713 154.239  1.00  0.00    -0.000 C 
BRANCH   5   6
ATOM      6  C   UNL     1      10.343  42.809 154.326  1.00  0.00    -0.000 C 
BRANCH   6   7
ATOM      7  C   UNL     1       9.847  42.404 155.722  1.00  0.00    -0.000 C 
BRANCH   7   8
ATOM      8  C   UNL     1       9.066  43.528 156.422  1.00  0.00    -0.000 C 
BRANCH   8   9
ATOM      9  C   UNL     1       8.806  44.732 155.497  1.00  0.00    -0.000 C 
BRANCH   9  10
ATOM     10  C   UNL     1       9.076  46.077 156.189  1.00  0.00    -0.000 C 
BRANCH  10  11
ATOM     11  C   UNL     1       9.581  47.151 155.213  1.00  0.00    -0.003 C 
ATOM     12  C   UNL     1       9.867  46.552 153.838  1.00  0.00     0.004 C 
ENDBRANCH  10  11
ENDBRANCH   9  10
ENDBRANCH   8   9
ENDBRANCH   7   8
ENDBRANCH   6   7
ENDBRANCH   5   6
ENDBRANCH   4   5
ENDBRANCH   3   4
ENDBRANCH   2   3
ENDBRANCH   1   2
BRANCH   1  13
ATOM     13  C   UNL     1      11.424  42.324 149.829  1.00  0.00     0.000 C 
BRANCH  13  14
ATOM     14  C   UNL     1      11.678  40.810 149.762  1.00  0.00     0.000 C 
BRANCH  14  15
ATOM     15  C   UNL     1      11.994  40.246 151.154  1.00  0.00     0.000 C 
BRANCH  15  16
ATOM     16  C   UNL     1      10.731  39.956 151.982  1.00  0.00     0.000 C 
BRANCH  16  17
ATOM     17  C   UNL     1       9.503  39.522 151.159  1.00  0.00     0.000 C 
BRANCH  17  18
ATOM     18  C   UNL     1       8.190  40.213 151.587  1.00  0.00     0.000 C 
BRANCH  18  19
ATOM     19  C   UNL     1       8.022  40.253 153.114  1.00  0.00     0.000 C 
BRANCH  19  20
ATOM     20  C   UNL     1       6.603  40.681 153.502  1.00  0.00     0.006 C 
BRANCH  20  21
ATOM     21  C   UNL     1       6.574  42.145 153.947  1.00  0.00     0.053 C 
BRANCH  21  22
ATOM     22  C   UNL     1       5.601  42.335 155.068  1.00  0.00     0.041 C 
ATOM     23  O   UNL     1       4.927  41.359 155.493  1.00  0.00    -0.550 OA
ATOM     24  O   UNL     1       5.400  43.598 155.609  1.00  0.00    -0.550 OA
ENDBRANCH  21  22
ENDBRANCH  20  21
ENDBRANCH  19  20
ENDBRANCH  18  19
ENDBRANCH  17  18
ENDBRANCH  16  17
ENDBRANCH  15  16
ENDBRANCH  14  15
ENDBRANCH  13  14
ENDBRANCH   1  13
TORSDOF 20
ENDMDL
MODEL 5
REMARK VINA RESULT:    -3.356      2.265      4.523
REMARK INTER + INTRA:         -10.323
REMARK INTER:                  -6.357
REMARK INTRA:                  -3.966
REMARK UNBOUND:                -3.044
REMARK SMILES CCCCCCCCCCCCCCCCCCCCCC(=O)[O-]
REMARK SMILES IDX 12 1 11 2 10 3 9 4 8 5 7 6 6 7 5 8 4 9 3 10 2 11 1 12 13 13
REMARK SMILES IDX 14 14 15 15 16 16 17 17 18 18 19 19 20 20 21 21 22 22 23 23
REMARK SMILES IDX 24 24
REMARK H PARENT
REMARK Flexibility Score: inf
ROOT
ATOM      1  C   UNL     1       9.378  42.978 156.325  1.00  0.00     0.000 C 
ENDROOT
BRANCH   1   2
ATOM      2  C   UNL     1       8.101  43.392 155.571  1.00  0.00     0.000 C 
BRANCH   2   3
ATOM      3  C   UNL     1       7.628  44.807 155.939  1.00  0.00     0.000 C 
BRANCH   3   4
ATOM      4  C   UNL     1       8.706  45.614 156.683  1.00  0.00    -0.000 C 
BRANCH   4   5
ATOM      5  C   UNL     1       9.026  46.949 155.989  1.00  0.00    -0.000 C 
BRANCH   5   6
ATOM      6  C   UNL     1      10.096  46.806 154.897  1.00  0.00    -0.000 C 
BRANCH   6   7
ATOM      7  C   UNL     1       9.984  47.939 153.866  1.00  0.00    -0.000 C 
BRANCH   7   8
ATOM      8  C   UNL     1       9.277  47.497 152.575  1.00  0.00    -0.000 C 
BRANCH   8   9
ATOM      9  C   UNL     1       9.381  45.979 152.334  1.00  0.00    -0.000 C 
BRANCH   9  10
ATOM     10  C   UNL     1       8.006  45.295 152.281  1.00  0.00    -0.000 C 
BRANCH  10  11
ATOM     11  C   UNL     1       8.103  43.802 151.931  1.00  0.00    -0.003 C 
ATOM     12  C   UNL     1       6.726  43.220 151.620  1.00  0.00     0.004 C 
ENDBRANCH  10  11
ENDBRANCH   9  10
ENDBRANCH   8   9
ENDBRANCH   7   8
ENDBRANCH   6   7
ENDBRANCH   5   6
ENDBRANCH   4   5
ENDBRANCH   3   4
ENDBRANCH   2   3
ENDBRANCH   1   2
BRANCH   1  13
ATOM     13  C   UNL     1      10.396  42.269 155.418  1.00  0.00     0.000 C 
BRANCH  13  14
ATOM     14  C   UNL     1      10.873  43.157 154.259  1.00  0.00     0.000 C 
BRANCH  14  15
ATOM     15  C   UNL     1      12.400  43.091 154.112  1.00  0.00     0.000 C 
BRANCH  15  16
ATOM     16  C   UNL     1      12.907  43.770 152.828  1.00  0.00     0.000 C 
BRANCH  16  17
ATOM     17  C   UNL     1      12.029  43.537 151.583  1.00  0.00     0.000 C 
BRANCH  17  18
ATOM     18  C   UNL     1      12.644  42.558 150.560  1.00  0.00     0.000 C 
BRANCH  18  19
ATOM     19  C   UNL     1      11.999  41.164 150.626  1.00  0.00     0.000 C 
BRANCH  19  20
ATOM     20  C   UNL     1      10.526  41.257 151.037  1.00  0.00     0.006 C 
BRANCH  20  21
ATOM     21  C   UNL     1      10.181  40.194 152.083  1.00  0.00     0.053 C 
BRANCH  21  22
ATOM     22  C   UNL     1       8.705  40.161 152.331  1.00  0.00     0.041 C 
ATOM     23  O   UNL     1       8.253  40.345 153.491  1.00  0.00    -0.550 OA
ATOM     24  O   UNL     1       7.832  39.876 151.289  1.00  0.00    -0.550 OA
ENDBRANCH  21  22
ENDBRANCH  20  21
ENDBRANCH  19  20
ENDBRANCH  18  19
ENDBRANCH  17  18
ENDBRANCH  16  17
ENDBRANCH  15  16
ENDBRANCH  14  15
ENDBRANCH  13  14
ENDBRANCH   1  13
TORSDOF 20
ENDMDL
MODEL 6
REMARK VINA RESULT:    -3.354      2.809      6.267
REMARK INTER + INTRA:         -10.318
REMARK INTER:                  -6.536
REMARK INTRA:                  -3.783
REMARK UNBOUND:                -3.044
REMARK SMILES CCCCCCCCCCCCCCCCCCCCCC(=O)[O-]
REMARK SMILES IDX 12 1 11 2 10 3 9 4 8 5 7 6 6 7 5 8 4 9 3 10 2 11 1 12 13 13
REMARK SMILES IDX 14 14 15 15 16 16 17 17 18 18 19 19 20 20 21 21 22 22 23 23
REMARK SMILES IDX 24 24
REMARK H PARENT
REMARK Flexibility Score: inf
ROOT
ATOM      1  C   UNL     1       8.722  45.118 156.283  1.00  0.00     0.000 C 
ENDROOT
BRANCH   1   2
ATOM      2  C   UNL     1       8.600  43.756 155.577  1.00  0.00     0.000 C 
BRANCH   2   3
ATOM      3  C   UNL     1       9.720  42.780 155.971  1.00  0.00     0.000 C 
BRANCH   3   4
ATOM      4  C   UNL     1      10.326  42.056 154.757  1.00  0.00    -0.000 C 
BRANCH   4   5
ATOM      5  C   UNL     1      11.485  42.842 154.121  1.00  0.00    -0.000 C 
BRANCH   5   6
ATOM      6  C   UNL     1      11.928  42.256 152.773  1.00  0.00    -0.000 C 
BRANCH   6   7
ATOM      7  C   UNL     1      11.242  40.907 152.508  1.00  0.00    -0.000 C 
BRANCH   7   8
ATOM      8  C   UNL     1      11.960  40.078 151.432  1.00  0.00    -0.000 C 
BRANCH   8   9
ATOM      9  C   UNL     1      11.648  40.564 150.004  1.00  0.00    -0.000 C 
BRANCH   9  10
ATOM     10  C   UNL     1      11.074  39.451 149.113  1.00  0.00    -0.000 C 
BRANCH  10  11
ATOM     11  C   UNL     1      10.425  38.321 149.927  1.00  0.00    -0.003 C 
ATOM     12  C   UNL     1       8.905  38.457 149.939  1.00  0.00     0.004 C 
ENDBRANCH  10  11
ENDBRANCH   9  10
ENDBRANCH   8   9
ENDBRANCH   7   8
ENDBRANCH   6   7
ENDBRANCH   5   6
ENDBRANCH   4   5
ENDBRANCH   3   4
ENDBRANCH   2   3
ENDBRANCH   1   2
BRANCH   1  13
ATOM     13  C   UNL     1       8.749  46.295 155.296  1.00  0.00     0.000 C 
BRANCH  13  14
ATOM     14  C   UNL     1      10.003  46.294 154.408  1.00  0.00     0.000 C 
BRANCH  14  15
ATOM     15  C   UNL     1       9.633  46.533 152.937  1.00  0.00     0.000 C 
BRANCH  15  16
ATOM     16  C   UNL     1       9.929  45.319 152.041  1.00  0.00     0.000 C 
BRANCH  16  17
ATOM     17  C   UNL     1       8.760  44.328 151.885  1.00  0.00     0.000 C 
BRANCH  17  18
ATOM     18  C   UNL     1       8.898  43.385 150.670  1.00  0.00     0.000 C 
BRANCH  18  19
ATOM     19  C   UNL     1       8.274  42.005 150.929  1.00  0.00     0.000 C 
BRANCH  19  20
ATOM     20  C   UNL     1       7.720  41.908 152.354  1.00  0.00     0.006 C 
BRANCH  20  21
ATOM     21  C   UNL     1       6.928  40.612 152.548  1.00  0.00     0.053 C 
BRANCH  21  22
ATOM     22  C   UNL     1       6.007  40.730 153.722  1.00  0.00     0.041 C 
ATOM     23  O   UNL     1       5.442  39.707 154.189  1.00  0.00    -0.550 OA
ATOM     24  O   UNL     1       5.733  41.978 154.268  1.00  0.00    -0.550 OA
ENDBRANCH  21  22
ENDBRANCH  20  21
ENDBRANCH  19  20
ENDBRANCH  18  19
ENDBRANCH  17  18
ENDBRANCH  16  17
ENDBRANCH  15  16
ENDBRANCH  14  15
ENDBRANCH  13  14
ENDBRANCH   1  13
TORSDOF 20
ENDMDL
MODEL 7
REMARK VINA RESULT:    -3.353      2.752      3.965
REMARK INTER + INTRA:         -10.317
REMARK INTER:                  -6.316
REMARK INTRA:                  -4.001
REMARK UNBOUND:                -3.044
REMARK SMILES CCCCCCCCCCCCCCCCCCCCCC(=O)[O-]
REMARK SMILES IDX 12 1 11 2 10 3 9 4 8 5 7 6 6 7 5 8 4 9 3 10 2 11 1 12 13 13
REMARK SMILES IDX 14 14 15 15 16 16 17 17 18 18 19 19 20 20 21 21 22 22 23 23
REMARK SMILES IDX 24 24
REMARK H PARENT
REMARK Flexibility Score: inf
ROOT
ATOM      1  C   UNL     1      12.001  40.350 151.618  1.00  0.00     0.000 C 
ENDROOT
BRANCH   1   2
ATOM      2  C   UNL     1      11.152  41.269 152.516  1.00  0.00     0.000 C 
BRANCH   2   3
ATOM      3  C   UNL     1      11.955  42.451 153.081  1.00  0.00     0.000 C 
BRANCH   3   4
ATOM      4  C   UNL     1      11.484  42.865 154.486  1.00  0.00    -0.000 C 
BRANCH   4   5
ATOM      5  C   UNL     1      10.206  42.127 154.919  1.00  0.00    -0.000 C 
BRANCH   5   6
ATOM      6  C   UNL     1       9.072  43.087 155.308  1.00  0.00    -0.000 C 
BRANCH   6   7
ATOM      7  C   UNL     1       9.370  44.514 154.824  1.00  0.00    -0.000 C 
BRANCH   7   8
ATOM      8  C   UNL     1       8.214  45.118 154.012  1.00  0.00    -0.000 C 
BRANCH   8   9
ATOM      9  C   UNL     1       8.704  46.032 152.874  1.00  0.00    -0.000 C 
BRANCH   9  10
ATOM     10  C   UNL     1       9.921  45.454 152.135  1.00  0.00    -0.000 C 
BRANCH  10  11
ATOM     11  C   UNL     1       9.523  44.483 151.013  1.00  0.00    -0.003 C 
ATOM     12  C   UNL     1      10.697  44.222 150.072  1.00  0.00     0.004 C 
ENDBRANCH  10  11
ENDBRANCH   9  10
ENDBRANCH   8   9
ENDBRANCH   7   8
ENDBRANCH   6   7
ENDBRANCH   5   6
ENDBRANCH   4   5
ENDBRANCH   3   4
ENDBRANCH   2   3
ENDBRANCH   1   2
BRANCH   1  13
ATOM     13  C   UNL     1      11.971  40.775 150.142  1.00  0.00     0.000 C 
BRANCH  13  14
ATOM     14  C   UNL     1      11.534  39.636 149.207  1.00  0.00     0.000 C 
BRANCH  14  15
ATOM     15  C   UNL     1      11.402  38.315 149.979  1.00  0.00     0.000 C 
BRANCH  15  16
ATOM     16  C   UNL     1       9.961  37.777 150.000  1.00  0.00     0.000 C 
BRANCH  16  17
ATOM     17  C   UNL     1       8.887  38.783 149.543  1.00  0.00     0.000 C 
BRANCH  17  18
ATOM     18  C   UNL     1       8.113  39.441 150.706  1.00  0.00     0.000 C 
BRANCH  18  19
ATOM     19  C   UNL     1       8.138  40.976 150.628  1.00  0.00     0.000 C 
BRANCH  19  20
ATOM     20  C   UNL     1       7.526  41.603 151.886  1.00  0.00     0.006 C 
BRANCH  20  21
ATOM     21  C   UNL     1       7.394  40.568 153.006  1.00  0.00     0.053 C 
BRANCH  21  22
ATOM     22  C   UNL     1       6.078  40.714 153.703  1.00  0.00     0.041 C 
ATOM     23  O   UNL     1       5.162  39.872 153.510  1.00  0.00    -0.550 OA
ATOM     24  O   UNL     1       5.846  41.808 154.527  1.00  0.00    -0.550 OA
ENDBRANCH  21  22
ENDBRANCH  20  21
ENDBRANCH  19  20
ENDBRANCH  18  19
ENDBRANCH  17  18
ENDBRANCH  16  17
ENDBRANCH  15  16
ENDBRANCH  14  15
ENDBRANCH  13  14
ENDBRANCH   1  13
TORSDOF 20
ENDMDL
MODEL 8
REMARK VINA RESULT:    -3.309      3.310      5.625
REMARK INTER + INTRA:         -10.223
REMARK INTER:                  -5.779
REMARK INTRA:                  -4.444
REMARK UNBOUND:                -3.044
REMARK SMILES CCCCCCCCCCCCCCCCCCCCCC(=O)[O-]
REMARK SMILES IDX 12 1 11 2 10 3 9 4 8 5 7 6 6 7 5 8 4 9 3 10 2 11 1 12 13 13
REMARK SMILES IDX 14 14 15 15 16 16 17 17 18 18 19 19 20 20 21 21 22 22 23 23
REMARK SMILES IDX 24 24
REMARK H PARENT
REMARK Flexibility Score: inf
ROOT
ATOM      1  C   UNL     1      11.047  41.387 149.371  1.00  0.00     0.000 C 
ENDROOT
BRANCH   1   2
ATOM      2  C   UNL     1      12.172  40.459 149.865  1.00  0.00     0.000 C 
BRANCH   2   3
ATOM      3  C   UNL     1      11.895  39.883 151.262  1.00  0.00     0.000 C 
BRANCH   3   4
ATOM      4  C   UNL     1      10.409  39.549 151.478  1.00  0.00    -0.000 C 
BRANCH   4   5
ATOM      5  C   UNL     1       9.868  40.101 152.807  1.00  0.00    -0.000 C 
BRANCH   5   6
ATOM      6  C   UNL     1       8.755  41.140 152.607  1.00  0.00    -0.000 C 
BRANCH   6   7
ATOM      7  C   UNL     1       7.834  40.741 151.445  1.00  0.00    -0.000 C 
BRANCH   7   8
ATOM      8  C   UNL     1       7.572  41.902 150.472  1.00  0.00    -0.000 C 
BRANCH   8   9
ATOM      9  C   UNL     1       7.347  43.242 151.196  1.00  0.00    -0.000 C 
BRANCH   9  10
ATOM     10  C   UNL     1       8.138  44.396 150.561  1.00  0.00    -0.000 C 
BRANCH  10  11
ATOM     11  C   UNL     1       8.800  45.304 151.609  1.00  0.00    -0.003 C 
ATOM     12  C   UNL     1       9.832  46.225 150.962  1.00  0.00     0.004 C 
ENDBRANCH  10  11
ENDBRANCH   9  10
ENDBRANCH   8   9
ENDBRANCH   7   8
ENDBRANCH   6   7
ENDBRANCH   5   6
ENDBRANCH   4   5
ENDBRANCH   3   4
ENDBRANCH   2   3
ENDBRANCH   1   2
BRANCH   1  13
ATOM     13  C   UNL     1      11.303  42.862 149.718  1.00  0.00     0.000 C 
BRANCH  13  14
ATOM     14  C   UNL     1      12.781  43.149 150.024  1.00  0.00     0.000 C 
BRANCH  14  15
ATOM     15  C   UNL     1      12.932  43.843 151.386  1.00  0.00     0.000 C 
BRANCH  15  16
ATOM     16  C   UNL     1      11.830  43.448 152.384  1.00  0.00     0.000 C 
BRANCH  16  17
ATOM     17  C   UNL     1      12.339  42.824 153.697  1.00  0.00     0.000 C 
BRANCH  17  18
ATOM     18  C   UNL     1      11.271  42.754 154.810  1.00  0.00     0.000 C 
BRANCH  18  19
ATOM     19  C   UNL     1      10.141  43.773 154.598  1.00  0.00     0.000 C 
BRANCH  19  20
ATOM     20  C   UNL     1       8.960  43.491 155.534  1.00  0.00     0.006 C 
BRANCH  20  21
ATOM     21  C   UNL     1       7.634  43.878 154.876  1.00  0.00     0.053 C 
BRANCH  21  22
ATOM     22  C   UNL     1       6.532  42.982 155.348  1.00  0.00     0.041 C 
ATOM     23  O   UNL     1       5.968  42.195 154.544  1.00  0.00    -0.550 OA
ATOM     24  O   UNL     1       6.094  43.053 156.664  1.00  0.00    -0.550 OA
ENDBRANCH  21  22
ENDBRANCH  20  21
ENDBRANCH  19  20
ENDBRANCH  18  19
ENDBRANCH  17  18
ENDBRANCH  16  17
ENDBRANCH  15  16
ENDBRANCH  14  15
ENDBRANCH  13  14
ENDBRANCH   1  13
TORSDOF 20
ENDMDL
MODEL 9
REMARK VINA RESULT:    -3.273      4.204      7.272
REMARK INTER + INTRA:         -10.143
REMARK INTER:                  -6.400
REMARK INTRA:                  -3.743
REMARK UNBOUND:                -3.044
REMARK SMILES CCCCCCCCCCCCCCCCCCCCCC(=O)[O-]
REMARK SMILES IDX 12 1 11 2 10 3 9 4 8 5 7 6 6 7 5 8 4 9 3 10 2 11 1 12 13 13
REMARK SMILES IDX 14 14 15 15 16 16 17 17 18 18 19 19 20 20 21 21 22 22 23 23
REMARK SMILES IDX 24 24
REMARK H PARENT
REMARK Flexibility Score: inf
ROOT
ATOM      1  C   UNL     1      11.827  40.810 151.878  1.00  0.00     0.000 C 
ENDROOT
BRANCH   1   2
ATOM      2  C   UNL     1      10.483  40.178 152.281  1.00  0.00     0.000 C 
BRANCH   2   3
ATOM      3  C   UNL     1       9.532  39.994 151.088  1.00  0.00     0.000 C 
BRANCH   3   4
ATOM      4  C   UNL     1       8.512  41.139 150.966  1.00  0.00    -0.000 C 
BRANCH   4   5
ATOM      5  C   UNL     1       8.099  41.708 152.334  1.00  0.00    -0.000 C 
BRANCH   5   6
ATOM      6  C   UNL     1       7.692  43.187 152.261  1.00  0.00    -0.000 C 
BRANCH   6   7
ATOM      7  C   UNL     1       8.575  43.951 151.263  1.00  0.00    -0.000 C 
BRANCH   7   8
ATOM      8  C   UNL     1       8.928  45.366 151.749  1.00  0.00    -0.000 C 
BRANCH   8   9
ATOM      9  C   UNL     1       9.825  46.126 150.754  1.00  0.00    -0.000 C 
BRANCH   9  10
ATOM     10  C   UNL     1      10.637  45.183 149.852  1.00  0.00    -0.000 C 
BRANCH  10  11
ATOM     11  C   UNL     1      12.026  45.743 149.511  1.00  0.00    -0.003 C 
ATOM     12  C   UNL     1      13.120  44.725 149.826  1.00  0.00     0.004 C 
ENDBRANCH  10  11
ENDBRANCH   9  10
ENDBRANCH   8   9
ENDBRANCH   7   8
ENDBRANCH   6   7
ENDBRANCH   5   6
ENDBRANCH   4   5
ENDBRANCH   3   4
ENDBRANCH   2   3
ENDBRANCH   1   2
BRANCH   1  13
ATOM     13  C   UNL     1      11.845  42.334 152.071  1.00  0.00     0.000 C 
BRANCH  13  14
ATOM     14  C   UNL     1      12.121  42.742 153.526  1.00  0.00     0.000 C 
BRANCH  14  15
ATOM     15  C   UNL     1      10.904  43.452 154.136  1.00  0.00     0.000 C 
BRANCH  15  16
ATOM     16  C   UNL     1      10.261  42.655 155.284  1.00  0.00     0.000 C 
BRANCH  16  17
ATOM     17  C   UNL     1       8.998  43.297 155.890  1.00  0.00     0.000 C 
BRANCH  17  18
ATOM     18  C   UNL     1       8.800  44.777 155.498  1.00  0.00     0.000 C 
BRANCH  18  19
ATOM     19  C   UNL     1       8.941  45.723 156.701  1.00  0.00     0.000 C 
BRANCH  19  20
ATOM     20  C   UNL     1       9.436  47.105 156.262  1.00  0.00     0.006 C 
BRANCH  20  21
ATOM     21  C   UNL     1       9.991  47.062 154.836  1.00  0.00     0.053 C 
BRANCH  21  22
ATOM     22  C   UNL     1       9.825  48.390 154.168  1.00  0.00     0.041 C 
ATOM     23  O   UNL     1       8.995  48.529 153.231  1.00  0.00    -0.550 OA
ATOM     24  O   UNL     1      10.623  49.463 154.545  1.00  0.00    -0.550 OA
ENDBRANCH  21  22
ENDBRANCH  20  21
ENDBRANCH  19  20
ENDBRANCH  18  19
ENDBRANCH  17  18
ENDBRANCH  16  17
ENDBRANCH  15  16
ENDBRANCH  14  15
ENDBRANCH  13  14
ENDBRANCH   1  13
TORSDOF 20
ENDMDL
