MODEL 1
REMARK VINA RESULT:    -6.712      0.000      0.000
REMARK INTER + INTRA:          -8.066
REMARK INTER:                  -7.889
REMARK INTRA:                  -0.177
REMARK UNBOUND:                -0.177
REMARK SMILES O=c1c(O)c(-c2ccc(O)cc2)oc2cc(O)cc(O)c12
REMARK SMILES IDX 5 1 3 2 2 3 1 4 21 5 19 6 18 7 16 8 15 9 14 10 13 11 6 12
REMARK SMILES IDX 7 13 8 14 9 15 12 16 11 17 10 18 4 20 20 22 17 24
REMARK H PARENT 10 19 4 21 20 23 17 25
REMARK Flexibility Score: inf
ROOT
ATOM      1  C   UNL     1      31.174 -92.196  37.237  1.00  0.00     0.180 A 
ATOM      2  C   UNL     1      29.950 -92.806  36.912  1.00  0.00     0.208 A 
ATOM      3  C   UNL     1      29.811 -94.191  37.089  1.00  0.00     0.238 A 
ATOM      4  O   UNL     1      28.731 -94.739  36.746  1.00  0.00    -0.285 OA
ATOM      5  C   UNL     1      30.891 -94.948  37.604  1.00  0.00     0.111 A 
ATOM      6  C   UNL     1      30.847 -96.351  37.862  1.00  0.00     0.134 A 
ATOM      7  C   UNL     1      32.016 -97.018  38.249  1.00  0.00     0.093 A 
ATOM      8  C   UNL     1      33.210 -96.323  38.449  1.00  0.00     0.123 A 
ATOM      9  C   UNL     1      33.249 -94.943  38.257  1.00  0.00     0.094 A 
ATOM     10  C   UNL     1      32.107 -94.255  37.837  1.00  0.00     0.146 A 
ATOM     11  O   UNL     1      32.190 -92.943  37.656  1.00  0.00    -0.452 OA
ENDROOT
BRANCH   1  12
ATOM     12  C   UNL     1      31.389 -90.737  37.101  1.00  0.00     0.021 A 
ATOM     13  C   UNL     1      32.349 -90.262  36.192  1.00  0.00     0.016 A 
ATOM     14  C   UNL     1      32.583 -88.889  36.063  1.00  0.00     0.047 A 
ATOM     15  C   UNL     1      31.875 -87.977  36.852  1.00  0.00     0.115 A 
ATOM     16  C   UNL     1      30.694 -89.816  37.905  1.00  0.00     0.016 A 
ATOM     17  C   UNL     1      30.931 -88.444  37.775  1.00  0.00     0.047 A 
BRANCH  15  18
ATOM     18  O   UNL     1      32.119 -86.613  36.712  1.00  0.00    -0.508 OA
ATOM     19  H   UNL     1      32.072 -86.157  35.808  1.00  0.00     0.293 HD
ENDBRANCH  15  18
ENDBRANCH   1  12
BRANCH   2  20
ATOM     20  O   UNL     1      28.903 -92.043  36.384  1.00  0.00    -0.502 OA
ATOM     21  H   UNL     1      28.541 -91.221  36.851  1.00  0.00     0.293 HD
ENDBRANCH   2  20
BRANCH   6  22
ATOM     22  O   UNL     1      29.685 -97.124  37.782  1.00  0.00    -0.507 OA
ATOM     23  H   UNL     1      28.867 -96.878  37.244  1.00  0.00     0.293 HD
ENDBRANCH   6  22
BRANCH   8  24
ATOM     24  O   UNL     1      34.365 -96.992  38.849  1.00  0.00    -0.508 OA
ATOM     25  H   UNL     1      34.850 -96.747  39.704  1.00  0.00     0.293 HD
ENDBRANCH   8  24
TORSDOF 5
ENDMDL
MODEL 2
REMARK VINA RESULT:    -5.757      9.459     10.812
REMARK INTER + INTRA:          -6.944
REMARK INTER:                  -6.704
REMARK INTRA:                  -0.240
REMARK UNBOUND:                -0.177
REMARK SMILES O=c1c(O)c(-c2ccc(O)cc2)oc2cc(O)cc(O)c12
REMARK SMILES IDX 5 1 3 2 2 3 1 4 21 5 19 6 18 7 16 8 15 9 14 10 13 11 6 12
REMARK SMILES IDX 7 13 8 14 9 15 12 16 11 17 10 18 4 20 20 22 17 24
REMARK H PARENT 10 19 4 21 20 23 17 25
REMARK Flexibility Score: inf
ROOT
ATOM      1  C   UNL     1      36.484 -95.423  29.580  1.00  0.00     0.180 A 
ATOM      2  C   UNL     1      37.566 -95.752  28.745  1.00  0.00     0.208 A 
ATOM      3  C   UNL     1      38.861 -95.778  29.287  1.00  0.00     0.238 A 
ATOM      4  O   UNL     1      39.831 -96.020  28.522  1.00  0.00    -0.285 OA
ATOM      5  C   UNL     1      39.057 -95.491  30.659  1.00  0.00     0.111 A 
ATOM      6  C   UNL     1      40.320 -95.527  31.323  1.00  0.00     0.134 A 
ATOM      7  C   UNL     1      40.413 -95.099  32.653  1.00  0.00     0.093 A 
ATOM      8  C   UNL     1      39.279 -94.696  33.362  1.00  0.00     0.123 A 
ATOM      9  C   UNL     1      38.032 -94.714  32.741  1.00  0.00     0.094 A 
ATOM     10  C   UNL     1      37.912 -95.103  31.404  1.00  0.00     0.146 A 
ATOM     11  O   UNL     1      36.708 -95.094  30.847  1.00  0.00    -0.452 OA
ENDROOT
BRANCH   1  12
ATOM     12  C   UNL     1      35.087 -95.399  29.088  1.00  0.00     0.021 A 
ATOM     13  C   UNL     1      34.240 -96.486  29.359  1.00  0.00     0.016 A 
ATOM     14  C   UNL     1      32.924 -96.495  28.885  1.00  0.00     0.047 A 
ATOM     15  C   UNL     1      32.445 -95.425  28.122  1.00  0.00     0.115 A 
ATOM     16  C   UNL     1      34.605 -94.336  28.304  1.00  0.00     0.016 A 
ATOM     17  C   UNL     1      33.290 -94.346  27.830  1.00  0.00     0.047 A 
BRANCH  15  18
ATOM     18  O   UNL     1      31.132 -95.447  27.657  1.00  0.00    -0.508 OA
ATOM     19  H   UNL     1      30.396 -95.915  28.173  1.00  0.00     0.293 HD
ENDBRANCH  15  18
ENDBRANCH   1  12
BRANCH   2  20
ATOM     20  O   UNL     1      37.353 -96.010  27.387  1.00  0.00    -0.502 OA
ATOM     21  H   UNL     1      37.121 -95.281  26.725  1.00  0.00     0.293 HD
ENDBRANCH   2  20
BRANCH   6  22
ATOM     22  O   UNL     1      41.497 -95.999  30.735  1.00  0.00    -0.507 OA
ATOM     23  H   UNL     1      42.074 -95.469  30.098  1.00  0.00     0.293 HD
ENDBRANCH   6  22
BRANCH   8  24
ATOM     24  O   UNL     1      39.379 -94.286  34.689  1.00  0.00    -0.508 OA
ATOM     25  H   UNL     1      38.903 -93.457  35.025  1.00  0.00     0.293 HD
ENDBRANCH   8  24
TORSDOF 5
ENDMDL
MODEL 3
REMARK VINA RESULT:    -5.376      9.471     11.012
REMARK INTER + INTRA:          -6.496
REMARK INTER:                  -6.371
REMARK INTRA:                  -0.125
REMARK UNBOUND:                -0.177
REMARK SMILES O=c1c(O)c(-c2ccc(O)cc2)oc2cc(O)cc(O)c12
REMARK SMILES IDX 5 1 3 2 2 3 1 4 21 5 19 6 18 7 16 8 15 9 14 10 13 11 6 12
REMARK SMILES IDX 7 13 8 14 9 15 12 16 11 17 10 18 4 20 20 22 17 24
REMARK H PARENT 10 19 4 21 20 23 17 25
REMARK Flexibility Score: inf
ROOT
ATOM      1  C   UNL     1      37.736 -95.585  30.679  1.00  0.00     0.180 A 
ATOM      2  C   UNL     1      38.351 -96.280  29.623  1.00  0.00     0.208 A 
ATOM      3  C   UNL     1      37.647 -96.455  28.421  1.00  0.00     0.238 A 
ATOM      4  O   UNL     1      38.181 -97.125  27.499  1.00  0.00    -0.285 OA
ATOM      5  C   UNL     1      36.344 -95.918  28.283  1.00  0.00     0.111 A 
ATOM      6  C   UNL     1      35.555 -96.000  27.097  1.00  0.00     0.134 A 
ATOM      7  C   UNL     1      34.230 -95.547  27.117  1.00  0.00     0.093 A 
ATOM      8  C   UNL     1      33.687 -94.957  28.260  1.00  0.00     0.123 A 
ATOM      9  C   UNL     1      34.469 -94.818  29.405  1.00  0.00     0.094 A 
ATOM     10  C   UNL     1      35.783 -95.293  29.427  1.00  0.00     0.146 A 
ATOM     11  O   UNL     1      36.489 -95.151  30.542  1.00  0.00    -0.452 OA
ENDROOT
BRANCH   1  12
ATOM     12  C   UNL     1      38.425 -95.340  31.967  1.00  0.00     0.021 A 
ATOM     13  C   UNL     1      37.851 -95.814  33.159  1.00  0.00     0.016 A 
ATOM     14  C   UNL     1      38.472 -95.575  34.389  1.00  0.00     0.047 A 
ATOM     15  C   UNL     1      39.664 -94.846  34.444  1.00  0.00     0.115 A 
ATOM     16  C   UNL     1      39.613 -94.591  32.032  1.00  0.00     0.016 A 
ATOM     17  C   UNL     1      40.232 -94.352  33.263  1.00  0.00     0.047 A 
BRANCH  15  18
ATOM     18  O   UNL     1      40.271 -94.616  35.677  1.00  0.00    -0.508 OA
ATOM     19  H   UNL     1      41.084 -95.144  35.973  1.00  0.00     0.293 HD
ENDBRANCH  15  18
ENDBRANCH   1  12
BRANCH   2  20
ATOM     20  O   UNL     1      39.630 -96.822  29.788  1.00  0.00    -0.502 OA
ATOM     21  H   UNL     1      40.467 -96.253  29.769  1.00  0.00     0.293 HD
ENDBRANCH   2  20
BRANCH   6  22
ATOM     22  O   UNL     1      36.030 -96.486  25.876  1.00  0.00    -0.507 OA
ATOM     23  H   UNL     1      36.955 -96.864  25.728  1.00  0.00     0.293 HD
ENDBRANCH   6  22
BRANCH   8  24
ATOM     24  O   UNL     1      32.373 -94.494  28.266  1.00  0.00    -0.508 OA
ATOM     25  H   UNL     1      31.962 -94.056  27.450  1.00  0.00     0.293 HD
ENDBRANCH   8  24
TORSDOF 5
ENDMDL
MODEL 4
REMARK VINA RESULT:    -5.263      7.693     10.225
REMARK INTER + INTRA:          -6.363
REMARK INTER:                  -6.117
REMARK INTRA:                  -0.246
REMARK UNBOUND:                -0.177
REMARK SMILES O=c1c(O)c(-c2ccc(O)cc2)oc2cc(O)cc(O)c12
REMARK SMILES IDX 5 1 3 2 2 3 1 4 21 5 19 6 18 7 16 8 15 9 14 10 13 11 6 12
REMARK SMILES IDX 7 13 8 14 9 15 12 16 11 17 10 18 4 20 20 22 17 24
REMARK H PARENT 10 19 4 21 20 23 17 25
REMARK Flexibility Score: inf
ROOT
ATOM      1  C   UNL     1      40.071 -95.562  35.206  1.00  0.00     0.180 A 
ATOM      2  C   UNL     1      41.101 -95.164  36.077  1.00  0.00     0.208 A 
ATOM      3  C   UNL     1      40.906 -95.283  37.462  1.00  0.00     0.238 A 
ATOM      4  O   UNL     1      41.810 -94.875  38.237  1.00  0.00    -0.285 OA
ATOM      5  C   UNL     1      39.691 -95.814  37.960  1.00  0.00     0.111 A 
ATOM      6  C   UNL     1      39.402 -96.018  39.342  1.00  0.00     0.134 A 
ATOM      7  C   UNL     1      38.119 -96.427  39.725  1.00  0.00     0.093 A 
ATOM      8  C   UNL     1      37.135 -96.703  38.773  1.00  0.00     0.123 A 
ATOM      9  C   UNL     1      37.426 -96.564  37.418  1.00  0.00     0.094 A 
ATOM     10  C   UNL     1      38.687 -96.123  37.006  1.00  0.00     0.146 A 
ATOM     11  O   UNL     1      38.919 -95.993  35.705  1.00  0.00    -0.452 OA
ENDROOT
BRANCH   1  12
ATOM     12  C   UNL     1      40.212 -95.489  33.734  1.00  0.00     0.021 A 
ATOM     13  C   UNL     1      39.500 -94.511  33.019  1.00  0.00     0.016 A 
ATOM     14  C   UNL     1      39.601 -94.438  31.626  1.00  0.00     0.047 A 
ATOM     15  C   UNL     1      40.401 -95.350  30.930  1.00  0.00     0.115 A 
ATOM     16  C   UNL     1      40.999 -96.415  33.026  1.00  0.00     0.016 A 
ATOM     17  C   UNL     1      41.098 -96.341  31.634  1.00  0.00     0.047 A 
BRANCH  15  18
ATOM     18  O   UNL     1      40.492 -95.265  29.542  1.00  0.00    -0.508 OA
ATOM     19  H   UNL     1      39.892 -94.646  29.010  1.00  0.00     0.293 HD
ENDBRANCH  15  18
ENDBRANCH   1  12
BRANCH   2  20
ATOM     20  O   UNL     1      42.284 -94.621  35.565  1.00  0.00    -0.502 OA
ATOM     21  H   UNL     1      42.292 -93.816  34.952  1.00  0.00     0.293 HD
ENDBRANCH   2  20
BRANCH   6  22
ATOM     22  O   UNL     1      40.339 -95.861  40.367  1.00  0.00    -0.507 OA
ATOM     23  H   UNL     1      41.075 -96.519  40.579  1.00  0.00     0.293 HD
ENDBRANCH   6  22
BRANCH   8  24
ATOM     24  O   UNL     1      35.866 -97.125  39.162  1.00  0.00    -0.508 OA
ATOM     25  H   UNL     1      35.695 -98.076  39.467  1.00  0.00     0.293 HD
ENDBRANCH   8  24
TORSDOF 5
ENDMDL
MODEL 5
REMARK VINA RESULT:    -5.110     15.654     17.185
REMARK INTER + INTRA:          -6.183
REMARK INTER:                  -6.054
REMARK INTRA:                  -0.129
REMARK UNBOUND:                -0.177
REMARK SMILES O=c1c(O)c(-c2ccc(O)cc2)oc2cc(O)cc(O)c12
REMARK SMILES IDX 5 1 3 2 2 3 1 4 21 5 19 6 18 7 16 8 15 9 14 10 13 11 6 12
REMARK SMILES IDX 7 13 8 14 9 15 12 16 11 17 10 18 4 20 20 22 17 24
REMARK H PARENT 10 19 4 21 20 23 17 25
REMARK Flexibility Score: inf
ROOT
ATOM      1  C   UNL     1      38.769 -78.402  37.896  1.00  0.00     0.180 A 
ATOM      2  C   UNL     1      39.128 -79.204  38.993  1.00  0.00     0.208 A 
ATOM      3  C   UNL     1      40.482 -79.511  39.198  1.00  0.00     0.238 A 
ATOM      4  O   UNL     1      40.793 -80.274  40.150  1.00  0.00    -0.285 OA
ATOM      5  C   UNL     1      41.463 -79.001  38.312  1.00  0.00     0.111 A 
ATOM      6  C   UNL     1      42.867 -79.215  38.446  1.00  0.00     0.134 A 
ATOM      7  C   UNL     1      43.733 -78.772  37.439  1.00  0.00     0.093 A 
ATOM      8  C   UNL     1      43.251 -78.065  36.335  1.00  0.00     0.123 A 
ATOM      9  C   UNL     1      41.888 -77.799  36.224  1.00  0.00     0.094 A 
ATOM     10  C   UNL     1      40.995 -78.260  37.196  1.00  0.00     0.146 A 
ATOM     11  O   UNL     1      39.704 -77.994  37.046  1.00  0.00    -0.452 OA
ENDROOT
BRANCH   1  12
ATOM     12  C   UNL     1      37.364 -78.015  37.630  1.00  0.00     0.021 A 
ATOM     13  C   UNL     1      36.770 -78.368  36.407  1.00  0.00     0.016 A 
ATOM     14  C   UNL     1      35.452 -77.994  36.125  1.00  0.00     0.047 A 
ATOM     15  C   UNL     1      34.719 -77.249  37.054  1.00  0.00     0.115 A 
ATOM     16  C   UNL     1      36.628 -77.249  38.551  1.00  0.00     0.016 A 
ATOM     17  C   UNL     1      35.311 -76.875  38.267  1.00  0.00     0.047 A 
BRANCH  15  18
ATOM     18  O   UNL     1      33.407 -76.883  36.760  1.00  0.00    -0.508 OA
ATOM     19  H   UNL     1      32.622 -77.278  37.265  1.00  0.00     0.293 HD
ENDBRANCH  15  18
ENDBRANCH   1  12
BRANCH   2  20
ATOM     20  O   UNL     1      38.143 -79.716  39.843  1.00  0.00    -0.502 OA
ATOM     21  H   UNL     1      37.812 -79.212  40.657  1.00  0.00     0.293 HD
ENDBRANCH   2  20
BRANCH   6  22
ATOM     22  O   UNL     1      43.461 -79.828  39.554  1.00  0.00    -0.507 OA
ATOM     23  H   UNL     1      42.962 -80.136  40.376  1.00  0.00     0.293 HD
ENDBRANCH   6  22
BRANCH   8  24
ATOM     24  O   UNL     1      44.121 -77.614  35.345  1.00  0.00    -0.508 OA
ATOM     25  H   UNL     1      44.638 -78.259  34.759  1.00  0.00     0.293 HD
ENDBRANCH   8  24
TORSDOF 5
ENDMDL
MODEL 6
REMARK VINA RESULT:    -5.041     15.347     16.914
REMARK INTER + INTRA:          -6.102
REMARK INTER:                  -5.982
REMARK INTRA:                  -0.120
REMARK UNBOUND:                -0.177
REMARK SMILES O=c1c(O)c(-c2ccc(O)cc2)oc2cc(O)cc(O)c12
REMARK SMILES IDX 5 1 3 2 2 3 1 4 21 5 19 6 18 7 16 8 15 9 14 10 13 11 6 12
REMARK SMILES IDX 7 13 8 14 9 15 12 16 11 17 10 18 4 20 20 22 17 24
REMARK H PARENT 10 19 4 21 20 23 17 25
REMARK Flexibility Score: inf
ROOT
ATOM      1  C   UNL     1      37.536 -77.893  37.322  1.00  0.00     0.180 A 
ATOM      2  C   UNL     1      38.136 -77.784  36.055  1.00  0.00     0.208 A 
ATOM      3  C   UNL     1      37.316 -77.698  34.919  1.00  0.00     0.238 A 
ATOM      4  O   UNL     1      37.858 -77.654  33.784  1.00  0.00    -0.285 OA
ATOM      5  C   UNL     1      35.907 -77.707  35.064  1.00  0.00     0.111 A 
ATOM      6  C   UNL     1      34.981 -77.584  33.985  1.00  0.00     0.134 A 
ATOM      7  C   UNL     1      33.611 -77.736  34.232  1.00  0.00     0.093 A 
ATOM      8  C   UNL     1      33.130 -77.941  35.526  1.00  0.00     0.123 A 
ATOM      9  C   UNL     1      34.022 -78.003  36.595  1.00  0.00     0.094 A 
ATOM     10  C   UNL     1      35.398 -77.890  36.376  1.00  0.00     0.146 A 
ATOM     11  O   UNL     1      36.214 -77.965  37.419  1.00  0.00    -0.452 OA
ENDROOT
BRANCH   1  12
ATOM     12  C   UNL     1      38.334 -77.963  38.568  1.00  0.00     0.021 A 
ATOM     13  C   UNL     1      39.145 -76.875  38.931  1.00  0.00     0.016 A 
ATOM     14  C   UNL     1      39.924 -76.928  40.092  1.00  0.00     0.047 A 
ATOM     15  C   UNL     1      39.913 -78.074  40.894  1.00  0.00     0.115 A 
ATOM     16  C   UNL     1      38.343 -79.120  39.368  1.00  0.00     0.016 A 
ATOM     17  C   UNL     1      39.123 -79.171  40.528  1.00  0.00     0.047 A 
BRANCH  15  18
ATOM     18  O   UNL     1      40.694 -78.112  42.047  1.00  0.00    -0.508 OA
ATOM     19  H   UNL     1      40.740 -77.322  42.681  1.00  0.00     0.293 HD
ENDBRANCH  15  18
ENDBRANCH   1  12
BRANCH   2  20
ATOM     20  O   UNL     1      39.529 -77.799  35.933  1.00  0.00    -0.502 OA
ATOM     21  H   UNL     1      40.043 -77.054  35.478  1.00  0.00     0.293 HD
ENDBRANCH   2  20
BRANCH   6  22
ATOM     22  O   UNL     1      35.349 -77.288  32.670  1.00  0.00    -0.507 OA
ATOM     23  H   UNL     1      34.765 -77.441  31.860  1.00  0.00     0.293 HD
ENDBRANCH   6  22
BRANCH   8  24
ATOM     24  O   UNL     1      31.764 -78.076  35.765  1.00  0.00    -0.508 OA
ATOM     25  H   UNL     1      31.313 -77.604  36.539  1.00  0.00     0.293 HD
ENDBRANCH   8  24
TORSDOF 5
ENDMDL
MODEL 7
REMARK VINA RESULT:    -4.992     10.694     11.900
REMARK INTER + INTRA:          -6.045
REMARK INTER:                  -5.782
REMARK INTRA:                  -0.263
REMARK UNBOUND:                -0.177
REMARK SMILES O=c1c(O)c(-c2ccc(O)cc2)oc2cc(O)cc(O)c12
REMARK SMILES IDX 5 1 3 2 2 3 1 4 21 5 19 6 18 7 16 8 15 9 14 10 13 11 6 12
REMARK SMILES IDX 7 13 8 14 9 15 12 16 11 17 10 18 4 20 20 22 17 24
REMARK H PARENT 10 19 4 21 20 23 17 25
REMARK Flexibility Score: inf
ROOT
ATOM      1  C   UNL     1      36.763 -95.634  28.878  1.00  0.00     0.180 A 
ATOM      2  C   UNL     1      36.982 -95.733  30.263  1.00  0.00     0.208 A 
ATOM      3  C   UNL     1      38.301 -95.780  30.742  1.00  0.00     0.238 A 
ATOM      4  O   UNL     1      38.490 -95.923  31.979  1.00  0.00    -0.285 OA
ATOM      5  C   UNL     1      39.384 -95.711  29.833  1.00  0.00     0.111 A 
ATOM      6  C   UNL     1      40.761 -95.709  30.211  1.00  0.00     0.134 A 
ATOM      7  C   UNL     1      41.748 -95.769  29.220  1.00  0.00     0.093 A 
ATOM      8  C   UNL     1      41.411 -95.765  27.865  1.00  0.00     0.123 A 
ATOM      9  C   UNL     1      40.071 -95.707  27.485  1.00  0.00     0.094 A 
ATOM     10  C   UNL     1      39.062 -95.682  28.451  1.00  0.00     0.146 A 
ATOM     11  O   UNL     1      37.799 -95.638  28.047  1.00  0.00    -0.452 OA
ENDROOT
BRANCH   1  12
ATOM     12  C   UNL     1      35.402 -95.555  28.299  1.00  0.00     0.021 A 
ATOM     13  C   UNL     1      34.715 -94.329  28.314  1.00  0.00     0.016 A 
ATOM     14  C   UNL     1      33.421 -94.236  27.793  1.00  0.00     0.047 A 
ATOM     15  C   UNL     1      32.792 -95.369  27.266  1.00  0.00     0.115 A 
ATOM     16  C   UNL     1      34.757 -96.694  27.785  1.00  0.00     0.016 A 
ATOM     17  C   UNL     1      33.462 -96.599  27.266  1.00  0.00     0.047 A 
BRANCH  15  18
ATOM     18  O   UNL     1      31.502 -95.261  26.750  1.00  0.00    -0.508 OA
ATOM     19  H   UNL     1      30.686 -95.371  27.341  1.00  0.00     0.293 HD
ENDBRANCH  15  18
ENDBRANCH   1  12
BRANCH   2  20
ATOM     20  O   UNL     1      35.898 -95.822  31.142  1.00  0.00    -0.502 OA
ATOM     21  H   UNL     1      35.487 -96.708  31.409  1.00  0.00     0.293 HD
ENDBRANCH   2  20
BRANCH   6  22
ATOM     22  O   UNL     1      41.207 -95.622  31.532  1.00  0.00    -0.507 OA
ATOM     23  H   UNL     1      42.147 -95.832  31.837  1.00  0.00     0.293 HD
ENDBRANCH   6  22
BRANCH   8  24
ATOM     24  O   UNL     1      42.400 -95.809  26.885  1.00  0.00    -0.508 OA
ATOM     25  H   UNL     1      42.240 -96.256  25.990  1.00  0.00     0.293 HD
ENDBRANCH   8  24
TORSDOF 5
ENDMDL
MODEL 8
REMARK VINA RESULT:    -4.897      8.160     10.114
REMARK INTER + INTRA:          -5.933
REMARK INTER:                  -5.742
REMARK INTRA:                  -0.191
REMARK UNBOUND:                -0.177
REMARK SMILES O=c1c(O)c(-c2ccc(O)cc2)oc2cc(O)cc(O)c12
REMARK SMILES IDX 5 1 3 2 2 3 1 4 21 5 19 6 18 7 16 8 15 9 14 10 13 11 6 12
REMARK SMILES IDX 7 13 8 14 9 15 12 16 11 17 10 18 4 20 20 22 17 24
REMARK H PARENT 10 19 4 21 20 23 17 25
REMARK Flexibility Score: inf
ROOT
ATOM      1  C   UNL     1      39.770 -95.642  34.756  1.00  0.00     0.180 A 
ATOM      2  C   UNL     1      38.487 -96.018  35.191  1.00  0.00     0.208 A 
ATOM      3  C   UNL     1      38.217 -96.050  36.568  1.00  0.00     0.238 A 
ATOM      4  O   UNL     1      37.083 -96.440  36.953  1.00  0.00    -0.285 OA
ATOM      5  C   UNL     1      39.226 -95.690  37.493  1.00  0.00     0.111 A 
ATOM      6  C   UNL     1      39.051 -95.648  38.909  1.00  0.00     0.134 A 
ATOM      7  C   UNL     1      40.155 -95.403  39.734  1.00  0.00     0.093 A 
ATOM      8  C   UNL     1      41.414 -95.136  39.193  1.00  0.00     0.123 A 
ATOM      9  C   UNL     1      41.583 -95.117  37.810  1.00  0.00     0.094 A 
ATOM     10  C   UNL     1      40.508 -95.392  36.961  1.00  0.00     0.146 A 
ATOM     11  O   UNL     1      40.714 -95.374  35.650  1.00  0.00    -0.452 OA
ENDROOT
BRANCH   1  12
ATOM     12  C   UNL     1      40.124 -95.561  33.320  1.00  0.00     0.021 A 
ATOM     13  C   UNL     1      39.564 -94.545  32.527  1.00  0.00     0.016 A 
ATOM     14  C   UNL     1      39.867 -94.463  31.164  1.00  0.00     0.047 A 
ATOM     15  C   UNL     1      40.718 -95.403  30.575  1.00  0.00     0.115 A 
ATOM     16  C   UNL     1      40.963 -96.514  32.717  1.00  0.00     0.016 A 
ATOM     17  C   UNL     1      41.264 -96.431  31.354  1.00  0.00     0.047 A 
BRANCH  15  18
ATOM     18  O   UNL     1      41.010 -95.308  29.216  1.00  0.00    -0.508 OA
ATOM     19  H   UNL     1      40.275 -95.245  28.520  1.00  0.00     0.293 HD
ENDBRANCH  15  18
ENDBRANCH   1  12
BRANCH   2  20
ATOM     20  O   UNL     1      37.511 -96.392  34.261  1.00  0.00    -0.502 OA
ATOM     21  H   UNL     1      36.886 -97.174  34.414  1.00  0.00     0.293 HD
ENDBRANCH   2  20
BRANCH   6  22
ATOM     22  O   UNL     1      37.818 -95.809  39.547  1.00  0.00    -0.507 OA
ATOM     23  H   UNL     1      36.976 -95.305  39.308  1.00  0.00     0.293 HD
ENDBRANCH   6  22
BRANCH   8  24
ATOM     24  O   UNL     1      42.504 -94.879  40.021  1.00  0.00    -0.508 OA
ATOM     25  H   UNL     1      43.431 -95.224  39.800  1.00  0.00     0.293 HD
ENDBRANCH   8  24
TORSDOF 5
ENDMDL
MODEL 9
REMARK VINA RESULT:    -4.819     16.879     18.147
REMARK INTER + INTRA:          -5.842
REMARK INTER:                  -5.883
REMARK INTRA:                   0.042
REMARK UNBOUND:                -0.177
REMARK SMILES O=c1c(O)c(-c2ccc(O)cc2)oc2cc(O)cc(O)c12
REMARK SMILES IDX 5 1 3 2 2 3 1 4 21 5 19 6 18 7 16 8 15 9 14 10 13 11 6 12
REMARK SMILES IDX 7 13 8 14 9 15 12 16 11 17 10 18 4 20 20 22 17 24
REMARK H PARENT 10 19 4 21 20 23 17 25
REMARK Flexibility Score: inf
ROOT
ATOM      1  C   UNL     1      39.390 -77.607  36.097  1.00  0.00     0.180 A 
ATOM      2  C   UNL     1      38.059 -77.627  35.648  1.00  0.00     0.208 A 
ATOM      3  C   UNL     1      37.804 -77.552  34.270  1.00  0.00     0.238 A 
ATOM      4  O   UNL     1      36.608 -77.516  33.877  1.00  0.00    -0.285 OA
ATOM      5  C   UNL     1      38.883 -77.474  33.356  1.00  0.00     0.111 A 
ATOM      6  C   UNL     1      38.742 -77.434  31.936  1.00  0.00     0.134 A 
ATOM      7  C   UNL     1      39.872 -77.226  31.136  1.00  0.00     0.093 A 
ATOM      8  C   UNL     1      41.145 -77.121  31.701  1.00  0.00     0.123 A 
ATOM      9  C   UNL     1      41.300 -77.218  33.082  1.00  0.00     0.094 A 
ATOM     10  C   UNL     1      40.187 -77.390  33.909  1.00  0.00     0.146 A 
ATOM     11  O   UNL     1      40.378 -77.467  35.220  1.00  0.00    -0.452 OA
ENDROOT
BRANCH   1  12
ATOM     12  C   UNL     1      39.739 -77.708  37.533  1.00  0.00     0.021 A 
ATOM     13  C   UNL     1      40.647 -78.693  37.956  1.00  0.00     0.016 A 
ATOM     14  C   UNL     1      40.974 -78.821  39.310  1.00  0.00     0.047 A 
ATOM     15  C   UNL     1      40.387 -77.976  40.258  1.00  0.00     0.115 A 
ATOM     16  C   UNL     1      39.138 -76.875  38.493  1.00  0.00     0.016 A 
ATOM     17  C   UNL     1      39.466 -77.005  39.846  1.00  0.00     0.047 A 
BRANCH  15  18
ATOM     18  O   UNL     1      40.722 -78.115  41.603  1.00  0.00    -0.508 OA
ATOM     19  H   UNL     1      40.513 -78.964  42.115  1.00  0.00     0.293 HD
ENDBRANCH  15  18
ENDBRANCH   1  12
BRANCH   2  20
ATOM     20  O   UNL     1      37.007 -77.682  36.568  1.00  0.00    -0.502 OA
ATOM     21  H   UNL     1      36.688 -76.868  37.078  1.00  0.00     0.293 HD
ENDBRANCH   2  20
BRANCH   6  22
ATOM     22  O   UNL     1      37.529 -77.621  31.267  1.00  0.00    -0.507 OA
ATOM     23  H   UNL     1      37.179 -78.513  30.949  1.00  0.00     0.293 HD
ENDBRANCH   6  22
BRANCH   8  24
ATOM     24  O   UNL     1      42.266 -76.930  30.896  1.00  0.00    -0.508 OA
ATOM     25  H   UNL     1      42.299 -77.273  29.943  1.00  0.00     0.293 HD
ENDBRANCH   8  24
TORSDOF 5
ENDMDL
