MODEL 1
REMARK VINA RESULT:    -3.774      0.000      0.000
REMARK INTER + INTRA:          -4.472
REMARK INTER:                  -4.436
REMARK INTRA:                  -0.036
REMARK UNBOUND:                -0.036
REMARK SMILES O=C([O-])CCC(=O)[O-]
REMARK SMILES IDX 4 1 2 2 1 3 3 4 5 5 6 6 7 7 8 8
REMARK H PARENT
REMARK Flexibility Score: inf
ROOT
ATOM      1  C   UNL     1      53.435   5.255 137.213  1.00  0.00     0.059 C 
ENDROOT
BRANCH   1   2
ATOM      2  C   UNL     1      53.206   3.984 137.974  1.00  0.00     0.042 C 
ATOM      3  O   UNL     1      52.059   3.467 138.017  1.00  0.00    -0.550 OA
ATOM      4  O   UNL     1      54.254   3.392 138.669  1.00  0.00    -0.550 OA
ENDBRANCH   1   2
BRANCH   1   5
ATOM      5  C   UNL     1      52.121   5.996 136.946  1.00  0.00     0.059 C 
BRANCH   5   6
ATOM      6  C   UNL     1      52.346   7.463 136.744  1.00  0.00     0.042 C 
ATOM      7  O   UNL     1      52.145   7.986 135.617  1.00  0.00    -0.550 OA
ATOM      8  O   UNL     1      52.817   8.245 137.792  1.00  0.00    -0.550 OA
ENDBRANCH   5   6
ENDBRANCH   1   5
TORSDOF 3
ENDMDL
MODEL 2
REMARK VINA RESULT:    -3.768      0.067      4.170
REMARK INTER + INTRA:          -4.465
REMARK INTER:                  -4.430
REMARK INTRA:                  -0.035
REMARK UNBOUND:                -0.036
REMARK SMILES O=C([O-])CCC(=O)[O-]
REMARK SMILES IDX 4 1 2 2 1 3 3 4 5 5 6 6 7 7 8 8
REMARK H PARENT
REMARK Flexibility Score: inf
ROOT
ATOM      1  C   UNL     1      52.101   6.003 136.912  1.00  0.00     0.059 C 
ENDROOT
BRANCH   1   2
ATOM      2  C   UNL     1      52.323   7.467 136.682  1.00  0.00     0.042 C 
ATOM      3  O   UNL     1      52.170   7.960 135.533  1.00  0.00    -0.550 OA
ATOM      4  O   UNL     1      52.737   8.280 137.730  1.00  0.00    -0.550 OA
ENDBRANCH   1   2
BRANCH   1   5
ATOM      5  C   UNL     1      53.419   5.269 137.181  1.00  0.00     0.059 C 
BRANCH   5   6
ATOM      6  C   UNL     1      53.196   3.989 137.926  1.00  0.00     0.042 C 
ATOM      7  O   UNL     1      52.049   3.472 137.969  1.00  0.00    -0.550 OA
ATOM      8  O   UNL     1      54.248   3.389 138.608  1.00  0.00    -0.550 OA
ENDBRANCH   5   6
ENDBRANCH   1   5
TORSDOF 3
ENDMDL
MODEL 3
REMARK VINA RESULT:    -3.705      0.749      4.141
REMARK INTER + INTRA:          -4.391
REMARK INTER:                  -4.339
REMARK INTRA:                  -0.052
REMARK UNBOUND:                -0.036
REMARK SMILES O=C([O-])CCC(=O)[O-]
REMARK SMILES IDX 4 1 2 2 1 3 3 4 5 5 6 6 7 7 8 8
REMARK H PARENT
REMARK Flexibility Score: inf
ROOT
ATOM      1  C   UNL     1      53.089   6.302 136.500  1.00  0.00     0.059 C 
ENDROOT
BRANCH   1   2
ATOM      2  C   UNL     1      52.548   7.673 136.772  1.00  0.00     0.042 C 
ATOM      3  O   UNL     1      51.875   8.275 135.894  1.00  0.00    -0.550 OA
ATOM      4  O   UNL     1      52.822   8.301 137.981  1.00  0.00    -0.550 OA
ENDBRANCH   1   2
BRANCH   1   5
ATOM      5  C   UNL     1      52.149   5.212 137.025  1.00  0.00     0.059 C 
BRANCH   5   6
ATOM      6  C   UNL     1      52.907   4.098 137.680  1.00  0.00     0.042 C 
ATOM      7  O   UNL     1      54.119   4.248 137.983  1.00  0.00    -0.550 OA
ATOM      8  O   UNL     1      52.284   2.879 137.918  1.00  0.00    -0.550 OA
ENDBRANCH   5   6
ENDBRANCH   1   5
TORSDOF 3
ENDMDL
MODEL 4
REMARK VINA RESULT:    -3.702      0.234      1.619
REMARK INTER + INTRA:          -4.387
REMARK INTER:                  -4.341
REMARK INTRA:                  -0.045
REMARK UNBOUND:                -0.036
REMARK SMILES O=C([O-])CCC(=O)[O-]
REMARK SMILES IDX 4 1 2 2 1 3 3 4 5 5 6 6 7 7 8 8
REMARK H PARENT
REMARK Flexibility Score: inf
ROOT
ATOM      1  C   UNL     1      53.435   5.099 137.187  1.00  0.00     0.059 C 
ENDROOT
BRANCH   1   2
ATOM      2  C   UNL     1      53.178   3.893 138.038  1.00  0.00     0.042 C 
ATOM      3  O   UNL     1      54.107   3.391 138.724  1.00  0.00    -0.550 OA
ATOM      4  O   UNL     1      51.921   3.301 138.043  1.00  0.00    -0.550 OA
ENDBRANCH   1   2
BRANCH   1   5
ATOM      5  C   UNL     1      52.142   5.868 136.895  1.00  0.00     0.059 C 
BRANCH   5   6
ATOM      6  C   UNL     1      52.374   7.348 136.872  1.00  0.00     0.042 C 
ATOM      7  O   UNL     1      52.989   7.909 137.817  1.00  0.00    -0.550 OA
ATOM      8  O   UNL     1      51.875   8.115 135.826  1.00  0.00    -0.550 OA
ENDBRANCH   5   6
ENDBRANCH   1   5
TORSDOF 3
ENDMDL
MODEL 5
REMARK VINA RESULT:    -3.541     20.828     21.465
REMARK INTER + INTRA:          -4.198
REMARK INTER:                  -4.077
REMARK INTRA:                  -0.121
REMARK UNBOUND:                -0.036
REMARK SMILES O=C([O-])CCC(=O)[O-]
REMARK SMILES IDX 4 1 2 2 1 3 3 4 5 5 6 6 7 7 8 8
REMARK H PARENT
REMARK Flexibility Score: inf
ROOT
ATOM      1  C   UNL     1      68.722   5.274 124.624  1.00  0.00     0.059 C 
ENDROOT
BRANCH   1   2
ATOM      2  C   UNL     1      67.550   4.582 123.997  1.00  0.00     0.042 C 
ATOM      3  O   UNL     1      66.428   5.153 123.948  1.00  0.00    -0.550 OA
ATOM      4  O   UNL     1      67.688   3.291 123.502  1.00  0.00    -0.550 OA
ENDBRANCH   1   2
BRANCH   1   5
ATOM      5  C   UNL     1      69.923   5.320 123.673  1.00  0.00     0.059 C 
BRANCH   5   6
ATOM      6  C   UNL     1      71.051   4.466 124.167  1.00  0.00     0.042 C 
ATOM      7  O   UNL     1      71.026   3.220 123.993  1.00  0.00    -0.550 OA
ATOM      8  O   UNL     1      72.111   5.044 124.856  1.00  0.00    -0.550 OA
ENDBRANCH   5   6
ENDBRANCH   1   5
TORSDOF 3
ENDMDL
MODEL 6
REMARK VINA RESULT:    -3.533     20.780     21.342
REMARK INTER + INTRA:          -4.188
REMARK INTER:                  -4.070
REMARK INTRA:                  -0.118
REMARK UNBOUND:                -0.036
REMARK SMILES O=C([O-])CCC(=O)[O-]
REMARK SMILES IDX 4 1 2 2 1 3 3 4 5 5 6 6 7 7 8 8
REMARK H PARENT
REMARK Flexibility Score: inf
ROOT
ATOM      1  C   UNL     1      69.938   5.327 123.695  1.00  0.00     0.059 C 
ENDROOT
BRANCH   1   2
ATOM      2  C   UNL     1      70.990   4.393 124.214  1.00  0.00     0.042 C 
ATOM      3  O   UNL     1      70.938   3.165 123.942  1.00  0.00    -0.550 OA
ATOM      4  O   UNL     1      72.006   4.876 125.029  1.00  0.00    -0.550 OA
ENDBRANCH   1   2
BRANCH   1   5
ATOM      5  C   UNL     1      68.710   5.356 124.610  1.00  0.00     0.059 C 
BRANCH   5   6
ATOM      6  C   UNL     1      67.530   4.689 123.972  1.00  0.00     0.042 C 
ATOM      7  O   UNL     1      66.438   5.306 123.859  1.00  0.00    -0.550 OA
ATOM      8  O   UNL     1      67.625   3.372 123.538  1.00  0.00    -0.550 OA
ENDBRANCH   5   6
ENDBRANCH   1   5
TORSDOF 3
ENDMDL
MODEL 7
REMARK VINA RESULT:    -3.172     20.734     21.251
REMARK INTER + INTRA:          -3.764
REMARK INTER:                  -3.730
REMARK INTRA:                  -0.033
REMARK UNBOUND:                -0.036
REMARK SMILES O=C([O-])CCC(=O)[O-]
REMARK SMILES IDX 4 1 2 2 1 3 3 4 5 5 6 6 7 7 8 8
REMARK H PARENT
REMARK Flexibility Score: inf
ROOT
ATOM      1  C   UNL     1      69.759   3.899 123.735  1.00  0.00     0.059 C 
ENDROOT
BRANCH   1   2
ATOM      2  C   UNL     1      70.385   2.538 123.684  1.00  0.00     0.042 C 
ATOM      3  O   UNL     1      69.867   1.627 122.985  1.00  0.00    -0.550 OA
ATOM      4  O   UNL     1      71.518   2.265 124.439  1.00  0.00    -0.550 OA
ENDBRANCH   1   2
BRANCH   1   5
ATOM      5  C   UNL     1      68.230   3.815 123.773  1.00  0.00     0.059 C 
BRANCH   5   6
ATOM      6  C   UNL     1      67.610   5.153 124.037  1.00  0.00     0.042 C 
ATOM      7  O   UNL     1      66.374   5.247 124.257  1.00  0.00    -0.550 OA
ATOM      8  O   UNL     1      68.391   6.301 123.999  1.00  0.00    -0.550 OA
ENDBRANCH   5   6
ENDBRANCH   1   5
TORSDOF 3
ENDMDL
MODEL 8
REMARK VINA RESULT:    -2.977     12.729     13.407
REMARK INTER + INTRA:          -3.535
REMARK INTER:                  -3.503
REMARK INTRA:                  -0.032
REMARK UNBOUND:                -0.036
REMARK SMILES O=C([O-])CCC(=O)[O-]
REMARK SMILES IDX 4 1 2 2 1 3 3 4 5 5 6 6 7 7 8 8
REMARK H PARENT
REMARK Flexibility Score: inf
ROOT
ATOM      1  C   UNL     1      52.652   3.673 124.302  1.00  0.00     0.059 C 
ENDROOT
BRANCH   1   2
ATOM      2  C   UNL     1      52.886   2.984 125.612  1.00  0.00     0.042 C 
ATOM      3  O   UNL     1      52.330   3.406 126.660  1.00  0.00    -0.550 OA
ATOM      4  O   UNL     1      53.751   1.898 125.682  1.00  0.00    -0.550 OA
ENDBRANCH   1   2
BRANCH   1   5
ATOM      5  C   UNL     1      53.552   4.903 124.144  1.00  0.00     0.059 C 
BRANCH   5   6
ATOM      6  C   UNL     1      53.589   5.381 122.725  1.00  0.00     0.042 C 
ATOM      7  O   UNL     1      52.780   4.917 121.878  1.00  0.00    -0.550 OA
ATOM      8  O   UNL     1      54.543   6.309 122.328  1.00  0.00    -0.550 OA
ENDBRANCH   5   6
ENDBRANCH   1   5
TORSDOF 3
ENDMDL
MODEL 9
REMARK VINA RESULT:    -2.951     12.744     13.907
REMARK INTER + INTRA:          -3.505
REMARK INTER:                  -3.472
REMARK INTRA:                  -0.033
REMARK UNBOUND:                -0.036
REMARK SMILES O=C([O-])CCC(=O)[O-]
REMARK SMILES IDX 4 1 2 2 1 3 3 4 5 5 6 6 7 7 8 8
REMARK H PARENT
REMARK Flexibility Score: inf
ROOT
ATOM      1  C   UNL     1      53.729   4.867 124.077  1.00  0.00     0.059 C 
ENDROOT
BRANCH   1   2
ATOM      2  C   UNL     1      53.645   5.405 122.681  1.00  0.00     0.042 C 
ATOM      3  O   UNL     1      52.791   4.950 121.875  1.00  0.00    -0.550 OA
ATOM      4  O   UNL     1      54.537   6.384 122.258  1.00  0.00    -0.550 OA
ENDBRANCH   1   2
BRANCH   1   5
ATOM      5  C   UNL     1      52.734   3.723 124.300  1.00  0.00     0.059 C 
BRANCH   5   6
ATOM      6  C   UNL     1      52.957   3.048 125.619  1.00  0.00     0.042 C 
ATOM      7  O   UNL     1      52.502   3.558 126.677  1.00  0.00    -0.550 OA
ATOM      8  O   UNL     1      53.702   1.877 125.684  1.00  0.00    -0.550 OA
ENDBRANCH   5   6
ENDBRANCH   1   5
TORSDOF 3
ENDMDL
