MODEL 1
REMARK VINA RESULT:    -4.796      0.000      0.000
REMARK INTER + INTRA:          -7.754
REMARK INTER:                  -7.320
REMARK INTRA:                  -0.434
REMARK UNBOUND:                -0.434
REMARK SMILES O=C([O-])CCCCCCCCC(=O)[O-]
REMARK SMILES IDX 7 1 6 2 5 3 4 4 2 5 1 6 3 7 8 8 9 9 10 10 11 11 12 12 13 13
REMARK SMILES IDX 14 14
REMARK H PARENT
REMARK Flexibility Score: inf
ROOT
ATOM      1  C   UNL     1      -2.288  37.875  19.851  1.00  0.00     0.000 C 
ENDROOT
BRANCH   1   2
ATOM      2  C   UNL     1      -1.898  37.948  18.366  1.00  0.00     0.000 C 
BRANCH   2   3
ATOM      3  C   UNL     1      -3.106  37.797  17.428  1.00  0.00     0.006 C 
BRANCH   3   4
ATOM      4  C   UNL     1      -2.913  36.684  16.390  1.00  0.00     0.053 C 
BRANCH   4   5
ATOM      5  C   UNL     1      -2.875  37.260  15.010  1.00  0.00     0.041 C 
ATOM      6  O   UNL     1      -2.005  36.873  14.185  1.00  0.00    -0.550 OA
ATOM      7  O   UNL     1      -3.770  38.260  14.649  1.00  0.00    -0.550 OA
ENDBRANCH   4   5
ENDBRANCH   3   4
ENDBRANCH   2   3
ENDBRANCH   1   2
BRANCH   1   8
ATOM      8  C   UNL     1      -3.772  37.523  20.012  1.00  0.00     0.000 C 
BRANCH   8   9
ATOM      9  C   UNL     1      -3.944  36.187  20.747  1.00  0.00     0.000 C 
BRANCH   9  10
ATOM     10  C   UNL     1      -5.409  35.966  21.150  1.00  0.00     0.006 C 
BRANCH  10  11
ATOM     11  C   UNL     1      -5.775  36.711  22.440  1.00  0.00     0.053 C 
BRANCH  11  12
ATOM     12  C   UNL     1      -5.610  35.841  23.649  1.00  0.00     0.041 C 
ATOM     13  O   UNL     1      -5.800  34.599  23.566  1.00  0.00    -0.550 OA
ATOM     14  O   UNL     1      -5.215  36.397  24.858  1.00  0.00    -0.550 OA
ENDBRANCH  11  12
ENDBRANCH  10  11
ENDBRANCH   9  10
ENDBRANCH   8   9
ENDBRANCH   1   8
TORSDOF 9
ENDMDL
MODEL 2
REMARK VINA RESULT:    -4.752      0.838      7.385
REMARK INTER + INTRA:          -7.687
REMARK INTER:                  -7.272
REMARK INTRA:                  -0.415
REMARK UNBOUND:                -0.434
REMARK SMILES O=C([O-])CCCCCCCCC(=O)[O-]
REMARK SMILES IDX 7 1 6 2 5 3 4 4 2 5 1 6 3 7 8 8 9 9 10 10 11 11 12 12 13 13
REMARK SMILES IDX 14 14
REMARK H PARENT
REMARK Flexibility Score: inf
ROOT
ATOM      1  C   UNL     1      -3.930  36.441  20.495  1.00  0.00     0.000 C 
ENDROOT
BRANCH   1   2
ATOM      2  C   UNL     1      -5.437  36.201  20.305  1.00  0.00     0.000 C 
BRANCH   2   3
ATOM      3  C   UNL     1      -6.122  35.691  21.582  1.00  0.00     0.006 C 
BRANCH   3   4
ATOM      4  C   UNL     1      -5.900  36.621  22.783  1.00  0.00     0.053 C 
BRANCH   4   5
ATOM      5  C   UNL     1      -5.880  35.834  24.054  1.00  0.00     0.041 C 
ATOM      6  O   UNL     1      -5.647  36.408  25.151  1.00  0.00    -0.550 OA
ATOM      7  O   UNL     1      -6.069  34.458  24.024  1.00  0.00    -0.550 OA
ENDBRANCH   4   5
ENDBRANCH   3   4
ENDBRANCH   2   3
ENDBRANCH   1   2
BRANCH   1   8
ATOM      8  C   UNL     1      -3.517  37.807  19.935  1.00  0.00     0.000 C 
BRANCH   8   9
ATOM      9  C   UNL     1      -2.009  37.854  19.654  1.00  0.00     0.000 C 
BRANCH   9  10
ATOM     10  C   UNL     1      -1.733  38.217  18.189  1.00  0.00     0.006 C 
BRANCH  10  11
ATOM     11  C   UNL     1      -2.880  37.798  17.260  1.00  0.00     0.053 C 
BRANCH  11  12
ATOM     12  C   UNL     1      -2.378  37.058  16.058  1.00  0.00     0.041 C 
ATOM     13  O   UNL     1      -1.355  36.330  16.144  1.00  0.00    -0.550 OA
ATOM     14  O   UNL     1      -3.060  37.147  14.851  1.00  0.00    -0.550 OA
ENDBRANCH  11  12
ENDBRANCH  10  11
ENDBRANCH   9  10
ENDBRANCH   8   9
ENDBRANCH   1   8
TORSDOF 9
ENDMDL
MODEL 3
REMARK VINA RESULT:    -4.702      0.690      7.605
REMARK INTER + INTRA:          -7.610
REMARK INTER:                  -7.293
REMARK INTRA:                  -0.317
REMARK UNBOUND:                -0.434
REMARK SMILES O=C([O-])CCCCCCCCC(=O)[O-]
REMARK SMILES IDX 7 1 6 2 5 3 4 4 2 5 1 6 3 7 8 8 9 9 10 10 11 11 12 12 13 13
REMARK SMILES IDX 14 14
REMARK H PARENT
REMARK Flexibility Score: inf
ROOT
ATOM      1  C   UNL     1      -3.869  36.814  20.094  1.00  0.00     0.000 C 
ENDROOT
BRANCH   1   2
ATOM      2  C   UNL     1      -5.376  36.548  20.242  1.00  0.00     0.000 C 
BRANCH   2   3
ATOM      3  C   UNL     1      -5.722  35.814  21.547  1.00  0.00     0.006 C 
BRANCH   3   4
ATOM      4  C   UNL     1      -5.771  36.753  22.759  1.00  0.00     0.053 C 
BRANCH   4   5
ATOM      5  C   UNL     1      -5.965  35.970  24.018  1.00  0.00     0.041 C 
ATOM      6  O   UNL     1      -6.120  34.721  23.970  1.00  0.00    -0.550 OA
ATOM      7  O   UNL     1      -6.024  36.624  25.242  1.00  0.00    -0.550 OA
ENDBRANCH   4   5
ENDBRANCH   3   4
ENDBRANCH   2   3
ENDBRANCH   1   2
BRANCH   1   8
ATOM      8  C   UNL     1      -3.602  37.873  19.018  1.00  0.00     0.000 C 
BRANCH   8   9
ATOM      9  C   UNL     1      -2.104  37.971  18.700  1.00  0.00     0.000 C 
BRANCH   9  10
ATOM     10  C   UNL     1      -1.814  37.504  17.267  1.00  0.00     0.006 C 
BRANCH  10  11
ATOM     11  C   UNL     1      -3.089  37.090  16.521  1.00  0.00     0.053 C 
BRANCH  11  12
ATOM     12  C   UNL     1      -3.042  37.491  15.078  1.00  0.00     0.041 C 
ATOM     13  O   UNL     1      -2.319  36.855  14.267  1.00  0.00    -0.550 OA
ATOM     14  O   UNL     1      -3.822  38.547  14.623  1.00  0.00    -0.550 OA
ENDBRANCH  11  12
ENDBRANCH  10  11
ENDBRANCH   9  10
ENDBRANCH   8   9
ENDBRANCH   1   8
TORSDOF 9
ENDMDL
MODEL 4
REMARK VINA RESULT:    -4.529      1.046      1.397
REMARK INTER + INTRA:          -7.347
REMARK INTER:                  -6.986
REMARK INTRA:                  -0.361
REMARK UNBOUND:                -0.434
REMARK SMILES O=C([O-])CCCCCCCCC(=O)[O-]
REMARK SMILES IDX 7 1 6 2 5 3 4 4 2 5 1 6 3 7 8 8 9 9 10 10 11 11 12 12 13 13
REMARK SMILES IDX 14 14
REMARK H PARENT
REMARK Flexibility Score: inf
ROOT
ATOM      1  C   UNL     1      -3.871  36.874  19.118  1.00  0.00     0.000 C 
ENDROOT
BRANCH   1   2
ATOM      2  C   UNL     1      -2.594  37.707  19.310  1.00  0.00     0.000 C 
BRANCH   2   3
ATOM      3  C   UNL     1      -1.915  38.065  17.979  1.00  0.00     0.006 C 
BRANCH   3   4
ATOM      4  C   UNL     1      -2.849  37.892  16.774  1.00  0.00     0.053 C 
BRANCH   4   5
ATOM      5  C   UNL     1      -2.246  36.953  15.778  1.00  0.00     0.041 C 
ATOM      6  O   UNL     1      -1.257  36.241  16.096  1.00  0.00    -0.550 OA
ATOM      7  O   UNL     1      -2.744  36.900  14.482  1.00  0.00    -0.550 OA
ENDBRANCH   4   5
ENDBRANCH   3   4
ENDBRANCH   2   3
ENDBRANCH   1   2
BRANCH   1   8
ATOM      8  C   UNL     1      -4.981  37.347  20.064  1.00  0.00     0.000 C 
BRANCH   8   9
ATOM      9  C   UNL     1      -5.791  36.159  20.602  1.00  0.00     0.000 C 
BRANCH   9  10
ATOM     10  C   UNL     1      -5.397  35.835  22.050  1.00  0.00     0.006 C 
BRANCH  10  11
ATOM     11  C   UNL     1      -6.122  36.731  23.063  1.00  0.00     0.053 C 
BRANCH  11  12
ATOM     12  C   UNL     1      -5.993  36.204  24.460  1.00  0.00     0.041 C 
ATOM     13  O   UNL     1      -6.123  34.973  24.688  1.00  0.00    -0.550 OA
ATOM     14  O   UNL     1      -5.695  37.070  25.504  1.00  0.00    -0.550 OA
ENDBRANCH  11  12
ENDBRANCH  10  11
ENDBRANCH   9  10
ENDBRANCH   8   9
ENDBRANCH   1   8
TORSDOF 9
ENDMDL
MODEL 5
REMARK VINA RESULT:    -4.182      1.564      7.602
REMARK INTER + INTRA:          -6.817
REMARK INTER:                  -6.450
REMARK INTRA:                  -0.366
REMARK UNBOUND:                -0.434
REMARK SMILES O=C([O-])CCCCCCCCC(=O)[O-]
REMARK SMILES IDX 7 1 6 2 5 3 4 4 2 5 1 6 3 7 8 8 9 9 10 10 11 11 12 12 13 13
REMARK SMILES IDX 14 14
REMARK H PARENT
REMARK Flexibility Score: inf
ROOT
ATOM      1  C   UNL     1      -5.399  36.750  21.051  1.00  0.00     0.000 C 
ENDROOT
BRANCH   1   2
ATOM      2  C   UNL     1      -6.073  35.749  22.003  1.00  0.00     0.000 C 
BRANCH   2   3
ATOM      3  C   UNL     1      -5.202  35.414  23.225  1.00  0.00     0.006 C 
BRANCH   3   4
ATOM      4  C   UNL     1      -5.861  35.822  24.549  1.00  0.00     0.053 C 
BRANCH   4   5
ATOM      5  C   UNL     1      -5.385  37.174  24.973  1.00  0.00     0.041 C 
ATOM      6  O   UNL     1      -5.710  38.197  24.313  1.00  0.00    -0.550 OA
ATOM      7  O   UNL     1      -4.541  37.302  26.070  1.00  0.00    -0.550 OA
ENDBRANCH   4   5
ENDBRANCH   3   4
ENDBRANCH   2   3
ENDBRANCH   1   2
BRANCH   1   8
ATOM      8  C   UNL     1      -4.119  36.157  20.448  1.00  0.00     0.000 C 
BRANCH   8   9
ATOM      9  C   UNL     1      -4.030  36.453  18.945  1.00  0.00     0.000 C 
BRANCH   9  10
ATOM     10  C   UNL     1      -3.521  37.879  18.694  1.00  0.00     0.006 C 
BRANCH  10  11
ATOM     11  C   UNL     1      -2.158  37.893  17.990  1.00  0.00     0.053 C 
BRANCH  11  12
ATOM     12  C   UNL     1      -2.278  37.523  16.543  1.00  0.00     0.041 C 
ATOM     13  O   UNL     1      -1.651  36.531  16.087  1.00  0.00    -0.550 OA
ATOM     14  O   UNL     1      -3.110  38.255  15.705  1.00  0.00    -0.550 OA
ENDBRANCH  11  12
ENDBRANCH  10  11
ENDBRANCH   9  10
ENDBRANCH   8   9
ENDBRANCH   1   8
TORSDOF 9
ENDMDL
MODEL 6
REMARK VINA RESULT:    -3.922      3.045      7.286
REMARK INTER + INTRA:          -6.419
REMARK INTER:                  -6.153
REMARK INTRA:                  -0.266
REMARK UNBOUND:                -0.434
REMARK SMILES O=C([O-])CCCCCCCCC(=O)[O-]
REMARK SMILES IDX 7 1 6 2 5 3 4 4 2 5 1 6 3 7 8 8 9 9 10 10 11 11 12 12 13 13
REMARK SMILES IDX 14 14
REMARK H PARENT
REMARK Flexibility Score: inf
ROOT
ATOM      1  C   UNL     1      -5.056  36.964  21.284  1.00  0.00     0.000 C 
ENDROOT
BRANCH   1   2
ATOM      2  C   UNL     1      -5.380  38.389  20.806  1.00  0.00     0.000 C 
BRANCH   2   3
ATOM      3  C   UNL     1      -5.212  39.438  21.916  1.00  0.00     0.006 C 
BRANCH   3   4
ATOM      4  C   UNL     1      -6.072  40.687  21.684  1.00  0.00     0.053 C 
BRANCH   4   5
ATOM      5  C   UNL     1      -5.933  41.636  22.831  1.00  0.00     0.041 C 
ATOM      6  O   UNL     1      -6.109  42.872  22.656  1.00  0.00    -0.550 OA
ATOM      7  O   UNL     1      -5.562  41.164  24.083  1.00  0.00    -0.550 OA
ENDBRANCH   4   5
ENDBRANCH   3   4
ENDBRANCH   2   3
ENDBRANCH   1   2
BRANCH   1   8
ATOM      8  C   UNL     1      -3.782  36.437  20.613  1.00  0.00     0.000 C 
BRANCH   8   9
ATOM      9  C   UNL     1      -3.159  37.502  19.702  1.00  0.00     0.000 C 
BRANCH   9  10
ATOM     10  C   UNL     1      -3.362  37.147  18.222  1.00  0.00     0.006 C 
BRANCH  10  11
ATOM     11  C   UNL     1      -2.445  37.959  17.298  1.00  0.00     0.053 C 
BRANCH  11  12
ATOM     12  C   UNL     1      -2.701  37.653  15.854  1.00  0.00     0.041 C 
ATOM     13  O   UNL     1      -2.195  36.630  15.323  1.00  0.00    -0.550 OA
ATOM     14  O   UNL     1      -3.527  38.481  15.104  1.00  0.00    -0.550 OA
ENDBRANCH  11  12
ENDBRANCH  10  11
ENDBRANCH   9  10
ENDBRANCH   8   9
ENDBRANCH   1   8
TORSDOF 9
ENDMDL
MODEL 7
REMARK VINA RESULT:    -3.824      2.560      3.244
REMARK INTER + INTRA:          -6.270
REMARK INTER:                  -5.775
REMARK INTRA:                  -0.494
REMARK UNBOUND:                -0.434
REMARK SMILES O=C([O-])CCCCCCCCC(=O)[O-]
REMARK SMILES IDX 7 1 6 2 5 3 4 4 2 5 1 6 3 7 8 8 9 9 10 10 11 11 12 12 13 13
REMARK SMILES IDX 14 14
REMARK H PARENT
REMARK Flexibility Score: inf
ROOT
ATOM      1  C   UNL     1      -4.085  36.244  17.582  1.00  0.00     0.000 C 
ENDROOT
BRANCH   1   2
ATOM      2  C   UNL     1      -2.971  35.980  16.557  1.00  0.00     0.000 C 
BRANCH   2   3
ATOM      3  C   UNL     1      -1.871  37.053  16.588  1.00  0.00     0.006 C 
BRANCH   3   4
ATOM      4  C   UNL     1      -2.202  38.210  17.540  1.00  0.00     0.053 C 
BRANCH   4   5
ATOM      5  C   UNL     1      -1.447  38.062  18.822  1.00  0.00     0.041 C 
ATOM      6  O   UNL     1      -2.067  37.940  19.912  1.00  0.00    -0.550 OA
ATOM      7  O   UNL     1      -0.059  38.107  18.821  1.00  0.00    -0.550 OA
ENDBRANCH   4   5
ENDBRANCH   3   4
ENDBRANCH   2   3
ENDBRANCH   1   2
BRANCH   1   8
ATOM      8  C   UNL     1      -4.726  34.930  18.046  1.00  0.00     0.000 C 
BRANCH   8   9
ATOM      9  C   UNL     1      -5.700  35.172  19.206  1.00  0.00     0.000 C 
BRANCH   9  10
ATOM     10  C   UNL     1      -5.418  36.517  19.890  1.00  0.00     0.006 C 
BRANCH  10  11
ATOM     11  C   UNL     1      -5.685  36.468  21.400  1.00  0.00     0.053 C 
BRANCH  11  12
ATOM     12  C   UNL     1      -4.660  35.643  22.118  1.00  0.00     0.041 C 
ATOM     13  O   UNL     1      -3.482  35.574  21.680  1.00  0.00    -0.550 OA
ATOM     14  O   UNL     1      -4.999  34.977  23.288  1.00  0.00    -0.550 OA
ENDBRANCH  11  12
ENDBRANCH  10  11
ENDBRANCH   9  10
ENDBRANCH   8   9
ENDBRANCH   1   8
TORSDOF 9
ENDMDL
MODEL 8
REMARK VINA RESULT:    -3.723      2.268      6.966
REMARK INTER + INTRA:          -6.116
REMARK INTER:                  -5.896
REMARK INTRA:                  -0.221
REMARK UNBOUND:                -0.434
REMARK SMILES O=C([O-])CCCCCCCCC(=O)[O-]
REMARK SMILES IDX 7 1 6 2 5 3 4 4 2 5 1 6 3 7 8 8 9 9 10 10 11 11 12 12 13 13
REMARK SMILES IDX 14 14
REMARK H PARENT
REMARK Flexibility Score: inf
ROOT
ATOM      1  C   UNL     1      -4.720  36.652  19.272  1.00  0.00     0.000 C 
ENDROOT
BRANCH   1   2
ATOM      2  C   UNL     1      -5.569  35.959  20.350  1.00  0.00     0.000 C 
BRANCH   2   3
ATOM      3  C   UNL     1      -4.924  36.021  21.743  1.00  0.00     0.006 C 
BRANCH   3   4
ATOM      4  C   UNL     1      -5.833  36.681  22.787  1.00  0.00     0.053 C 
BRANCH   4   5
ATOM      5  C   UNL     1      -5.820  35.898  24.060  1.00  0.00     0.041 C 
ATOM      6  O   UNL     1      -5.489  36.452  25.142  1.00  0.00    -0.550 OA
ATOM      7  O   UNL     1      -6.124  34.542  24.047  1.00  0.00    -0.550 OA
ENDBRANCH   4   5
ENDBRANCH   3   4
ENDBRANCH   2   3
ENDBRANCH   1   2
BRANCH   1   8
ATOM      8  C   UNL     1      -4.214  35.639  18.238  1.00  0.00     0.000 C 
BRANCH   8   9
ATOM      9  C   UNL     1      -3.795  36.340  16.939  1.00  0.00     0.000 C 
BRANCH   9  10
ATOM     10  C   UNL     1      -2.305  36.706  16.967  1.00  0.00     0.006 C 
BRANCH  10  11
ATOM     11  C   UNL     1      -2.069  38.143  17.451  1.00  0.00     0.053 C 
BRANCH  11  12
ATOM     12  C   UNL     1      -1.341  38.173  18.761  1.00  0.00     0.041 C 
ATOM     13  O   UNL     1      -0.082  38.204  18.786  1.00  0.00    -0.550 OA
ATOM     14  O   UNL     1      -2.053  38.202  19.952  1.00  0.00    -0.550 OA
ENDBRANCH  11  12
ENDBRANCH  10  11
ENDBRANCH   9  10
ENDBRANCH   8   9
ENDBRANCH   1   8
TORSDOF 9
ENDMDL
