MODEL 1
REMARK VINA RESULT:    -4.936      0.000      0.000
REMARK INTER + INTRA:          -5.314
REMARK INTER:                  -5.224
REMARK INTRA:                  -0.090
REMARK UNBOUND:                -0.090
REMARK SMILES C=C(C)[C@H]1CC=C(C)C(=O)C1
REMARK SMILES IDX 8 1 7 2 6 3 5 4 4 5 11 6 9 7 10 8 2 9 1 10 3 11
REMARK H PARENT
REMARK Flexibility Score: inf
ROOT
ATOM      1  C   UNL     1      18.330 -13.379  70.383  1.00  0.00     0.048 C 
ATOM      2  C   UNL     1      18.372 -12.607  69.093  1.00  0.00    -0.012 C 
ATOM      3  C   UNL     1      17.612 -12.996  68.055  1.00  0.00    -0.019 C 
ATOM      4  C   UNL     1      17.629 -12.271  66.736  1.00  0.00     0.036 C 
ATOM      5  C   UNL     1      17.885 -10.765  66.934  1.00  0.00     0.025 C 
ATOM      6  C   UNL     1      19.180 -10.544  67.738  1.00  0.00     0.089 C 
ATOM      7  C   UNL     1      19.157 -11.349  69.009  1.00  0.00     0.158 C 
ATOM      8  O   UNL     1      19.843 -10.963  69.994  1.00  0.00    -0.295 OA
ENDROOT
BRANCH   5   9
ATOM      9  C   UNL     1      17.915 -10.020  65.605  1.00  0.00    -0.077 C 
ATOM     10  C   UNL     1      16.783  -9.721  64.947  1.00  0.00     0.008 C 
ATOM     11  C   UNL     1      19.232  -9.601  65.003  1.00  0.00     0.039 C 
ENDBRANCH   5   9
TORSDOF 1
ENDMDL
MODEL 2
REMARK VINA RESULT:    -4.860      1.317      1.739
REMARK INTER + INTRA:          -5.234
REMARK INTER:                  -5.139
REMARK INTRA:                  -0.095
REMARK UNBOUND:                -0.090
REMARK SMILES C=C(C)[C@H]1CC=C(C)C(=O)C1
REMARK SMILES IDX 8 1 7 2 6 3 5 4 4 5 11 6 9 7 10 8 2 9 1 10 3 11
REMARK H PARENT
REMARK Flexibility Score: inf
ROOT
ATOM      1  C   UNL     1      20.336 -12.855  69.986  1.00  0.00     0.048 C 
ATOM      2  C   UNL     1      19.524 -12.287  68.854  1.00  0.00    -0.012 C 
ATOM      3  C   UNL     1      19.075 -13.096  67.880  1.00  0.00    -0.019 C 
ATOM      4  C   UNL     1      18.274 -12.578  66.716  1.00  0.00     0.036 C 
ATOM      5  C   UNL     1      17.402 -11.378  67.133  1.00  0.00     0.025 C 
ATOM      6  C   UNL     1      18.272 -10.283  67.777  1.00  0.00     0.089 C 
ATOM      7  C   UNL     1      19.116 -10.859  68.881  1.00  0.00     0.158 C 
ATOM      8  O   UNL     1      19.507 -10.106  69.813  1.00  0.00    -0.295 OA
ENDROOT
BRANCH   5   9
ATOM      9  C   UNL     1      16.592 -10.836  65.962  1.00  0.00    -0.077 C 
ATOM     10  C   UNL     1      16.983  -9.739  65.291  1.00  0.00     0.008 C 
ATOM     11  C   UNL     1      15.326 -11.532  65.533  1.00  0.00     0.039 C 
ENDBRANCH   5   9
TORSDOF 1
ENDMDL
MODEL 3
REMARK VINA RESULT:    -4.727      3.217      4.529
REMARK INTER + INTRA:          -5.093
REMARK INTER:                  -4.998
REMARK INTRA:                  -0.096
REMARK UNBOUND:                -0.090
REMARK SMILES C=C(C)[C@H]1CC=C(C)C(=O)C1
REMARK SMILES IDX 8 1 7 2 6 3 5 4 4 5 11 6 9 7 10 8 2 9 1 10 3 11
REMARK H PARENT
REMARK Flexibility Score: inf
ROOT
ATOM      1  C   UNL     1      20.246  -9.632  65.950  1.00  0.00     0.048 C 
ATOM      2  C   UNL     1      18.873 -10.104  65.552  1.00  0.00    -0.012 C 
ATOM      3  C   UNL     1      17.911 -10.223  66.483  1.00  0.00    -0.019 C 
ATOM      4  C   UNL     1      16.527 -10.706  66.143  1.00  0.00     0.036 C 
ATOM      5  C   UNL     1      16.123 -10.277  64.720  1.00  0.00     0.025 C 
ATOM      6  C   UNL     1      17.174 -10.751  63.699  1.00  0.00     0.089 C 
ATOM      7  C   UNL     1      18.552 -10.317  64.119  1.00  0.00     0.158 C 
ATOM      8  O   UNL     1      19.444 -10.172  63.241  1.00  0.00    -0.295 OA
ENDROOT
BRANCH   5   9
ATOM      9  C   UNL     1      14.727 -10.768  64.358  1.00  0.00    -0.077 C 
ATOM     10  C   UNL     1      14.152 -11.786  65.021  1.00  0.00     0.008 C 
ATOM     11  C   UNL     1      13.961 -10.112  63.238  1.00  0.00     0.039 C 
ENDBRANCH   5   9
TORSDOF 1
ENDMDL
MODEL 4
REMARK VINA RESULT:    -4.724      2.389      4.655
REMARK INTER + INTRA:          -5.090
REMARK INTER:                  -4.997
REMARK INTRA:                  -0.093
REMARK UNBOUND:                -0.090
REMARK SMILES C=C(C)[C@H]1CC=C(C)C(=O)C1
REMARK SMILES IDX 8 1 7 2 6 3 5 4 4 5 11 6 9 7 10 8 2 9 1 10 3 11
REMARK H PARENT
REMARK Flexibility Score: inf
ROOT
ATOM      1  C   UNL     1      17.334  -9.583  63.238  1.00  0.00     0.048 C 
ATOM      2  C   UNL     1      17.841  -9.715  64.649  1.00  0.00    -0.012 C 
ATOM      3  C   UNL     1      16.996 -10.066  65.633  1.00  0.00    -0.019 C 
ATOM      4  C   UNL     1      17.446 -10.194  67.064  1.00  0.00     0.036 C 
ATOM      5  C   UNL     1      18.908 -10.674  67.145  1.00  0.00     0.025 C 
ATOM      6  C   UNL     1      19.822  -9.743  66.327  1.00  0.00     0.089 C 
ATOM      7  C   UNL     1      19.292  -9.577  64.929  1.00  0.00     0.158 C 
ATOM      8  O   UNL     1      20.092  -9.282  64.000  1.00  0.00    -0.295 OA
ENDROOT
BRANCH   5   9
ATOM      9  C   UNL     1      19.380 -10.799  68.588  1.00  0.00    -0.077 C 
ATOM     10  C   UNL     1      19.260  -9.778  69.453  1.00  0.00     0.008 C 
ATOM     11  C   UNL     1      19.997 -12.086  69.073  1.00  0.00     0.039 C 
ENDBRANCH   5   9
TORSDOF 1
ENDMDL
MODEL 5
REMARK VINA RESULT:    -4.657      3.697      5.946
REMARK INTER + INTRA:          -5.020
REMARK INTER:                  -4.925
REMARK INTRA:                  -0.095
REMARK UNBOUND:                -0.090
REMARK SMILES C=C(C)[C@H]1CC=C(C)C(=O)C1
REMARK SMILES IDX 8 1 7 2 6 3 5 4 4 5 11 6 9 7 10 8 2 9 1 10 3 11
REMARK H PARENT
REMARK Flexibility Score: inf
ROOT
ATOM      1  C   UNL     1      14.440 -11.577  61.143  1.00  0.00     0.048 C 
ATOM      2  C   UNL     1      15.235 -11.406  62.409  1.00  0.00    -0.012 C 
ATOM      3  C   UNL     1      14.781 -10.594  63.379  1.00  0.00    -0.019 C 
ATOM      4  C   UNL     1      15.545 -10.373  64.658  1.00  0.00     0.036 C 
ATOM      5  C   UNL     1      16.325 -11.638  65.064  1.00  0.00     0.025 C 
ATOM      6  C   UNL     1      17.237 -12.097  63.911  1.00  0.00     0.089 C 
ATOM      7  C   UNL     1      16.451 -12.227  62.635  1.00  0.00     0.158 C 
ATOM      8  O   UNL     1      16.859 -13.016  61.740  1.00  0.00    -0.295 OA
ENDROOT
BRANCH   5   9
ATOM      9  C   UNL     1      17.110 -11.426  66.352  1.00  0.00    -0.077 C 
ATOM     10  C   UNL     1      17.734 -12.445  66.966  1.00  0.00     0.008 C 
ATOM     11  C   UNL     1      17.200 -10.051  66.964  1.00  0.00     0.039 C 
ENDBRANCH   5   9
TORSDOF 1
ENDMDL
MODEL 6
REMARK VINA RESULT:    -4.622      2.117      4.635
REMARK INTER + INTRA:          -4.983
REMARK INTER:                  -4.894
REMARK INTRA:                  -0.089
REMARK UNBOUND:                -0.090
REMARK SMILES C=C(C)[C@H]1CC=C(C)C(=O)C1
REMARK SMILES IDX 8 1 7 2 6 3 5 4 4 5 11 6 9 7 10 8 2 9 1 10 3 11
REMARK H PARENT
REMARK Flexibility Score: inf
ROOT
ATOM      1  C   UNL     1      16.514  -9.991  64.882  1.00  0.00     0.048 C 
ATOM      2  C   UNL     1      17.263 -10.685  65.987  1.00  0.00    -0.012 C 
ATOM      3  C   UNL     1      17.579 -10.011  67.106  1.00  0.00    -0.019 C 
ATOM      4  C   UNL     1      18.343 -10.651  68.234  1.00  0.00     0.036 C 
ATOM      5  C   UNL     1      18.012 -12.152  68.348  1.00  0.00     0.025 C 
ATOM      6  C   UNL     1      18.259 -12.857  67.001  1.00  0.00     0.089 C 
ATOM      7  C   UNL     1      17.544 -12.139  65.889  1.00  0.00     0.158 C 
ATOM      8  O   UNL     1      17.217 -12.780  64.854  1.00  0.00    -0.295 OA
ENDROOT
BRANCH   5   9
ATOM      9  C   UNL     1      18.787 -12.815  69.480  1.00  0.00    -0.077 C 
ATOM     10  C   UNL     1      18.160 -13.523  70.434  1.00  0.00     0.008 C 
ATOM     11  C   UNL     1      20.287 -12.685  69.546  1.00  0.00     0.039 C 
ENDBRANCH   5   9
TORSDOF 1
ENDMDL
MODEL 7
REMARK VINA RESULT:    -4.614      3.284      4.692
REMARK INTER + INTRA:          -4.974
REMARK INTER:                  -4.884
REMARK INTRA:                  -0.090
REMARK UNBOUND:                -0.090
REMARK SMILES C=C(C)[C@H]1CC=C(C)C(=O)C1
REMARK SMILES IDX 8 1 7 2 6 3 5 4 4 5 11 6 9 7 10 8 2 9 1 10 3 11
REMARK H PARENT
REMARK Flexibility Score: inf
ROOT
ATOM      1  C   UNL     1      23.181 -10.813  64.351  1.00  0.00     0.048 C 
ATOM      2  C   UNL     1      21.705 -10.722  64.628  1.00  0.00    -0.012 C 
ATOM      3  C   UNL     1      21.149 -11.523  65.553  1.00  0.00    -0.019 C 
ATOM      4  C   UNL     1      19.675 -11.486  65.857  1.00  0.00     0.036 C 
ATOM      5  C   UNL     1      19.106 -10.066  65.676  1.00  0.00     0.025 C 
ATOM      6  C   UNL     1      19.423  -9.539  64.264  1.00  0.00     0.089 C 
ATOM      7  C   UNL     1      20.893  -9.669  63.970  1.00  0.00     0.158 C 
ATOM      8  O   UNL     1      21.422  -8.894  63.128  1.00  0.00    -0.295 OA
ENDROOT
BRANCH   5   9
ATOM      9  C   UNL     1      17.612 -10.016  65.971  1.00  0.00    -0.077 C 
ATOM     10  C   UNL     1      17.148 -10.033  67.232  1.00  0.00     0.008 C 
ATOM     11  C   UNL     1      16.619  -9.947  64.838  1.00  0.00     0.039 C 
ENDBRANCH   5   9
TORSDOF 1
ENDMDL
MODEL 8
REMARK VINA RESULT:    -4.610      2.385      3.410
REMARK INTER + INTRA:          -4.969
REMARK INTER:                  -4.875
REMARK INTRA:                  -0.094
REMARK UNBOUND:                -0.090
REMARK SMILES C=C(C)[C@H]1CC=C(C)C(=O)C1
REMARK SMILES IDX 8 1 7 2 6 3 5 4 4 5 11 6 9 7 10 8 2 9 1 10 3 11
REMARK H PARENT
REMARK Flexibility Score: inf
ROOT
ATOM      1  C   UNL     1      18.767  -9.862  68.415  1.00  0.00     0.048 C 
ATOM      2  C   UNL     1      18.248 -10.050  67.015  1.00  0.00    -0.012 C 
ATOM      3  C   UNL     1      16.982 -10.455  66.820  1.00  0.00    -0.019 C 
ATOM      4  C   UNL     1      16.418 -10.676  65.442  1.00  0.00     0.036 C 
ATOM      5  C   UNL     1      17.043  -9.703  64.424  1.00  0.00     0.025 C 
ATOM      6  C   UNL     1      18.579  -9.814  64.451  1.00  0.00     0.089 C 
ATOM      7  C   UNL     1      19.095  -9.669  65.856  1.00  0.00     0.158 C 
ATOM      8  O   UNL     1      20.271  -9.255  66.039  1.00  0.00    -0.295 OA
ENDROOT
BRANCH   5   9
ATOM      9  C   UNL     1      16.488  -9.922  63.022  1.00  0.00    -0.077 C 
ATOM     10  C   UNL     1      16.286 -11.158  62.536  1.00  0.00     0.008 C 
ATOM     11  C   UNL     1      16.153  -8.739  62.149  1.00  0.00     0.039 C 
ENDBRANCH   5   9
TORSDOF 1
ENDMDL
MODEL 9
REMARK VINA RESULT:    -4.567      1.636      4.362
REMARK INTER + INTRA:          -4.925
REMARK INTER:                  -4.828
REMARK INTRA:                  -0.097
REMARK UNBOUND:                -0.090
REMARK SMILES C=C(C)[C@H]1CC=C(C)C(=O)C1
REMARK SMILES IDX 8 1 7 2 6 3 5 4 4 5 11 6 9 7 10 8 2 9 1 10 3 11
REMARK H PARENT
REMARK Flexibility Score: inf
ROOT
ATOM      1  C   UNL     1      17.085  -9.695  64.816  1.00  0.00     0.048 C 
ATOM      2  C   UNL     1      17.526 -10.371  66.085  1.00  0.00    -0.012 C 
ATOM      3  C   UNL     1      16.791 -11.370  66.601  1.00  0.00    -0.019 C 
ATOM      4  C   UNL     1      17.177 -12.069  67.878  1.00  0.00     0.036 C 
ATOM      5  C   UNL     1      18.708 -12.125  68.039  1.00  0.00     0.025 C 
ATOM      6  C   UNL     1      19.308 -10.709  67.944  1.00  0.00     0.089 C 
ATOM      7  C   UNL     1      18.832 -10.017  66.696  1.00  0.00     0.158 C 
ATOM      8  O   UNL     1      19.540  -9.103  66.192  1.00  0.00    -0.295 OA
ENDROOT
BRANCH   5   9
ATOM      9  C   UNL     1      19.113 -12.821  69.332  1.00  0.00    -0.077 C 
ATOM     10  C   UNL     1      20.400 -12.893  69.712  1.00  0.00     0.008 C 
ATOM     11  C   UNL     1      18.063 -13.446  70.214  1.00  0.00     0.039 C 
ENDBRANCH   5   9
TORSDOF 1
ENDMDL
