MODEL 1
REMARK VINA RESULT:    -3.216      0.000      0.000
REMARK INTER + INTRA:          -7.035
REMARK INTER:                  -5.002
REMARK INTRA:                  -2.033
REMARK UNBOUND:                -2.033
REMARK SMILES COc1cc(CNC(=O)CCCCC=CC(C)C)ccc1O
REMARK SMILES IDX 11 1 12 2 13 3 14 4 15 5 16 6 17 7 18 8 10 9 8 10 9 11 7 12
REMARK SMILES IDX 6 14 5 15 4 16 19 17 3 18 20 19 21 20 2 21 1 22 22 23
REMARK H PARENT 7 13 22 24
REMARK Flexibility Score: inf
ROOT
ATOM      1  C   UNL     1      51.870 -31.488  23.053  1.00  0.00     0.010 C 
ENDROOT
BRANCH   1   2
ATOM      2  C   UNL     1      51.723 -30.236  23.935  1.00  0.00     0.005 C 
BRANCH   2   3
ATOM      3  C   UNL     1      52.400 -30.368  25.310  1.00  0.00     0.027 C 
BRANCH   3   4
ATOM      4  C   UNL     1      53.760 -29.709  25.321  1.00  0.00    -0.031 C 
ATOM      5  C   UNL     1      54.937 -30.346  25.159  1.00  0.00    -0.028 C 
BRANCH   5   6
ATOM      6  C   UNL     1      55.093 -31.843  24.998  1.00  0.00     0.005 C 
ATOM      7  C   UNL     1      55.758 -32.164  23.655  1.00  0.00     0.012 C 
ATOM      8  C   UNL     1      55.916 -32.418  26.154  1.00  0.00     0.012 C 
ENDBRANCH   5   6
ENDBRANCH   3   4
ENDBRANCH   2   3
ENDBRANCH   1   2
BRANCH   1   9
ATOM      9  C   UNL     1      50.684 -32.449  23.199  1.00  0.00     0.100 C 
BRANCH   9  10
ATOM     10  C   UNL     1      51.169 -33.841  23.475  1.00  0.00     0.220 C 
ATOM     11  O   UNL     1      50.608 -34.817  22.907  1.00  0.00    -0.275 OA
ATOM     12  N   UNL     1      52.289 -34.057  24.348  1.00  0.00    -0.352 N 
ATOM     13  H   UNL     1      52.729 -33.240  24.827  1.00  0.00     0.163 HD
BRANCH  12  14
ATOM     14  C   UNL     1      52.850 -35.384  24.590  1.00  0.00     0.151 C 
BRANCH  14  15
ATOM     15  C   UNL     1      54.184 -35.520  23.908  1.00  0.00    -0.025 A 
ATOM     16  C   UNL     1      55.338 -35.765  24.668  1.00  0.00     0.056 A 
ATOM     17  C   UNL     1      54.285 -35.419  22.513  1.00  0.00     0.009 A 
ATOM     18  C   UNL     1      56.593 -35.907  24.042  1.00  0.00     0.160 A 
ATOM     19  C   UNL     1      55.525 -35.555  21.886  1.00  0.00     0.050 A 
ATOM     20  C   UNL     1      56.677 -35.799  22.641  1.00  0.00     0.157 A 
BRANCH  18  21
ATOM     21  O   UNL     1      57.764 -36.154  24.774  1.00  0.00    -0.493 OA
ATOM     22  C   UNL     1      58.576 -35.145  25.363  1.00  0.00     0.278 C 
ENDBRANCH  18  21
BRANCH  20  23
ATOM     23  O   UNL     1      57.898 -35.935  21.979  1.00  0.00    -0.504 OA
ATOM     24  H   UNL     1      58.072 -36.677  21.312  1.00  0.00     0.293 HD
ENDBRANCH  20  23
ENDBRANCH  14  15
ENDBRANCH  12  14
ENDBRANCH   9  10
ENDBRANCH   1   9
TORSDOF 10
ENDMDL
MODEL 2
REMARK VINA RESULT:    -3.155      2.555      4.573
REMARK INTER + INTRA:          -6.940
REMARK INTER:                  -4.507
REMARK INTRA:                  -2.433
REMARK UNBOUND:                -2.033
REMARK SMILES COc1cc(CNC(=O)CCCCC=CC(C)C)ccc1O
REMARK SMILES IDX 11 1 12 2 13 3 14 4 15 5 16 6 17 7 18 8 10 9 8 10 9 11 7 12
REMARK SMILES IDX 6 14 5 15 4 16 19 17 3 18 20 19 21 20 2 21 1 22 22 23
REMARK H PARENT 7 13 22 24
REMARK Flexibility Score: inf
ROOT
ATOM      1  C   UNL     1      52.610 -28.343  23.723  1.00  0.00     0.010 C 
ENDROOT
BRANCH   1   2
ATOM      2  C   UNL     1      51.076 -28.277  23.613  1.00  0.00     0.005 C 
BRANCH   2   3
ATOM      3  C   UNL     1      50.449 -29.533  22.985  1.00  0.00     0.027 C 
BRANCH   3   4
ATOM      4  C   UNL     1      51.437 -30.676  22.932  1.00  0.00    -0.031 C 
ATOM      5  C   UNL     1      51.440 -31.744  23.755  1.00  0.00    -0.028 C 
BRANCH   5   6
ATOM      6  C   UNL     1      50.486 -31.945  24.912  1.00  0.00     0.005 C 
ATOM      7  C   UNL     1      50.223 -33.439  25.128  1.00  0.00     0.012 C 
ATOM      8  C   UNL     1      51.053 -31.311  26.185  1.00  0.00     0.012 C 
ENDBRANCH   5   6
ENDBRANCH   3   4
ENDBRANCH   2   3
ENDBRANCH   1   2
BRANCH   1   9
ATOM      9  C   UNL     1      53.097 -28.221  25.172  1.00  0.00     0.100 C 
BRANCH   9  10
ATOM     10  C   UNL     1      54.142 -29.259  25.460  1.00  0.00     0.220 C 
ATOM     11  O   UNL     1      54.526 -29.438  26.648  1.00  0.00    -0.275 OA
ATOM     12  N   UNL     1      54.669 -30.069  24.399  1.00  0.00    -0.352 N 
ATOM     13  H   UNL     1      54.356 -29.895  23.418  1.00  0.00     0.163 HD
BRANCH  12  14
ATOM     14  C   UNL     1      55.630 -31.144  24.636  1.00  0.00     0.151 C 
BRANCH  14  15
ATOM     15  C   UNL     1      54.921 -32.468  24.727  1.00  0.00    -0.025 A 
ATOM     16  C   UNL     1      54.825 -33.290  23.594  1.00  0.00     0.056 A 
ATOM     17  C   UNL     1      54.366 -32.898  25.941  1.00  0.00     0.009 A 
ATOM     18  C   UNL     1      54.174 -34.539  23.667  1.00  0.00     0.160 A 
ATOM     19  C   UNL     1      53.717 -34.131  26.020  1.00  0.00     0.050 A 
ATOM     20  C   UNL     1      53.619 -34.953  24.893  1.00  0.00     0.157 A 
BRANCH  18  21
ATOM     21  O   UNL     1      54.063 -35.384  22.553  1.00  0.00    -0.493 OA
ATOM     22  C   UNL     1      55.164 -35.858  21.785  1.00  0.00     0.278 C 
ENDBRANCH  18  21
BRANCH  20  23
ATOM     23  O   UNL     1      52.969 -36.182  25.011  1.00  0.00    -0.504 OA
ATOM     24  H   UNL     1      52.045 -36.268  25.416  1.00  0.00     0.293 HD
ENDBRANCH  20  23
ENDBRANCH  14  15
ENDBRANCH  12  14
ENDBRANCH   9  10
ENDBRANCH   1   9
TORSDOF 10
ENDMDL
MODEL 3
REMARK VINA RESULT:    -3.097      4.777      8.262
REMARK INTER + INTRA:          -6.850
REMARK INTER:                  -5.837
REMARK INTRA:                  -1.013
REMARK UNBOUND:                -2.033
REMARK SMILES COc1cc(CNC(=O)CCCCC=CC(C)C)ccc1O
REMARK SMILES IDX 11 1 12 2 13 3 14 4 15 5 16 6 17 7 18 8 10 9 8 10 9 11 7 12
REMARK SMILES IDX 6 14 5 15 4 16 19 17 3 18 20 19 21 20 2 21 1 22 22 23
REMARK H PARENT 7 13 22 24
REMARK Flexibility Score: inf
ROOT
ATOM      1  C   UNL     1      51.195 -32.489  24.117  1.00  0.00     0.010 C 
ENDROOT
BRANCH   1   2
ATOM      2  C   UNL     1      50.358 -33.706  23.686  1.00  0.00     0.005 C 
BRANCH   2   3
ATOM      3  C   UNL     1      51.192 -34.839  23.064  1.00  0.00     0.027 C 
BRANCH   3   4
ATOM      4  C   UNL     1      52.137 -35.447  24.075  1.00  0.00    -0.031 C 
ATOM      5  C   UNL     1      53.483 -35.417  24.001  1.00  0.00    -0.028 C 
BRANCH   5   6
ATOM      6  C   UNL     1      54.271 -34.819  22.856  1.00  0.00     0.005 C 
ATOM      7  C   UNL     1      55.091 -33.621  23.348  1.00  0.00     0.012 C 
ATOM      8  C   UNL     1      55.187 -35.875  22.232  1.00  0.00     0.012 C 
ENDBRANCH   5   6
ENDBRANCH   3   4
ENDBRANCH   2   3
ENDBRANCH   1   2
BRANCH   1   9
ATOM      9  C   UNL     1      51.512 -31.553  22.944  1.00  0.00     0.100 C 
BRANCH   9  10
ATOM     10  C   UNL     1      50.939 -30.190  23.193  1.00  0.00     0.220 C 
ATOM     11  O   UNL     1      50.084 -29.721  22.392  1.00  0.00    -0.275 OA
ATOM     12  N   UNL     1      51.329 -29.442  24.355  1.00  0.00    -0.352 N 
ATOM     13  H   UNL     1      52.053 -29.835  24.997  1.00  0.00     0.163 HD
BRANCH  12  14
ATOM     14  C   UNL     1      50.745 -28.145  24.686  1.00  0.00     0.151 C 
BRANCH  14  15
ATOM     15  C   UNL     1      51.544 -27.036  24.058  1.00  0.00    -0.025 A 
ATOM     16  C   UNL     1      50.983 -25.757  23.925  1.00  0.00     0.056 A 
ATOM     17  C   UNL     1      52.855 -27.263  23.616  1.00  0.00     0.009 A 
ATOM     18  C   UNL     1      51.723 -24.704  23.349  1.00  0.00     0.160 A 
ATOM     19  C   UNL     1      53.593 -26.227  23.043  1.00  0.00     0.050 A 
ATOM     20  C   UNL     1      53.037 -24.951  22.908  1.00  0.00     0.157 A 
BRANCH  18  21
ATOM     21  O   UNL     1      51.191 -23.415  23.204  1.00  0.00    -0.493 OA
ATOM     22  C   UNL     1      51.308 -22.378  24.172  1.00  0.00     0.278 C 
ENDBRANCH  18  21
BRANCH  20  23
ATOM     23  O   UNL     1      53.808 -23.939  22.335  1.00  0.00    -0.504 OA
ATOM     24  H   UNL     1      54.788 -23.815  22.555  1.00  0.00     0.293 HD
ENDBRANCH  20  23
ENDBRANCH  14  15
ENDBRANCH  12  14
ENDBRANCH   9  10
ENDBRANCH   1   9
TORSDOF 10
ENDMDL
MODEL 4
REMARK VINA RESULT:    -3.066      3.238      6.001
REMARK INTER + INTRA:          -6.802
REMARK INTER:                  -5.605
REMARK INTRA:                  -1.197
REMARK UNBOUND:                -2.033
REMARK SMILES COc1cc(CNC(=O)CCCCC=CC(C)C)ccc1O
REMARK SMILES IDX 11 1 12 2 13 3 14 4 15 5 16 6 17 7 18 8 10 9 8 10 9 11 7 12
REMARK SMILES IDX 6 14 5 15 4 16 19 17 3 18 20 19 21 20 2 21 1 22 22 23
REMARK H PARENT 7 13 22 24
REMARK Flexibility Score: inf
ROOT
ATOM      1  C   UNL     1      50.031 -33.753  23.211  1.00  0.00     0.010 C 
ENDROOT
BRANCH   1   2
ATOM      2  C   UNL     1      51.321 -34.590  23.124  1.00  0.00     0.005 C 
BRANCH   2   3
ATOM      3  C   UNL     1      52.307 -34.324  24.273  1.00  0.00     0.027 C 
BRANCH   3   4
ATOM      4  C   UNL     1      53.457 -33.452  23.824  1.00  0.00    -0.031 C 
ATOM      5  C   UNL     1      54.639 -33.899  23.355  1.00  0.00    -0.028 C 
BRANCH   5   6
ATOM      6  C   UNL     1      55.032 -35.357  23.258  1.00  0.00     0.005 C 
ATOM      7  C   UNL     1      55.019 -35.812  21.794  1.00  0.00     0.012 C 
ATOM      8  C   UNL     1      56.416 -35.576  23.874  1.00  0.00     0.012 C 
ENDBRANCH   5   6
ENDBRANCH   3   4
ENDBRANCH   2   3
ENDBRANCH   1   2
BRANCH   1   9
ATOM      9  C   UNL     1      50.139 -32.432  22.439  1.00  0.00     0.100 C 
BRANCH   9  10
ATOM     10  C   UNL     1      50.128 -31.270  23.387  1.00  0.00     0.220 C 
ATOM     11  O   UNL     1      49.879 -31.469  24.608  1.00  0.00    -0.275 OA
ATOM     12  N   UNL     1      50.436 -29.949  22.917  1.00  0.00    -0.352 N 
ATOM     13  H   UNL     1      50.618 -29.798  21.900  1.00  0.00     0.163 HD
BRANCH  12  14
ATOM     14  C   UNL     1      50.514 -28.796  23.811  1.00  0.00     0.151 C 
BRANCH  14  15
ATOM     15  C   UNL     1      51.937 -28.324  23.932  1.00  0.00    -0.025 A 
ATOM     16  C   UNL     1      52.938 -29.218  24.341  1.00  0.00     0.056 A 
ATOM     17  C   UNL     1      52.277 -26.999  23.626  1.00  0.00     0.009 A 
ATOM     18  C   UNL     1      54.278 -28.794  24.447  1.00  0.00     0.160 A 
ATOM     19  C   UNL     1      53.602 -26.571  23.732  1.00  0.00     0.050 A 
ATOM     20  C   UNL     1      54.602 -27.459  24.139  1.00  0.00     0.157 A 
BRANCH  18  21
ATOM     21  O   UNL     1      55.303 -29.664  24.852  1.00  0.00    -0.493 OA
ATOM     22  C   UNL     1      55.232 -30.524  25.984  1.00  0.00     0.278 C 
ENDBRANCH  18  21
BRANCH  20  23
ATOM     23  O   UNL     1      55.916 -26.996  24.229  1.00  0.00    -0.504 OA
ATOM     24  H   UNL     1      56.608 -27.193  23.517  1.00  0.00     0.293 HD
ENDBRANCH  20  23
ENDBRANCH  14  15
ENDBRANCH  12  14
ENDBRANCH   9  10
ENDBRANCH   1   9
TORSDOF 10
ENDMDL
MODEL 5
REMARK VINA RESULT:    -3.042      2.489      4.420
REMARK INTER + INTRA:          -6.764
REMARK INTER:                  -4.543
REMARK INTRA:                  -2.222
REMARK UNBOUND:                -2.033
REMARK SMILES COc1cc(CNC(=O)CCCCC=CC(C)C)ccc1O
REMARK SMILES IDX 11 1 12 2 13 3 14 4 15 5 16 6 17 7 18 8 10 9 8 10 9 11 7 12
REMARK SMILES IDX 6 14 5 15 4 16 19 17 3 18 20 19 21 20 2 21 1 22 22 23
REMARK H PARENT 7 13 22 24
REMARK Flexibility Score: inf
ROOT
ATOM      1  C   UNL     1      52.060 -28.432  23.518  1.00  0.00     0.010 C 
ENDROOT
BRANCH   1   2
ATOM      2  C   UNL     1      50.558 -28.771  23.533  1.00  0.00     0.005 C 
BRANCH   2   3
ATOM      3  C   UNL     1      50.203 -30.030  22.725  1.00  0.00     0.027 C 
BRANCH   3   4
ATOM      4  C   UNL     1      51.351 -31.012  22.700  1.00  0.00    -0.031 C 
ATOM      5  C   UNL     1      51.324 -32.258  23.214  1.00  0.00    -0.028 C 
BRANCH   5   6
ATOM      6  C   UNL     1      50.152 -32.858  23.960  1.00  0.00     0.005 C 
ATOM      7  C   UNL     1      50.050 -34.359  23.666  1.00  0.00     0.012 C 
ATOM      8  C   UNL     1      50.299 -32.616  25.464  1.00  0.00     0.012 C 
ENDBRANCH   5   6
ENDBRANCH   3   4
ENDBRANCH   2   3
ENDBRANCH   1   2
BRANCH   1   9
ATOM      9  C   UNL     1      52.644 -28.306  24.931  1.00  0.00     0.100 C 
BRANCH   9  10
ATOM     10  C   UNL     1      53.740 -29.310  25.134  1.00  0.00     0.220 C 
ATOM     11  O   UNL     1      54.914 -29.028  24.766  1.00  0.00    -0.275 OA
ATOM     12  N   UNL     1      53.464 -30.563  25.777  1.00  0.00    -0.352 N 
ATOM     13  H   UNL     1      52.484 -30.790  26.057  1.00  0.00     0.163 HD
BRANCH  12  14
ATOM     14  C   UNL     1      54.509 -31.542  26.068  1.00  0.00     0.151 C 
BRANCH  14  15
ATOM     15  C   UNL     1      54.418 -32.702  25.115  1.00  0.00    -0.025 A 
ATOM     16  C   UNL     1      53.733 -33.867  25.492  1.00  0.00     0.056 A 
ATOM     17  C   UNL     1      55.001 -32.626  23.842  1.00  0.00     0.009 A 
ATOM     18  C   UNL     1      53.629 -34.957  24.605  1.00  0.00     0.160 A 
ATOM     19  C   UNL     1      54.905 -33.703  22.959  1.00  0.00     0.050 A 
ATOM     20  C   UNL     1      54.223 -34.865  23.331  1.00  0.00     0.157 A 
BRANCH  18  21
ATOM     21  O   UNL     1      52.949 -36.135  24.952  1.00  0.00    -0.493 OA
ATOM     22  C   UNL     1      52.156 -36.295  26.124  1.00  0.00     0.278 C 
ENDBRANCH  18  21
BRANCH  20  23
ATOM     23  O   UNL     1      54.143 -35.919  22.421  1.00  0.00    -0.504 OA
ATOM     24  H   UNL     1      54.820 -36.672  22.403  1.00  0.00     0.293 HD
ENDBRANCH  20  23
ENDBRANCH  14  15
ENDBRANCH  12  14
ENDBRANCH   9  10
ENDBRANCH   1   9
TORSDOF 10
ENDMDL
MODEL 6
REMARK VINA RESULT:    -3.039      1.772      2.801
REMARK INTER + INTRA:          -6.760
REMARK INTER:                  -5.918
REMARK INTRA:                  -0.843
REMARK UNBOUND:                -2.033
REMARK SMILES COc1cc(CNC(=O)CCCCC=CC(C)C)ccc1O
REMARK SMILES IDX 11 1 12 2 13 3 14 4 15 5 16 6 17 7 18 8 10 9 8 10 9 11 7 12
REMARK SMILES IDX 6 14 5 15 4 16 19 17 3 18 20 19 21 20 2 21 1 22 22 23
REMARK H PARENT 7 13 22 24
REMARK Flexibility Score: inf
ROOT
ATOM      1  C   UNL     1      51.771 -31.515  23.063  1.00  0.00     0.010 C 
ENDROOT
BRANCH   1   2
ATOM      2  C   UNL     1      51.508 -30.284  23.948  1.00  0.00     0.005 C 
BRANCH   2   3
ATOM      3  C   UNL     1      50.843 -29.117  23.198  1.00  0.00     0.027 C 
BRANCH   3   4
ATOM      4  C   UNL     1      50.660 -27.916  24.097  1.00  0.00    -0.031 C 
ATOM      5  C   UNL     1      51.504 -26.868  24.181  1.00  0.00    -0.028 C 
BRANCH   5   6
ATOM      6  C   UNL     1      52.812 -26.751  23.429  1.00  0.00     0.005 C 
ATOM      7  C   UNL     1      53.119 -25.280  23.129  1.00  0.00     0.012 C 
ATOM      8  C   UNL     1      53.948 -27.380  24.239  1.00  0.00     0.012 C 
ENDBRANCH   5   6
ENDBRANCH   3   4
ENDBRANCH   2   3
ENDBRANCH   1   2
BRANCH   1   9
ATOM      9  C   UNL     1      50.598 -32.502  23.073  1.00  0.00     0.100 C 
BRANCH   9  10
ATOM     10  C   UNL     1      51.095 -33.902  23.281  1.00  0.00     0.220 C 
ATOM     11  O   UNL     1      50.591 -34.845  22.611  1.00  0.00    -0.275 OA
ATOM     12  N   UNL     1      52.161 -34.161  24.206  1.00  0.00    -0.352 N 
ATOM     13  H   UNL     1      52.554 -33.374  24.769  1.00  0.00     0.163 HD
BRANCH  12  14
ATOM     14  C   UNL     1      52.735 -35.493  24.390  1.00  0.00     0.151 C 
BRANCH  14  15
ATOM     15  C   UNL     1      54.102 -35.564  23.768  1.00  0.00    -0.025 A 
ATOM     16  C   UNL     1      55.242 -35.608  24.586  1.00  0.00     0.056 A 
ATOM     17  C   UNL     1      54.251 -35.602  22.375  1.00  0.00     0.009 A 
ATOM     18  C   UNL     1      56.530 -35.687  24.018  1.00  0.00     0.160 A 
ATOM     19  C   UNL     1      55.523 -35.677  21.805  1.00  0.00     0.050 A 
ATOM     20  C   UNL     1      56.661 -35.721  22.617  1.00  0.00     0.157 A 
BRANCH  18  21
ATOM     21  O   UNL     1      57.688 -35.733  24.809  1.00  0.00    -0.493 OA
ATOM     22  C   UNL     1      57.946 -36.715  25.807  1.00  0.00     0.278 C 
ENDBRANCH  18  21
BRANCH  20  23
ATOM     23  O   UNL     1      57.916 -35.801  22.012  1.00  0.00    -0.504 OA
ATOM     24  H   UNL     1      58.190 -36.589  21.438  1.00  0.00     0.293 HD
ENDBRANCH  20  23
ENDBRANCH  14  15
ENDBRANCH  12  14
ENDBRANCH   9  10
ENDBRANCH   1   9
TORSDOF 10
ENDMDL
MODEL 7
REMARK VINA RESULT:    -3.010      3.676      6.896
REMARK INTER + INTRA:          -6.715
REMARK INTER:                  -5.788
REMARK INTRA:                  -0.927
REMARK UNBOUND:                -2.033
REMARK SMILES COc1cc(CNC(=O)CCCCC=CC(C)C)ccc1O
REMARK SMILES IDX 11 1 12 2 13 3 14 4 15 5 16 6 17 7 18 8 10 9 8 10 9 11 7 12
REMARK SMILES IDX 6 14 5 15 4 16 19 17 3 18 20 19 21 20 2 21 1 22 22 23
REMARK H PARENT 7 13 22 24
REMARK Flexibility Score: inf
ROOT
ATOM      1  C   UNL     1      52.236 -33.662  23.754  1.00  0.00     0.010 C 
ENDROOT
BRANCH   1   2
ATOM      2  C   UNL     1      52.350 -35.196  23.827  1.00  0.00     0.005 C 
BRANCH   2   3
ATOM      3  C   UNL     1      53.492 -35.686  24.733  1.00  0.00     0.027 C 
BRANCH   3   4
ATOM      4  C   UNL     1      54.705 -34.792  24.625  1.00  0.00    -0.031 C 
ATOM      5  C   UNL     1      55.733 -34.970  23.771  1.00  0.00    -0.028 C 
BRANCH   5   6
ATOM      6  C   UNL     1      55.868 -36.136  22.816  1.00  0.00     0.005 C 
ATOM      7  C   UNL     1      55.229 -35.792  21.466  1.00  0.00     0.012 C 
ATOM      8  C   UNL     1      57.343 -36.503  22.631  1.00  0.00     0.012 C 
ENDBRANCH   5   6
ENDBRANCH   3   4
ENDBRANCH   2   3
ENDBRANCH   1   2
BRANCH   1   9
ATOM      9  C   UNL     1      50.918 -33.205  23.116  1.00  0.00     0.100 C 
BRANCH   9  10
ATOM     10  C   UNL     1      50.578 -31.813  23.561  1.00  0.00     0.220 C 
ATOM     11  O   UNL     1      49.966 -31.643  24.651  1.00  0.00    -0.275 OA
ATOM     12  N   UNL     1      50.981 -30.684  22.773  1.00  0.00    -0.352 N 
ATOM     13  H   UNL     1      51.468 -30.842  21.863  1.00  0.00     0.163 HD
BRANCH  12  14
ATOM     14  C   UNL     1      50.744 -29.306  23.198  1.00  0.00     0.151 C 
BRANCH  14  15
ATOM     15  C   UNL     1      52.028 -28.671  23.655  1.00  0.00    -0.025 A 
ATOM     16  C   UNL     1      52.224 -27.291  23.494  1.00  0.00     0.056 A 
ATOM     17  C   UNL     1      53.031 -29.444  24.258  1.00  0.00     0.009 A 
ATOM     18  C   UNL     1      53.417 -26.679  23.929  1.00  0.00     0.160 A 
ATOM     19  C   UNL     1      54.217 -28.846  24.688  1.00  0.00     0.050 A 
ATOM     20  C   UNL     1      54.415 -27.471  24.529  1.00  0.00     0.157 A 
BRANCH  18  21
ATOM     21  O   UNL     1      53.642 -25.302  23.783  1.00  0.00    -0.493 OA
ATOM     22  C   UNL     1      53.106 -24.503  22.734  1.00  0.00     0.278 C 
ENDBRANCH  18  21
BRANCH  20  23
ATOM     23  O   UNL     1      55.610 -26.908  24.976  1.00  0.00    -0.504 OA
ATOM     24  H   UNL     1      56.038 -27.173  25.855  1.00  0.00     0.293 HD
ENDBRANCH  20  23
ENDBRANCH  14  15
ENDBRANCH  12  14
ENDBRANCH   9  10
ENDBRANCH   1   9
TORSDOF 10
ENDMDL
MODEL 8
REMARK VINA RESULT:    -2.993      2.436      5.411
REMARK INTER + INTRA:          -6.689
REMARK INTER:                  -5.086
REMARK INTRA:                  -1.602
REMARK UNBOUND:                -2.033
REMARK SMILES COc1cc(CNC(=O)CCCCC=CC(C)C)ccc1O
REMARK SMILES IDX 11 1 12 2 13 3 14 4 15 5 16 6 17 7 18 8 10 9 8 10 9 11 7 12
REMARK SMILES IDX 6 14 5 15 4 16 19 17 3 18 20 19 21 20 2 21 1 22 22 23
REMARK H PARENT 7 13 22 24
REMARK Flexibility Score: inf
ROOT
ATOM      1  C   UNL     1      53.900 -37.040  26.126  1.00  0.00     0.010 C 
ENDROOT
BRANCH   1   2
ATOM      2  C   UNL     1      55.053 -36.436  26.947  1.00  0.00     0.005 C 
BRANCH   2   3
ATOM      3  C   UNL     1      56.314 -36.144  26.117  1.00  0.00     0.027 C 
BRANCH   3   4
ATOM      4  C   UNL     1      56.147 -34.895  25.281  1.00  0.00    -0.031 C 
ATOM      5  C   UNL     1      55.982 -34.868  23.943  1.00  0.00    -0.028 C 
BRANCH   5   6
ATOM      6  C   UNL     1      55.997 -36.087  23.047  1.00  0.00     0.005 C 
ATOM      7  C   UNL     1      54.921 -35.959  21.963  1.00  0.00     0.012 C 
ATOM      8  C   UNL     1      57.379 -36.263  22.412  1.00  0.00     0.012 C 
ENDBRANCH   5   6
ENDBRANCH   3   4
ENDBRANCH   2   3
ENDBRANCH   1   2
BRANCH   1   9
ATOM      9  C   UNL     1      52.550 -36.930  26.847  1.00  0.00     0.100 C 
BRANCH   9  10
ATOM     10  C   UNL     1      51.514 -36.352  25.929  1.00  0.00     0.220 C 
ATOM     11  O   UNL     1      50.442 -35.895  26.413  1.00  0.00    -0.275 OA
ATOM     12  N   UNL     1      51.757 -36.282  24.516  1.00  0.00    -0.352 N 
ATOM     13  H   UNL     1      52.640 -36.684  24.128  1.00  0.00     0.163 HD
BRANCH  12  14
ATOM     14  C   UNL     1      50.816 -35.660  23.587  1.00  0.00     0.151 C 
BRANCH  14  15
ATOM     15  C   UNL     1      51.133 -34.199  23.423  1.00  0.00    -0.025 A 
ATOM     16  C   UNL     1      52.395 -33.710  23.793  1.00  0.00     0.056 A 
ATOM     17  C   UNL     1      50.182 -33.319  22.887  1.00  0.00     0.009 A 
ATOM     18  C   UNL     1      52.711 -32.345  23.634  1.00  0.00     0.160 A 
ATOM     19  C   UNL     1      50.486 -31.966  22.730  1.00  0.00     0.050 A 
ATOM     20  C   UNL     1      51.742 -31.475  23.098  1.00  0.00     0.157 A 
BRANCH  18  21
ATOM     21  O   UNL     1      53.964 -31.826  23.993  1.00  0.00    -0.493 OA
ATOM     22  C   UNL     1      54.330 -31.441  25.314  1.00  0.00     0.278 C 
ENDBRANCH  18  21
BRANCH  20  23
ATOM     23  O   UNL     1      52.013 -30.117  22.920  1.00  0.00    -0.504 OA
ATOM     24  H   UNL     1      51.445 -29.526  22.326  1.00  0.00     0.293 HD
ENDBRANCH  20  23
ENDBRANCH  14  15
ENDBRANCH  12  14
ENDBRANCH   9  10
ENDBRANCH   1   9
TORSDOF 10
ENDMDL
MODEL 9
REMARK VINA RESULT:    -2.965      2.584      4.672
REMARK INTER + INTRA:          -6.645
REMARK INTER:                  -4.743
REMARK INTRA:                  -1.901
REMARK UNBOUND:                -2.033
REMARK SMILES COc1cc(CNC(=O)CCCCC=CC(C)C)ccc1O
REMARK SMILES IDX 11 1 12 2 13 3 14 4 15 5 16 6 17 7 18 8 10 9 8 10 9 11 7 12
REMARK SMILES IDX 6 14 5 15 4 16 19 17 3 18 20 19 21 20 2 21 1 22 22 23
REMARK H PARENT 7 13 22 24
REMARK Flexibility Score: inf
ROOT
ATOM      1  C   UNL     1      51.821 -31.653  23.087  1.00  0.00     0.010 C 
ENDROOT
BRANCH   1   2
ATOM      2  C   UNL     1      51.649 -32.861  24.025  1.00  0.00     0.005 C 
BRANCH   2   3
ATOM      3  C   UNL     1      52.792 -33.885  23.928  1.00  0.00     0.027 C 
BRANCH   3   4
ATOM      4  C   UNL     1      54.096 -33.222  23.546  1.00  0.00    -0.031 C 
ATOM      5  C   UNL     1      55.213 -33.865  23.153  1.00  0.00    -0.028 C 
BRANCH   5   6
ATOM      6  C   UNL     1      55.365 -35.370  23.088  1.00  0.00     0.005 C 
ATOM      7  C   UNL     1      55.062 -35.871  21.672  1.00  0.00     0.012 C 
ATOM      8  C   UNL     1      56.778 -35.780  23.511  1.00  0.00     0.012 C 
ENDBRANCH   5   6
ENDBRANCH   3   4
ENDBRANCH   2   3
ENDBRANCH   1   2
BRANCH   1   9
ATOM      9  C   UNL     1      51.446 -30.329  23.766  1.00  0.00     0.100 C 
BRANCH   9  10
ATOM     10  C   UNL     1      52.539 -29.890  24.695  1.00  0.00     0.220 C 
ATOM     11  O   UNL     1      52.323 -29.867  25.938  1.00  0.00    -0.275 OA
ATOM     12  N   UNL     1      53.830 -29.539  24.177  1.00  0.00    -0.352 N 
ATOM     13  H   UNL     1      53.987 -29.543  23.145  1.00  0.00     0.163 HD
BRANCH  12  14
ATOM     14  C   UNL     1      54.951 -29.179  25.043  1.00  0.00     0.151 C 
BRANCH  14  15
ATOM     15  C   UNL     1      55.969 -30.287  25.068  1.00  0.00    -0.025 A 
ATOM     16  C   UNL     1      57.007 -30.306  24.124  1.00  0.00     0.056 A 
ATOM     17  C   UNL     1      55.900 -31.296  26.039  1.00  0.00     0.009 A 
ATOM     18  C   UNL     1      57.975 -31.330  24.142  1.00  0.00     0.160 A 
ATOM     19  C   UNL     1      56.854 -32.316  26.061  1.00  0.00     0.050 A 
ATOM     20  C   UNL     1      57.889 -32.338  25.122  1.00  0.00     0.157 A 
BRANCH  18  21
ATOM     21  O   UNL     1      59.025 -31.376  23.213  1.00  0.00    -0.493 OA
ATOM     22  C   UNL     1      59.606 -30.234  22.594  1.00  0.00     0.278 C 
ENDBRANCH  18  21
BRANCH  20  23
ATOM     23  O   UNL     1      58.826 -33.370  25.179  1.00  0.00    -0.504 OA
ATOM     24  H   UNL     1      59.298 -33.625  26.038  1.00  0.00     0.293 HD
ENDBRANCH  20  23
ENDBRANCH  14  15
ENDBRANCH  12  14
ENDBRANCH   9  10
ENDBRANCH   1   9
TORSDOF 10
ENDMDL
