MODEL 1
REMARK VINA RESULT:    -3.109      0.000      0.000
REMARK INTER + INTRA:          -8.962
REMARK INTER:                  -5.835
REMARK INTRA:                  -3.127
REMARK UNBOUND:                -3.127
REMARK SMILES CCCCCCCCC=CCCCCCCCC(=O)[O-]
REMARK SMILES IDX 10 1 9 2 11 3 12 4 13 5 14 6 15 7 16 8 17 9 18 10 19 11
REMARK SMILES IDX 20 12 8 13 7 14 6 15 5 16 4 17 3 18 2 19 1 20
REMARK H PARENT
REMARK Flexibility Score: inf
ROOT
ATOM      1  C   UNL     1      61.785  30.627  61.918  1.00  0.00    -0.031 C 
ATOM      2  C   UNL     1      62.664  29.641  61.664  1.00  0.00    -0.031 C 
ENDROOT
BRANCH   1   3
ATOM      3  C   UNL     1      60.439  30.745  61.244  1.00  0.00     0.027 C 
BRANCH   3   4
ATOM      4  C   UNL     1      60.510  31.679  60.030  1.00  0.00     0.004 C 
BRANCH   4   5
ATOM      5  C   UNL     1      60.136  30.934  58.740  1.00  0.00     0.000 C 
BRANCH   5   6
ATOM      6  C   UNL     1      59.051  29.866  58.960  1.00  0.00     0.000 C 
BRANCH   6   7
ATOM      7  C   UNL     1      59.436  28.442  58.511  1.00  0.00     0.000 C 
BRANCH   7   8
ATOM      8  C   UNL     1      59.165  27.332  59.548  1.00  0.00     0.006 C 
BRANCH   8   9
ATOM      9  C   UNL     1      58.343  27.788  60.765  1.00  0.00     0.053 C 
BRANCH   9  10
ATOM     10  C   UNL     1      58.022  26.648  61.681  1.00  0.00     0.041 C 
ATOM     11  O   UNL     1      56.833  26.442  62.043  1.00  0.00    -0.550 OA
ATOM     12  O   UNL     1      59.030  25.792  62.108  1.00  0.00    -0.550 OA
ENDBRANCH   9  10
ENDBRANCH   8   9
ENDBRANCH   7   8
ENDBRANCH   6   7
ENDBRANCH   5   6
ENDBRANCH   4   5
ENDBRANCH   3   4
ENDBRANCH   1   3
BRANCH   2  13
ATOM     13  C   UNL     1      62.452  28.545  60.649  1.00  0.00     0.027 C 
BRANCH  13  14
ATOM     14  C   UNL     1      63.144  28.828  59.303  1.00  0.00     0.004 C 
BRANCH  14  15
ATOM     15  C   UNL     1      64.205  29.942  59.367  1.00  0.00     0.000 C 
BRANCH  15  16
ATOM     16  C   UNL     1      63.980  31.049  58.322  1.00  0.00     0.000 C 
BRANCH  16  17
ATOM     17  C   UNL     1      63.825  32.444  58.952  1.00  0.00    -0.000 C 
BRANCH  17  18
ATOM     18  C   UNL     1      64.500  32.610  60.326  1.00  0.00    -0.000 C 
BRANCH  18  19
ATOM     19  C   UNL     1      64.209  33.970  60.976  1.00  0.00    -0.003 C 
ATOM     20  C   UNL     1      62.789  34.435  60.665  1.00  0.00     0.004 C 
ENDBRANCH  18  19
ENDBRANCH  17  18
ENDBRANCH  16  17
ENDBRANCH  15  16
ENDBRANCH  14  15
ENDBRANCH  13  14
ENDBRANCH   2  13
TORSDOF 15
ENDMDL
MODEL 2
REMARK VINA RESULT:    -2.995      3.326      6.096
REMARK INTER + INTRA:          -8.748
REMARK INTER:                  -5.999
REMARK INTRA:                  -2.749
REMARK UNBOUND:                -3.127
REMARK SMILES CCCCCCCCC=CCCCCCCCC(=O)[O-]
REMARK SMILES IDX 10 1 9 2 11 3 12 4 13 5 14 6 15 7 16 8 17 9 18 10 19 11
REMARK SMILES IDX 20 12 8 13 7 14 6 15 5 16 4 17 3 18 2 19 1 20
REMARK H PARENT
REMARK Flexibility Score: inf
ROOT
ATOM      1  C   UNL     1      63.278  32.740  59.510  1.00  0.00    -0.031 C 
ATOM      2  C   UNL     1      62.110  32.090  59.661  1.00  0.00    -0.031 C 
ENDROOT
BRANCH   1   3
ATOM      3  C   UNL     1      63.913  33.585  60.588  1.00  0.00     0.027 C 
BRANCH   3   4
ATOM      4  C   UNL     1      63.914  35.067  60.198  1.00  0.00     0.004 C 
BRANCH   4   5
ATOM      5  C   UNL     1      63.150  35.909  61.230  1.00  0.00     0.000 C 
BRANCH   5   6
ATOM      6  C   UNL     1      61.908  36.597  60.638  1.00  0.00     0.000 C 
BRANCH   6   7
ATOM      7  C   UNL     1      60.630  35.734  60.616  1.00  0.00     0.000 C 
BRANCH   7   8
ATOM      8  C   UNL     1      59.839  35.769  59.292  1.00  0.00     0.006 C 
BRANCH   8   9
ATOM      9  C   UNL     1      60.465  34.941  58.157  1.00  0.00     0.053 C 
BRANCH   9  10
ATOM     10  C   UNL     1      59.498  33.947  57.591  1.00  0.00     0.041 C 
ATOM     11  O   UNL     1      58.980  33.074  58.335  1.00  0.00    -0.550 OA
ATOM     12  O   UNL     1      59.145  34.007  56.248  1.00  0.00    -0.550 OA
ENDBRANCH   9  10
ENDBRANCH   8   9
ENDBRANCH   7   8
ENDBRANCH   6   7
ENDBRANCH   5   6
ENDBRANCH   4   5
ENDBRANCH   3   4
ENDBRANCH   1   3
BRANCH   2  13
ATOM     13  C   UNL     1      61.254  32.144  60.902  1.00  0.00     0.027 C 
BRANCH  13  14
ATOM     14  C   UNL     1      60.946  30.753  61.484  1.00  0.00     0.004 C 
BRANCH  14  15
ATOM     15  C   UNL     1      62.199  29.914  61.794  1.00  0.00     0.000 C 
BRANCH  15  16
ATOM     16  C   UNL     1      62.122  28.485  61.230  1.00  0.00     0.000 C 
BRANCH  16  17
ATOM     17  C   UNL     1      63.367  28.097  60.413  1.00  0.00    -0.000 C 
BRANCH  17  18
ATOM     18  C   UNL     1      63.405  28.667  58.983  1.00  0.00    -0.000 C 
BRANCH  18  19
ATOM     19  C   UNL     1      64.689  29.455  58.686  1.00  0.00    -0.003 C 
ATOM     20  C   UNL     1      65.439  29.788  59.972  1.00  0.00     0.004 C 
ENDBRANCH  18  19
ENDBRANCH  17  18
ENDBRANCH  16  17
ENDBRANCH  15  16
ENDBRANCH  14  15
ENDBRANCH  13  14
ENDBRANCH   2  13
TORSDOF 15
ENDMDL
MODEL 3
REMARK VINA RESULT:    -2.992     10.174     12.102
REMARK INTER + INTRA:          -8.743
REMARK INTER:                  -6.235
REMARK INTRA:                  -2.508
REMARK UNBOUND:                -3.127
REMARK SMILES CCCCCCCCC=CCCCCCCCC(=O)[O-]
REMARK SMILES IDX 10 1 9 2 11 3 12 4 13 5 14 6 15 7 16 8 17 9 18 10 19 11
REMARK SMILES IDX 20 12 8 13 7 14 6 15 5 16 4 17 3 18 2 19 1 20
REMARK H PARENT
REMARK Flexibility Score: inf
ROOT
ATOM      1  C   UNL     1      57.193  29.280  51.443  1.00  0.00    -0.031 C 
ATOM      2  C   UNL     1      55.917  29.593  51.734  1.00  0.00    -0.031 C 
ENDROOT
BRANCH   1   3
ATOM      3  C   UNL     1      57.742  29.217  50.038  1.00  0.00     0.027 C 
BRANCH   3   4
ATOM      4  C   UNL     1      59.257  28.993  50.047  1.00  0.00     0.004 C 
BRANCH   4   5
ATOM      5  C   UNL     1      59.619  27.652  49.391  1.00  0.00     0.000 C 
BRANCH   5   6
ATOM      6  C   UNL     1      60.828  26.970  50.053  1.00  0.00     0.000 C 
BRANCH   6   7
ATOM      7  C   UNL     1      60.481  25.821  51.022  1.00  0.00     0.000 C 
BRANCH   7   8
ATOM      8  C   UNL     1      60.009  24.517  50.349  1.00  0.00     0.006 C 
BRANCH   8   9
ATOM      9  C   UNL     1      61.117  23.472  50.140  1.00  0.00     0.053 C 
BRANCH   9  10
ATOM     10  C   UNL     1      60.728  22.129  50.677  1.00  0.00     0.041 C 
ATOM     11  O   UNL     1      59.979  22.043  51.685  1.00  0.00    -0.550 OA
ATOM     12  O   UNL     1      61.166  20.973  50.043  1.00  0.00    -0.550 OA
ENDBRANCH   9  10
ENDBRANCH   8   9
ENDBRANCH   7   8
ENDBRANCH   6   7
ENDBRANCH   5   6
ENDBRANCH   4   5
ENDBRANCH   3   4
ENDBRANCH   1   3
BRANCH   2  13
ATOM     13  C   UNL     1      54.851  29.884  50.707  1.00  0.00     0.027 C 
BRANCH  13  14
ATOM     14  C   UNL     1      54.016  28.645  50.338  1.00  0.00     0.004 C 
BRANCH  14  15
ATOM     15  C   UNL     1      53.740  27.701  51.523  1.00  0.00     0.000 C 
BRANCH  15  16
ATOM     16  C   UNL     1      54.149  26.245  51.241  1.00  0.00     0.000 C 
BRANCH  16  17
ATOM     17  C   UNL     1      55.164  26.122  50.091  1.00  0.00    -0.000 C 
BRANCH  17  18
ATOM     18  C   UNL     1      56.578  25.689  50.521  1.00  0.00    -0.000 C 
BRANCH  18  19
ATOM     19  C   UNL     1      56.812  25.824  52.033  1.00  0.00    -0.003 C 
ATOM     20  C   UNL     1      57.161  24.476  52.658  1.00  0.00     0.004 C 
ENDBRANCH  18  19
ENDBRANCH  17  18
ENDBRANCH  16  17
ENDBRANCH  15  16
ENDBRANCH  14  15
ENDBRANCH  13  14
ENDBRANCH   2  13
TORSDOF 15
ENDMDL
MODEL 4
REMARK VINA RESULT:    -2.983      9.488     10.619
REMARK INTER + INTRA:          -8.725
REMARK INTER:                  -6.288
REMARK INTRA:                  -2.437
REMARK UNBOUND:                -3.127
REMARK SMILES CCCCCCCCC=CCCCCCCCC(=O)[O-]
REMARK SMILES IDX 10 1 9 2 11 3 12 4 13 5 14 6 15 7 16 8 17 9 18 10 19 11
REMARK SMILES IDX 20 12 8 13 7 14 6 15 5 16 4 17 3 18 2 19 1 20
REMARK H PARENT
REMARK Flexibility Score: inf
ROOT
ATOM      1  C   UNL     1      56.694  29.367  51.639  1.00  0.00    -0.031 C 
ATOM      2  C   UNL     1      57.958  29.167  51.225  1.00  0.00    -0.031 C 
ENDROOT
BRANCH   1   3
ATOM      3  C   UNL     1      55.534  29.612  50.704  1.00  0.00     0.027 C 
BRANCH   3   4
ATOM      4  C   UNL     1      54.264  28.918  51.208  1.00  0.00     0.004 C 
BRANCH   4   5
ATOM      5  C   UNL     1      53.715  27.943  50.155  1.00  0.00     0.000 C 
BRANCH   5   6
ATOM      6  C   UNL     1      53.914  26.468  50.546  1.00  0.00     0.000 C 
BRANCH   6   7
ATOM      7  C   UNL     1      54.990  25.717  49.736  1.00  0.00     0.000 C 
BRANCH   7   8
ATOM      8  C   UNL     1      56.394  25.695  50.374  1.00  0.00     0.006 C 
BRANCH   8   9
ATOM      9  C   UNL     1      56.394  25.752  51.911  1.00  0.00     0.053 C 
BRANCH   9  10
ATOM     10  C   UNL     1      57.139  24.600  52.513  1.00  0.00     0.041 C 
ATOM     11  O   UNL     1      56.605  23.904  53.415  1.00  0.00    -0.550 OA
ATOM     12  O   UNL     1      58.409  24.275  52.053  1.00  0.00    -0.550 OA
ENDBRANCH   9  10
ENDBRANCH   8   9
ENDBRANCH   7   8
ENDBRANCH   6   7
ENDBRANCH   5   6
ENDBRANCH   4   5
ENDBRANCH   3   4
ENDBRANCH   1   3
BRANCH   2  13
ATOM     13  C   UNL     1      58.402  29.200  49.783  1.00  0.00     0.027 C 
BRANCH  13  14
ATOM     14  C   UNL     1      59.273  27.993  49.393  1.00  0.00     0.004 C 
BRANCH  14  15
ATOM     15  C   UNL     1      59.818  27.200  50.596  1.00  0.00     0.000 C 
BRANCH  15  16
ATOM     16  C   UNL     1      61.060  26.360  50.250  1.00  0.00     0.000 C 
BRANCH  16  17
ATOM     17  C   UNL     1      62.374  27.033  50.682  1.00  0.00    -0.000 C 
BRANCH  17  18
ATOM     18  C   UNL     1      62.896  28.112  49.715  1.00  0.00    -0.000 C 
BRANCH  18  19
ATOM     19  C   UNL     1      63.194  29.447  50.412  1.00  0.00    -0.003 C 
ATOM     20  C   UNL     1      61.963  30.347  50.426  1.00  0.00     0.004 C 
ENDBRANCH  18  19
ENDBRANCH  17  18
ENDBRANCH  16  17
ENDBRANCH  15  16
ENDBRANCH  14  15
ENDBRANCH  13  14
ENDBRANCH   2  13
TORSDOF 15
ENDMDL
MODEL 5
REMARK VINA RESULT:    -2.960      2.097      4.601
REMARK INTER + INTRA:          -8.682
REMARK INTER:                  -5.879
REMARK INTRA:                  -2.804
REMARK UNBOUND:                -3.127
REMARK SMILES CCCCCCCCC=CCCCCCCCC(=O)[O-]
REMARK SMILES IDX 10 1 9 2 11 3 12 4 13 5 14 6 15 7 16 8 17 9 18 10 19 11
REMARK SMILES IDX 20 12 8 13 7 14 6 15 5 16 4 17 3 18 2 19 1 20
REMARK H PARENT
REMARK Flexibility Score: inf
ROOT
ATOM      1  C   UNL     1      60.741  31.138  61.428  1.00  0.00    -0.031 C 
ATOM      2  C   UNL     1      61.774  30.422  61.909  1.00  0.00    -0.031 C 
ENDROOT
BRANCH   1   3
ATOM      3  C   UNL     1      60.740  31.804  60.073  1.00  0.00     0.027 C 
BRANCH   3   4
ATOM      4  C   UNL     1      59.777  31.097  59.113  1.00  0.00     0.004 C 
BRANCH   4   5
ATOM      5  C   UNL     1      60.458  29.899  58.434  1.00  0.00     0.000 C 
BRANCH   5   6
ATOM      6  C   UNL     1      59.649  28.598  58.567  1.00  0.00     0.000 C 
BRANCH   6   7
ATOM      7  C   UNL     1      58.495  28.647  59.589  1.00  0.00     0.000 C 
BRANCH   7   8
ATOM      8  C   UNL     1      58.799  27.991  60.952  1.00  0.00     0.006 C 
BRANCH   8   9
ATOM      9  C   UNL     1      57.758  26.955  61.404  1.00  0.00     0.053 C 
BRANCH   9  10
ATOM     10  C   UNL     1      56.377  27.532  61.451  1.00  0.00     0.041 C 
ATOM     11  O   UNL     1      56.081  28.397  62.316  1.00  0.00    -0.550 OA
ATOM     12  O   UNL     1      55.426  27.140  60.516  1.00  0.00    -0.550 OA
ENDBRANCH   9  10
ENDBRANCH   8   9
ENDBRANCH   7   8
ENDBRANCH   6   7
ENDBRANCH   5   6
ENDBRANCH   4   5
ENDBRANCH   3   4
ENDBRANCH   1   3
BRANCH   2  13
ATOM     13  C   UNL     1      63.083  30.218  61.187  1.00  0.00     0.027 C 
BRANCH  13  14
ATOM     14  C   UNL     1      63.238  28.801  60.607  1.00  0.00     0.004 C 
BRANCH  14  15
ATOM     15  C   UNL     1      62.287  27.763  61.232  1.00  0.00     0.000 C 
BRANCH  15  16
ATOM     16  C   UNL     1      62.164  26.478  60.394  1.00  0.00     0.000 C 
BRANCH  16  17
ATOM     17  C   UNL     1      62.050  25.210  61.258  1.00  0.00    -0.000 C 
BRANCH  17  18
ATOM     18  C   UNL     1      62.148  25.451  62.776  1.00  0.00    -0.000 C 
BRANCH  18  19
ATOM     19  C   UNL     1      60.832  25.164  63.514  1.00  0.00    -0.003 C 
ATOM     20  C   UNL     1      59.945  24.220  62.708  1.00  0.00     0.004 C 
ENDBRANCH  18  19
ENDBRANCH  17  18
ENDBRANCH  16  17
ENDBRANCH  15  16
ENDBRANCH  14  15
ENDBRANCH  13  14
ENDBRANCH   2  13
TORSDOF 15
ENDMDL
MODEL 6
REMARK VINA RESULT:    -2.947      1.205      2.547
REMARK INTER + INTRA:          -8.658
REMARK INTER:                  -6.066
REMARK INTRA:                  -2.592
REMARK UNBOUND:                -3.127
REMARK SMILES CCCCCCCCC=CCCCCCCCC(=O)[O-]
REMARK SMILES IDX 10 1 9 2 11 3 12 4 13 5 14 6 15 7 16 8 17 9 18 10 19 11
REMARK SMILES IDX 20 12 8 13 7 14 6 15 5 16 4 17 3 18 2 19 1 20
REMARK H PARENT
REMARK Flexibility Score: inf
ROOT
ATOM      1  C   UNL     1      61.521  30.289  61.968  1.00  0.00    -0.031 C 
ATOM      2  C   UNL     1      60.784  31.332  61.545  1.00  0.00    -0.031 C 
ENDROOT
BRANCH   1   3
ATOM      3  C   UNL     1      62.940  30.028  61.521  1.00  0.00     0.027 C 
BRANCH   3   4
ATOM      4  C   UNL     1      63.017  28.783  60.632  1.00  0.00     0.004 C 
BRANCH   4   5
ATOM      5  C   UNL     1      62.171  27.639  61.210  1.00  0.00     0.000 C 
BRANCH   5   6
ATOM      6  C   UNL     1      61.109  27.124  60.224  1.00  0.00     0.000 C 
BRANCH   6   7
ATOM      7  C   UNL     1      60.674  28.134  59.143  1.00  0.00     0.000 C 
BRANCH   7   8
ATOM      8  C   UNL     1      59.215  28.622  59.251  1.00  0.00     0.006 C 
BRANCH   8   9
ATOM      9  C   UNL     1      58.623  28.545  60.667  1.00  0.00     0.053 C 
BRANCH   9  10
ATOM     10  C   UNL     1      57.448  27.617  60.733  1.00  0.00     0.041 C 
ATOM     11  O   UNL     1      56.752  27.404  59.706  1.00  0.00    -0.550 OA
ATOM     12  O   UNL     1      57.144  26.963  61.920  1.00  0.00    -0.550 OA
ENDBRANCH   9  10
ENDBRANCH   8   9
ENDBRANCH   7   8
ENDBRANCH   6   7
ENDBRANCH   5   6
ENDBRANCH   4   5
ENDBRANCH   3   4
ENDBRANCH   1   3
BRANCH   2  13
ATOM     13  C   UNL     1      61.249  32.358  60.542  1.00  0.00     0.027 C 
BRANCH  13  14
ATOM     14  C   UNL     1      61.317  31.810  59.106  1.00  0.00     0.004 C 
BRANCH  14  15
ATOM     15  C   UNL     1      62.414  32.457  58.240  1.00  0.00     0.000 C 
BRANCH  15  16
ATOM     16  C   UNL     1      63.741  31.679  58.270  1.00  0.00     0.000 C 
BRANCH  16  17
ATOM     17  C   UNL     1      64.742  32.245  59.293  1.00  0.00    -0.000 C 
BRANCH  17  18
ATOM     18  C   UNL     1      64.572  33.744  59.603  1.00  0.00    -0.000 C 
BRANCH  18  19
ATOM     19  C   UNL     1      64.407  34.030  61.103  1.00  0.00    -0.003 C 
ATOM     20  C   UNL     1      65.021  35.376  61.476  1.00  0.00     0.004 C 
ENDBRANCH  18  19
ENDBRANCH  17  18
ENDBRANCH  16  17
ENDBRANCH  15  16
ENDBRANCH  14  15
ENDBRANCH  13  14
ENDBRANCH   2  13
TORSDOF 15
ENDMDL
MODEL 7
REMARK VINA RESULT:    -2.931      9.846     12.672
REMARK INTER + INTRA:          -8.628
REMARK INTER:                  -6.736
REMARK INTRA:                  -1.892
REMARK UNBOUND:                -3.127
REMARK SMILES CCCCCCCCC=CCCCCCCCC(=O)[O-]
REMARK SMILES IDX 10 1 9 2 11 3 12 4 13 5 14 6 15 7 16 8 17 9 18 10 19 11
REMARK SMILES IDX 20 12 8 13 7 14 6 15 5 16 4 17 3 18 2 19 1 20
REMARK H PARENT
REMARK Flexibility Score: inf
ROOT
ATOM      1  C   UNL     1      59.149  28.549  49.221  1.00  0.00    -0.031 C 
ATOM      2  C   UNL     1      58.215  29.252  49.888  1.00  0.00    -0.031 C 
ENDROOT
BRANCH   1   3
ATOM      3  C   UNL     1      59.634  27.184  49.647  1.00  0.00     0.027 C 
BRANCH   3   4
ATOM      4  C   UNL     1      61.107  27.228  50.065  1.00  0.00     0.004 C 
BRANCH   4   5
ATOM      5  C   UNL     1      61.249  27.636  51.539  1.00  0.00     0.000 C 
BRANCH   5   6
ATOM      6  C   UNL     1      61.890  29.024  51.716  1.00  0.00     0.000 C 
BRANCH   6   7
ATOM      7  C   UNL     1      62.304  29.724  50.407  1.00  0.00     0.000 C 
BRANCH   7   8
ATOM      8  C   UNL     1      62.199  31.263  50.426  1.00  0.00     0.006 C 
BRANCH   8   9
ATOM      9  C   UNL     1      63.141  31.976  49.442  1.00  0.00     0.053 C 
BRANCH   9  10
ATOM     10  C   UNL     1      62.800  33.426  49.291  1.00  0.00     0.041 C 
ATOM     11  O   UNL     1      61.977  33.795  48.413  1.00  0.00    -0.550 OA
ATOM     12  O   UNL     1      63.366  34.366  50.144  1.00  0.00    -0.550 OA
ENDBRANCH   9  10
ENDBRANCH   8   9
ENDBRANCH   7   8
ENDBRANCH   6   7
ENDBRANCH   5   6
ENDBRANCH   4   5
ENDBRANCH   3   4
ENDBRANCH   1   3
BRANCH   2  13
ATOM     13  C   UNL     1      57.555  28.800  51.167  1.00  0.00     0.027 C 
BRANCH  13  14
ATOM     14  C   UNL     1      56.247  29.554  51.470  1.00  0.00     0.004 C 
BRANCH  14  15
ATOM     15  C   UNL     1      55.043  28.633  51.740  1.00  0.00     0.000 C 
BRANCH  15  16
ATOM     16  C   UNL     1      54.191  28.373  50.485  1.00  0.00     0.000 C 
BRANCH  16  17
ATOM     17  C   UNL     1      54.066  26.877  50.148  1.00  0.00    -0.000 C 
BRANCH  17  18
ATOM     18  C   UNL     1      55.402  26.115  50.081  1.00  0.00    -0.000 C 
BRANCH  18  19
ATOM     19  C   UNL     1      55.596  25.142  51.253  1.00  0.00    -0.003 C 
ATOM     20  C   UNL     1      57.052  25.111  51.707  1.00  0.00     0.004 C 
ENDBRANCH  18  19
ENDBRANCH  17  18
ENDBRANCH  16  17
ENDBRANCH  15  16
ENDBRANCH  14  15
ENDBRANCH  13  14
ENDBRANCH   2  13
TORSDOF 15
ENDMDL
MODEL 8
REMARK VINA RESULT:    -2.923      8.796     11.421
REMARK INTER + INTRA:          -8.612
REMARK INTER:                  -5.783
REMARK INTRA:                  -2.830
REMARK UNBOUND:                -3.127
REMARK SMILES CCCCCCCCC=CCCCCCCCC(=O)[O-]
REMARK SMILES IDX 10 1 9 2 11 3 12 4 13 5 14 6 15 7 16 8 17 9 18 10 19 11
REMARK SMILES IDX 20 12 8 13 7 14 6 15 5 16 4 17 3 18 2 19 1 20
REMARK H PARENT
REMARK Flexibility Score: inf
ROOT
ATOM      1  C   UNL     1      57.853  27.676  53.623  1.00  0.00    -0.031 C 
ATOM      2  C   UNL     1      57.673  26.354  53.451  1.00  0.00    -0.031 C 
ENDROOT
BRANCH   1   3
ATOM      3  C   UNL     1      56.970  28.731  53.001  1.00  0.00     0.027 C 
BRANCH   3   4
ATOM      4  C   UNL     1      57.765  29.616  52.035  1.00  0.00     0.004 C 
BRANCH   4   5
ATOM      5  C   UNL     1      57.528  29.191  50.578  1.00  0.00     0.000 C 
BRANCH   5   6
ATOM      6  C   UNL     1      58.803  29.266  49.720  1.00  0.00     0.000 C 
BRANCH   6   7
ATOM      7  C   UNL     1      59.321  27.911  49.198  1.00  0.00     0.000 C 
BRANCH   7   8
ATOM      8  C   UNL     1      60.675  27.459  49.784  1.00  0.00     0.006 C 
BRANCH   8   9
ATOM      9  C   UNL     1      60.601  26.950  51.232  1.00  0.00     0.053 C 
BRANCH   9  10
ATOM     10  C   UNL     1      61.816  26.158  51.609  1.00  0.00     0.041 C 
ATOM     11  O   UNL     1      62.047  25.052  51.055  1.00  0.00    -0.550 OA
ATOM     12  O   UNL     1      62.709  26.659  52.549  1.00  0.00    -0.550 OA
ENDBRANCH   9  10
ENDBRANCH   8   9
ENDBRANCH   7   8
ENDBRANCH   6   7
ENDBRANCH   5   6
ENDBRANCH   4   5
ENDBRANCH   3   4
ENDBRANCH   1   3
BRANCH   2  13
ATOM     13  C   UNL     1      56.599  25.742  52.586  1.00  0.00     0.027 C 
BRANCH  13  14
ATOM     14  C   UNL     1      57.099  25.367  51.179  1.00  0.00     0.004 C 
BRANCH  14  15
ATOM     15  C   UNL     1      56.236  25.938  50.038  1.00  0.00     0.000 C 
BRANCH  15  16
ATOM     16  C   UNL     1      54.791  25.409  50.054  1.00  0.00     0.000 C 
BRANCH  16  17
ATOM     17  C   UNL     1      53.743  26.533  49.974  1.00  0.00    -0.000 C 
BRANCH  17  18
ATOM     18  C   UNL     1      53.928  27.663  51.003  1.00  0.00    -0.000 C 
BRANCH  18  19
ATOM     19  C   UNL     1      53.892  29.062  50.370  1.00  0.00    -0.003 C 
ATOM     20  C   UNL     1      53.940  30.150  51.439  1.00  0.00     0.004 C 
ENDBRANCH  18  19
ENDBRANCH  17  18
ENDBRANCH  16  17
ENDBRANCH  15  16
ENDBRANCH  14  15
ENDBRANCH  13  14
ENDBRANCH   2  13
TORSDOF 15
ENDMDL
MODEL 9
REMARK VINA RESULT:    -2.912      1.311      3.229
REMARK INTER + INTRA:          -8.593
REMARK INTER:                  -6.526
REMARK INTRA:                  -2.067
REMARK UNBOUND:                -3.127
REMARK SMILES CCCCCCCCC=CCCCCCCCC(=O)[O-]
REMARK SMILES IDX 10 1 9 2 11 3 12 4 13 5 14 6 15 7 16 8 17 9 18 10 19 11
REMARK SMILES IDX 20 12 8 13 7 14 6 15 5 16 4 17 3 18 2 19 1 20
REMARK H PARENT
REMARK Flexibility Score: inf
ROOT
ATOM      1  C   UNL     1      64.403  30.073  60.327  1.00  0.00    -0.031 C 
ATOM      2  C   UNL     1      64.353  30.816  59.206  1.00  0.00    -0.031 C 
ENDROOT
BRANCH   1   3
ATOM      3  C   UNL     1      63.679  30.429  61.603  1.00  0.00     0.027 C 
BRANCH   3   4
ATOM      4  C   UNL     1      62.296  29.771  61.654  1.00  0.00     0.004 C 
BRANCH   4   5
ATOM      5  C   UNL     1      61.182  30.829  61.630  1.00  0.00     0.000 C 
BRANCH   5   6
ATOM      6  C   UNL     1      60.007  30.437  60.718  1.00  0.00     0.000 C 
BRANCH   6   7
ATOM      7  C   UNL     1      60.168  29.091  59.984  1.00  0.00     0.000 C 
BRANCH   7   8
ATOM      8  C   UNL     1      59.311  27.936  60.538  1.00  0.00     0.006 C 
BRANCH   8   9
ATOM      9  C   UNL     1      57.917  28.358  61.029  1.00  0.00     0.053 C 
BRANCH   9  10
ATOM     10  C   UNL     1      57.151  27.205  61.601  1.00  0.00     0.041 C 
ATOM     11  O   UNL     1      55.904  27.284  61.747  1.00  0.00    -0.550 OA
ATOM     12  O   UNL     1      57.813  26.031  61.942  1.00  0.00    -0.550 OA
ENDBRANCH   9  10
ENDBRANCH   8   9
ENDBRANCH   7   8
ENDBRANCH   6   7
ENDBRANCH   5   6
ENDBRANCH   4   5
ENDBRANCH   3   4
ENDBRANCH   1   3
BRANCH   2  13
ATOM     13  C   UNL     1      63.608  32.121  59.077  1.00  0.00     0.027 C 
BRANCH  13  14
ATOM     14  C   UNL     1      64.432  33.336  59.542  1.00  0.00     0.004 C 
BRANCH  14  15
ATOM     15  C   UNL     1      63.926  33.971  60.850  1.00  0.00     0.000 C 
BRANCH  15  16
ATOM     16  C   UNL     1      63.642  35.477  60.717  1.00  0.00     0.000 C 
BRANCH  16  17
ATOM     17  C   UNL     1      62.149  35.819  60.866  1.00  0.00    -0.000 C 
BRANCH  17  18
ATOM     18  C   UNL     1      61.185  34.672  60.512  1.00  0.00    -0.000 C 
BRANCH  18  19
ATOM     19  C   UNL     1      60.562  34.823  59.117  1.00  0.00    -0.003 C 
ATOM     20  C   UNL     1      60.294  33.461  58.484  1.00  0.00     0.004 C 
ENDBRANCH  18  19
ENDBRANCH  17  18
ENDBRANCH  16  17
ENDBRANCH  15  16
ENDBRANCH  14  15
ENDBRANCH  13  14
ENDBRANCH   2  13
TORSDOF 15
ENDMDL
