MODEL 1
REMARK VINA RESULT:    -1.122      0.000      0.000
REMARK INTER + INTRA:          -1.155
REMARK INTER:                  -1.155
REMARK INTRA:                   0.000
REMARK UNBOUND:                 0.000
REMARK SMILES Cc1cccc(O)c1C
REMARK SMILES IDX 1 1 2 2 8 3 6 4 5 5 4 6 3 7 9 8 7 9
REMARK H PARENT 7 10
REMARK Flexibility Score: inf
ROOT
ATOM      1  C   UNL     1     139.891 128.286 126.274  1.00  0.00     0.045 C 
ATOM      2  C   UNL     1     139.194 129.011 127.397  1.00  0.00    -0.045 A 
ATOM      3  C   UNL     1     139.644 130.273 127.877  1.00  0.00    -0.006 A 
ATOM      4  C   UNL     1     138.938 130.896 128.937  1.00  0.00     0.118 A 
ATOM      5  C   UNL     1     137.818 130.274 129.495  1.00  0.00     0.046 A 
ATOM      6  C   UNL     1     137.383 129.040 129.020  1.00  0.00     0.004 A 
ATOM      7  C   UNL     1     138.064 128.412 127.980  1.00  0.00     0.004 A 
ATOM      8  C   UNL     1     140.852 130.964 127.287  1.00  0.00     0.048 C 
ENDROOT
BRANCH   4   9
ATOM      9  O   UNL     1     139.322 132.135 129.458  1.00  0.00    -0.508 OA
ATOM     10  H   UNL     1     140.163 132.621 129.179  1.00  0.00     0.293 HD
ENDBRANCH   4   9
TORSDOF 1
ENDMDL
MODEL 2
REMARK VINA RESULT:    -0.702      1.028      2.566
REMARK INTER + INTRA:          -0.723
REMARK INTER:                  -0.723
REMARK INTRA:                   0.000
REMARK UNBOUND:                 0.000
REMARK SMILES Cc1cccc(O)c1C
REMARK SMILES IDX 1 1 2 2 8 3 6 4 5 5 4 6 3 7 9 8 7 9
REMARK H PARENT 7 10
REMARK Flexibility Score: inf
ROOT
ATOM      1  C   UNL     1     139.148 128.008 126.414  1.00  0.00     0.045 C 
ATOM      2  C   UNL     1     139.341 129.202 127.313  1.00  0.00    -0.045 A 
ATOM      3  C   UNL     1     138.523 129.429 128.455  1.00  0.00    -0.006 A 
ATOM      4  C   UNL     1     138.762 130.574 129.256  1.00  0.00     0.118 A 
ATOM      5  C   UNL     1     139.788 131.462 128.920  1.00  0.00     0.046 A 
ATOM      6  C   UNL     1     140.583 131.235 127.801  1.00  0.00     0.004 A 
ATOM      7  C   UNL     1     140.364 130.115 127.003  1.00  0.00     0.004 A 
ATOM      8  C   UNL     1     137.408 128.480 128.837  1.00  0.00     0.048 C 
ENDROOT
BRANCH   4   9
ATOM      9  O   UNL     1     137.999 130.860 130.392  1.00  0.00    -0.508 OA
ATOM     10  H   UNL     1     136.998 131.000 130.371  1.00  0.00     0.293 HD
ENDBRANCH   4   9
TORSDOF 1
ENDMDL
MODEL 3
REMARK VINA RESULT:     0.165      1.685      3.212
REMARK INTER + INTRA:           0.170
REMARK INTER:                   0.170
REMARK INTRA:                   0.000
REMARK UNBOUND:                 0.000
REMARK SMILES Cc1cccc(O)c1C
REMARK SMILES IDX 1 1 2 2 8 3 6 4 5 5 4 6 3 7 9 8 7 9
REMARK H PARENT 7 10
REMARK Flexibility Score: inf
ROOT
ATOM      1  C   UNL     1     140.696 132.014 128.461  1.00  0.00     0.045 C 
ATOM      2  C   UNL     1     139.995 130.742 128.059  1.00  0.00    -0.045 A 
ATOM      3  C   UNL     1     138.924 130.195 128.820  1.00  0.00    -0.006 A 
ATOM      4  C   UNL     1     138.312 128.994 128.381  1.00  0.00     0.118 A 
ATOM      5  C   UNL     1     138.760 128.364 127.216  1.00  0.00     0.046 A 
ATOM      6  C   UNL     1     139.808 128.905 126.477  1.00  0.00     0.004 A 
ATOM      7  C   UNL     1     140.421 130.084 126.893  1.00  0.00     0.004 A 
ATOM      8  C   UNL     1     138.423 130.861 130.082  1.00  0.00     0.048 C 
ENDROOT
BRANCH   4   9
ATOM      9  O   UNL     1     137.255 128.400 129.077  1.00  0.00    -0.508 OA
ATOM     10  H   UNL     1     137.372 127.903 129.950  1.00  0.00     0.293 HD
ENDBRANCH   4   9
TORSDOF 1
ENDMDL
MODEL 4
REMARK VINA RESULT:     0.393      1.688      2.739
REMARK INTER + INTRA:           0.404
REMARK INTER:                   0.404
REMARK INTRA:                   0.000
REMARK UNBOUND:                 0.000
REMARK SMILES Cc1cccc(O)c1C
REMARK SMILES IDX 1 1 2 2 8 3 6 4 5 5 4 6 3 7 9 8 7 9
REMARK H PARENT 7 10
REMARK Flexibility Score: inf
ROOT
ATOM      1  C   UNL     1     140.888 130.915 126.785  1.00  0.00     0.045 C 
ATOM      2  C   UNL     1     139.839 130.588 127.816  1.00  0.00    -0.045 A 
ATOM      3  C   UNL     1     139.039 129.414 127.734  1.00  0.00    -0.006 A 
ATOM      4  C   UNL     1     138.070 129.170 128.740  1.00  0.00     0.118 A 
ATOM      5  C   UNL     1     137.912 130.074 129.794  1.00  0.00     0.046 A 
ATOM      6  C   UNL     1     138.697 131.221 129.868  1.00  0.00     0.004 A 
ATOM      7  C   UNL     1     139.654 131.477 128.888  1.00  0.00     0.004 A 
ATOM      8  C   UNL     1     139.195 128.421 126.604  1.00  0.00     0.048 C 
ENDROOT
BRANCH   4   9
ATOM      9  O   UNL     1     137.250 128.038 128.725  1.00  0.00    -0.508 OA
ATOM     10  H   UNL     1     136.406 127.953 129.275  1.00  0.00     0.293 HD
ENDBRANCH   4   9
TORSDOF 1
ENDMDL
MODEL 5
REMARK VINA RESULT:     0.422      1.031      2.706
REMARK INTER + INTRA:           0.434
REMARK INTER:                   0.434
REMARK INTRA:                   0.000
REMARK UNBOUND:                 0.000
REMARK SMILES Cc1cccc(O)c1C
REMARK SMILES IDX 1 1 2 2 8 3 6 4 5 5 4 6 3 7 9 8 7 9
REMARK H PARENT 7 10
REMARK Flexibility Score: inf
ROOT
ATOM      1  C   UNL     1     137.033 128.884 129.209  1.00  0.00     0.045 C 
ATOM      2  C   UNL     1     138.266 129.407 128.518  1.00  0.00    -0.045 A 
ATOM      3  C   UNL     1     139.020 130.496 129.038  1.00  0.00    -0.006 A 
ATOM      4  C   UNL     1     140.169 130.935 128.334  1.00  0.00     0.118 A 
ATOM      5  C   UNL     1     140.550 130.300 127.149  1.00  0.00     0.046 A 
ATOM      6  C   UNL     1     139.808 129.236 126.645  1.00  0.00     0.004 A 
ATOM      7  C   UNL     1     138.676 128.791 127.324  1.00  0.00     0.004 A 
ATOM      8  C   UNL     1     138.627 131.196 130.320  1.00  0.00     0.048 C 
ENDROOT
BRANCH   4   9
ATOM      9  O   UNL     1     140.958 131.998 128.785  1.00  0.00    -0.508 OA
ATOM     10  H   UNL     1     141.848 132.246 128.374  1.00  0.00     0.293 HD
ENDBRANCH   4   9
TORSDOF 1
ENDMDL
MODEL 6
REMARK VINA RESULT:     0.550      1.786      2.880
REMARK INTER + INTRA:           0.566
REMARK INTER:                   0.566
REMARK INTRA:                   0.000
REMARK UNBOUND:                 0.000
REMARK SMILES Cc1cccc(O)c1C
REMARK SMILES IDX 1 1 2 2 8 3 6 4 5 5 4 6 3 7 9 8 7 9
REMARK H PARENT 7 10
REMARK Flexibility Score: inf
ROOT
ATOM      1  C   UNL     1     139.776 132.346 129.249  1.00  0.00     0.045 C 
ATOM      2  C   UNL     1     139.254 131.008 128.792  1.00  0.00    -0.045 A 
ATOM      3  C   UNL     1     139.838 130.300 127.704  1.00  0.00    -0.006 A 
ATOM      4  C   UNL     1     139.293 129.046 127.329  1.00  0.00     0.118 A 
ATOM      5  C   UNL     1     138.199 128.521 128.022  1.00  0.00     0.046 A 
ATOM      6  C   UNL     1     137.633 129.219 129.084  1.00  0.00     0.004 A 
ATOM      7  C   UNL     1     138.154 130.452 129.468  1.00  0.00     0.004 A 
ATOM      8  C   UNL     1     141.023 130.849 126.942  1.00  0.00     0.048 C 
ENDROOT
BRANCH   4   9
ATOM      9  O   UNL     1     139.816 128.295 126.272  1.00  0.00    -0.508 OA
ATOM     10  H   UNL     1     139.350 127.489 125.877  1.00  0.00     0.293 HD
ENDBRANCH   4   9
TORSDOF 1
ENDMDL
MODEL 7
REMARK VINA RESULT:     0.628      1.860      3.757
REMARK INTER + INTRA:           0.647
REMARK INTER:                   0.647
REMARK INTRA:                   0.000
REMARK UNBOUND:                 0.000
REMARK SMILES Cc1cccc(O)c1C
REMARK SMILES IDX 1 1 2 2 8 3 6 4 5 5 4 6 3 7 9 8 7 9
REMARK H PARENT 7 10
REMARK Flexibility Score: inf
ROOT
ATOM      1  C   UNL     1     137.983 130.544 130.541  1.00  0.00     0.045 C 
ATOM      2  C   UNL     1     138.845 130.491 129.306  1.00  0.00    -0.045 A 
ATOM      3  C   UNL     1     138.767 129.417 128.375  1.00  0.00    -0.006 A 
ATOM      4  C   UNL     1     139.609 129.433 127.235  1.00  0.00     0.118 A 
ATOM      5  C   UNL     1     140.499 130.492 127.035  1.00  0.00     0.046 A 
ATOM      6  C   UNL     1     140.571 131.539 127.950  1.00  0.00     0.004 A 
ATOM      7  C   UNL     1     139.751 131.540 129.076  1.00  0.00     0.004 A 
ATOM      8  C   UNL     1     137.811 128.262 128.571  1.00  0.00     0.048 C 
ENDROOT
BRANCH   4   9
ATOM      9  O   UNL     1     139.586 128.413 126.279  1.00  0.00    -0.508 OA
ATOM     10  H   UNL     1     138.759 128.157 125.756  1.00  0.00     0.293 HD
ENDBRANCH   4   9
TORSDOF 1
ENDMDL
MODEL 8
REMARK VINA RESULT:     1.342      1.445      2.753
REMARK INTER + INTRA:           1.381
REMARK INTER:                   1.381
REMARK INTRA:                   0.000
REMARK UNBOUND:                 0.000
REMARK SMILES Cc1cccc(O)c1C
REMARK SMILES IDX 1 1 2 2 8 3 6 4 5 5 4 6 3 7 9 8 7 9
REMARK H PARENT 7 10
REMARK Flexibility Score: inf
ROOT
ATOM      1  C   UNL     1     137.164 128.396 128.861  1.00  0.00     0.045 C 
ATOM      2  C   UNL     1     138.179 129.503 128.736  1.00  0.00    -0.045 A 
ATOM      3  C   UNL     1     139.125 129.544 127.673  1.00  0.00    -0.006 A 
ATOM      4  C   UNL     1     140.052 130.617 127.619  1.00  0.00     0.118 A 
ATOM      5  C   UNL     1     140.028 131.614 128.598  1.00  0.00     0.046 A 
ATOM      6  C   UNL     1     139.100 131.567 129.635  1.00  0.00     0.004 A 
ATOM      7  C   UNL     1     138.182 130.521 129.704  1.00  0.00     0.004 A 
ATOM      8  C   UNL     1     139.168 128.477 126.603  1.00  0.00     0.048 C 
ENDROOT
BRANCH   4   9
ATOM      9  O   UNL     1     141.008 130.723 126.605  1.00  0.00    -0.508 OA
ATOM     10  H   UNL     1     141.668 131.486 126.539  1.00  0.00     0.293 HD
ENDBRANCH   4   9
TORSDOF 1
ENDMDL
