MODEL 1
REMARK VINA RESULT:    -2.965      0.000      0.000
REMARK INTER + INTRA:          -4.117
REMARK INTER:                  -3.658
REMARK INTRA:                  -0.459
REMARK UNBOUND:                -0.459
REMARK SMILES CCCCC=CC(C)=O
REMARK SMILES IDX 4 1 3 2 2 3 1 4 5 5 6 6 7 7 9 8 8 9
REMARK H PARENT
REMARK Flexibility Score: inf
ROOT
ATOM      1  C   UNL     1      26.560  39.346  19.312  1.00  0.00     0.027 C 
ENDROOT
BRANCH   1   2
ATOM      2  C   UNL     1      27.803  38.608  19.824  1.00  0.00     0.004 C 
BRANCH   2   3
ATOM      3  C   UNL     1      29.011  38.876  18.920  1.00  0.00    -0.003 C 
ATOM      4  C   UNL     1      28.591  38.989  17.457  1.00  0.00     0.004 C 
ENDBRANCH   2   3
ENDBRANCH   1   2
BRANCH   1   5
ATOM      5  C   UNL     1      25.950  40.203  20.390  1.00  0.00    -0.023 C 
ATOM      6  C   UNL     1      26.298  41.467  20.683  1.00  0.00     0.042 C 
BRANCH   6   7
ATOM      7  C   UNL     1      27.313  42.288  19.984  1.00  0.00     0.152 C 
ATOM      8  O   UNL     1      28.544  42.170  20.229  1.00  0.00    -0.295 OA
ATOM      9  C   UNL     1      26.876  43.232  18.912  1.00  0.00     0.093 C 
ENDBRANCH   6   7
ENDBRANCH   1   5
TORSDOF 4
ENDMDL
MODEL 2
REMARK VINA RESULT:    -2.922      1.540      3.933
REMARK INTER + INTRA:          -4.065
REMARK INTER:                  -3.779
REMARK INTRA:                  -0.286
REMARK UNBOUND:                -0.459
REMARK SMILES CCCCC=CC(C)=O
REMARK SMILES IDX 4 1 3 2 2 3 1 4 5 5 6 6 7 7 9 8 8 9
REMARK H PARENT
REMARK Flexibility Score: inf
ROOT
ATOM      1  C   UNL     1      27.058  40.921  20.953  1.00  0.00     0.027 C 
ENDROOT
BRANCH   1   2
ATOM      2  C   UNL     1      26.706  42.387  20.672  1.00  0.00     0.004 C 
BRANCH   2   3
ATOM      3  C   UNL     1      27.046  42.765  19.225  1.00  0.00    -0.003 C 
ATOM      4  C   UNL     1      26.451  44.121  18.855  1.00  0.00     0.004 C 
ENDBRANCH   2   3
ENDBRANCH   1   2
BRANCH   1   5
ATOM      5  C   UNL     1      26.139  39.987  20.212  1.00  0.00    -0.023 C 
ATOM      6  C   UNL     1      26.499  39.137  19.236  1.00  0.00     0.042 C 
BRANCH   6   7
ATOM      7  C   UNL     1      27.869  38.915  18.721  1.00  0.00     0.152 C 
ATOM      8  O   UNL     1      28.248  39.389  17.616  1.00  0.00    -0.295 OA
ATOM      9  C   UNL     1      28.852  38.165  19.561  1.00  0.00     0.093 C 
ENDBRANCH   6   7
ENDBRANCH   1   5
TORSDOF 4
ENDMDL
MODEL 3
REMARK VINA RESULT:    -2.865      1.934      4.160
REMARK INTER + INTRA:          -3.995
REMARK INTER:                  -3.619
REMARK INTRA:                  -0.375
REMARK UNBOUND:                -0.459
REMARK SMILES CCCCC=CC(C)=O
REMARK SMILES IDX 4 1 3 2 2 3 1 4 5 5 6 6 7 7 9 8 8 9
REMARK H PARENT
REMARK Flexibility Score: inf
ROOT
ATOM      1  C   UNL     1      28.448  41.052  20.326  1.00  0.00     0.027 C 
ENDROOT
BRANCH   1   2
ATOM      2  C   UNL     1      28.309  42.569  20.148  1.00  0.00     0.004 C 
BRANCH   2   3
ATOM      3  C   UNL     1      26.834  42.984  20.103  1.00  0.00    -0.003 C 
ATOM      4  C   UNL     1      26.570  43.957  18.957  1.00  0.00     0.004 C 
ENDBRANCH   2   3
ENDBRANCH   1   2
BRANCH   1   5
ATOM      5  C   UNL     1      28.023  40.315  19.084  1.00  0.00    -0.023 C 
ATOM      6  C   UNL     1      27.031  39.413  19.002  1.00  0.00     0.042 C 
BRANCH   6   7
ATOM      7  C   UNL     1      26.127  38.995  20.098  1.00  0.00     0.152 C 
ATOM      8  O   UNL     1      25.139  39.696  20.447  1.00  0.00    -0.295 OA
ATOM      9  C   UNL     1      26.350  37.676  20.764  1.00  0.00     0.093 C 
ENDBRANCH   6   7
ENDBRANCH   1   5
TORSDOF 4
ENDMDL
MODEL 4
REMARK VINA RESULT:    -2.842      1.988      3.985
REMARK INTER + INTRA:          -3.965
REMARK INTER:                  -3.414
REMARK INTRA:                  -0.552
REMARK UNBOUND:                -0.459
REMARK SMILES CCCCC=CC(C)=O
REMARK SMILES IDX 4 1 3 2 2 3 1 4 5 5 6 6 7 7 9 8 8 9
REMARK H PARENT
REMARK Flexibility Score: inf
ROOT
ATOM      1  C   UNL     1      26.910  42.752  21.587  1.00  0.00     0.027 C 
ENDROOT
BRANCH   1   2
ATOM      2  C   UNL     1      27.820  43.881  21.089  1.00  0.00     0.004 C 
BRANCH   2   3
ATOM      3  C   UNL     1      27.981  43.825  19.565  1.00  0.00    -0.003 C 
ATOM      4  C   UNL     1      26.626  43.897  18.866  1.00  0.00     0.004 C 
ENDBRANCH   2   3
ENDBRANCH   1   2
BRANCH   1   5
ATOM      5  C   UNL     1      27.702  41.514  21.912  1.00  0.00    -0.023 C 
ATOM      6  C   UNL     1      27.613  40.331  21.280  1.00  0.00     0.042 C 
BRANCH   6   7
ATOM      7  C   UNL     1      26.755  40.018  20.114  1.00  0.00     0.152 C 
ATOM      8  O   UNL     1      25.548  39.681  20.250  1.00  0.00    -0.295 OA
ATOM      9  C   UNL     1      27.313  40.168  18.736  1.00  0.00     0.093 C 
ENDBRANCH   6   7
ENDBRANCH   1   5
TORSDOF 4
ENDMDL
MODEL 5
REMARK VINA RESULT:    -2.840     17.807     18.273
REMARK INTER + INTRA:          -3.963
REMARK INTER:                  -3.969
REMARK INTRA:                   0.006
REMARK UNBOUND:                -0.459
REMARK SMILES CCCCC=CC(C)=O
REMARK SMILES IDX 4 1 3 2 2 3 1 4 5 5 6 6 7 7 9 8 8 9
REMARK H PARENT
REMARK Flexibility Score: inf
ROOT
ATOM      1  C   UNL     1      19.422  25.296  23.645  1.00  0.00     0.027 C 
ENDROOT
BRANCH   1   2
ATOM      2  C   UNL     1      19.029  23.876  23.219  1.00  0.00     0.004 C 
BRANCH   2   3
ATOM      3  C   UNL     1      18.421  23.875  21.811  1.00  0.00    -0.003 C 
ATOM      4  C   UNL     1      19.003  24.998  20.958  1.00  0.00     0.004 C 
ENDBRANCH   2   3
ENDBRANCH   1   2
BRANCH   1   5
ATOM      5  C   UNL     1      18.650  25.735  24.860  1.00  0.00    -0.023 C 
ATOM      6  C   UNL     1      19.109  25.757  26.122  1.00  0.00     0.042 C 
BRANCH   6   7
ATOM      7  C   UNL     1      20.475  25.399  26.569  1.00  0.00     0.152 C 
ATOM      8  O   UNL     1      21.115  24.446  26.048  1.00  0.00    -0.295 OA
ATOM      9  C   UNL     1      21.141  26.229  27.619  1.00  0.00     0.093 C 
ENDBRANCH   6   7
ENDBRANCH   1   5
TORSDOF 4
ENDMDL
MODEL 6
REMARK VINA RESULT:    -2.796     13.950     15.533
REMARK INTER + INTRA:          -3.909
REMARK INTER:                  -3.614
REMARK INTRA:                  -0.296
REMARK UNBOUND:                -0.459
REMARK SMILES CCCCC=CC(C)=O
REMARK SMILES IDX 4 1 3 2 2 3 1 4 5 5 6 6 7 7 9 8 8 9
REMARK H PARENT
REMARK Flexibility Score: inf
ROOT
ATOM      1  C   UNL     1      27.799  27.174  26.583  1.00  0.00     0.027 C 
ENDROOT
BRANCH   1   2
ATOM      2  C   UNL     1      28.646  27.905  25.534  1.00  0.00     0.004 C 
BRANCH   2   3
ATOM      3  C   UNL     1      28.259  29.386  25.453  1.00  0.00    -0.003 C 
ATOM      4  C   UNL     1      27.299  29.642  24.295  1.00  0.00     0.004 C 
ENDBRANCH   2   3
ENDBRANCH   1   2
BRANCH   1   5
ATOM      5  C   UNL     1      27.469  28.074  27.744  1.00  0.00    -0.023 C 
ATOM      6  C   UNL     1      26.618  27.791  28.744  1.00  0.00     0.042 C 
BRANCH   6   7
ATOM      7  C   UNL     1      25.867  26.528  28.933  1.00  0.00     0.152 C 
ATOM      8  O   UNL     1      24.728  26.352  28.423  1.00  0.00    -0.295 OA
ATOM      9  C   UNL     1      26.502  25.408  29.690  1.00  0.00     0.093 C 
ENDBRANCH   6   7
ENDBRANCH   1   5
TORSDOF 4
ENDMDL
MODEL 7
REMARK VINA RESULT:    -2.768      1.248      2.091
REMARK INTER + INTRA:          -3.875
REMARK INTER:                  -3.349
REMARK INTRA:                  -0.525
REMARK UNBOUND:                -0.459
REMARK SMILES CCCCC=CC(C)=O
REMARK SMILES IDX 4 1 3 2 2 3 1 4 5 5 6 6 7 7 9 8 8 9
REMARK H PARENT
REMARK Flexibility Score: inf
ROOT
ATOM      1  C   UNL     1      27.256  40.855  21.275  1.00  0.00     0.027 C 
ENDROOT
BRANCH   1   2
ATOM      2  C   UNL     1      26.076  40.264  20.493  1.00  0.00     0.004 C 
BRANCH   2   3
ATOM      3  C   UNL     1      26.567  39.438  19.299  1.00  0.00    -0.003 C 
ATOM      4  C   UNL     1      28.010  39.787  18.944  1.00  0.00     0.004 C 
ENDBRANCH   2   3
ENDBRANCH   1   2
BRANCH   1   5
ATOM      5  C   UNL     1      26.897  42.183  21.886  1.00  0.00    -0.023 C 
ATOM      6  C   UNL     1      27.078  43.387  21.318  1.00  0.00     0.042 C 
BRANCH   6   7
ATOM      7  C   UNL     1      27.622  43.652  19.966  1.00  0.00     0.152 C 
ATOM      8  O   UNL     1      28.856  43.819  19.769  1.00  0.00    -0.295 OA
ATOM      9  C   UNL     1      26.695  43.653  18.794  1.00  0.00     0.093 C 
ENDBRANCH   6   7
ENDBRANCH   1   5
TORSDOF 4
ENDMDL
MODEL 8
REMARK VINA RESULT:    -2.706     13.510     15.131
REMARK INTER + INTRA:          -3.798
REMARK INTER:                  -3.259
REMARK INTRA:                  -0.539
REMARK UNBOUND:                -0.459
REMARK SMILES CCCCC=CC(C)=O
REMARK SMILES IDX 4 1 3 2 2 3 1 4 5 5 6 6 7 7 9 8 8 9
REMARK H PARENT
REMARK Flexibility Score: inf
ROOT
ATOM      1  C   UNL     1      29.009  29.054  27.980  1.00  0.00     0.027 C 
ENDROOT
BRANCH   1   2
ATOM      2  C   UNL     1      28.965  29.973  26.753  1.00  0.00     0.004 C 
BRANCH   2   3
ATOM      3  C   UNL     1      28.826  29.158  25.462  1.00  0.00    -0.003 C 
ATOM      4  C   UNL     1      27.602  29.597  24.662  1.00  0.00     0.004 C 
ENDBRANCH   2   3
ENDBRANCH   1   2
BRANCH   1   5
ATOM      5  C   UNL     1      27.623  28.706  28.453  1.00  0.00    -0.023 C 
ATOM      6  C   UNL     1      27.027  27.508  28.333  1.00  0.00     0.042 C 
BRANCH   6   7
ATOM      7  C   UNL     1      27.621  26.281  27.756  1.00  0.00     0.152 C 
ATOM      8  O   UNL     1      28.353  25.514  28.438  1.00  0.00    -0.295 OA
ATOM      9  C   UNL     1      27.291  25.903  26.348  1.00  0.00     0.093 C 
ENDBRANCH   6   7
ENDBRANCH   1   5
TORSDOF 4
ENDMDL
MODEL 9
REMARK VINA RESULT:    -2.704     13.115     14.650
REMARK INTER + INTRA:          -3.795
REMARK INTER:                  -3.297
REMARK INTRA:                  -0.498
REMARK UNBOUND:                -0.459
REMARK SMILES CCCCC=CC(C)=O
REMARK SMILES IDX 4 1 3 2 2 3 1 4 5 5 6 6 7 7 9 8 8 9
REMARK H PARENT
REMARK Flexibility Score: inf
ROOT
ATOM      1  C   UNL     1      27.915  28.448  28.335  1.00  0.00     0.027 C 
ENDROOT
BRANCH   1   2
ATOM      2  C   UNL     1      28.803  27.219  28.565  1.00  0.00     0.004 C 
BRANCH   2   3
ATOM      3  C   UNL     1      28.026  25.924  28.299  1.00  0.00    -0.003 C 
ATOM      4  C   UNL     1      26.940  26.138  27.249  1.00  0.00     0.004 C 
ENDBRANCH   2   3
ENDBRANCH   1   2
BRANCH   1   5
ATOM      5  C   UNL     1      28.716  29.611  27.812  1.00  0.00    -0.023 C 
ATOM      6  C   UNL     1      29.003  29.854  26.522  1.00  0.00     0.042 C 
BRANCH   6   7
ATOM      7  C   UNL     1      28.559  29.059  25.355  1.00  0.00     0.152 C 
ATOM      8  O   UNL     1      29.125  27.980  25.032  1.00  0.00    -0.295 OA
ATOM      9  C   UNL     1      27.366  29.511  24.576  1.00  0.00     0.093 C 
ENDBRANCH   6   7
ENDBRANCH   1   5
TORSDOF 4
ENDMDL
