MODEL 1
REMARK VINA RESULT:    -4.143      0.000      0.000
REMARK INTER + INTRA:          -6.605
REMARK INTER:                  -6.080
REMARK INTRA:                  -0.525
REMARK UNBOUND:                -0.525
REMARK SMILES O=C([O-])CCCCCCCC(=O)[O-]
REMARK SMILES IDX 7 1 6 2 5 3 4 4 2 5 1 6 3 7 8 8 9 9 10 10 11 11 12 12 13 13
REMARK H PARENT
REMARK Flexibility Score: inf
ROOT
ATOM      1  C   UNL     1      56.419  12.512  88.726  1.00  0.00     0.000 C 
ENDROOT
BRANCH   1   2
ATOM      2  C   UNL     1      56.573  13.060  90.152  1.00  0.00     0.000 C 
BRANCH   2   3
ATOM      3  C   UNL     1      56.805  14.579  90.181  1.00  0.00     0.006 C 
BRANCH   3   4
ATOM      4  C   UNL     1      58.184  14.976  89.638  1.00  0.00     0.053 C 
BRANCH   4   5
ATOM      5  C   UNL     1      58.630  16.270  90.242  1.00  0.00     0.041 C 
ATOM      6  O   UNL     1      59.705  16.808  89.866  1.00  0.00    -0.550 OA
ATOM      7  O   UNL     1      57.884  16.858  91.255  1.00  0.00    -0.550 OA
ENDBRANCH   4   5
ENDBRANCH   3   4
ENDBRANCH   2   3
ENDBRANCH   1   2
BRANCH   1   8
ATOM      8  C   UNL     1      57.117  11.154  88.581  1.00  0.00     0.000 C 
BRANCH   8   9
ATOM      9  C   UNL     1      58.604  11.258  88.948  1.00  0.00     0.006 C 
BRANCH   9  10
ATOM     10  C   UNL     1      58.993  10.297  90.079  1.00  0.00     0.053 C 
BRANCH  10  11
ATOM     11  C   UNL     1      60.010  10.902  90.997  1.00  0.00     0.041 C 
ATOM     12  O   UNL     1      61.200  10.489  90.987  1.00  0.00    -0.550 OA
ATOM     13  O   UNL     1      59.650  11.944  91.843  1.00  0.00    -0.550 OA
ENDBRANCH  10  11
ENDBRANCH   9  10
ENDBRANCH   8   9
ENDBRANCH   1   8
TORSDOF 8
ENDMDL
MODEL 2
REMARK VINA RESULT:    -4.088      3.665      5.338
REMARK INTER + INTRA:          -6.524
REMARK INTER:                  -6.167
REMARK INTRA:                  -0.358
REMARK UNBOUND:                -0.525
REMARK SMILES O=C([O-])CCCCCCCC(=O)[O-]
REMARK SMILES IDX 7 1 6 2 5 3 4 4 2 5 1 6 3 7 8 8 9 9 10 10 11 11 12 12 13 13
REMARK H PARENT
REMARK Flexibility Score: inf
ROOT
ATOM      1  C   UNL     1      57.159  10.245  90.107  1.00  0.00     0.000 C 
ENDROOT
BRANCH   1   2
ATOM      2  C   UNL     1      56.485  10.947  91.295  1.00  0.00     0.000 C 
BRANCH   2   3
ATOM      3  C   UNL     1      55.560  10.012  92.089  1.00  0.00     0.006 C 
BRANCH   3   4
ATOM      4  C   UNL     1      55.258  10.536  93.499  1.00  0.00     0.053 C 
BRANCH   4   5
ATOM      5  C   UNL     1      54.495   9.516  94.283  1.00  0.00     0.041 C 
ATOM      6  O   UNL     1      54.171   9.747  95.478  1.00  0.00    -0.550 OA
ATOM      7  O   UNL     1      54.183   8.290  93.710  1.00  0.00    -0.550 OA
ENDBRANCH   4   5
ENDBRANCH   3   4
ENDBRANCH   2   3
ENDBRANCH   1   2
BRANCH   1   8
ATOM      8  C   UNL     1      57.777  11.266  89.145  1.00  0.00     0.000 C 
BRANCH   8   9
ATOM      9  C   UNL     1      59.310  11.254  89.239  1.00  0.00     0.006 C 
BRANCH   9  10
ATOM     10  C   UNL     1      59.826  10.154  90.173  1.00  0.00     0.053 C 
BRANCH  10  11
ATOM     11  C   UNL     1      60.592  10.721  91.330  1.00  0.00     0.041 C 
ATOM     12  O   UNL     1      61.702  10.229  91.659  1.00  0.00    -0.550 OA
ATOM     13  O   UNL     1      60.091  11.816  92.024  1.00  0.00    -0.550 OA
ENDBRANCH  10  11
ENDBRANCH   9  10
ENDBRANCH   8   9
ENDBRANCH   1   8
TORSDOF 8
ENDMDL
MODEL 3
REMARK VINA RESULT:    -4.086      1.767      5.294
REMARK INTER + INTRA:          -6.522
REMARK INTER:                  -6.120
REMARK INTRA:                  -0.402
REMARK UNBOUND:                -0.525
REMARK SMILES O=C([O-])CCCCCCCC(=O)[O-]
REMARK SMILES IDX 7 1 6 2 5 3 4 4 2 5 1 6 3 7 8 8 9 9 10 10 11 11 12 12 13 13
REMARK H PARENT
REMARK Flexibility Score: inf
ROOT
ATOM      1  C   UNL     1      58.114  13.889  89.933  1.00  0.00     0.000 C 
ENDROOT
BRANCH   1   2
ATOM      2  C   UNL     1      57.015  13.026  89.294  1.00  0.00     0.000 C 
BRANCH   2   3
ATOM      3  C   UNL     1      57.508  11.617  88.926  1.00  0.00     0.006 C 
BRANCH   3   4
ATOM      4  C   UNL     1      59.006  11.426  89.194  1.00  0.00     0.053 C 
BRANCH   4   5
ATOM      5  C   UNL     1      59.225  10.296  90.150  1.00  0.00     0.041 C 
ATOM      6  O   UNL     1      60.328  10.174  90.745  1.00  0.00    -0.550 OA
ATOM      7  O   UNL     1      58.228   9.349  90.346  1.00  0.00    -0.550 OA
ENDBRANCH   4   5
ENDBRANCH   3   4
ENDBRANCH   2   3
ENDBRANCH   1   2
BRANCH   1   8
ATOM      8  C   UNL     1      58.171  15.275  89.282  1.00  0.00     0.000 C 
BRANCH   8   9
ATOM      9  C   UNL     1      59.332  16.104  89.851  1.00  0.00     0.006 C 
BRANCH   9  10
ATOM     10  C   UNL     1      58.921  16.901  91.095  1.00  0.00     0.053 C 
BRANCH  10  11
ATOM     11  C   UNL     1      59.911  16.739  92.209  1.00  0.00     0.041 C 
ATOM     12  O   UNL     1      60.250  17.731  92.907  1.00  0.00    -0.550 OA
ATOM     13  O   UNL     1      60.434  15.485  92.496  1.00  0.00    -0.550 OA
ENDBRANCH  10  11
ENDBRANCH   9  10
ENDBRANCH   8   9
ENDBRANCH   1   8
TORSDOF 8
ENDMDL
MODEL 4
REMARK VINA RESULT:    -4.083      2.858      3.864
REMARK INTER + INTRA:          -6.518
REMARK INTER:                  -5.642
REMARK INTRA:                  -0.876
REMARK UNBOUND:                -0.525
REMARK SMILES O=C([O-])CCCCCCCC(=O)[O-]
REMARK SMILES IDX 7 1 6 2 5 3 4 4 2 5 1 6 3 7 8 8 9 9 10 10 11 11 12 12 13 13
REMARK H PARENT
REMARK Flexibility Score: inf
ROOT
ATOM      1  C   UNL     1      56.923  13.555  89.671  1.00  0.00     0.000 C 
ENDROOT
BRANCH   1   2
ATOM      2  C   UNL     1      55.998  13.791  90.874  1.00  0.00     0.000 C 
BRANCH   2   3
ATOM      3  C   UNL     1      56.721  13.620  92.220  1.00  0.00     0.006 C 
BRANCH   3   4
ATOM      4  C   UNL     1      57.154  12.170  92.476  1.00  0.00     0.053 C 
BRANCH   4   5
ATOM      5  C   UNL     1      55.957  11.281  92.598  1.00  0.00     0.041 C 
ATOM      6  O   UNL     1      55.081  11.514  93.472  1.00  0.00    -0.550 OA
ATOM      7  O   UNL     1      55.833  10.167  91.778  1.00  0.00    -0.550 OA
ENDBRANCH   4   5
ENDBRANCH   3   4
ENDBRANCH   2   3
ENDBRANCH   1   2
BRANCH   1   8
ATOM      8  C   UNL     1      56.377  12.442  88.769  1.00  0.00     0.000 C 
BRANCH   8   9
ATOM      9  C   UNL     1      57.338  11.245  88.729  1.00  0.00     0.006 C 
BRANCH   9  10
ATOM     10  C   UNL     1      58.743  11.610  89.224  1.00  0.00     0.053 C 
BRANCH  10  11
ATOM     11  C   UNL     1      59.390  10.470  89.950  1.00  0.00     0.041 C 
ATOM     12  O   UNL     1      60.602  10.535  90.283  1.00  0.00    -0.550 OA
ATOM     13  O   UNL     1      58.643   9.348  90.286  1.00  0.00    -0.550 OA
ENDBRANCH  10  11
ENDBRANCH   9  10
ENDBRANCH   8   9
ENDBRANCH   1   8
TORSDOF 8
ENDMDL
MODEL 5
REMARK VINA RESULT:    -4.074      2.475      4.718
REMARK INTER + INTRA:          -6.505
REMARK INTER:                  -5.772
REMARK INTRA:                  -0.733
REMARK UNBOUND:                -0.525
REMARK SMILES O=C([O-])CCCCCCCC(=O)[O-]
REMARK SMILES IDX 7 1 6 2 5 3 4 4 2 5 1 6 3 7 8 8 9 9 10 10 11 11 12 12 13 13
REMARK H PARENT
REMARK Flexibility Score: inf
ROOT
ATOM      1  C   UNL     1      56.649  13.199  89.130  1.00  0.00     0.000 C 
ENDROOT
BRANCH   1   2
ATOM      2  C   UNL     1      56.842  11.692  88.902  1.00  0.00     0.000 C 
BRANCH   2   3
ATOM      3  C   UNL     1      58.324  11.284  88.863  1.00  0.00     0.006 C 
BRANCH   3   4
ATOM      4  C   UNL     1      58.689  10.279  89.962  1.00  0.00     0.053 C 
BRANCH   4   5
ATOM      5  C   UNL     1      59.692  10.873  90.900  1.00  0.00     0.041 C 
ATOM      6  O   UNL     1      59.339  11.748  91.734  1.00  0.00    -0.550 OA
ATOM      7  O   UNL     1      61.026  10.496  90.820  1.00  0.00    -0.550 OA
ENDBRANCH   4   5
ENDBRANCH   3   4
ENDBRANCH   2   3
ENDBRANCH   1   2
BRANCH   1   8
ATOM      8  C   UNL     1      56.433  13.506  90.616  1.00  0.00     0.000 C 
BRANCH   8   9
ATOM      9  C   UNL     1      55.353  12.594  91.216  1.00  0.00     0.006 C 
BRANCH   9  10
ATOM     10  C   UNL     1      55.719  12.108  92.624  1.00  0.00     0.053 C 
BRANCH  10  11
ATOM     11  C   UNL     1      55.505  10.632  92.775  1.00  0.00     0.041 C 
ATOM     12  O   UNL     1      55.104  10.158  93.870  1.00  0.00    -0.550 OA
ATOM     13  O   UNL     1      55.719   9.785  91.694  1.00  0.00    -0.550 OA
ENDBRANCH  10  11
ENDBRANCH   9  10
ENDBRANCH   8   9
ENDBRANCH   1   8
TORSDOF 8
ENDMDL
MODEL 6
REMARK VINA RESULT:    -4.071      2.601      4.234
REMARK INTER + INTRA:          -6.501
REMARK INTER:                  -6.034
REMARK INTRA:                  -0.466
REMARK UNBOUND:                -0.525
REMARK SMILES O=C([O-])CCCCCCCC(=O)[O-]
REMARK SMILES IDX 7 1 6 2 5 3 4 4 2 5 1 6 3 7 8 8 9 9 10 10 11 11 12 12 13 13
REMARK H PARENT
REMARK Flexibility Score: inf
ROOT
ATOM      1  C   UNL     1      60.527  10.866  89.544  1.00  0.00     0.000 C 
ENDROOT
BRANCH   1   2
ATOM      2  C   UNL     1      59.119  11.308  89.119  1.00  0.00     0.000 C 
BRANCH   2   3
ATOM      3  C   UNL     1      58.009  10.521  89.834  1.00  0.00     0.006 C 
BRANCH   3   4
ATOM      4  C   UNL     1      56.866  11.421  90.321  1.00  0.00     0.053 C 
BRANCH   4   5
ATOM      5  C   UNL     1      57.389  12.472  91.249  1.00  0.00     0.041 C 
ATOM      6  O   UNL     1      57.250  13.692  90.967  1.00  0.00    -0.550 OA
ATOM      7  O   UNL     1      58.072  12.105  92.400  1.00  0.00    -0.550 OA
ENDBRANCH   4   5
ENDBRANCH   3   4
ENDBRANCH   2   3
ENDBRANCH   1   2
BRANCH   1   8
ATOM      8  C   UNL     1      60.493  10.161  90.906  1.00  0.00     0.000 C 
BRANCH   8   9
ATOM      9  C   UNL     1      61.646  10.638  91.801  1.00  0.00     0.006 C 
BRANCH   9  10
ATOM     10  C   UNL     1      62.301   9.483  92.569  1.00  0.00     0.053 C 
BRANCH  10  11
ATOM     11  C   UNL     1      63.614   9.889  93.167  1.00  0.00     0.041 C 
ATOM     12  O   UNL     1      64.562   9.063  93.237  1.00  0.00    -0.550 OA
ATOM     13  O   UNL     1      63.799  11.189  93.619  1.00  0.00    -0.550 OA
ENDBRANCH  10  11
ENDBRANCH   9  10
ENDBRANCH   8   9
ENDBRANCH   1   8
TORSDOF 8
ENDMDL
MODEL 7
REMARK VINA RESULT:    -4.056      0.968      4.765
REMARK INTER + INTRA:          -6.479
REMARK INTER:                  -6.012
REMARK INTRA:                  -0.466
REMARK UNBOUND:                -0.525
REMARK SMILES O=C([O-])CCCCCCCC(=O)[O-]
REMARK SMILES IDX 7 1 6 2 5 3 4 4 2 5 1 6 3 7 8 8 9 9 10 10 11 11 12 12 13 13
REMARK H PARENT
REMARK Flexibility Score: inf
ROOT
ATOM      1  C   UNL     1      57.699  11.764  88.985  1.00  0.00     0.000 C 
ENDROOT
BRANCH   1   2
ATOM      2  C   UNL     1      57.307  10.502  89.769  1.00  0.00     0.000 C 
BRANCH   2   3
ATOM      3  C   UNL     1      58.527   9.723  90.284  1.00  0.00     0.006 C 
BRANCH   3   4
ATOM      4  C   UNL     1      59.849  10.457  90.027  1.00  0.00     0.053 C 
BRANCH   4   5
ATOM      5  C   UNL     1      60.471  10.881  91.321  1.00  0.00     0.041 C 
ATOM      6  O   UNL     1      61.481  10.275  91.767  1.00  0.00    -0.550 OA
ATOM      7  O   UNL     1      59.906  11.914  92.057  1.00  0.00    -0.550 OA
ENDBRANCH   4   5
ENDBRANCH   3   4
ENDBRANCH   2   3
ENDBRANCH   1   2
BRANCH   1   8
ATOM      8  C   UNL     1      56.638  12.859  89.144  1.00  0.00     0.000 C 
BRANCH   8   9
ATOM      9  C   UNL     1      57.119  13.958  90.103  1.00  0.00     0.006 C 
BRANCH   9  10
ATOM     10  C   UNL     1      57.986  15.007  89.397  1.00  0.00     0.053 C 
BRANCH  10  11
ATOM     11  C   UNL     1      58.790  15.811  90.374  1.00  0.00     0.041 C 
ATOM     12  O   UNL     1      58.937  17.050  90.207  1.00  0.00    -0.550 OA
ATOM     13  O   UNL     1      59.351  15.194  91.485  1.00  0.00    -0.550 OA
ENDBRANCH  10  11
ENDBRANCH   9  10
ENDBRANCH   8   9
ENDBRANCH   1   8
TORSDOF 8
ENDMDL
MODEL 8
REMARK VINA RESULT:    -3.983      3.868      5.722
REMARK INTER + INTRA:          -6.370
REMARK INTER:                  -5.828
REMARK INTRA:                  -0.542
REMARK UNBOUND:                -0.525
REMARK SMILES O=C([O-])CCCCCCCC(=O)[O-]
REMARK SMILES IDX 7 1 6 2 5 3 4 4 2 5 1 6 3 7 8 8 9 9 10 10 11 11 12 12 13 13
REMARK H PARENT
REMARK Flexibility Score: inf
ROOT
ATOM      1  C   UNL     1      55.491  13.150  91.494  1.00  0.00     0.000 C 
ENDROOT
BRANCH   1   2
ATOM      2  C   UNL     1      54.631  11.945  91.904  1.00  0.00     0.000 C 
BRANCH   2   3
ATOM      3  C   UNL     1      55.445  10.851  92.613  1.00  0.00     0.006 C 
BRANCH   3   4
ATOM      4  C   UNL     1      54.897   9.442  92.350  1.00  0.00     0.053 C 
BRANCH   4   5
ATOM      5  C   UNL     1      54.324   8.862  93.604  1.00  0.00     0.041 C 
ATOM      6  O   UNL     1      54.352   9.520  94.677  1.00  0.00    -0.550 OA
ATOM      7  O   UNL     1      53.805   7.574  93.600  1.00  0.00    -0.550 OA
ENDBRANCH   4   5
ENDBRANCH   3   4
ENDBRANCH   2   3
ENDBRANCH   1   2
BRANCH   1   8
ATOM      8  C   UNL     1      56.868  12.697  90.996  1.00  0.00     0.000 C 
BRANCH   8   9
ATOM      9  C   UNL     1      56.954  12.778  89.465  1.00  0.00     0.006 C 
BRANCH   9  10
ATOM     10  C   UNL     1      57.258  11.417  88.827  1.00  0.00     0.053 C 
BRANCH  10  11
ATOM     11  C   UNL     1      58.529  10.826  89.360  1.00  0.00     0.041 C 
ATOM     12  O   UNL     1      59.638  11.356  89.088  1.00  0.00    -0.550 OA
ATOM     13  O   UNL     1      58.483   9.707  90.182  1.00  0.00    -0.550 OA
ENDBRANCH  10  11
ENDBRANCH   9  10
ENDBRANCH   8   9
ENDBRANCH   1   8
TORSDOF 8
ENDMDL
MODEL 9
REMARK VINA RESULT:    -3.925      3.805      5.561
REMARK INTER + INTRA:          -6.285
REMARK INTER:                  -5.899
REMARK INTRA:                  -0.386
REMARK UNBOUND:                -0.525
REMARK SMILES O=C([O-])CCCCCCCC(=O)[O-]
REMARK SMILES IDX 7 1 6 2 5 3 4 4 2 5 1 6 3 7 8 8 9 9 10 10 11 11 12 12 13 13
REMARK H PARENT
REMARK Flexibility Score: inf
ROOT
ATOM      1  C   UNL     1      55.806  12.242  90.911  1.00  0.00     0.000 C 
ENDROOT
BRANCH   1   2
ATOM      2  C   UNL     1      56.950  12.680  89.983  1.00  0.00     0.000 C 
BRANCH   2   3
ATOM      3  C   UNL     1      57.450  11.541  89.081  1.00  0.00     0.006 C 
BRANCH   3   4
ATOM      4  C   UNL     1      58.967  11.333  89.179  1.00  0.00     0.053 C 
BRANCH   4   5
ATOM      5  C   UNL     1      59.280  10.194  90.097  1.00  0.00     0.041 C 
ATOM      6  O   UNL     1      58.435   9.279  90.283  1.00  0.00    -0.550 OA
ATOM      7  O   UNL     1      60.486  10.168  90.786  1.00  0.00    -0.550 OA
ENDBRANCH   4   5
ENDBRANCH   3   4
ENDBRANCH   2   3
ENDBRANCH   1   2
BRANCH   1   8
ATOM      8  C   UNL     1      56.320  11.305  92.010  1.00  0.00     0.000 C 
BRANCH   8   9
ATOM      9  C   UNL     1      55.172  10.488  92.620  1.00  0.00     0.006 C 
BRANCH   9  10
ATOM     10  C   UNL     1      55.024  10.728  94.127  1.00  0.00     0.053 C 
BRANCH  10  11
ATOM     11  C   UNL     1      54.824   9.445  94.876  1.00  0.00     0.041 C 
ATOM     12  O   UNL     1      53.991   8.594  94.467  1.00  0.00    -0.550 OA
ATOM     13  O   UNL     1      55.582   9.177  96.009  1.00  0.00    -0.550 OA
ENDBRANCH  10  11
ENDBRANCH   9  10
ENDBRANCH   8   9
ENDBRANCH   1   8
TORSDOF 8
ENDMDL
