MODEL 1
REMARK VINA RESULT:    -2.359      0.000      0.000
REMARK INTER + INTRA:          -3.442
REMARK INTER:                  -2.980
REMARK INTRA:                  -0.462
REMARK UNBOUND:                -0.462
REMARK SMILES O=C(C=Cc1ccc(O)cc1)c1ccc(O)cc1O
REMARK SMILES IDX 4 1 3 2 5 3 6 4 7 5 8 6 11 7 10 8 9 9 2 11 1 12 12 13 18 14
REMARK SMILES IDX 13 15 17 16 14 17 15 18 19 19 16 21
REMARK H PARENT 9 10 19 20 16 22
REMARK Flexibility Score: inf
ROOT
ATOM      1  C   UNL     1      28.336   8.475  -1.815  1.00  0.00     0.012 C 
ATOM      2  C   UNL     1      27.200   7.793  -1.608  1.00  0.00     0.053 C 
ENDROOT
BRANCH   1   3
ATOM      3  C   UNL     1      28.387   9.842  -2.387  1.00  0.00    -0.025 A 
ATOM      4  C   UNL     1      27.650  10.110  -3.553  1.00  0.00     0.012 A 
ATOM      5  C   UNL     1      27.659  11.386  -4.125  1.00  0.00     0.047 A 
ATOM      6  C   UNL     1      28.399  12.416  -3.532  1.00  0.00     0.115 A 
ATOM      7  C   UNL     1      29.117  10.891  -1.789  1.00  0.00     0.012 A 
ATOM      8  C   UNL     1      29.124  12.165  -2.364  1.00  0.00     0.047 A 
BRANCH   6   9
ATOM      9  O   UNL     1      28.417  13.691  -4.094  1.00  0.00    -0.508 OA
ATOM     10  H   UNL     1      27.715  13.986  -4.763  1.00  0.00     0.293 HD
ENDBRANCH   6   9
ENDBRANCH   1   3
BRANCH   2  11
ATOM     11  C   UNL     1      27.177   6.430  -1.035  1.00  0.00     0.189 C 
ATOM     12  O   UNL     1      27.960   6.171  -0.082  1.00  0.00    -0.289 OA
BRANCH  11  13
ATOM     13  C   UNL     1      26.273   5.364  -1.524  1.00  0.00     0.064 A 
ATOM     14  C   UNL     1      26.530   4.002  -1.262  1.00  0.00     0.130 A 
ATOM     15  C   UNL     1      25.110   5.720  -2.228  1.00  0.00     0.020 A 
ATOM     16  C   UNL     1      25.651   3.020  -1.743  1.00  0.00     0.093 A 
ATOM     17  C   UNL     1      24.238   4.736  -2.699  1.00  0.00     0.047 A 
ATOM     18  C   UNL     1      24.508   3.384  -2.461  1.00  0.00     0.119 A 
BRANCH  14  19
ATOM     19  O   UNL     1      27.645   3.627  -0.512  1.00  0.00    -0.507 OA
ATOM     20  H   UNL     1      28.473   4.211  -0.461  1.00  0.00     0.293 HD
ENDBRANCH  14  19
BRANCH  18  21
ATOM     21  O   UNL     1      23.647   2.394  -2.929  1.00  0.00    -0.508 OA
ATOM     22  H   UNL     1      23.560   2.193  -3.918  1.00  0.00     0.293 HD
ENDBRANCH  18  21
ENDBRANCH  11  13
ENDBRANCH   2  11
TORSDOF 6
ENDMDL
MODEL 2
REMARK VINA RESULT:    -1.547      1.315      7.699
REMARK INTER + INTRA:          -2.416
REMARK INTER:                  -2.773
REMARK INTRA:                   0.357
REMARK UNBOUND:                -0.462
REMARK SMILES O=C(C=Cc1ccc(O)cc1)c1ccc(O)cc1O
REMARK SMILES IDX 4 1 3 2 5 3 6 4 7 5 8 6 11 7 10 8 9 9 2 11 1 12 12 13 18 14
REMARK SMILES IDX 13 15 17 16 14 17 15 18 19 19 16 21
REMARK H PARENT 9 10 19 20 16 22
REMARK Flexibility Score: inf
ROOT
ATOM      1  C   UNL     1      26.605   6.396  -1.181  1.00  0.00     0.012 C 
ATOM      2  C   UNL     1      26.970   7.463  -1.907  1.00  0.00     0.053 C 
ENDROOT
BRANCH   1   3
ATOM      3  C   UNL     1      25.763   5.291  -1.702  1.00  0.00    -0.025 A 
ATOM      4  C   UNL     1      26.079   3.973  -1.329  1.00  0.00     0.012 A 
ATOM      5  C   UNL     1      25.310   2.900  -1.787  1.00  0.00     0.047 A 
ATOM      6  C   UNL     1      24.206   3.129  -2.617  1.00  0.00     0.115 A 
ATOM      7  C   UNL     1      24.641   5.512  -2.526  1.00  0.00     0.012 A 
ATOM      8  C   UNL     1      23.874   4.436  -2.982  1.00  0.00     0.047 A 
BRANCH   6   9
ATOM      9  O   UNL     1      23.433   2.066  -3.081  1.00  0.00    -0.508 OA
ATOM     10  H   UNL     1      23.270   1.243  -2.514  1.00  0.00     0.293 HD
ENDBRANCH   6   9
ENDBRANCH   1   3
BRANCH   2  11
ATOM     11  C   UNL     1      27.811   8.552  -1.364  1.00  0.00     0.189 C 
ATOM     12  O   UNL     1      28.323   8.396  -0.223  1.00  0.00    -0.289 OA
BRANCH  11  13
ATOM     13  C   UNL     1      28.081   9.807  -2.101  1.00  0.00     0.064 A 
ATOM     14  C   UNL     1      27.544  10.038  -3.385  1.00  0.00     0.130 A 
ATOM     15  C   UNL     1      28.855  10.808  -1.491  1.00  0.00     0.020 A 
ATOM     16  C   UNL     1      27.824  11.239  -4.054  1.00  0.00     0.093 A 
ATOM     17  C   UNL     1      29.124  12.003  -2.161  1.00  0.00     0.047 A 
ATOM     18  C   UNL     1      28.613  12.221  -3.446  1.00  0.00     0.119 A 
BRANCH  14  19
ATOM     19  O   UNL     1      26.722   9.085  -3.986  1.00  0.00    -0.507 OA
ATOM     20  H   UNL     1      26.879   8.770  -4.937  1.00  0.00     0.293 HD
ENDBRANCH  14  19
BRANCH  18  21
ATOM     21  O   UNL     1      28.878  13.407  -4.125  1.00  0.00    -0.508 OA
ATOM     22  H   UNL     1      28.276  14.217  -4.030  1.00  0.00     0.293 HD
ENDBRANCH  18  21
ENDBRANCH  11  13
ENDBRANCH   2  11
TORSDOF 6
ENDMDL
MODEL 3
REMARK VINA RESULT:    -1.453      1.321      7.609
REMARK INTER + INTRA:          -2.297
REMARK INTER:                  -1.903
REMARK INTRA:                  -0.394
REMARK UNBOUND:                -0.462
REMARK SMILES O=C(C=Cc1ccc(O)cc1)c1ccc(O)cc1O
REMARK SMILES IDX 4 1 3 2 5 3 6 4 7 5 8 6 11 7 10 8 9 9 2 11 1 12 12 13 18 14
REMARK SMILES IDX 13 15 17 16 14 17 15 18 19 19 16 21
REMARK H PARENT 9 10 19 20 16 22
REMARK Flexibility Score: inf
ROOT
ATOM      1  C   UNL     1      26.492   6.014  -1.090  1.00  0.00     0.012 C 
ATOM      2  C   UNL     1      26.923   7.067  -1.803  1.00  0.00     0.053 C 
ENDROOT
BRANCH   1   3
ATOM      3  C   UNL     1      25.621   4.947  -1.638  1.00  0.00    -0.025 A 
ATOM      4  C   UNL     1      24.537   5.317  -2.453  1.00  0.00     0.012 A 
ATOM      5  C   UNL     1      23.693   4.346  -3.000  1.00  0.00     0.047 A 
ATOM      6  C   UNL     1      23.926   2.989  -2.749  1.00  0.00     0.115 A 
ATOM      7  C   UNL     1      25.856   3.576  -1.403  1.00  0.00     0.012 A 
ATOM      8  C   UNL     1      25.009   2.609  -1.952  1.00  0.00     0.047 A 
BRANCH   6   9
ATOM      9  O   UNL     1      23.091   2.012  -3.287  1.00  0.00    -0.508 OA
ATOM     10  H   UNL     1      23.456   1.259  -3.859  1.00  0.00     0.293 HD
ENDBRANCH   6   9
ENDBRANCH   1   3
BRANCH   2  11
ATOM     11  C   UNL     1      27.793   8.118  -1.232  1.00  0.00     0.189 C 
ATOM     12  O   UNL     1      28.260   7.942  -0.075  1.00  0.00    -0.289 OA
BRANCH  11  13
ATOM     13  C   UNL     1      28.143   9.359  -1.960  1.00  0.00     0.064 A 
ATOM     14  C   UNL     1      28.785  10.436  -1.314  1.00  0.00     0.130 A 
ATOM     15  C   UNL     1      27.868   9.449  -3.335  1.00  0.00     0.020 A 
ATOM     16  C   UNL     1      29.100  11.597  -2.036  1.00  0.00     0.093 A 
ATOM     17  C   UNL     1      28.190  10.606  -4.047  1.00  0.00     0.047 A 
ATOM     18  C   UNL     1      28.802  11.684  -3.400  1.00  0.00     0.119 A 
BRANCH  14  19
ATOM     19  O   UNL     1      29.125  10.346   0.037  1.00  0.00    -0.507 OA
ATOM     20  H   UNL     1      30.036  10.016   0.335  1.00  0.00     0.293 HD
ENDBRANCH  14  19
BRANCH  18  21
ATOM     21  O   UNL     1      29.125  12.844  -4.100  1.00  0.00    -0.508 OA
ATOM     22  H   UNL     1      29.245  12.839  -5.106  1.00  0.00     0.293 HD
ENDBRANCH  18  21
ENDBRANCH  11  13
ENDBRANCH   2  11
TORSDOF 6
ENDMDL
MODEL 4
REMARK VINA RESULT:     0.183      1.081      1.645
REMARK INTER + INTRA:          -0.231
REMARK INTER:                  -0.513
REMARK INTRA:                   0.282
REMARK UNBOUND:                -0.462
REMARK SMILES O=C(C=Cc1ccc(O)cc1)c1ccc(O)cc1O
REMARK SMILES IDX 4 1 3 2 5 3 6 4 7 5 8 6 11 7 10 8 9 9 2 11 1 12 12 13 18 14
REMARK SMILES IDX 13 15 17 16 14 17 15 18 19 19 16 21
REMARK H PARENT 9 10 19 20 16 22
REMARK Flexibility Score: inf
ROOT
ATOM      1  C   UNL     1      28.367   7.986  -1.660  1.00  0.00     0.012 C 
ATOM      2  C   UNL     1      27.177   7.402  -1.454  1.00  0.00     0.053 C 
ENDROOT
BRANCH   1   3
ATOM      3  C   UNL     1      28.532   9.378  -2.143  1.00  0.00    -0.025 A 
ATOM      4  C   UNL     1      28.178   9.674  -3.471  1.00  0.00     0.012 A 
ATOM      5  C   UNL     1      28.307  10.973  -3.970  1.00  0.00     0.047 A 
ATOM      6  C   UNL     1      28.784  11.999  -3.145  1.00  0.00     0.115 A 
ATOM      7  C   UNL     1      28.997  10.421  -1.316  1.00  0.00     0.012 A 
ATOM      8  C   UNL     1      29.125  11.719  -1.819  1.00  0.00     0.047 A 
BRANCH   6   9
ATOM      9  O   UNL     1      28.918  13.298  -3.631  1.00  0.00    -0.508 OA
ATOM     10  H   UNL     1      28.679  14.103  -3.064  1.00  0.00     0.293 HD
ENDBRANCH   6   9
ENDBRANCH   1   3
BRANCH   2  11
ATOM     11  C   UNL     1      27.040   6.011  -0.971  1.00  0.00     0.189 C 
ATOM     12  O   UNL     1      27.775   5.636  -0.019  1.00  0.00    -0.289 OA
BRANCH  11  13
ATOM     13  C   UNL     1      26.076   5.047  -1.549  1.00  0.00     0.064 A 
ATOM     14  C   UNL     1      25.021   5.471  -2.384  1.00  0.00     0.130 A 
ATOM     15  C   UNL     1      26.240   3.675  -1.294  1.00  0.00     0.020 A 
ATOM     16  C   UNL     1      24.126   4.528  -2.912  1.00  0.00     0.093 A 
ATOM     17  C   UNL     1      25.348   2.743  -1.828  1.00  0.00     0.047 A 
ATOM     18  C   UNL     1      24.286   3.167  -2.635  1.00  0.00     0.119 A 
BRANCH  14  19
ATOM     19  O   UNL     1      24.874   6.821  -2.702  1.00  0.00    -0.507 OA
ATOM     20  H   UNL     1      25.656   7.465  -2.665  1.00  0.00     0.293 HD
ENDBRANCH  14  19
BRANCH  18  21
ATOM     21  O   UNL     1      23.389   2.247  -3.170  1.00  0.00    -0.508 OA
ATOM     22  H   UNL     1      23.683   1.315  -3.438  1.00  0.00     0.293 HD
ENDBRANCH  18  21
ENDBRANCH  11  13
ENDBRANCH   2  11
TORSDOF 6
ENDMDL
