MODEL 1
REMARK VINA RESULT:    -3.414      0.000      0.000
REMARK INTER + INTRA:          -8.587
REMARK INTER:                  -6.208
REMARK INTRA:                  -2.378
REMARK UNBOUND:                -2.378
REMARK SMILES CCCCCCCCCCCCCC[C@H](C)C(=O)[O-]
REMARK SMILES IDX 9 1 10 2 11 3 12 4 13 5 14 6 15 7 16 8 17 9 18 10 19 11 8 12
REMARK SMILES IDX 7 13 6 14 5 15 4 16 3 17 2 18 1 19
REMARK H PARENT
REMARK Flexibility Score: inf
ROOT
ATOM      1  C   UNL     1      -8.781 -64.584  -7.123  1.00  0.00     0.000 C 
ENDROOT
BRANCH   1   2
ATOM      2  C   UNL     1      -8.830 -65.026  -8.596  1.00  0.00     0.000 C 
BRANCH   2   3
ATOM      3  C   UNL     1      -7.474 -65.574  -9.091  1.00  0.00     0.000 C 
BRANCH   3   4
ATOM      4  C   UNL     1      -6.368 -64.506  -9.187  1.00  0.00     0.000 C 
BRANCH   4   5
ATOM      5  C   UNL     1      -5.125 -64.779  -8.323  1.00  0.00     0.001 C 
BRANCH   5   6
ATOM      6  C   UNL     1      -5.301 -66.000  -7.399  1.00  0.00     0.009 C 
BRANCH   6   7
ATOM      7  C   UNL     1      -4.505 -65.917  -6.077  1.00  0.00     0.032 C 
ATOM      8  C   UNL     1      -3.610 -64.671  -6.006  1.00  0.00     0.014 C 
BRANCH   7   9
ATOM      9  C   UNL     1      -3.725 -67.177  -5.814  1.00  0.00     0.044 C 
ATOM     10  O   UNL     1      -3.076 -67.301  -4.742  1.00  0.00    -0.550 OA
ATOM     11  O   UNL     1      -3.752 -68.234  -6.719  1.00  0.00    -0.550 OA
ENDBRANCH   7   9
ENDBRANCH   6   7
ENDBRANCH   5   6
ENDBRANCH   4   5
ENDBRANCH   3   4
ENDBRANCH   2   3
ENDBRANCH   1   2
BRANCH   1  12
ATOM     12  C   UNL     1      -8.848 -63.049  -6.969  1.00  0.00     0.000 C 
BRANCH  12  13
ATOM     13  C   UNL     1      -7.582 -62.438  -6.347  1.00  0.00    -0.000 C 
BRANCH  13  14
ATOM     14  C   UNL     1      -7.012 -63.287  -5.198  1.00  0.00    -0.000 C 
BRANCH  14  15
ATOM     15  C   UNL     1      -6.672 -62.449  -3.956  1.00  0.00    -0.000 C 
BRANCH  15  16
ATOM     16  C   UNL     1      -6.083 -63.294  -2.817  1.00  0.00    -0.000 C 
BRANCH  16  17
ATOM     17  C   UNL     1      -4.561 -63.131  -2.741  1.00  0.00    -0.000 C 
BRANCH  17  18
ATOM     18  C   UNL     1      -3.887 -64.438  -2.311  1.00  0.00    -0.003 C 
ATOM     19  C   UNL     1      -4.869 -65.605  -2.349  1.00  0.00     0.004 C 
ENDBRANCH  17  18
ENDBRANCH  16  17
ENDBRANCH  15  16
ENDBRANCH  14  15
ENDBRANCH  13  14
ENDBRANCH  12  13
ENDBRANCH   1  12
TORSDOF 14
ENDMDL
MODEL 2
REMARK VINA RESULT:    -3.365      6.707     10.187
REMARK INTER + INTRA:          -8.497
REMARK INTER:                  -6.000
REMARK INTRA:                  -2.496
REMARK UNBOUND:                -2.378
REMARK SMILES CCCCCCCCCCCCCC[C@H](C)C(=O)[O-]
REMARK SMILES IDX 9 1 10 2 11 3 12 4 13 5 14 6 15 7 16 8 17 9 18 10 19 11 8 12
REMARK SMILES IDX 7 13 6 14 5 15 4 16 3 17 2 18 1 19
REMARK H PARENT
REMARK Flexibility Score: inf
ROOT
ATOM      1  C   UNL     1      -6.046 -65.383   2.376  1.00  0.00     0.000 C 
ENDROOT
BRANCH   1   2
ATOM      2  C   UNL     1      -5.213 -64.131   2.701  1.00  0.00     0.000 C 
BRANCH   2   3
ATOM      3  C   UNL     1      -5.935 -62.825   2.305  1.00  0.00     0.000 C 
BRANCH   3   4
ATOM      4  C   UNL     1      -6.483 -62.028   3.505  1.00  0.00     0.000 C 
BRANCH   4   5
ATOM      5  C   UNL     1      -8.011 -61.850   3.522  1.00  0.00     0.001 C 
BRANCH   5   6
ATOM      6  C   UNL     1      -8.442 -60.395   3.246  1.00  0.00     0.009 C 
BRANCH   6   7
ATOM      7  C   UNL     1      -9.028 -60.163   1.835  1.00  0.00     0.032 C 
ATOM      8  C   UNL     1      -7.983 -59.633   0.843  1.00  0.00     0.014 C 
BRANCH   7   9
ATOM      9  C   UNL     1     -10.251 -59.285   1.876  1.00  0.00     0.044 C 
ATOM     10  O   UNL     1     -11.362 -59.740   1.497  1.00  0.00    -0.550 OA
ATOM     11  O   UNL     1     -10.181 -57.989   2.377  1.00  0.00    -0.550 OA
ENDBRANCH   7   9
ENDBRANCH   6   7
ENDBRANCH   5   6
ENDBRANCH   4   5
ENDBRANCH   3   4
ENDBRANCH   2   3
ENDBRANCH   1   2
BRANCH   1  12
ATOM     12  C   UNL     1      -7.106 -65.679   3.460  1.00  0.00     0.000 C 
BRANCH  12  13
ATOM     13  C   UNL     1      -8.553 -65.575   2.951  1.00  0.00    -0.000 C 
BRANCH  13  14
ATOM     14  C   UNL     1      -8.638 -65.431   1.422  1.00  0.00    -0.000 C 
BRANCH  14  15
ATOM     15  C   UNL     1      -9.256 -64.094   0.988  1.00  0.00    -0.000 C 
BRANCH  15  16
ATOM     16  C   UNL     1      -8.632 -63.546  -0.305  1.00  0.00    -0.000 C 
BRANCH  16  17
ATOM     17  C   UNL     1      -8.163 -64.687  -1.215  1.00  0.00    -0.000 C 
BRANCH  17  18
ATOM     18  C   UNL     1      -6.978 -64.249  -2.082  1.00  0.00    -0.003 C 
ATOM     19  C   UNL     1      -5.918 -63.535  -1.249  1.00  0.00     0.004 C 
ENDBRANCH  17  18
ENDBRANCH  16  17
ENDBRANCH  15  16
ENDBRANCH  14  15
ENDBRANCH  13  14
ENDBRANCH  12  13
ENDBRANCH   1  12
TORSDOF 14
ENDMDL
MODEL 3
REMARK VINA RESULT:    -3.312      2.484      4.890
REMARK INTER + INTRA:          -8.401
REMARK INTER:                  -5.717
REMARK INTRA:                  -2.684
REMARK UNBOUND:                -2.378
REMARK SMILES CCCCCCCCCCCCCC[C@H](C)C(=O)[O-]
REMARK SMILES IDX 9 1 10 2 11 3 12 4 13 5 14 6 15 7 16 8 17 9 18 10 19 11 8 12
REMARK SMILES IDX 7 13 6 14 5 15 4 16 3 17 2 18 1 19
REMARK H PARENT
REMARK Flexibility Score: inf
ROOT
ATOM      1  C   UNL     1      -4.775 -66.051  -3.222  1.00  0.00     0.000 C 
ENDROOT
BRANCH   1   2
ATOM      2  C   UNL     1      -4.005 -66.825  -4.307  1.00  0.00     0.000 C 
BRANCH   2   3
ATOM      3  C   UNL     1      -4.752 -66.843  -5.658  1.00  0.00     0.000 C 
BRANCH   3   4
ATOM      4  C   UNL     1      -4.055 -66.028  -6.765  1.00  0.00     0.000 C 
BRANCH   4   5
ATOM      5  C   UNL     1      -2.704 -65.410  -6.363  1.00  0.00     0.001 C 
BRANCH   5   6
ATOM      6  C   UNL     1      -2.341 -64.174  -7.210  1.00  0.00     0.009 C 
BRANCH   6   7
ATOM      7  C   UNL     1      -1.424 -63.160  -6.493  1.00  0.00     0.032 C 
ATOM      8  C   UNL     1      -1.408 -61.788  -7.183  1.00  0.00     0.014 C 
BRANCH   7   9
ATOM      9  C   UNL     1      -0.031 -63.702  -6.302  1.00  0.00     0.044 C 
ATOM     10  O   UNL     1       0.549 -64.285  -7.256  1.00  0.00    -0.550 OA
ATOM     11  O   UNL     1       0.646 -63.522  -5.101  1.00  0.00    -0.550 OA
ENDBRANCH   7   9
ENDBRANCH   6   7
ENDBRANCH   5   6
ENDBRANCH   4   5
ENDBRANCH   3   4
ENDBRANCH   2   3
ENDBRANCH   1   2
BRANCH   1  12
ATOM     12  C   UNL     1      -3.910 -64.959  -2.556  1.00  0.00     0.000 C 
BRANCH  12  13
ATOM     13  C   UNL     1      -3.720 -63.707  -3.427  1.00  0.00    -0.000 C 
BRANCH  13  14
ATOM     14  C   UNL     1      -5.045 -63.168  -3.993  1.00  0.00    -0.000 C 
BRANCH  14  15
ATOM     15  C   UNL     1      -4.841 -62.275  -5.226  1.00  0.00    -0.000 C 
BRANCH  15  16
ATOM     16  C   UNL     1      -5.712 -62.703  -6.417  1.00  0.00    -0.000 C 
BRANCH  16  17
ATOM     17  C   UNL     1      -6.849 -63.624  -5.963  1.00  0.00    -0.000 C 
BRANCH  17  18
ATOM     18  C   UNL     1      -7.483 -64.348  -7.156  1.00  0.00    -0.003 C 
ATOM     19  C   UNL     1      -9.001 -64.413  -7.020  1.00  0.00     0.004 C 
ENDBRANCH  17  18
ENDBRANCH  16  17
ENDBRANCH  15  16
ENDBRANCH  14  15
ENDBRANCH  13  14
ENDBRANCH  12  13
ENDBRANCH   1  12
TORSDOF 14
ENDMDL
MODEL 4
REMARK VINA RESULT:    -3.301      1.553      4.642
REMARK INTER + INTRA:          -8.381
REMARK INTER:                  -6.616
REMARK INTRA:                  -1.765
REMARK UNBOUND:                -2.378
REMARK SMILES CCCCCCCCCCCCCC[C@H](C)C(=O)[O-]
REMARK SMILES IDX 9 1 10 2 11 3 12 4 13 5 14 6 15 7 16 8 17 9 18 10 19 11 8 12
REMARK SMILES IDX 7 13 6 14 5 15 4 16 3 17 2 18 1 19
REMARK H PARENT
REMARK Flexibility Score: inf
ROOT
ATOM      1  C   UNL     1      -4.178 -65.427  -3.573  1.00  0.00     0.000 C 
ENDROOT
BRANCH   1   2
ATOM      2  C   UNL     1      -4.276 -66.882  -4.065  1.00  0.00     0.000 C 
BRANCH   2   3
ATOM      3  C   UNL     1      -3.935 -67.019  -5.565  1.00  0.00     0.000 C 
BRANCH   3   4
ATOM      4  C   UNL     1      -3.594 -65.682  -6.251  1.00  0.00     0.000 C 
BRANCH   4   5
ATOM      5  C   UNL     1      -4.133 -65.532  -7.684  1.00  0.00     0.001 C 
BRANCH   5   6
ATOM      6  C   UNL     1      -5.410 -66.360  -7.928  1.00  0.00     0.009 C 
BRANCH   6   7
ATOM      7  C   UNL     1      -5.348 -67.270  -9.175  1.00  0.00     0.032 C 
ATOM      8  C   UNL     1      -6.643 -67.231  -9.999  1.00  0.00     0.014 C 
BRANCH   7   9
ATOM      9  C   UNL     1      -4.959 -68.681  -8.818  1.00  0.00     0.044 C 
ATOM     10  O   UNL     1      -5.852 -69.554  -8.653  1.00  0.00    -0.550 OA
ATOM     11  O   UNL     1      -3.621 -69.049  -8.718  1.00  0.00    -0.550 OA
ENDBRANCH   7   9
ENDBRANCH   6   7
ENDBRANCH   5   6
ENDBRANCH   4   5
ENDBRANCH   3   4
ENDBRANCH   2   3
ENDBRANCH   1   2
BRANCH   1  12
ATOM     12  C   UNL     1      -5.197 -65.116  -2.456  1.00  0.00     0.000 C 
BRANCH  12  13
ATOM     13  C   UNL     1      -6.204 -64.015  -2.830  1.00  0.00    -0.000 C 
BRANCH  13  14
ATOM     14  C   UNL     1      -5.582 -62.911  -3.701  1.00  0.00    -0.000 C 
BRANCH  14  15
ATOM     15  C   UNL     1      -6.560 -62.368  -4.754  1.00  0.00    -0.000 C 
BRANCH  15  16
ATOM     16  C   UNL     1      -6.993 -63.440  -5.766  1.00  0.00    -0.000 C 
BRANCH  16  17
ATOM     17  C   UNL     1      -8.290 -63.034  -6.475  1.00  0.00    -0.000 C 
BRANCH  17  18
ATOM     18  C   UNL     1      -9.166 -64.258  -6.764  1.00  0.00    -0.003 C 
ATOM     19  C   UNL     1      -8.786 -64.910  -8.090  1.00  0.00     0.004 C 
ENDBRANCH  17  18
ENDBRANCH  16  17
ENDBRANCH  15  16
ENDBRANCH  14  15
ENDBRANCH  13  14
ENDBRANCH  12  13
ENDBRANCH   1  12
TORSDOF 14
ENDMDL
MODEL 5
REMARK VINA RESULT:    -3.292     11.385     13.645
REMARK INTER + INTRA:          -8.365
REMARK INTER:                  -6.281
REMARK INTRA:                  -2.084
REMARK UNBOUND:                -2.378
REMARK SMILES CCCCCCCCCCCCCC[C@H](C)C(=O)[O-]
REMARK SMILES IDX 9 1 10 2 11 3 12 4 13 5 14 6 15 7 16 8 17 9 18 10 19 11 8 12
REMARK SMILES IDX 7 13 6 14 5 15 4 16 3 17 2 18 1 19
REMARK H PARENT
REMARK Flexibility Score: inf
ROOT
ATOM      1  C   UNL     1     -16.727 -73.910 -10.181  1.00  0.00     0.000 C 
ENDROOT
BRANCH   1   2
ATOM      2  C   UNL     1     -15.667 -74.598 -11.059  1.00  0.00     0.000 C 
BRANCH   2   3
ATOM      3  C   UNL     1     -15.283 -73.750 -12.291  1.00  0.00     0.000 C 
BRANCH   3   4
ATOM      4  C   UNL     1     -13.814 -73.917 -12.728  1.00  0.00     0.000 C 
BRANCH   4   5
ATOM      5  C   UNL     1     -12.940 -74.739 -11.766  1.00  0.00     0.001 C 
BRANCH   5   6
ATOM      6  C   UNL     1     -11.650 -74.001 -11.358  1.00  0.00     0.009 C 
BRANCH   6   7
ATOM      7  C   UNL     1     -11.572 -73.638  -9.858  1.00  0.00     0.032 C 
ATOM      8  C   UNL     1     -12.797 -72.845  -9.380  1.00  0.00     0.014 C 
BRANCH   7   9
ATOM      9  C   UNL     1     -10.285 -72.932  -9.520  1.00  0.00     0.044 C 
ATOM     10  O   UNL     1      -9.237 -73.601  -9.319  1.00  0.00    -0.550 OA
ATOM     11  O   UNL     1     -10.225 -71.543  -9.479  1.00  0.00    -0.550 OA
ENDBRANCH   7   9
ENDBRANCH   6   7
ENDBRANCH   5   6
ENDBRANCH   4   5
ENDBRANCH   3   4
ENDBRANCH   2   3
ENDBRANCH   1   2
BRANCH   1  12
ATOM     12  C   UNL     1     -16.259 -73.745  -8.719  1.00  0.00     0.000 C 
BRANCH  12  13
ATOM     13  C   UNL     1     -17.339 -74.101  -7.683  1.00  0.00    -0.000 C 
BRANCH  13  14
ATOM     14  C   UNL     1     -16.919 -75.254  -6.756  1.00  0.00    -0.000 C 
BRANCH  14  15
ATOM     15  C   UNL     1     -16.310 -76.437  -7.522  1.00  0.00    -0.000 C 
BRANCH  15  16
ATOM     16  C   UNL     1     -15.301 -77.231  -6.679  1.00  0.00    -0.000 C 
BRANCH  16  17
ATOM     17  C   UNL     1     -13.876 -77.051  -7.215  1.00  0.00    -0.000 C 
BRANCH  17  18
ATOM     18  C   UNL     1     -13.891 -76.565  -8.668  1.00  0.00    -0.003 C 
ATOM     19  C   UNL     1     -13.736 -77.729  -9.642  1.00  0.00     0.004 C 
ENDBRANCH  17  18
ENDBRANCH  16  17
ENDBRANCH  15  16
ENDBRANCH  14  15
ENDBRANCH  13  14
ENDBRANCH  12  13
ENDBRANCH   1  12
TORSDOF 14
ENDMDL
MODEL 6
REMARK VINA RESULT:    -3.288      2.795      5.632
REMARK INTER + INTRA:          -8.357
REMARK INTER:                  -6.266
REMARK INTRA:                  -2.091
REMARK UNBOUND:                -2.378
REMARK SMILES CCCCCCCCCCCCCC[C@H](C)C(=O)[O-]
REMARK SMILES IDX 9 1 10 2 11 3 12 4 13 5 14 6 15 7 16 8 17 9 18 10 19 11 8 12
REMARK SMILES IDX 7 13 6 14 5 15 4 16 3 17 2 18 1 19
REMARK H PARENT
REMARK Flexibility Score: inf
ROOT
ATOM      1  C   UNL     1      -3.905 -66.025  -3.772  1.00  0.00     0.000 C 
ENDROOT
BRANCH   1   2
ATOM      2  C   UNL     1      -4.931 -65.077  -3.126  1.00  0.00     0.000 C 
BRANCH   2   3
ATOM      3  C   UNL     1      -4.475 -63.602  -3.165  1.00  0.00     0.000 C 
BRANCH   3   4
ATOM      4  C   UNL     1      -3.012 -63.414  -3.610  1.00  0.00     0.000 C 
BRANCH   4   5
ATOM      5  C   UNL     1      -2.818 -62.514  -4.842  1.00  0.00     0.001 C 
BRANCH   5   6
ATOM      6  C   UNL     1      -1.943 -63.173  -5.927  1.00  0.00     0.009 C 
BRANCH   6   7
ATOM      7  C   UNL     1      -0.438 -63.223  -5.585  1.00  0.00     0.032 C 
ATOM      8  C   UNL     1       0.083 -61.894  -5.018  1.00  0.00     0.014 C 
BRANCH   7   9
ATOM      9  C   UNL     1       0.386 -63.688  -6.757  1.00  0.00     0.044 C 
ATOM     10  O   UNL     1       1.220 -62.906  -7.286  1.00  0.00    -0.550 OA
ATOM     11  O   UNL     1       0.278 -64.991  -7.233  1.00  0.00    -0.550 OA
ENDBRANCH   7   9
ENDBRANCH   6   7
ENDBRANCH   5   6
ENDBRANCH   4   5
ENDBRANCH   3   4
ENDBRANCH   2   3
ENDBRANCH   1   2
BRANCH   1  12
ATOM     12  C   UNL     1      -4.539 -67.364  -4.208  1.00  0.00     0.000 C 
BRANCH  12  13
ATOM     13  C   UNL     1      -4.584 -67.555  -5.733  1.00  0.00    -0.000 C 
BRANCH  13  14
ATOM     14  C   UNL     1      -4.180 -66.288  -6.505  1.00  0.00    -0.000 C 
BRANCH  14  15
ATOM     15  C   UNL     1      -5.376 -65.606  -7.188  1.00  0.00    -0.000 C 
BRANCH  15  16
ATOM     16  C   UNL     1      -5.491 -64.117  -6.829  1.00  0.00    -0.000 C 
BRANCH  16  17
ATOM     17  C   UNL     1      -6.814 -63.825  -6.114  1.00  0.00    -0.000 C 
BRANCH  17  18
ATOM     18  C   UNL     1      -7.905 -63.426  -7.114  1.00  0.00    -0.003 C 
ATOM     19  C   UNL     1      -8.977 -64.506  -7.223  1.00  0.00     0.004 C 
ENDBRANCH  17  18
ENDBRANCH  16  17
ENDBRANCH  15  16
ENDBRANCH  14  15
ENDBRANCH  13  14
ENDBRANCH  12  13
ENDBRANCH   1  12
TORSDOF 14
ENDMDL
MODEL 7
REMARK VINA RESULT:    -3.220      2.722      4.904
REMARK INTER + INTRA:          -8.234
REMARK INTER:                  -5.839
REMARK INTRA:                  -2.395
REMARK UNBOUND:                -2.378
REMARK SMILES CCCCCCCCCCCCCC[C@H](C)C(=O)[O-]
REMARK SMILES IDX 9 1 10 2 11 3 12 4 13 5 14 6 15 7 16 8 17 9 18 10 19 11 8 12
REMARK SMILES IDX 7 13 6 14 5 15 4 16 3 17 2 18 1 19
REMARK H PARENT
REMARK Flexibility Score: inf
ROOT
ATOM      1  C   UNL     1      -4.469 -68.311  -6.530  1.00  0.00     0.000 C 
ENDROOT
BRANCH   1   2
ATOM      2  C   UNL     1      -5.002 -67.727  -7.851  1.00  0.00     0.000 C 
BRANCH   2   3
ATOM      3  C   UNL     1      -4.283 -66.420  -8.248  1.00  0.00     0.000 C 
BRANCH   3   4
ATOM      4  C   UNL     1      -5.238 -65.239  -8.511  1.00  0.00     0.000 C 
BRANCH   4   5
ATOM      5  C   UNL     1      -6.408 -65.118  -7.520  1.00  0.00     0.001 C 
BRANCH   5   6
ATOM      6  C   UNL     1      -7.214 -63.818  -7.710  1.00  0.00     0.009 C 
BRANCH   6   7
ATOM      7  C   UNL     1      -7.951 -63.336  -6.440  1.00  0.00     0.032 C 
ATOM      8  C   UNL     1      -9.461 -63.169  -6.662  1.00  0.00     0.014 C 
BRANCH   7   9
ATOM      9  C   UNL     1      -7.330 -62.086  -5.874  1.00  0.00     0.044 C 
ATOM     10  O   UNL     1      -7.703 -61.654  -4.751  1.00  0.00    -0.550 OA
ATOM     11  O   UNL     1      -6.310 -61.427  -6.553  1.00  0.00    -0.550 OA
ENDBRANCH   7   9
ENDBRANCH   6   7
ENDBRANCH   5   6
ENDBRANCH   4   5
ENDBRANCH   3   4
ENDBRANCH   2   3
ENDBRANCH   1   2
BRANCH   1  12
ATOM     12  C   UNL     1      -3.826 -67.233  -5.631  1.00  0.00     0.000 C 
BRANCH  12  13
ATOM     13  C   UNL     1      -4.526 -67.067  -4.272  1.00  0.00    -0.000 C 
BRANCH  13  14
ATOM     14  C   UNL     1      -4.144 -65.759  -3.559  1.00  0.00    -0.000 C 
BRANCH  14  15
ATOM     15  C   UNL     1      -4.952 -64.553  -4.063  1.00  0.00    -0.000 C 
BRANCH  15  16
ATOM     16  C   UNL     1      -4.058 -63.376  -4.482  1.00  0.00    -0.000 C 
BRANCH  16  17
ATOM     17  C   UNL     1      -3.509 -63.580  -5.898  1.00  0.00    -0.000 C 
BRANCH  17  18
ATOM     18  C   UNL     1      -1.979 -63.481  -5.915  1.00  0.00    -0.003 C 
ATOM     19  C   UNL     1      -1.389 -64.264  -7.084  1.00  0.00     0.004 C 
ENDBRANCH  17  18
ENDBRANCH  16  17
ENDBRANCH  15  16
ENDBRANCH  14  15
ENDBRANCH  13  14
ENDBRANCH  12  13
ENDBRANCH   1  12
TORSDOF 14
ENDMDL
MODEL 8
REMARK VINA RESULT:    -3.196     12.208     14.698
REMARK INTER + INTRA:          -8.190
REMARK INTER:                  -5.780
REMARK INTRA:                  -2.410
REMARK UNBOUND:                -2.378
REMARK SMILES CCCCCCCCCCCCCC[C@H](C)C(=O)[O-]
REMARK SMILES IDX 9 1 10 2 11 3 12 4 13 5 14 6 15 7 16 8 17 9 18 10 19 11 8 12
REMARK SMILES IDX 7 13 6 14 5 15 4 16 3 17 2 18 1 19
REMARK H PARENT
REMARK Flexibility Score: inf
ROOT
ATOM      1  C   UNL     1     -13.887 -76.173  -8.754  1.00  0.00     0.000 C 
ENDROOT
BRANCH   1   2
ATOM      2  C   UNL     1     -14.055 -76.969 -10.061  1.00  0.00     0.000 C 
BRANCH   2   3
ATOM      3  C   UNL     1     -15.446 -76.762 -10.700  1.00  0.00     0.000 C 
BRANCH   3   4
ATOM      4  C   UNL     1     -15.435 -75.826 -11.924  1.00  0.00     0.000 C 
BRANCH   4   5
ATOM      5  C   UNL     1     -15.874 -74.379 -11.637  1.00  0.00     0.001 C 
BRANCH   5   6
ATOM      6  C   UNL     1     -14.757 -73.354 -11.917  1.00  0.00     0.009 C 
BRANCH   6   7
ATOM      7  C   UNL     1     -13.530 -73.482 -10.987  1.00  0.00     0.032 C 
ATOM      8  C   UNL     1     -13.425 -72.322  -9.985  1.00  0.00     0.014 C 
BRANCH   7   9
ATOM      9  C   UNL     1     -12.254 -73.660 -11.767  1.00  0.00     0.044 C 
ATOM     10  O   UNL     1     -11.817 -74.819 -11.997  1.00  0.00    -0.550 OA
ATOM     11  O   UNL     1     -11.576 -72.561 -12.283  1.00  0.00    -0.550 OA
ENDBRANCH   7   9
ENDBRANCH   6   7
ENDBRANCH   5   6
ENDBRANCH   4   5
ENDBRANCH   3   4
ENDBRANCH   2   3
ENDBRANCH   1   2
BRANCH   1  12
ATOM     12  C   UNL     1     -13.641 -77.091  -7.537  1.00  0.00     0.000 C 
BRANCH  12  13
ATOM     13  C   UNL     1     -14.791 -77.081  -6.516  1.00  0.00    -0.000 C 
BRANCH  13  14
ATOM     14  C   UNL     1     -16.095 -77.669  -7.080  1.00  0.00    -0.000 C 
BRANCH  14  15
ATOM     15  C   UNL     1     -17.314 -76.776  -6.805  1.00  0.00    -0.000 C 
BRANCH  15  16
ATOM     16  C   UNL     1     -16.955 -75.283  -6.762  1.00  0.00    -0.000 C 
BRANCH  16  17
ATOM     17  C   UNL     1     -17.155 -74.629  -8.133  1.00  0.00    -0.000 C 
BRANCH  17  18
ATOM     18  C   UNL     1     -16.554 -73.220  -8.165  1.00  0.00    -0.003 C 
ATOM     19  C   UNL     1     -17.262 -72.294  -7.179  1.00  0.00     0.004 C 
ENDBRANCH  17  18
ENDBRANCH  16  17
ENDBRANCH  15  16
ENDBRANCH  14  15
ENDBRANCH  13  14
ENDBRANCH  12  13
ENDBRANCH   1  12
TORSDOF 14
ENDMDL
MODEL 9
REMARK VINA RESULT:    -3.188     10.994     13.309
REMARK INTER + INTRA:          -8.175
REMARK INTER:                  -6.664
REMARK INTRA:                  -1.511
REMARK UNBOUND:                -2.378
REMARK SMILES CCCCCCCCCCCCCC[C@H](C)C(=O)[O-]
REMARK SMILES IDX 9 1 10 2 11 3 12 4 13 5 14 6 15 7 16 8 17 9 18 10 19 11 8 12
REMARK SMILES IDX 7 13 6 14 5 15 4 16 3 17 2 18 1 19
REMARK H PARENT
REMARK Flexibility Score: inf
ROOT
ATOM      1  C   UNL     1     -13.675 -75.933  -8.620  1.00  0.00     0.000 C 
ENDROOT
BRANCH   1   2
ATOM      2  C   UNL     1     -13.757 -76.329 -10.104  1.00  0.00     0.000 C 
BRANCH   2   3
ATOM      3  C   UNL     1     -13.904 -75.104 -11.033  1.00  0.00     0.000 C 
BRANCH   3   4
ATOM      4  C   UNL     1     -12.580 -74.359 -11.294  1.00  0.00     0.000 C 
BRANCH   4   5
ATOM      5  C   UNL     1     -12.456 -72.993 -10.596  1.00  0.00     0.001 C 
BRANCH   5   6
ATOM      6  C   UNL     1     -11.446 -73.011  -9.432  1.00  0.00     0.009 C 
BRANCH   6   7
ATOM      7  C   UNL     1     -10.004 -72.629  -9.835  1.00  0.00     0.032 C 
ATOM      8  C   UNL     1      -8.968 -73.661  -9.365  1.00  0.00     0.014 C 
BRANCH   7   9
ATOM      9  C   UNL     1      -9.647 -71.237  -9.384  1.00  0.00     0.044 C 
ATOM     10  O   UNL     1      -9.496 -70.996  -8.157  1.00  0.00    -0.550 OA
ATOM     11  O   UNL     1      -9.429 -70.222 -10.309  1.00  0.00    -0.550 OA
ENDBRANCH   7   9
ENDBRANCH   6   7
ENDBRANCH   5   6
ENDBRANCH   4   5
ENDBRANCH   3   4
ENDBRANCH   2   3
ENDBRANCH   1   2
BRANCH   1  12
ATOM     12  C   UNL     1     -13.776 -77.155  -7.681  1.00  0.00     0.000 C 
BRANCH  12  13
ATOM     13  C   UNL     1     -15.007 -77.122  -6.759  1.00  0.00    -0.000 C 
BRANCH  13  14
ATOM     14  C   UNL     1     -16.329 -77.305  -7.522  1.00  0.00    -0.000 C 
BRANCH  14  15
ATOM     15  C   UNL     1     -17.424 -76.339  -7.047  1.00  0.00    -0.000 C 
BRANCH  15  16
ATOM     16  C   UNL     1     -16.855 -75.012  -6.522  1.00  0.00    -0.000 C 
BRANCH  16  17
ATOM     17  C   UNL     1     -17.826 -73.856  -6.782  1.00  0.00    -0.000 C 
BRANCH  17  18
ATOM     18  C   UNL     1     -17.120 -72.691  -7.485  1.00  0.00    -0.003 C 
ATOM     19  C   UNL     1     -16.253 -73.185  -8.639  1.00  0.00     0.004 C 
ENDBRANCH  17  18
ENDBRANCH  16  17
ENDBRANCH  15  16
ENDBRANCH  14  15
ENDBRANCH  13  14
ENDBRANCH  12  13
ENDBRANCH   1  12
TORSDOF 14
ENDMDL
