MODEL 1
REMARK VINA RESULT:    -3.844      0.000      0.000
REMARK INTER + INTRA:          -5.205
REMARK INTER:                  -5.079
REMARK INTRA:                  -0.126
REMARK UNBOUND:                -0.126
REMARK SMILES CCCCCCCO
REMARK SMILES IDX 5 1 4 2 3 3 2 4 1 5 6 6 7 7 8 8
REMARK H PARENT 8 9
REMARK Flexibility Score: inf
ROOT
ATOM      1  C   UNL     1       2.894  -3.662 -22.450  1.00  0.00     0.002 C 
ENDROOT
BRANCH   1   2
ATOM      2  C   UNL     1       2.861  -2.251 -21.853  1.00  0.00     0.000 C 
BRANCH   2   3
ATOM      3  C   UNL     1       1.436  -1.686 -21.851  1.00  0.00    -0.000 C 
BRANCH   3   4
ATOM      4  C   UNL     1       1.411  -0.253 -22.399  1.00  0.00    -0.003 C 
ATOM      5  C   UNL     1       2.605   0.008 -23.313  1.00  0.00     0.004 C 
ENDBRANCH   3   4
ENDBRANCH   2   3
ENDBRANCH   1   2
BRANCH   1   6
ATOM      6  C   UNL     1       4.021  -4.497 -21.829  1.00  0.00     0.028 C 
BRANCH   6   7
ATOM      7  C   UNL     1       4.358  -5.706 -22.703  1.00  0.00     0.156 C 
BRANCH   7   8
ATOM      8  O   UNL     1       3.629  -6.826 -22.284  1.00  0.00    -0.396 OA
ATOM      9  H   UNL     1       4.214  -7.329 -21.658  1.00  0.00     0.210 HD
ENDBRANCH   7   8
ENDBRANCH   6   7
ENDBRANCH   1   6
TORSDOF 6
ENDMDL
MODEL 2
REMARK VINA RESULT:    -3.790      2.340      4.879
REMARK INTER + INTRA:          -5.135
REMARK INTER:                  -4.996
REMARK INTRA:                  -0.138
REMARK UNBOUND:                -0.126
REMARK SMILES CCCCCCCO
REMARK SMILES IDX 5 1 4 2 3 3 2 4 1 5 6 6 7 7 8 8
REMARK H PARENT 8 9
REMARK Flexibility Score: inf
ROOT
ATOM      1  C   UNL     1       2.461  -2.994 -22.238  1.00  0.00     0.002 C 
ENDROOT
BRANCH   1   2
ATOM      2  C   UNL     1       3.895  -3.415 -21.898  1.00  0.00     0.000 C 
BRANCH   2   3
ATOM      3  C   UNL     1       4.022  -4.942 -21.843  1.00  0.00    -0.000 C 
BRANCH   3   4
ATOM      4  C   UNL     1       4.359  -5.516 -23.225  1.00  0.00    -0.003 C 
ATOM      5  C   UNL     1       3.764  -6.910 -23.402  1.00  0.00     0.004 C 
ENDBRANCH   3   4
ENDBRANCH   2   3
ENDBRANCH   1   2
BRANCH   1   6
ATOM      6  C   UNL     1       2.405  -1.521 -22.662  1.00  0.00     0.028 C 
BRANCH   6   7
ATOM      7  C   UNL     1       1.165  -0.829 -22.093  1.00  0.00     0.156 C 
BRANCH   7   8
ATOM      8  O   UNL     1       0.445  -1.715 -21.281  1.00  0.00    -0.396 OA
ATOM      9  H   UNL     1       0.619  -1.446 -20.341  1.00  0.00     0.210 HD
ENDBRANCH   7   8
ENDBRANCH   6   7
ENDBRANCH   1   6
TORSDOF 6
ENDMDL
MODEL 3
REMARK VINA RESULT:    -3.580     10.127     11.796
REMARK INTER + INTRA:          -4.857
REMARK INTER:                  -4.683
REMARK INTRA:                  -0.175
REMARK UNBOUND:                -0.126
REMARK SMILES CCCCCCCO
REMARK SMILES IDX 5 1 4 2 3 3 2 4 1 5 6 6 7 7 8 8
REMARK H PARENT 8 9
REMARK Flexibility Score: inf
ROOT
ATOM      1  C   UNL     1      -6.164   2.902 -22.387  1.00  0.00     0.002 C 
ENDROOT
BRANCH   1   2
ATOM      2  C   UNL     1      -7.437   2.246 -22.933  1.00  0.00     0.000 C 
BRANCH   2   3
ATOM      3  C   UNL     1      -8.593   3.251 -22.996  1.00  0.00    -0.000 C 
BRANCH   3   4
ATOM      4  C   UNL     1      -8.103   4.672 -22.687  1.00  0.00    -0.003 C 
ATOM      5  C   UNL     1      -9.116   5.430 -21.833  1.00  0.00     0.004 C 
ENDBRANCH   3   4
ENDBRANCH   2   3
ENDBRANCH   1   2
BRANCH   1   6
ATOM      6  C   UNL     1      -5.453   1.981 -21.389  1.00  0.00     0.028 C 
BRANCH   6   7
ATOM      7  C   UNL     1      -4.894   2.775 -20.206  1.00  0.00     0.156 C 
BRANCH   7   8
ATOM      8  O   UNL     1      -3.571   3.157 -20.461  1.00  0.00    -0.396 OA
ATOM      9  H   UNL     1      -3.150   3.331 -19.577  1.00  0.00     0.210 HD
ENDBRANCH   7   8
ENDBRANCH   6   7
ENDBRANCH   1   6
TORSDOF 6
ENDMDL
MODEL 4
REMARK VINA RESULT:    -3.558      2.157      3.410
REMARK INTER + INTRA:          -4.827
REMARK INTER:                  -4.528
REMARK INTRA:                  -0.300
REMARK UNBOUND:                -0.126
REMARK SMILES CCCCCCCO
REMARK SMILES IDX 5 1 4 2 3 3 2 4 1 5 6 6 7 7 8 8
REMARK H PARENT 8 9
REMARK Flexibility Score: inf
ROOT
ATOM      1  C   UNL     1       1.994  -0.357 -22.026  1.00  0.00     0.002 C 
ENDROOT
BRANCH   1   2
ATOM      2  C   UNL     1       1.200   0.310 -23.155  1.00  0.00     0.000 C 
BRANCH   2   3
ATOM      3  C   UNL     1       2.091   0.573 -24.375  1.00  0.00    -0.000 C 
BRANCH   3   4
ATOM      4  C   UNL     1       3.568   0.658 -23.969  1.00  0.00    -0.003 C 
ATOM      5  C   UNL     1       4.293   1.747 -24.755  1.00  0.00     0.004 C 
ENDBRANCH   3   4
ENDBRANCH   2   3
ENDBRANCH   1   2
BRANCH   1   6
ATOM      6  C   UNL     1       1.548  -1.810 -21.823  1.00  0.00     0.028 C 
BRANCH   6   7
ATOM      7  C   UNL     1       2.704  -2.782 -22.069  1.00  0.00     0.156 C 
BRANCH   7   8
ATOM      8  O   UNL     1       2.963  -2.890 -23.442  1.00  0.00    -0.396 OA
ATOM      9  H   UNL     1       3.192  -1.977 -23.761  1.00  0.00     0.210 HD
ENDBRANCH   7   8
ENDBRANCH   6   7
ENDBRANCH   1   6
TORSDOF 6
ENDMDL
MODEL 5
REMARK VINA RESULT:    -3.470      9.494     10.174
REMARK INTER + INTRA:          -4.712
REMARK INTER:                  -4.569
REMARK INTRA:                  -0.143
REMARK UNBOUND:                -0.126
REMARK SMILES CCCCCCCO
REMARK SMILES IDX 5 1 4 2 3 3 2 4 1 5 6 6 7 7 8 8
REMARK H PARENT 8 9
REMARK Flexibility Score: inf
ROOT
ATOM      1  C   UNL     1      -2.815   4.290 -24.297  1.00  0.00     0.002 C 
ENDROOT
BRANCH   1   2
ATOM      2  C   UNL     1      -3.951   3.963 -23.322  1.00  0.00     0.000 C 
BRANCH   2   3
ATOM      3  C   UNL     1      -3.424   3.212 -22.094  1.00  0.00    -0.000 C 
BRANCH   3   4
ATOM      4  C   UNL     1      -4.516   3.070 -21.026  1.00  0.00    -0.003 C 
ATOM      5  C   UNL     1      -5.473   1.930 -21.365  1.00  0.00     0.004 C 
ENDBRANCH   3   4
ENDBRANCH   2   3
ENDBRANCH   1   2
BRANCH   1   6
ATOM      6  C   UNL     1      -1.489   4.486 -23.553  1.00  0.00     0.028 C 
BRANCH   6   7
ATOM      7  C   UNL     1      -0.850   5.830 -23.909  1.00  0.00     0.156 C 
BRANCH   7   8
ATOM      8  O   UNL     1      -0.597   6.570 -22.746  1.00  0.00    -0.396 OA
ATOM      9  H   UNL     1      -1.481   6.851 -22.390  1.00  0.00     0.210 HD
ENDBRANCH   7   8
ENDBRANCH   6   7
ENDBRANCH   1   6
TORSDOF 6
ENDMDL
MODEL 6
REMARK VINA RESULT:    -3.439      3.288      5.417
REMARK INTER + INTRA:          -4.671
REMARK INTER:                  -4.616
REMARK INTRA:                  -0.054
REMARK UNBOUND:                -0.126
REMARK SMILES CCCCCCCO
REMARK SMILES IDX 5 1 4 2 3 3 2 4 1 5 6 6 7 7 8 8
REMARK H PARENT 8 9
REMARK Flexibility Score: inf
ROOT
ATOM      1  C   UNL     1       2.399  -1.151 -22.894  1.00  0.00     0.002 C 
ENDROOT
BRANCH   1   2
ATOM      2  C   UNL     1       2.440  -2.449 -22.081  1.00  0.00     0.000 C 
BRANCH   2   3
ATOM      3  C   UNL     1       3.214  -3.543 -22.827  1.00  0.00    -0.000 C 
BRANCH   3   4
ATOM      4  C   UNL     1       3.938  -4.472 -21.844  1.00  0.00    -0.003 C 
ATOM      5  C   UNL     1       4.311  -5.794 -22.509  1.00  0.00     0.004 C 
ENDBRANCH   3   4
ENDBRANCH   2   3
ENDBRANCH   1   2
BRANCH   1   6
ATOM      6  C   UNL     1       1.695  -0.033 -22.115  1.00  0.00     0.028 C 
BRANCH   6   7
ATOM      7  C   UNL     1       0.223   0.076 -22.515  1.00  0.00     0.156 C 
BRANCH   7   8
ATOM      8  O   UNL     1      -0.160   1.422 -22.591  1.00  0.00    -0.396 OA
ATOM      9  H   UNL     1       0.417   1.918 -21.953  1.00  0.00     0.210 HD
ENDBRANCH   7   8
ENDBRANCH   6   7
ENDBRANCH   1   6
TORSDOF 6
ENDMDL
MODEL 7
REMARK VINA RESULT:    -3.381      9.006     10.248
REMARK INTER + INTRA:          -4.594
REMARK INTER:                  -4.449
REMARK INTRA:                  -0.145
REMARK UNBOUND:                -0.126
REMARK SMILES CCCCCCCO
REMARK SMILES IDX 5 1 4 2 3 3 2 4 1 5 6 6 7 7 8 8
REMARK H PARENT 8 9
REMARK Flexibility Score: inf
ROOT
ATOM      1  C   UNL     1      -3.721   3.580 -22.743  1.00  0.00     0.002 C 
ENDROOT
BRANCH   1   2
ATOM      2  C   UNL     1      -4.141   2.924 -21.424  1.00  0.00     0.000 C 
BRANCH   2   3
ATOM      3  C   UNL     1      -5.514   2.254 -21.554  1.00  0.00    -0.000 C 
BRANCH   3   4
ATOM      4  C   UNL     1      -6.379   2.970 -22.599  1.00  0.00    -0.003 C 
ATOM      5  C   UNL     1      -7.554   2.098 -23.033  1.00  0.00     0.004 C 
ENDBRANCH   3   4
ENDBRANCH   2   3
ENDBRANCH   1   2
BRANCH   1   6
ATOM      6  C   UNL     1      -2.205   3.480 -22.951  1.00  0.00     0.028 C 
BRANCH   6   7
ATOM      7  C   UNL     1      -1.690   4.627 -23.823  1.00  0.00     0.156 C 
BRANCH   7   8
ATOM      8  O   UNL     1      -1.062   5.596 -23.029  1.00  0.00    -0.396 OA
ATOM      9  H   UNL     1      -0.566   5.105 -22.321  1.00  0.00     0.210 HD
ENDBRANCH   7   8
ENDBRANCH   6   7
ENDBRANCH   1   6
TORSDOF 6
ENDMDL
MODEL 8
REMARK VINA RESULT:    -3.339      2.646      3.832
REMARK INTER + INTRA:          -4.539
REMARK INTER:                  -4.445
REMARK INTRA:                  -0.093
REMARK UNBOUND:                -0.126
REMARK SMILES CCCCCCCO
REMARK SMILES IDX 5 1 4 2 3 3 2 4 1 5 6 6 7 7 8 8
REMARK H PARENT 8 9
REMARK Flexibility Score: inf
ROOT
ATOM      1  C   UNL     1       1.887  -0.294 -22.071  1.00  0.00     0.002 C 
ENDROOT
BRANCH   1   2
ATOM      2  C   UNL     1       1.096   0.299 -23.242  1.00  0.00     0.000 C 
BRANCH   2   3
ATOM      3  C   UNL     1      -0.344   0.622 -22.827  1.00  0.00    -0.000 C 
BRANCH   3   4
ATOM      4  C   UNL     1      -1.008   1.569 -23.835  1.00  0.00    -0.003 C 
ATOM      5  C   UNL     1      -1.803   2.661 -23.124  1.00  0.00     0.004 C 
ENDBRANCH   3   4
ENDBRANCH   2   3
ENDBRANCH   1   2
BRANCH   1   6
ATOM      6  C   UNL     1       1.446  -1.734 -21.782  1.00  0.00     0.028 C 
BRANCH   6   7
ATOM      7  C   UNL     1       2.559  -2.730 -22.113  1.00  0.00     0.156 C 
BRANCH   7   8
ATOM      8  O   UNL     1       2.921  -2.622 -23.462  1.00  0.00    -0.396 OA
ATOM      9  H   UNL     1       2.888  -1.656 -23.689  1.00  0.00     0.210 HD
ENDBRANCH   7   8
ENDBRANCH   6   7
ENDBRANCH   1   6
TORSDOF 6
ENDMDL
MODEL 9
REMARK VINA RESULT:    -3.326      9.669     11.183
REMARK INTER + INTRA:          -4.521
REMARK INTER:                  -4.261
REMARK INTRA:                  -0.260
REMARK UNBOUND:                -0.126
REMARK SMILES CCCCCCCO
REMARK SMILES IDX 5 1 4 2 3 3 2 4 1 5 6 6 7 7 8 8
REMARK H PARENT 8 9
REMARK Flexibility Score: inf
ROOT
ATOM      1  C   UNL     1      -4.997   4.153 -22.907  1.00  0.00     0.002 C 
ENDROOT
BRANCH   1   2
ATOM      2  C   UNL     1      -6.321   4.146 -22.136  1.00  0.00     0.000 C 
BRANCH   2   3
ATOM      3  C   UNL     1      -7.491   3.768 -23.053  1.00  0.00    -0.000 C 
BRANCH   3   4
ATOM      4  C   UNL     1      -7.711   2.250 -23.066  1.00  0.00    -0.003 C 
ATOM      5  C   UNL     1      -8.153   1.769 -24.446  1.00  0.00     0.004 C 
ENDBRANCH   3   4
ENDBRANCH   2   3
ENDBRANCH   1   2
BRANCH   1   6
ATOM      6  C   UNL     1      -4.009   3.141 -22.316  1.00  0.00     0.028 C 
BRANCH   6   7
ATOM      7  C   UNL     1      -4.537   2.556 -21.004  1.00  0.00     0.156 C 
BRANCH   7   8
ATOM      8  O   UNL     1      -3.776   3.023 -19.924  1.00  0.00    -0.396 OA
ATOM      9  H   UNL     1      -3.996   3.986 -19.817  1.00  0.00     0.210 HD
ENDBRANCH   7   8
ENDBRANCH   6   7
ENDBRANCH   1   6
TORSDOF 6
ENDMDL
