MODEL 1
REMARK VINA RESULT:    -4.260      0.000      0.000
REMARK INTER + INTRA:          -6.887
REMARK INTER:                  -6.502
REMARK INTRA:                  -0.385
REMARK UNBOUND:                -0.385
REMARK SMILES O=C([O-])CCCCCCCCC(=O)[O-]
REMARK SMILES IDX 7 1 6 2 5 3 4 4 2 5 1 6 3 7 8 8 9 9 10 10 11 11 12 12 13 13
REMARK SMILES IDX 14 14
REMARK H PARENT
REMARK Flexibility Score: inf
ROOT
ATOM      1  C   UNL     1      10.605 -11.262  15.062  1.00  0.00     0.000 C 
ENDROOT
BRANCH   1   2
ATOM      2  C   UNL     1      11.433 -10.344  14.148  1.00  0.00     0.000 C 
BRANCH   2   3
ATOM      3  C   UNL     1      11.003 -10.429  12.676  1.00  0.00     0.006 C 
BRANCH   3   4
ATOM      4  C   UNL     1      10.512  -9.070  12.169  1.00  0.00     0.053 C 
BRANCH   4   5
ATOM      5  C   UNL     1       9.411  -9.249  11.171  1.00  0.00     0.041 C 
ATOM      6  O   UNL     1       8.451 -10.024  11.420  1.00  0.00    -0.550 OA
ATOM      7  O   UNL     1       9.471  -8.597   9.946  1.00  0.00    -0.550 OA
ENDBRANCH   4   5
ENDBRANCH   3   4
ENDBRANCH   2   3
ENDBRANCH   1   2
BRANCH   1   8
ATOM      8  C   UNL     1      11.087 -11.236  16.521  1.00  0.00     0.000 C 
BRANCH   8   9
ATOM      9  C   UNL     1      11.658  -9.858  16.886  1.00  0.00     0.000 C 
BRANCH   9  10
ATOM     10  C   UNL     1      12.746  -9.931  17.973  1.00  0.00     0.006 C 
BRANCH  10  11
ATOM     11  C   UNL     1      14.068 -10.560  17.506  1.00  0.00     0.053 C 
BRANCH  11  12
ATOM     12  C   UNL     1      14.180 -11.997  17.914  1.00  0.00     0.041 C 
ATOM     13  O   UNL     1      14.550 -12.866  17.081  1.00  0.00    -0.550 OA
ATOM     14  O   UNL     1      13.843 -12.381  19.205  1.00  0.00    -0.550 OA
ENDBRANCH  11  12
ENDBRANCH  10  11
ENDBRANCH   9  10
ENDBRANCH   8   9
ENDBRANCH   1   8
TORSDOF 9
ENDMDL
MODEL 2
REMARK VINA RESULT:    -4.035      2.127      2.397
REMARK INTER + INTRA:          -6.544
REMARK INTER:                  -6.007
REMARK INTRA:                  -0.537
REMARK UNBOUND:                -0.385
REMARK SMILES O=C([O-])CCCCCCCCC(=O)[O-]
REMARK SMILES IDX 7 1 6 2 5 3 4 4 2 5 1 6 3 7 8 8 9 9 10 10 11 11 12 12 13 13
REMARK SMILES IDX 14 14
REMARK H PARENT
REMARK Flexibility Score: inf
ROOT
ATOM      1  C   UNL     1      10.627 -11.372  15.233  1.00  0.00     0.000 C 
ENDROOT
BRANCH   1   2
ATOM      2  C   UNL     1      11.261 -10.335  14.293  1.00  0.00     0.000 C 
BRANCH   2   3
ATOM      3  C   UNL     1      10.833 -10.519  12.830  1.00  0.00     0.006 C 
BRANCH   3   4
ATOM      4  C   UNL     1      10.591  -9.166  12.155  1.00  0.00     0.053 C 
BRANCH   4   5
ATOM      5  C   UNL     1       9.422  -9.245  11.225  1.00  0.00     0.041 C 
ATOM      6  O   UNL     1       8.438  -9.979  11.505  1.00  0.00    -0.550 OA
ATOM      7  O   UNL     1       9.441  -8.546  10.024  1.00  0.00    -0.550 OA
ENDBRANCH   4   5
ENDBRANCH   3   4
ENDBRANCH   2   3
ENDBRANCH   1   2
BRANCH   1   8
ATOM      8  C   UNL     1      11.570 -11.798  16.369  1.00  0.00     0.000 C 
BRANCH   8   9
ATOM      9  C   UNL     1      12.947 -11.135  16.217  1.00  0.00     0.000 C 
BRANCH   9  10
ATOM     10  C   UNL     1      13.358 -10.321  17.458  1.00  0.00     0.006 C 
BRANCH  10  11
ATOM     11  C   UNL     1      12.278 -10.238  18.548  1.00  0.00     0.053 C 
BRANCH  11  12
ATOM     12  C   UNL     1      11.814  -8.831  18.772  1.00  0.00     0.041 C 
ATOM     13  O   UNL     1      11.318  -8.169  17.824  1.00  0.00    -0.550 OA
ATOM     14  O   UNL     1      11.962  -8.241  20.020  1.00  0.00    -0.550 OA
ENDBRANCH  11  12
ENDBRANCH  10  11
ENDBRANCH   9  10
ENDBRANCH   8   9
ENDBRANCH   1   8
TORSDOF 9
ENDMDL
MODEL 3
REMARK VINA RESULT:    -3.996      1.199      1.420
REMARK INTER + INTRA:          -6.484
REMARK INTER:                  -6.096
REMARK INTRA:                  -0.387
REMARK UNBOUND:                -0.385
REMARK SMILES O=C([O-])CCCCCCCCC(=O)[O-]
REMARK SMILES IDX 7 1 6 2 5 3 4 4 2 5 1 6 3 7 8 8 9 9 10 10 11 11 12 12 13 13
REMARK SMILES IDX 14 14
REMARK H PARENT
REMARK Flexibility Score: inf
ROOT
ATOM      1  C   UNL     1      10.587 -11.348  15.356  1.00  0.00     0.000 C 
ENDROOT
BRANCH   1   2
ATOM      2  C   UNL     1      11.243 -10.282  14.464  1.00  0.00     0.000 C 
BRANCH   2   3
ATOM      3  C   UNL     1      10.931 -10.483  12.974  1.00  0.00     0.006 C 
BRANCH   3   4
ATOM      4  C   UNL     1      10.605  -9.148  12.298  1.00  0.00     0.053 C 
BRANCH   4   5
ATOM      5  C   UNL     1       9.517  -9.325  11.286  1.00  0.00     0.041 C 
ATOM      6  O   UNL     1       8.608 -10.175  11.475  1.00  0.00    -0.550 OA
ATOM      7  O   UNL     1       9.535  -8.585  10.109  1.00  0.00    -0.550 OA
ENDBRANCH   4   5
ENDBRANCH   3   4
ENDBRANCH   2   3
ENDBRANCH   1   2
BRANCH   1   8
ATOM      8  C   UNL     1      11.577 -11.984  16.345  1.00  0.00     0.000 C 
BRANCH   8   9
ATOM      9  C   UNL     1      12.907 -11.216  16.361  1.00  0.00     0.000 C 
BRANCH   9  10
ATOM     10  C   UNL     1      13.783 -11.563  17.579  1.00  0.00     0.006 C 
BRANCH  10  11
ATOM     11  C   UNL     1      14.430 -12.956  17.517  1.00  0.00     0.053 C 
BRANCH  11  12
ATOM     12  C   UNL     1      14.177 -13.748  18.763  1.00  0.00     0.041 C 
ATOM     13  O   UNL     1      15.011 -14.610  19.146  1.00  0.00    -0.550 OA
ATOM     14  O   UNL     1      13.004 -13.559  19.481  1.00  0.00    -0.550 OA
ENDBRANCH  11  12
ENDBRANCH  10  11
ENDBRANCH   9  10
ENDBRANCH   8   9
ENDBRANCH   1   8
TORSDOF 9
ENDMDL
MODEL 4
REMARK VINA RESULT:    -3.749      1.656      2.754
REMARK INTER + INTRA:          -6.106
REMARK INTER:                  -5.542
REMARK INTRA:                  -0.565
REMARK UNBOUND:                -0.385
REMARK SMILES O=C([O-])CCCCCCCCC(=O)[O-]
REMARK SMILES IDX 7 1 6 2 5 3 4 4 2 5 1 6 3 7 8 8 9 9 10 10 11 11 12 12 13 13
REMARK SMILES IDX 14 14
REMARK H PARENT
REMARK Flexibility Score: inf
ROOT
ATOM      1  C   UNL     1      11.205 -10.272  12.580  1.00  0.00     0.000 C 
ENDROOT
BRANCH   1   2
ATOM      2  C   UNL     1      10.485  -8.975  12.176  1.00  0.00     0.000 C 
BRANCH   2   3
ATOM      3  C   UNL     1       9.170  -9.235  11.428  1.00  0.00     0.006 C 
BRANCH   3   4
ATOM      4  C   UNL     1       8.690 -10.673  11.647  1.00  0.00     0.053 C 
BRANCH   4   5
ATOM      5  C   UNL     1       7.413 -10.687  12.426  1.00  0.00     0.041 C 
ATOM      6  O   UNL     1       6.364 -10.197  11.932  1.00  0.00    -0.550 OA
ATOM      7  O   UNL     1       7.393 -11.196  13.719  1.00  0.00    -0.550 OA
ENDBRANCH   4   5
ENDBRANCH   3   4
ENDBRANCH   2   3
ENDBRANCH   1   2
BRANCH   1   8
ATOM      8  C   UNL     1      11.647 -10.270  14.052  1.00  0.00     0.000 C 
BRANCH   8   9
ATOM      9  C   UNL     1      10.719 -11.146  14.905  1.00  0.00     0.000 C 
BRANCH   9  10
ATOM     10  C   UNL     1      11.164 -11.232  16.377  1.00  0.00     0.006 C 
BRANCH  10  11
ATOM     11  C   UNL     1      11.842  -9.960  16.909  1.00  0.00     0.053 C 
BRANCH  11  12
ATOM     12  C   UNL     1      12.992 -10.274  17.816  1.00  0.00     0.041 C 
ATOM     13  O   UNL     1      14.169 -10.278  17.368  1.00  0.00    -0.550 OA
ATOM     14  O   UNL     1      12.761 -10.596  19.146  1.00  0.00    -0.550 OA
ENDBRANCH  11  12
ENDBRANCH  10  11
ENDBRANCH   9  10
ENDBRANCH   8   9
ENDBRANCH   1   8
TORSDOF 9
ENDMDL
MODEL 5
REMARK VINA RESULT:    -3.685      1.743      7.592
REMARK INTER + INTRA:          -6.009
REMARK INTER:                  -5.727
REMARK INTRA:                  -0.281
REMARK UNBOUND:                -0.385
REMARK SMILES O=C([O-])CCCCCCCCC(=O)[O-]
REMARK SMILES IDX 7 1 6 2 5 3 4 4 2 5 1 6 3 7 8 8 9 9 10 10 11 11 12 12 13 13
REMARK SMILES IDX 14 14
REMARK H PARENT
REMARK Flexibility Score: inf
ROOT
ATOM      1  C   UNL     1      13.160 -10.542  16.834  1.00  0.00     0.000 C 
ENDROOT
BRANCH   1   2
ATOM      2  C   UNL     1      13.781 -11.523  17.841  1.00  0.00     0.000 C 
BRANCH   2   3
ATOM      3  C   UNL     1      14.288 -12.812  17.177  1.00  0.00     0.006 C 
BRANCH   3   4
ATOM      4  C   UNL     1      13.870 -14.044  17.984  1.00  0.00     0.053 C 
BRANCH   4   5
ATOM      5  C   UNL     1      14.934 -15.095  17.925  1.00  0.00     0.041 C 
ATOM      6  O   UNL     1      15.557 -15.425  18.968  1.00  0.00    -0.550 OA
ATOM      7  O   UNL     1      15.271 -15.675  16.708  1.00  0.00    -0.550 OA
ENDBRANCH   4   5
ENDBRANCH   3   4
ENDBRANCH   2   3
ENDBRANCH   1   2
BRANCH   1   8
ATOM      8  C   UNL     1      12.254 -11.241  15.808  1.00  0.00     0.000 C 
BRANCH   8   9
ATOM      9  C   UNL     1      11.365 -10.223  15.078  1.00  0.00     0.000 C 
BRANCH   9  10
ATOM     10  C   UNL     1      11.143 -10.578  13.596  1.00  0.00     0.006 C 
BRANCH  10  11
ATOM     11  C   UNL     1      10.970  -9.362  12.673  1.00  0.00     0.053 C 
BRANCH  11  12
ATOM     12  C   UNL     1       9.807  -9.523  11.743  1.00  0.00     0.041 C 
ATOM     13  O   UNL     1       8.949 -10.422  11.951  1.00  0.00    -0.550 OA
ATOM     14  O   UNL     1       9.689  -8.705  10.628  1.00  0.00    -0.550 OA
ENDBRANCH  11  12
ENDBRANCH  10  11
ENDBRANCH   9  10
ENDBRANCH   8   9
ENDBRANCH   1   8
TORSDOF 9
ENDMDL
MODEL 6
REMARK VINA RESULT:    -3.594      1.700      2.333
REMARK INTER + INTRA:          -5.871
REMARK INTER:                  -5.428
REMARK INTRA:                  -0.443
REMARK UNBOUND:                -0.385
REMARK SMILES O=C([O-])CCCCCCCCC(=O)[O-]
REMARK SMILES IDX 7 1 6 2 5 3 4 4 2 5 1 6 3 7 8 8 9 9 10 10 11 11 12 12 13 13
REMARK SMILES IDX 14 14
REMARK H PARENT
REMARK Flexibility Score: inf
ROOT
ATOM      1  C   UNL     1      11.589 -10.198  16.065  1.00  0.00     0.000 C 
ENDROOT
BRANCH   1   2
ATOM      2  C   UNL     1      11.858 -10.638  14.618  1.00  0.00     0.000 C 
BRANCH   2   3
ATOM      3  C   UNL     1      10.598 -10.591  13.740  1.00  0.00     0.006 C 
BRANCH   3   4
ATOM      4  C   UNL     1      10.876  -9.860  12.423  1.00  0.00     0.053 C 
BRANCH   4   5
ATOM      5  C   UNL     1       9.602  -9.631  11.672  1.00  0.00     0.041 C 
ATOM      6  O   UNL     1       8.560 -10.266  11.983  1.00  0.00    -0.550 OA
ATOM      7  O   UNL     1       9.577  -8.751  10.597  1.00  0.00    -0.550 OA
ENDBRANCH   4   5
ENDBRANCH   3   4
ENDBRANCH   2   3
ENDBRANCH   1   2
BRANCH   1   8
ATOM      8  C   UNL     1      12.774 -10.484  17.001  1.00  0.00     0.000 C 
BRANCH   8   9
ATOM      9  C   UNL     1      13.397 -11.853  16.695  1.00  0.00     0.000 C 
BRANCH   9  10
ATOM     10  C   UNL     1      13.464 -12.769  17.931  1.00  0.00     0.006 C 
BRANCH  10  11
ATOM     11  C   UNL     1      13.005 -12.104  19.238  1.00  0.00     0.053 C 
BRANCH  11  12
ATOM     12  C   UNL     1      11.710 -12.674  19.732  1.00  0.00     0.041 C 
ATOM     13  O   UNL     1      11.657 -13.255  20.848  1.00  0.00    -0.550 OA
ATOM     14  O   UNL     1      10.569 -12.592  18.945  1.00  0.00    -0.550 OA
ENDBRANCH  11  12
ENDBRANCH  10  11
ENDBRANCH   9  10
ENDBRANCH   8   9
ENDBRANCH   1   8
TORSDOF 9
ENDMDL
MODEL 7
REMARK VINA RESULT:    -3.454      2.137      7.156
REMARK INTER + INTRA:          -5.656
REMARK INTER:                  -5.169
REMARK INTRA:                  -0.487
REMARK UNBOUND:                -0.385
REMARK SMILES O=C([O-])CCCCCCCCC(=O)[O-]
REMARK SMILES IDX 7 1 6 2 5 3 4 4 2 5 1 6 3 7 8 8 9 9 10 10 11 11 12 12 13 13
REMARK SMILES IDX 14 14
REMARK H PARENT
REMARK Flexibility Score: inf
ROOT
ATOM      1  C   UNL     1      12.803 -11.055  16.826  1.00  0.00     0.000 C 
ENDROOT
BRANCH   1   2
ATOM      2  C   UNL     1      11.881  -9.997  17.452  1.00  0.00     0.000 C 
BRANCH   2   3
ATOM      3  C   UNL     1      10.990 -10.570  18.564  1.00  0.00     0.006 C 
BRANCH   3   4
ATOM      4  C   UNL     1      11.105 -12.095  18.627  1.00  0.00     0.053 C 
BRANCH   4   5
ATOM      5  C   UNL     1      10.528 -12.612  19.908  1.00  0.00     0.041 C 
ATOM      6  O   UNL     1      10.541 -13.846  20.157  1.00  0.00    -0.550 OA
ATOM      7  O   UNL     1       9.930 -11.734  20.804  1.00  0.00    -0.550 OA
ENDBRANCH   4   5
ENDBRANCH   3   4
ENDBRANCH   2   3
ENDBRANCH   1   2
BRANCH   1   8
ATOM      8  C   UNL     1      12.638 -11.157  15.301  1.00  0.00     0.000 C 
BRANCH   8   9
ATOM      9  C   UNL     1      11.169 -10.971  14.894  1.00  0.00     0.000 C 
BRANCH   9  10
ATOM     10  C   UNL     1      10.974  -9.849  13.857  1.00  0.00     0.006 C 
BRANCH  10  11
ATOM     11  C   UNL     1      10.847 -10.341  12.407  1.00  0.00     0.053 C 
BRANCH  11  12
ATOM     12  C   UNL     1       9.629  -9.789  11.731  1.00  0.00     0.041 C 
ATOM     13  O   UNL     1       8.489 -10.244  12.010  1.00  0.00    -0.550 OA
ATOM     14  O   UNL     1       9.758  -8.797  10.768  1.00  0.00    -0.550 OA
ENDBRANCH  11  12
ENDBRANCH  10  11
ENDBRANCH   9  10
ENDBRANCH   8   9
ENDBRANCH   1   8
TORSDOF 9
ENDMDL
MODEL 8
REMARK VINA RESULT:    -3.416      3.434      5.416
REMARK INTER + INTRA:          -5.599
REMARK INTER:                  -4.801
REMARK INTRA:                  -0.798
REMARK UNBOUND:                -0.385
REMARK SMILES O=C([O-])CCCCCCCCC(=O)[O-]
REMARK SMILES IDX 7 1 6 2 5 3 4 4 2 5 1 6 3 7 8 8 9 9 10 10 11 11 12 12 13 13
REMARK SMILES IDX 14 14
REMARK H PARENT
REMARK Flexibility Score: inf
ROOT
ATOM      1  C   UNL     1      13.997 -10.671  19.775  1.00  0.00     0.000 C 
ENDROOT
BRANCH   1   2
ATOM      2  C   UNL     1      13.640  -9.742  18.604  1.00  0.00     0.000 C 
BRANCH   2   3
ATOM      3  C   UNL     1      13.387 -10.507  17.296  1.00  0.00     0.006 C 
BRANCH   3   4
ATOM      4  C   UNL     1      11.991 -10.203  16.745  1.00  0.00     0.053 C 
BRANCH   4   5
ATOM      5  C   UNL     1      11.398 -11.425  16.117  1.00  0.00     0.041 C 
ATOM      6  O   UNL     1      10.624 -11.318  15.129  1.00  0.00    -0.550 OA
ATOM      7  O   UNL     1      11.662 -12.680  16.653  1.00  0.00    -0.550 OA
ENDBRANCH   4   5
ENDBRANCH   3   4
ENDBRANCH   2   3
ENDBRANCH   1   2
BRANCH   1   8
ATOM      8  C   UNL     1      12.971 -11.798  19.972  1.00  0.00     0.000 C 
BRANCH   8   9
ATOM      9  C   UNL     1      11.623 -11.236  20.446  1.00  0.00     0.000 C 
BRANCH   9  10
ATOM     10  C   UNL     1      10.424 -12.076  19.968  1.00  0.00     0.006 C 
BRANCH  10  11
ATOM     11  C   UNL     1       9.668 -12.800  21.094  1.00  0.00     0.053 C 
BRANCH  11  12
ATOM     12  C   UNL     1      10.422 -13.990  21.602  1.00  0.00     0.041 C 
ATOM     13  O   UNL     1      10.886 -13.995  22.772  1.00  0.00    -0.550 OA
ATOM     14  O   UNL     1      10.643 -15.080  20.770  1.00  0.00    -0.550 OA
ENDBRANCH  11  12
ENDBRANCH  10  11
ENDBRANCH   9  10
ENDBRANCH   8   9
ENDBRANCH   1   8
TORSDOF 9
ENDMDL
MODEL 9
REMARK VINA RESULT:    -3.392      5.084      6.571
REMARK INTER + INTRA:          -5.562
REMARK INTER:                  -4.438
REMARK INTRA:                  -1.124
REMARK UNBOUND:                -0.385
REMARK SMILES O=C([O-])CCCCCCCCC(=O)[O-]
REMARK SMILES IDX 7 1 6 2 5 3 4 4 2 5 1 6 3 7 8 8 9 9 10 10 11 11 12 12 13 13
REMARK SMILES IDX 14 14
REMARK H PARENT
REMARK Flexibility Score: inf
ROOT
ATOM      1  C   UNL     1      11.695 -12.524  17.144  1.00  0.00     0.000 C 
ENDROOT
BRANCH   1   2
ATOM      2  C   UNL     1      10.679 -11.753  18.000  1.00  0.00     0.000 C 
BRANCH   2   3
ATOM      3  C   UNL     1      10.427 -12.415  19.363  1.00  0.00     0.006 C 
BRANCH   3   4
ATOM      4  C   UNL     1      11.264 -13.688  19.516  1.00  0.00     0.053 C 
BRANCH   4   5
ATOM      5  C   UNL     1      11.149 -14.226  20.908  1.00  0.00     0.041 C 
ATOM      6  O   UNL     1      10.024 -14.549  21.372  1.00  0.00    -0.550 OA
ATOM      7  O   UNL     1      12.279 -14.325  21.711  1.00  0.00    -0.550 OA
ENDBRANCH   4   5
ENDBRANCH   3   4
ENDBRANCH   2   3
ENDBRANCH   1   2
BRANCH   1   8
ATOM      8  C   UNL     1      12.626 -11.596  16.348  1.00  0.00     0.000 C 
BRANCH   8   9
ATOM      9  C   UNL     1      12.824 -10.260  17.079  1.00  0.00     0.000 C 
BRANCH   9  10
ATOM     10  C   UNL     1      14.120 -10.221  17.910  1.00  0.00     0.006 C 
BRANCH  10  11
ATOM     11  C   UNL     1      13.909  -9.897  19.398  1.00  0.00     0.053 C 
BRANCH  11  12
ATOM     12  C   UNL     1      13.827 -11.137  20.235  1.00  0.00     0.041 C 
ATOM     13  O   UNL     1      14.296 -12.224  19.806  1.00  0.00    -0.550 OA
ATOM     14  O   UNL     1      13.203 -11.099  21.474  1.00  0.00    -0.550 OA
ENDBRANCH  11  12
ENDBRANCH  10  11
ENDBRANCH   9  10
ENDBRANCH   8   9
ENDBRANCH   1   8
TORSDOF 9
ENDMDL
