MODEL 1
REMARK VINA RESULT:    -4.330      0.000      0.000
REMARK INTER + INTRA:          -4.951
REMARK INTER:                  -4.710
REMARK INTRA:                  -0.241
REMARK UNBOUND:                -0.241
REMARK SMILES O=C([O-])c1ccccc1O
REMARK SMILES IDX 4 1 9 2 5 3 8 4 6 5 7 6 2 7 1 8 3 9 10 10
REMARK H PARENT 10 11
REMARK Flexibility Score: inf
ROOT
ATOM      1  C   UNL     1      27.908  34.049  33.784  1.00  0.00     0.039 A 
ATOM      2  C   UNL     1      28.380  33.491  32.568  1.00  0.00     0.124 A 
ATOM      3  C   UNL     1      26.932  35.063  33.733  1.00  0.00     0.014 A 
ATOM      4  C   UNL     1      27.916  33.997  31.347  1.00  0.00     0.047 A 
ATOM      5  C   UNL     1      26.464  35.542  32.506  1.00  0.00     0.001 A 
ATOM      6  C   UNL     1      26.963  35.016  31.316  1.00  0.00     0.004 A 
ENDROOT
BRANCH   1   7
ATOM      7  C   UNL     1      28.430  33.634  35.104  1.00  0.00     0.075 C 
ATOM      8  O   UNL     1      29.673  33.605  35.310  1.00  0.00    -0.545 OA
ATOM      9  O   UNL     1      27.570  33.208  36.108  1.00  0.00    -0.545 OA
ENDBRANCH   1   7
BRANCH   2  10
ATOM     10  O   UNL     1      29.273  32.418  32.531  1.00  0.00    -0.507 OA
ATOM     11  H   UNL     1      28.983  31.451  32.584  1.00  0.00     0.293 HD
ENDBRANCH   2  10
TORSDOF 2
ENDMDL
MODEL 2
REMARK VINA RESULT:    -4.154      2.028      2.286
REMARK INTER + INTRA:          -4.759
REMARK INTER:                  -4.532
REMARK INTRA:                  -0.227
REMARK UNBOUND:                -0.241
REMARK SMILES O=C([O-])c1ccccc1O
REMARK SMILES IDX 4 1 9 2 5 3 8 4 6 5 7 6 2 7 1 8 3 9 10 10
REMARK H PARENT 10 11
REMARK Flexibility Score: inf
ROOT
ATOM      1  C   UNL     1      26.257  33.997  34.108  1.00  0.00     0.039 A 
ATOM      2  C   UNL     1      25.696  33.172  33.101  1.00  0.00     0.124 A 
ATOM      3  C   UNL     1      26.861  35.213  33.733  1.00  0.00     0.014 A 
ATOM      4  C   UNL     1      25.807  33.547  31.755  1.00  0.00     0.047 A 
ATOM      5  C   UNL     1      26.945  35.582  32.389  1.00  0.00     0.001 A 
ATOM      6  C   UNL     1      26.427  34.746  31.401  1.00  0.00     0.004 A 
ENDROOT
BRANCH   1   7
ATOM      7  C   UNL     1      26.267  33.612  35.536  1.00  0.00     0.075 C 
ATOM      8  O   UNL     1      27.361  33.454  36.140  1.00  0.00    -0.545 OA
ATOM      9  O   UNL     1      25.080  33.353  36.211  1.00  0.00    -0.545 OA
ENDBRANCH   1   7
BRANCH   2  10
ATOM     10  O   UNL     1      24.994  32.001  33.394  1.00  0.00    -0.507 OA
ATOM     11  H   UNL     1      24.808  31.684  34.336  1.00  0.00     0.293 HD
ENDBRANCH   2  10
TORSDOF 2
ENDMDL
MODEL 3
REMARK VINA RESULT:    -4.095      2.471      3.824
REMARK INTER + INTRA:          -4.695
REMARK INTER:                  -4.447
REMARK INTRA:                  -0.248
REMARK UNBOUND:                -0.241
REMARK SMILES O=C([O-])c1ccccc1O
REMARK SMILES IDX 4 1 9 2 5 3 8 4 6 5 7 6 2 7 1 8 3 9 10 10
REMARK H PARENT 10 11
REMARK Flexibility Score: inf
ROOT
ATOM      1  C   UNL     1      26.615  33.919  32.478  1.00  0.00     0.039 A 
ATOM      2  C   UNL     1      27.712  34.313  33.286  1.00  0.00     0.124 A 
ATOM      3  C   UNL     1      25.510  33.295  33.089  1.00  0.00     0.014 A 
ATOM      4  C   UNL     1      27.704  34.021  34.657  1.00  0.00     0.047 A 
ATOM      5  C   UNL     1      25.509  33.030  34.461  1.00  0.00     0.001 A 
ATOM      6  C   UNL     1      26.608  33.384  35.241  1.00  0.00     0.004 A 
ENDROOT
BRANCH   1   7
ATOM      7  C   UNL     1      26.603  34.103  31.011  1.00  0.00     0.075 C 
ATOM      8  O   UNL     1      27.669  33.978  30.350  1.00  0.00    -0.545 OA
ATOM      9  O   UNL     1      25.441  34.480  30.350  1.00  0.00    -0.545 OA
ENDBRANCH   1   7
BRANCH   2  10
ATOM     10  O   UNL     1      28.802  35.022  32.778  1.00  0.00    -0.507 OA
ATOM     11  H   UNL     1      28.759  35.998  32.519  1.00  0.00     0.293 HD
ENDBRANCH   2  10
TORSDOF 2
ENDMDL
MODEL 4
REMARK VINA RESULT:    -3.985      1.895      2.641
REMARK INTER + INTRA:          -4.575
REMARK INTER:                  -4.339
REMARK INTRA:                  -0.236
REMARK UNBOUND:                -0.241
REMARK SMILES O=C([O-])c1ccccc1O
REMARK SMILES IDX 4 1 9 2 5 3 8 4 6 5 7 6 2 7 1 8 3 9 10 10
REMARK H PARENT 10 11
REMARK Flexibility Score: inf
ROOT
ATOM      1  C   UNL     1      26.269  33.523  33.728  1.00  0.00     0.039 A 
ATOM      2  C   UNL     1      27.559  34.086  33.898  1.00  0.00     0.124 A 
ATOM      3  C   UNL     1      25.676  33.555  32.451  1.00  0.00     0.014 A 
ATOM      4  C   UNL     1      28.190  34.715  32.816  1.00  0.00     0.047 A 
ATOM      5  C   UNL     1      26.327  34.168  31.378  1.00  0.00     0.001 A 
ATOM      6  C   UNL     1      27.578  34.755  31.563  1.00  0.00     0.004 A 
ENDROOT
BRANCH   1   7
ATOM      7  C   UNL     1      25.504  32.936  34.850  1.00  0.00     0.075 C 
ATOM      8  O   UNL     1      24.246  32.994  34.854  1.00  0.00    -0.545 OA
ATOM      9  O   UNL     1      26.158  32.377  35.940  1.00  0.00    -0.545 OA
ENDBRANCH   1   7
BRANCH   2  10
ATOM     10  O   UNL     1      28.259  34.010  35.105  1.00  0.00    -0.507 OA
ATOM     11  H   UNL     1      27.809  34.018  36.010  1.00  0.00     0.293 HD
ENDBRANCH   2  10
TORSDOF 2
ENDMDL
MODEL 5
REMARK VINA RESULT:    -3.868      2.215      3.643
REMARK INTER + INTRA:          -4.448
REMARK INTER:                  -4.196
REMARK INTRA:                  -0.253
REMARK UNBOUND:                -0.241
REMARK SMILES O=C([O-])c1ccccc1O
REMARK SMILES IDX 4 1 9 2 5 3 8 4 6 5 7 6 2 7 1 8 3 9 10 10
REMARK H PARENT 10 11
REMARK Flexibility Score: inf
ROOT
ATOM      1  C   UNL     1      27.055  34.425  34.124  1.00  0.00     0.039 A 
ATOM      2  C   UNL     1      28.049  33.587  34.691  1.00  0.00     0.124 A 
ATOM      3  C   UNL     1      25.846  34.615  34.820  1.00  0.00     0.014 A 
ATOM      4  C   UNL     1      27.788  32.919  35.894  1.00  0.00     0.047 A 
ATOM      5  C   UNL     1      25.610  33.957  36.030  1.00  0.00     0.001 A 
ATOM      6  C   UNL     1      26.575  33.103  36.561  1.00  0.00     0.004 A 
ENDROOT
BRANCH   1   7
ATOM      7  C   UNL     1      27.224  35.078  32.807  1.00  0.00     0.075 C 
ATOM      8  O   UNL     1      26.699  36.202  32.587  1.00  0.00    -0.545 OA
ATOM      9  O   UNL     1      27.902  34.438  31.777  1.00  0.00    -0.545 OA
ENDBRANCH   1   7
BRANCH   2  10
ATOM     10  O   UNL     1      29.311  33.423  34.116  1.00  0.00    -0.507 OA
ATOM     11  H   UNL     1      30.124  33.122  34.635  1.00  0.00     0.293 HD
ENDBRANCH   2  10
TORSDOF 2
ENDMDL
MODEL 6
REMARK VINA RESULT:    -3.818      1.544      2.572
REMARK INTER + INTRA:          -4.394
REMARK INTER:                  -4.154
REMARK INTRA:                  -0.240
REMARK UNBOUND:                -0.241
REMARK SMILES O=C([O-])c1ccccc1O
REMARK SMILES IDX 4 1 9 2 5 3 8 4 6 5 7 6 2 7 1 8 3 9 10 10
REMARK H PARENT 10 11
REMARK Flexibility Score: inf
ROOT
ATOM      1  C   UNL     1      27.408  33.601  34.293  1.00  0.00     0.039 A 
ATOM      2  C   UNL     1      26.587  34.752  34.409  1.00  0.00     0.124 A 
ATOM      3  C   UNL     1      28.248  33.475  33.170  1.00  0.00     0.014 A 
ATOM      4  C   UNL     1      26.580  35.705  33.381  1.00  0.00     0.047 A 
ATOM      5  C   UNL     1      28.245  34.445  32.164  1.00  0.00     0.001 A 
ATOM      6  C   UNL     1      27.405  35.553  32.266  1.00  0.00     0.004 A 
ENDROOT
BRANCH   1   7
ATOM      7  C   UNL     1      27.388  32.508  35.289  1.00  0.00     0.075 C 
ATOM      8  O   UNL     1      28.366  31.719  35.381  1.00  0.00    -0.545 OA
ATOM      9  O   UNL     1      26.270  32.292  36.086  1.00  0.00    -0.545 OA
ENDBRANCH   1   7
BRANCH   2  10
ATOM     10  O   UNL     1      25.800  35.002  35.534  1.00  0.00    -0.507 OA
ATOM     11  H   UNL     1      25.846  34.451  36.380  1.00  0.00     0.293 HD
ENDBRANCH   2  10
TORSDOF 2
ENDMDL
MODEL 7
REMARK VINA RESULT:    -3.694      2.212      3.448
REMARK INTER + INTRA:          -4.259
REMARK INTER:                  -4.011
REMARK INTRA:                  -0.247
REMARK UNBOUND:                -0.241
REMARK SMILES O=C([O-])c1ccccc1O
REMARK SMILES IDX 4 1 9 2 5 3 8 4 6 5 7 6 2 7 1 8 3 9 10 10
REMARK H PARENT 10 11
REMARK Flexibility Score: inf
ROOT
ATOM      1  C   UNL     1      27.601  32.391  35.308  1.00  0.00     0.039 A 
ATOM      2  C   UNL     1      26.302  32.881  35.598  1.00  0.00     0.124 A 
ATOM      3  C   UNL     1      28.418  33.115  34.419  1.00  0.00     0.014 A 
ATOM      4  C   UNL     1      25.835  34.034  34.951  1.00  0.00     0.047 A 
ATOM      5  C   UNL     1      27.945  34.274  33.798  1.00  0.00     0.001 A 
ATOM      6  C   UNL     1      26.652  34.726  34.057  1.00  0.00     0.004 A 
ENDROOT
BRANCH   1   7
ATOM      7  C   UNL     1      28.117  31.127  35.876  1.00  0.00     0.075 C 
ATOM      8  O   UNL     1      27.906  30.845  37.086  1.00  0.00    -0.545 OA
ATOM      9  O   UNL     1      28.894  30.268  35.109  1.00  0.00    -0.545 OA
ENDBRANCH   1   7
BRANCH   2  10
ATOM     10  O   UNL     1      25.465  32.281  36.541  1.00  0.00    -0.507 OA
ATOM     11  H   UNL     1      25.389  32.595  37.498  1.00  0.00     0.293 HD
ENDBRANCH   2  10
TORSDOF 2
ENDMDL
MODEL 8
REMARK VINA RESULT:    -3.675      2.402      4.002
REMARK INTER + INTRA:          -4.239
REMARK INTER:                  -3.986
REMARK INTRA:                  -0.253
REMARK UNBOUND:                -0.241
REMARK SMILES O=C([O-])c1ccccc1O
REMARK SMILES IDX 4 1 9 2 5 3 8 4 6 5 7 6 2 7 1 8 3 9 10 10
REMARK H PARENT 10 11
REMARK Flexibility Score: inf
ROOT
ATOM      1  C   UNL     1      27.111  33.721  33.681  1.00  0.00     0.039 A 
ATOM      2  C   UNL     1      26.272  32.865  34.439  1.00  0.00     0.124 A 
ATOM      3  C   UNL     1      28.406  34.000  34.158  1.00  0.00     0.014 A 
ATOM      4  C   UNL     1      26.720  32.366  35.669  1.00  0.00     0.047 A 
ATOM      5  C   UNL     1      28.846  33.477  35.376  1.00  0.00     0.001 A 
ATOM      6  C   UNL     1      28.000  32.669  36.135  1.00  0.00     0.004 A 
ENDROOT
BRANCH   1   7
ATOM      7  C   UNL     1      26.663  34.365  32.427  1.00  0.00     0.075 C 
ATOM      8  O   UNL     1      26.825  35.604  32.260  1.00  0.00    -0.545 OA
ATOM      9  O   UNL     1      26.000  33.634  31.449  1.00  0.00    -0.545 OA
ENDBRANCH   1   7
BRANCH   2  10
ATOM     10  O   UNL     1      25.012  32.459  33.992  1.00  0.00    -0.507 OA
ATOM     11  H   UNL     1      24.874  31.733  33.303  1.00  0.00     0.293 HD
ENDBRANCH   2  10
TORSDOF 2
ENDMDL
MODEL 9
REMARK VINA RESULT:    -3.671      2.923      3.801
REMARK INTER + INTRA:          -4.234
REMARK INTER:                  -3.985
REMARK INTRA:                  -0.249
REMARK UNBOUND:                -0.241
REMARK SMILES O=C([O-])c1ccccc1O
REMARK SMILES IDX 4 1 9 2 5 3 8 4 6 5 7 6 2 7 1 8 3 9 10 10
REMARK H PARENT 10 11
REMARK Flexibility Score: inf
ROOT
ATOM      1  C   UNL     1      26.293  34.429  33.394  1.00  0.00     0.039 A 
ATOM      2  C   UNL     1      25.488  33.313  33.050  1.00  0.00     0.124 A 
ATOM      3  C   UNL     1      26.445  34.766  34.752  1.00  0.00     0.014 A 
ATOM      4  C   UNL     1      24.813  32.609  34.056  1.00  0.00     0.047 A 
ATOM      5  C   UNL     1      25.781  34.040  35.745  1.00  0.00     0.001 A 
ATOM      6  C   UNL     1      24.960  32.969  35.396  1.00  0.00     0.004 A 
ENDROOT
BRANCH   1   7
ATOM      7  C   UNL     1      26.949  35.278  32.375  1.00  0.00     0.075 C 
ATOM      8  O   UNL     1      27.606  34.749  31.440  1.00  0.00    -0.545 OA
ATOM      9  O   UNL     1      26.909  36.663  32.472  1.00  0.00    -0.545 OA
ENDBRANCH   1   7
BRANCH   2  10
ATOM     10  O   UNL     1      25.363  32.852  31.738  1.00  0.00    -0.507 OA
ATOM     11  H   UNL     1      25.744  31.973  31.418  1.00  0.00     0.293 HD
ENDBRANCH   2  10
TORSDOF 2
ENDMDL
