MODEL 1
REMARK VINA RESULT:    -4.325      0.000      0.000
REMARK INTER + INTRA:          -6.184
REMARK INTER:                  -5.842
REMARK INTRA:                  -0.342
REMARK UNBOUND:                -0.342
REMARK SMILES CCCCCCCC(=O)[O-]
REMARK SMILES IDX 5 1 6 2 7 3 8 4 9 5 10 6 4 7 3 8 2 9 1 10
REMARK H PARENT
REMARK Flexibility Score: inf
ROOT
ATOM      1  C   UNL     1     -14.727   1.187  -9.156  1.00  0.00     0.000 C 
ENDROOT
BRANCH   1   2
ATOM      2  C   UNL     1     -14.803   2.665  -9.565  1.00  0.00     0.006 C 
BRANCH   2   3
ATOM      3  C   UNL     1     -14.179   3.563  -8.495  1.00  0.00     0.053 C 
BRANCH   3   4
ATOM      4  C   UNL     1     -12.718   3.752  -8.754  1.00  0.00     0.041 C 
ATOM      5  O   UNL     1     -12.263   3.647  -9.924  1.00  0.00    -0.550 OA
ATOM      6  O   UNL     1     -11.849   3.995  -7.697  1.00  0.00    -0.550 OA
ENDBRANCH   3   4
ENDBRANCH   2   3
ENDBRANCH   1   2
BRANCH   1   7
ATOM      7  C   UNL     1     -14.767   0.236 -10.362  1.00  0.00     0.000 C 
BRANCH   7   8
ATOM      8  C   UNL     1     -13.520  -0.664 -10.447  1.00  0.00    -0.000 C 
BRANCH   8   9
ATOM      9  C   UNL     1     -12.244   0.054  -9.985  1.00  0.00    -0.003 C 
ATOM     10  C   UNL     1     -10.989  -0.803 -10.156  1.00  0.00     0.004 C 
ENDBRANCH   8   9
ENDBRANCH   7   8
ENDBRANCH   1   7
TORSDOF 6
ENDMDL
MODEL 2
REMARK VINA RESULT:    -4.095      2.664      4.445
REMARK INTER + INTRA:          -5.873
REMARK INTER:                  -5.534
REMARK INTRA:                  -0.339
REMARK UNBOUND:                -0.342
REMARK SMILES CCCCCCCC(=O)[O-]
REMARK SMILES IDX 5 1 6 2 7 3 8 4 9 5 10 6 4 7 3 8 2 9 1 10
REMARK H PARENT
REMARK Flexibility Score: inf
ROOT
ATOM      1  C   UNL     1     -14.415   0.181  -9.745  1.00  0.00     0.000 C 
ENDROOT
BRANCH   1   2
ATOM      2  C   UNL     1     -13.304  -0.625 -10.435  1.00  0.00     0.006 C 
BRANCH   2   3
ATOM      3  C   UNL     1     -11.921  -0.095 -10.048  1.00  0.00     0.053 C 
BRANCH   3   4
ATOM      4  C   UNL     1     -10.887  -1.165 -10.199  1.00  0.00     0.041 C 
ATOM      5  O   UNL     1      -9.935  -1.017 -11.010  1.00  0.00    -0.550 OA
ATOM      6  O   UNL     1     -11.003  -2.349  -9.481  1.00  0.00    -0.550 OA
ENDBRANCH   3   4
ENDBRANCH   2   3
ENDBRANCH   1   2
BRANCH   1   7
ATOM      7  C   UNL     1     -14.269   1.695  -9.959  1.00  0.00     0.000 C 
BRANCH   7   8
ATOM      8  C   UNL     1     -14.783   2.514  -8.761  1.00  0.00    -0.000 C 
BRANCH   8   9
ATOM      9  C   UNL     1     -13.936   3.769  -8.501  1.00  0.00    -0.003 C 
ATOM     10  C   UNL     1     -12.511   3.643  -9.041  1.00  0.00     0.004 C 
ENDBRANCH   8   9
ENDBRANCH   7   8
ENDBRANCH   1   7
TORSDOF 6
ENDMDL
MODEL 3
REMARK VINA RESULT:    -4.027      4.108      6.036
REMARK INTER + INTRA:          -5.782
REMARK INTER:                  -5.592
REMARK INTRA:                  -0.190
REMARK UNBOUND:                -0.342
REMARK SMILES CCCCCCCC(=O)[O-]
REMARK SMILES IDX 5 1 6 2 7 3 8 4 9 5 10 6 4 7 3 8 2 9 1 10
REMARK H PARENT
REMARK Flexibility Score: inf
ROOT
ATOM      1  C   UNL     1     -11.031  -0.770 -10.373  1.00  0.00     0.000 C 
ENDROOT
BRANCH   1   2
ATOM      2  C   UNL     1     -10.517  -1.646  -9.222  1.00  0.00     0.006 C 
BRANCH   2   3
ATOM      3  C   UNL     1      -9.973  -2.978  -9.745  1.00  0.00     0.053 C 
BRANCH   3   4
ATOM      4  C   UNL     1      -9.596  -3.875  -8.609  1.00  0.00     0.041 C 
ATOM      5  O   UNL     1     -10.123  -5.014  -8.500  1.00  0.00    -0.550 OA
ATOM      6  O   UNL     1      -8.702  -3.434  -7.643  1.00  0.00    -0.550 OA
ENDBRANCH   3   4
ENDBRANCH   2   3
ENDBRANCH   1   2
BRANCH   1   7
ATOM      7  C   UNL     1     -12.307   0.002 -10.006  1.00  0.00     0.000 C 
BRANCH   7   8
ATOM      8  C   UNL     1     -13.585  -0.688 -10.518  1.00  0.00    -0.000 C 
BRANCH   8   9
ATOM      9  C   UNL     1     -14.864   0.008 -10.031  1.00  0.00    -0.003 C 
ATOM     10  C   UNL     1     -14.613   1.439  -9.556  1.00  0.00     0.004 C 
ENDBRANCH   8   9
ENDBRANCH   7   8
ENDBRANCH   1   7
TORSDOF 6
ENDMDL
MODEL 4
REMARK VINA RESULT:    -3.910      7.043      8.468
REMARK INTER + INTRA:          -5.624
REMARK INTER:                  -5.163
REMARK INTRA:                  -0.461
REMARK UNBOUND:                -0.342
REMARK SMILES CCCCCCCC(=O)[O-]
REMARK SMILES IDX 5 1 6 2 7 3 8 4 9 5 10 6 4 7 3 8 2 9 1 10
REMARK H PARENT
REMARK Flexibility Score: inf
ROOT
ATOM      1  C   UNL     1     -10.250  -6.542  -7.051  1.00  0.00     0.000 C 
ENDROOT
BRANCH   1   2
ATOM      2  C   UNL     1     -10.394  -6.202  -8.542  1.00  0.00     0.006 C 
BRANCH   2   3
ATOM      3  C   UNL     1     -10.830  -4.747  -8.733  1.00  0.00     0.053 C 
BRANCH   3   4
ATOM      4  C   UNL     1      -9.668  -3.900  -9.143  1.00  0.00     0.041 C 
ATOM      5  O   UNL     1      -9.507  -3.586 -10.352  1.00  0.00    -0.550 OA
ATOM      6  O   UNL     1      -8.732  -3.498  -8.197  1.00  0.00    -0.550 OA
ENDBRANCH   3   4
ENDBRANCH   2   3
ENDBRANCH   1   2
BRANCH   1   7
ATOM      7  C   UNL     1     -10.956  -5.526  -6.141  1.00  0.00     0.000 C 
BRANCH   7   8
ATOM      8  C   UNL     1     -11.739  -6.199  -4.999  1.00  0.00    -0.000 C 
BRANCH   8   9
ATOM      9  C   UNL     1     -12.750  -7.236  -5.511  1.00  0.00    -0.003 C 
ATOM     10  C   UNL     1     -13.879  -6.607  -6.328  1.00  0.00     0.004 C 
ENDBRANCH   8   9
ENDBRANCH   7   8
ENDBRANCH   1   7
TORSDOF 6
ENDMDL
MODEL 5
REMARK VINA RESULT:    -3.895      6.023      7.899
REMARK INTER + INTRA:          -5.603
REMARK INTER:                  -5.203
REMARK INTRA:                  -0.400
REMARK UNBOUND:                -0.342
REMARK SMILES CCCCCCCC(=O)[O-]
REMARK SMILES IDX 5 1 6 2 7 3 8 4 9 5 10 6 4 7 3 8 2 9 1 10
REMARK H PARENT
REMARK Flexibility Score: inf
ROOT
ATOM      1  C   UNL     1     -10.708  -6.433  -8.512  1.00  0.00     0.000 C 
ENDROOT
BRANCH   1   2
ATOM      2  C   UNL     1     -11.322  -5.095  -8.949  1.00  0.00     0.006 C 
BRANCH   2   3
ATOM      3  C   UNL     1     -10.285  -4.222  -9.661  1.00  0.00     0.053 C 
BRANCH   3   4
ATOM      4  C   UNL     1     -10.228  -2.862  -9.042  1.00  0.00     0.041 C 
ATOM      5  O   UNL     1      -9.823  -2.721  -7.857  1.00  0.00    -0.550 OA
ATOM      6  O   UNL     1     -10.670  -1.755  -9.754  1.00  0.00    -0.550 OA
ENDBRANCH   3   4
ENDBRANCH   2   3
ENDBRANCH   1   2
BRANCH   1   7
ATOM      7  C   UNL     1     -10.268  -6.429  -7.040  1.00  0.00     0.000 C 
BRANCH   7   8
ATOM      8  C   UNL     1     -11.096  -5.459  -6.177  1.00  0.00    -0.000 C 
BRANCH   8   9
ATOM      9  C   UNL     1     -11.778  -6.160  -4.993  1.00  0.00    -0.003 C 
ATOM     10  C   UNL     1     -11.742  -7.684  -5.109  1.00  0.00     0.004 C 
ENDBRANCH   8   9
ENDBRANCH   7   8
ENDBRANCH   1   7
TORSDOF 6
ENDMDL
MODEL 6
REMARK VINA RESULT:    -3.834     15.286     16.664
REMARK INTER + INTRA:          -5.520
REMARK INTER:                  -4.877
REMARK INTRA:                  -0.643
REMARK UNBOUND:                -0.342
REMARK SMILES CCCCCCCC(=O)[O-]
REMARK SMILES IDX 5 1 6 2 7 3 8 4 9 5 10 6 4 7 3 8 2 9 1 10
REMARK H PARENT
REMARK Flexibility Score: inf
ROOT
ATOM      1  C   UNL     1     -12.880   4.916   8.346  1.00  0.00     0.000 C 
ENDROOT
BRANCH   1   2
ATOM      2  C   UNL     1     -13.953   5.056   7.257  1.00  0.00     0.006 C 
BRANCH   2   3
ATOM      3  C   UNL     1     -13.458   5.940   6.109  1.00  0.00     0.053 C 
BRANCH   3   4
ATOM      4  C   UNL     1     -13.277   5.133   4.863  1.00  0.00     0.041 C 
ATOM      5  O   UNL     1     -14.142   5.177   3.948  1.00  0.00    -0.550 OA
ATOM      6  O   UNL     1     -12.180   4.291   4.734  1.00  0.00    -0.550 OA
ENDBRANCH   3   4
ENDBRANCH   2   3
ENDBRANCH   1   2
BRANCH   1   7
ATOM      7  C   UNL     1     -12.130   3.577   8.270  1.00  0.00     0.000 C 
BRANCH   7   8
ATOM      8  C   UNL     1     -10.645   3.751   7.903  1.00  0.00    -0.000 C 
BRANCH   8   9
ATOM      9  C   UNL     1     -10.212   5.224   7.886  1.00  0.00    -0.003 C 
ATOM     10  C   UNL     1      -9.509   5.617   6.586  1.00  0.00     0.004 C 
ENDBRANCH   8   9
ENDBRANCH   7   8
ENDBRANCH   1   7
TORSDOF 6
ENDMDL
MODEL 7
REMARK VINA RESULT:    -3.783     16.081     17.229
REMARK INTER + INTRA:          -5.453
REMARK INTER:                  -4.808
REMARK INTRA:                  -0.644
REMARK UNBOUND:                -0.342
REMARK SMILES CCCCCCCC(=O)[O-]
REMARK SMILES IDX 5 1 6 2 7 3 8 4 9 5 10 6 4 7 3 8 2 9 1 10
REMARK H PARENT
REMARK Flexibility Score: inf
ROOT
ATOM      1  C   UNL     1     -10.493   6.584   6.494  1.00  0.00     0.000 C 
ENDROOT
BRANCH   1   2
ATOM      2  C   UNL     1     -11.818   7.008   7.144  1.00  0.00     0.006 C 
BRANCH   2   3
ATOM      3  C   UNL     1     -12.973   6.918   6.143  1.00  0.00     0.053 C 
BRANCH   3   4
ATOM      4  C   UNL     1     -13.613   5.567   6.200  1.00  0.00     0.041 C 
ATOM      5  O   UNL     1     -14.062   5.124   7.290  1.00  0.00    -0.550 OA
ATOM      6  O   UNL     1     -13.668   4.776   5.059  1.00  0.00    -0.550 OA
ENDBRANCH   3   4
ENDBRANCH   2   3
ENDBRANCH   1   2
BRANCH   1   7
ATOM      7  C   UNL     1      -9.883   5.337   7.152  1.00  0.00     0.000 C 
BRANCH   7   8
ATOM      8  C   UNL     1     -10.448   5.075   8.561  1.00  0.00    -0.000 C 
BRANCH   8   9
ATOM      9  C   UNL     1     -10.992   3.648   8.720  1.00  0.00    -0.003 C 
ATOM     10  C   UNL     1     -11.285   2.975   7.379  1.00  0.00     0.004 C 
ENDBRANCH   8   9
ENDBRANCH   7   8
ENDBRANCH   1   7
TORSDOF 6
ENDMDL
MODEL 8
REMARK VINA RESULT:    -3.750     15.513     17.012
REMARK INTER + INTRA:          -5.407
REMARK INTER:                  -4.802
REMARK INTRA:                  -0.605
REMARK UNBOUND:                -0.342
REMARK SMILES CCCCCCCC(=O)[O-]
REMARK SMILES IDX 5 1 6 2 7 3 8 4 9 5 10 6 4 7 3 8 2 9 1 10
REMARK H PARENT
REMARK Flexibility Score: inf
ROOT
ATOM      1  C   UNL     1     -12.151   3.616   8.012  1.00  0.00     0.000 C 
ENDROOT
BRANCH   1   2
ATOM      2  C   UNL     1     -10.681   3.791   7.607  1.00  0.00     0.006 C 
BRANCH   2   3
ATOM      3  C   UNL     1     -10.236   5.246   7.771  1.00  0.00     0.053 C 
BRANCH   3   4
ATOM      4  C   UNL     1      -9.727   5.789   6.474  1.00  0.00     0.041 C 
ATOM      5  O   UNL     1     -10.060   5.249   5.386  1.00  0.00    -0.550 OA
ATOM      6  O   UNL     1      -8.843   6.861   6.468  1.00  0.00    -0.550 OA
ENDBRANCH   3   4
ENDBRANCH   2   3
ENDBRANCH   1   2
BRANCH   1   7
ATOM      7  C   UNL     1     -12.845   4.952   8.318  1.00  0.00     0.000 C 
BRANCH   7   8
ATOM      8  C   UNL     1     -13.997   5.257   7.343  1.00  0.00    -0.000 C 
BRANCH   8   9
ATOM      9  C   UNL     1     -13.514   5.946   6.059  1.00  0.00    -0.003 C 
ATOM     10  C   UNL     1     -13.580   5.030   4.836  1.00  0.00     0.004 C 
ENDBRANCH   8   9
ENDBRANCH   7   8
ENDBRANCH   1   7
TORSDOF 6
ENDMDL
MODEL 9
REMARK VINA RESULT:    -3.737      7.499      8.587
REMARK INTER + INTRA:          -5.390
REMARK INTER:                  -4.816
REMARK INTRA:                  -0.574
REMARK UNBOUND:                -0.342
REMARK SMILES CCCCCCCC(=O)[O-]
REMARK SMILES IDX 5 1 6 2 7 3 8 4 9 5 10 6 4 7 3 8 2 9 1 10
REMARK H PARENT
REMARK Flexibility Score: inf
ROOT
ATOM      1  C   UNL     1     -11.730  -6.344  -9.288  1.00  0.00     0.000 C 
ENDROOT
BRANCH   1   2
ATOM      2  C   UNL     1     -12.367  -6.997  -8.053  1.00  0.00     0.006 C 
BRANCH   2   3
ATOM      3  C   UNL     1     -12.336  -6.048  -6.852  1.00  0.00     0.053 C 
BRANCH   3   4
ATOM      4  C   UNL     1     -11.299  -6.483  -5.865  1.00  0.00     0.041 C 
ATOM      5  O   UNL     1     -11.366  -6.102  -4.666  1.00  0.00    -0.550 OA
ATOM      6  O   UNL     1     -10.231  -7.269  -6.279  1.00  0.00    -0.550 OA
ENDBRANCH   3   4
ENDBRANCH   2   3
ENDBRANCH   1   2
BRANCH   1   7
ATOM      7  C   UNL     1     -11.965  -4.826  -9.342  1.00  0.00     0.000 C 
BRANCH   7   8
ATOM      8  C   UNL     1     -10.666  -4.035  -9.583  1.00  0.00    -0.000 C 
BRANCH   8   9
ATOM      9  C   UNL     1      -9.540  -4.447  -8.622  1.00  0.00    -0.003 C 
ATOM     10  C   UNL     1      -9.422  -3.513  -7.417  1.00  0.00     0.004 C 
ENDBRANCH   8   9
ENDBRANCH   7   8
ENDBRANCH   1   7
TORSDOF 6
ENDMDL
