MODEL 1
REMARK VINA RESULT:    -6.919      0.000      0.000
REMARK INTER + INTRA:          -9.569
REMARK INTER:                  -8.537
REMARK INTRA:                  -1.033
REMARK UNBOUND:                -1.033
REMARK SMILES CC(C)=CCC[C@@H](C)c1ccc(C)cc1
REMARK SMILES IDX 6 1 7 2 8 3 9 4 13 5 12 6 11 7 14 8 10 9 15 10 5 11 4 12
REMARK SMILES IDX 2 13 1 14 3 15
REMARK H PARENT
REMARK Flexibility Score: inf
ROOT
ATOM      1  C   UNL     1      15.450  -1.409  -0.391  1.00  0.00     0.012 C 
ENDROOT
BRANCH   1   2
ATOM      2  C   UNL     1      14.872  -1.855  -1.755  1.00  0.00     0.016 C 
ATOM      3  C   UNL     1      15.952  -2.541  -2.603  1.00  0.00     0.013 C 
BRANCH   2   4
ATOM      4  C   UNL     1      13.664  -2.763  -1.596  1.00  0.00    -0.045 A 
ATOM      5  C   UNL     1      10.234  -5.362  -1.229  1.00  0.00     0.044 C 
ATOM      6  C   UNL     1      11.432  -4.465  -1.327  1.00  0.00    -0.051 A 
ATOM      7  C   UNL     1      11.310  -3.093  -1.064  1.00  0.00     0.004 A 
ATOM      8  C   UNL     1      12.668  -4.977  -1.748  1.00  0.00     0.004 A 
ATOM      9  C   UNL     1      12.417  -2.249  -1.191  1.00  0.00     0.004 A 
ATOM     10  C   UNL     1      13.775  -4.135  -1.876  1.00  0.00     0.004 A 
ENDBRANCH   2   4
ENDBRANCH   1   2
BRANCH   1  11
ATOM     11  C   UNL     1      15.052   0.022   0.011  1.00  0.00     0.028 C 
BRANCH  11  12
ATOM     12  C   UNL     1      14.471   0.801  -1.146  1.00  0.00    -0.028 C 
ATOM     13  C   UNL     1      13.311   1.495  -1.096  1.00  0.00    -0.080 C 
ATOM     14  C   UNL     1      12.841   2.252  -2.311  1.00  0.00     0.039 C 
ATOM     15  C   UNL     1      12.422   1.487   0.123  1.00  0.00     0.039 C 
ENDBRANCH  11  12
ENDBRANCH   1  11
TORSDOF 4
ENDMDL
MODEL 2
REMARK VINA RESULT:    -6.839      2.764      5.220
REMARK INTER + INTRA:          -9.471
REMARK INTER:                  -8.406
REMARK INTRA:                  -1.065
REMARK UNBOUND:                -1.033
REMARK SMILES CC(C)=CCC[C@@H](C)c1ccc(C)cc1
REMARK SMILES IDX 6 1 7 2 8 3 9 4 13 5 12 6 11 7 14 8 10 9 15 10 5 11 4 12
REMARK SMILES IDX 2 13 1 14 3 15
REMARK H PARENT
REMARK Flexibility Score: inf
ROOT
ATOM      1  C   UNL     1      16.823  -0.005  -1.378  1.00  0.00     0.012 C 
ENDROOT
BRANCH   1   2
ATOM      2  C   UNL     1      15.495  -0.321  -2.106  1.00  0.00     0.016 C 
ATOM      3  C   UNL     1      14.971  -1.706  -1.703  1.00  0.00     0.013 C 
BRANCH   2   4
ATOM      4  C   UNL     1      14.438   0.741  -1.858  1.00  0.00    -0.045 A 
ATOM      5  C   UNL     1      11.375   3.699  -1.135  1.00  0.00     0.044 C 
ATOM      6  C   UNL     1      12.460   2.692  -1.376  1.00  0.00    -0.051 A 
ATOM      7  C   UNL     1      13.086   2.615  -2.628  1.00  0.00     0.004 A 
ATOM      8  C   UNL     1      12.809   1.775  -0.374  1.00  0.00     0.004 A 
ATOM      9  C   UNL     1      14.071   1.652  -2.866  1.00  0.00     0.004 A 
ATOM     10  C   UNL     1      13.794   0.812  -0.611  1.00  0.00     0.004 A 
ENDBRANCH   2   4
ENDBRANCH   1   2
BRANCH   1  11
ATOM     11  C   UNL     1      17.203  -1.043  -0.307  1.00  0.00     0.028 C 
BRANCH  11  12
ATOM     12  C   UNL     1      17.300  -0.434   1.072  1.00  0.00    -0.028 C 
ATOM     13  C   UNL     1      16.432  -0.680   2.080  1.00  0.00    -0.080 C 
ATOM     14  C   UNL     1      16.643  -0.028   3.422  1.00  0.00     0.039 C 
ATOM     15  C   UNL     1      15.207  -1.540   1.894  1.00  0.00     0.039 C 
ENDBRANCH  11  12
ENDBRANCH   1  11
TORSDOF 4
ENDMDL
MODEL 3
REMARK VINA RESULT:    -6.835      2.195      5.219
REMARK INTER + INTRA:          -9.466
REMARK INTER:                  -8.394
REMARK INTRA:                  -1.072
REMARK UNBOUND:                -1.033
REMARK SMILES CC(C)=CCC[C@@H](C)c1ccc(C)cc1
REMARK SMILES IDX 6 1 7 2 8 3 9 4 13 5 12 6 11 7 14 8 10 9 15 10 5 11 4 12
REMARK SMILES IDX 2 13 1 14 3 15
REMARK H PARENT
REMARK Flexibility Score: inf
ROOT
ATOM      1  C   UNL     1      14.492  -1.610  -1.781  1.00  0.00     0.012 C 
ENDROOT
BRANCH   1   2
ATOM      2  C   UNL     1      15.150  -0.261  -1.406  1.00  0.00     0.016 C 
ATOM      3  C   UNL     1      16.325   0.049  -2.343  1.00  0.00     0.013 C 
BRANCH   2   4
ATOM      4  C   UNL     1      14.150   0.883  -1.408  1.00  0.00    -0.045 A 
ATOM      5  C   UNL     1      11.371   4.190  -1.442  1.00  0.00     0.044 C 
ATOM      6  C   UNL     1      12.312   3.022  -1.435  1.00  0.00    -0.051 A 
ATOM      7  C   UNL     1      12.621   2.370  -0.232  1.00  0.00     0.004 A 
ATOM      8  C   UNL     1      12.945   2.616  -2.619  1.00  0.00     0.004 A 
ATOM      9  C   UNL     1      13.527   1.306  -0.218  1.00  0.00     0.004 A 
ATOM     10  C   UNL     1      13.851   1.552  -2.607  1.00  0.00     0.004 A 
ENDBRANCH   2   4
ENDBRANCH   1   2
BRANCH   1  11
ATOM     11  C   UNL     1      14.046  -2.440  -0.565  1.00  0.00     0.028 C 
BRANCH  11  12
ATOM     12  C   UNL     1      14.735  -2.007   0.708  1.00  0.00    -0.028 C 
ATOM     13  C   UNL     1      14.091  -1.613   1.830  1.00  0.00    -0.080 C 
ATOM     14  C   UNL     1      14.886  -1.221   3.048  1.00  0.00     0.039 C 
ATOM     15  C   UNL     1      12.590  -1.483   1.892  1.00  0.00     0.039 C 
ENDBRANCH  11  12
ENDBRANCH   1  11
TORSDOF 4
ENDMDL
MODEL 4
REMARK VINA RESULT:    -6.814      2.128      5.451
REMARK INTER + INTRA:          -9.440
REMARK INTER:                  -8.349
REMARK INTRA:                  -1.091
REMARK UNBOUND:                -1.033
REMARK SMILES CC(C)=CCC[C@@H](C)c1ccc(C)cc1
REMARK SMILES IDX 6 1 7 2 8 3 9 4 13 5 12 6 11 7 14 8 10 9 15 10 5 11 4 12
REMARK SMILES IDX 2 13 1 14 3 15
REMARK H PARENT
REMARK Flexibility Score: inf
ROOT
ATOM      1  C   UNL     1      16.373  -2.058  -1.814  1.00  0.00     0.012 C 
ENDROOT
BRANCH   1   2
ATOM      2  C   UNL     1      16.275  -0.649  -1.183  1.00  0.00     0.016 C 
ATOM      3  C   UNL     1      15.088   0.127  -1.769  1.00  0.00     0.013 C 
BRANCH   2   4
ATOM      4  C   UNL     1      16.178  -0.705   0.332  1.00  0.00    -0.045 A 
ATOM      5  C   UNL     1      15.833  -0.813   4.636  1.00  0.00     0.044 C 
ATOM      6  C   UNL     1      15.966  -0.804   3.143  1.00  0.00    -0.051 A 
ATOM      7  C   UNL     1      17.113  -0.270   2.539  1.00  0.00     0.004 A 
ATOM      8  C   UNL     1      14.916  -1.265   2.336  1.00  0.00     0.004 A 
ATOM      9  C   UNL     1      17.222  -0.226   1.146  1.00  0.00     0.004 A 
ATOM     10  C   UNL     1      15.023  -1.222   0.943  1.00  0.00     0.004 A 
ENDBRANCH   2   4
ENDBRANCH   1   2
BRANCH   1  11
ATOM     11  C   UNL     1      15.153  -2.437  -2.672  1.00  0.00     0.028 C 
BRANCH  11  12
ATOM     12  C   UNL     1      14.472  -3.692  -2.177  1.00  0.00    -0.028 C 
ATOM     13  C   UNL     1      13.229  -3.728  -1.644  1.00  0.00    -0.080 C 
ATOM     14  C   UNL     1      12.645  -5.045  -1.202  1.00  0.00     0.039 C 
ATOM     15  C   UNL     1      12.418  -2.478  -1.409  1.00  0.00     0.039 C 
ENDBRANCH  11  12
ENDBRANCH   1  11
TORSDOF 4
ENDMDL
MODEL 5
REMARK VINA RESULT:    -6.782      3.343      4.610
REMARK INTER + INTRA:          -9.400
REMARK INTER:                  -8.671
REMARK INTRA:                  -0.729
REMARK UNBOUND:                -1.033
REMARK SMILES CC(C)=CCC[C@@H](C)c1ccc(C)cc1
REMARK SMILES IDX 6 1 7 2 8 3 9 4 13 5 12 6 11 7 14 8 10 9 15 10 5 11 4 12
REMARK SMILES IDX 2 13 1 14 3 15
REMARK H PARENT
REMARK Flexibility Score: inf
ROOT
ATOM      1  C   UNL     1      14.474   0.003  -2.299  1.00  0.00     0.012 C 
ENDROOT
BRANCH   1   2
ATOM      2  C   UNL     1      15.781  -0.699  -1.861  1.00  0.00     0.016 C 
ATOM      3  C   UNL     1      16.991  -0.095  -2.586  1.00  0.00     0.013 C 
BRANCH   2   4
ATOM      4  C   UNL     1      15.983  -0.649  -0.356  1.00  0.00    -0.045 A 
ATOM      5  C   UNL     1      16.616  -0.567   3.916  1.00  0.00     0.044 C 
ATOM      6  C   UNL     1      16.388  -0.565   2.434  1.00  0.00    -0.051 A 
ATOM      7  C   UNL     1      15.132  -0.905   1.912  1.00  0.00     0.004 A 
ATOM      8  C   UNL     1      17.446  -0.291   1.555  1.00  0.00     0.004 A 
ATOM      9  C   UNL     1      14.928  -0.941   0.529  1.00  0.00     0.004 A 
ATOM     10  C   UNL     1      17.244  -0.326   0.173  1.00  0.00     0.004 A 
ENDBRANCH   2   4
ENDBRANCH   1   2
BRANCH   1  11
ATOM     11  C   UNL     1      14.660   1.489  -2.654  1.00  0.00     0.028 C 
BRANCH  11  12
ATOM     12  C   UNL     1      13.348   2.237  -2.691  1.00  0.00    -0.028 C 
ATOM     13  C   UNL     1      12.638   2.591  -1.596  1.00  0.00    -0.080 C 
ATOM     14  C   UNL     1      11.349   3.355  -1.757  1.00  0.00     0.039 C 
ATOM     15  C   UNL     1      13.054   2.188  -0.204  1.00  0.00     0.039 C 
ENDBRANCH  11  12
ENDBRANCH   1  11
TORSDOF 4
ENDMDL
MODEL 6
REMARK VINA RESULT:    -6.777      1.138      5.222
REMARK INTER + INTRA:          -9.394
REMARK INTER:                  -8.687
REMARK INTRA:                  -0.707
REMARK UNBOUND:                -1.033
REMARK SMILES CC(C)=CCC[C@@H](C)c1ccc(C)cc1
REMARK SMILES IDX 6 1 7 2 8 3 9 4 13 5 12 6 11 7 14 8 10 9 15 10 5 11 4 12
REMARK SMILES IDX 2 13 1 14 3 15
REMARK H PARENT
REMARK Flexibility Score: inf
ROOT
ATOM      1  C   UNL     1      15.125  -2.062  -1.141  1.00  0.00     0.012 C 
ENDROOT
BRANCH   1   2
ATOM      2  C   UNL     1      15.632  -0.671  -1.589  1.00  0.00     0.016 C 
ATOM      3  C   UNL     1      16.220  -0.739  -3.005  1.00  0.00     0.013 C 
BRANCH   2   4
ATOM      4  C   UNL     1      14.544   0.387  -1.514  1.00  0.00    -0.045 A 
ATOM      5  C   UNL     1      11.513   3.457  -1.312  1.00  0.00     0.044 C 
ATOM      6  C   UNL     1      12.544   2.371  -1.394  1.00  0.00    -0.051 A 
ATOM      7  C   UNL     1      12.768   1.526  -0.297  1.00  0.00     0.004 A 
ATOM      8  C   UNL     1      13.340   2.236  -2.540  1.00  0.00     0.004 A 
ATOM      9  C   UNL     1      13.756   0.538  -0.358  1.00  0.00     0.004 A 
ATOM     10  C   UNL     1      14.327   1.249  -2.603  1.00  0.00     0.004 A 
ENDBRANCH   2   4
ENDBRANCH   1   2
BRANCH   1  11
ATOM     11  C   UNL     1      14.710  -2.975  -2.308  1.00  0.00     0.028 C 
BRANCH  11  12
ATOM     12  C   UNL     1      13.817  -4.108  -1.860  1.00  0.00    -0.028 C 
ATOM     13  C   UNL     1      12.531  -3.960  -1.469  1.00  0.00    -0.080 C 
ATOM     14  C   UNL     1      11.730  -5.169  -1.061  1.00  0.00     0.039 C 
ATOM     15  C   UNL     1      11.875  -2.606  -1.358  1.00  0.00     0.039 C 
ENDBRANCH  11  12
ENDBRANCH   1  11
TORSDOF 4
ENDMDL
MODEL 7
REMARK VINA RESULT:    -6.775      0.927      1.460
REMARK INTER + INTRA:          -9.391
REMARK INTER:                  -8.332
REMARK INTRA:                  -1.059
REMARK UNBOUND:                -1.033
REMARK SMILES CC(C)=CCC[C@@H](C)c1ccc(C)cc1
REMARK SMILES IDX 6 1 7 2 8 3 9 4 13 5 12 6 11 7 14 8 10 9 15 10 5 11 4 12
REMARK SMILES IDX 2 13 1 14 3 15
REMARK H PARENT
REMARK Flexibility Score: inf
ROOT
ATOM      1  C   UNL     1      15.123  -0.382  -2.773  1.00  0.00     0.012 C 
ENDROOT
BRANCH   1   2
ATOM      2  C   UNL     1      15.326  -1.430  -1.653  1.00  0.00     0.016 C 
ATOM      3  C   UNL     1      15.671  -0.744  -0.325  1.00  0.00     0.013 C 
BRANCH   2   4
ATOM      4  C   UNL     1      14.116  -2.334  -1.488  1.00  0.00    -0.045 A 
ATOM      5  C   UNL     1      10.679  -4.920  -1.102  1.00  0.00     0.044 C 
ATOM      6  C   UNL     1      11.881  -4.030  -1.207  1.00  0.00    -0.051 A 
ATOM      7  C   UNL     1      11.787  -2.674  -0.862  1.00  0.00     0.004 A 
ATOM      8  C   UNL     1      13.089  -4.528  -1.715  1.00  0.00     0.004 A 
ATOM      9  C   UNL     1      12.897  -1.833  -0.996  1.00  0.00     0.004 A 
ATOM     10  C   UNL     1      14.199  -3.690  -1.848  1.00  0.00     0.004 A 
ENDBRANCH   2   4
ENDBRANCH   1   2
BRANCH   1  11
ATOM     11  C   UNL     1      15.135   1.072  -2.269  1.00  0.00     0.028 C 
BRANCH  11  12
ATOM     12  C   UNL     1      13.869   1.814  -2.629  1.00  0.00    -0.028 C 
ATOM     13  C   UNL     1      12.930   2.202  -1.737  1.00  0.00    -0.080 C 
ATOM     14  C   UNL     1      11.715   2.955  -2.212  1.00  0.00     0.039 C 
ATOM     15  C   UNL     1      13.017   1.848  -0.273  1.00  0.00     0.039 C 
ENDBRANCH  11  12
ENDBRANCH   1  11
TORSDOF 4
ENDMDL
MODEL 8
REMARK VINA RESULT:    -6.711      2.288      5.254
REMARK INTER + INTRA:          -9.313
REMARK INTER:                  -8.624
REMARK INTRA:                  -0.689
REMARK UNBOUND:                -1.033
REMARK SMILES CC(C)=CCC[C@@H](C)c1ccc(C)cc1
REMARK SMILES IDX 6 1 7 2 8 3 9 4 13 5 12 6 11 7 14 8 10 9 15 10 5 11 4 12
REMARK SMILES IDX 2 13 1 14 3 15
REMARK H PARENT
REMARK Flexibility Score: inf
ROOT
ATOM      1  C   UNL     1      12.902  -1.372   1.785  1.00  0.00     0.012 C 
ENDROOT
BRANCH   1   2
ATOM      2  C   UNL     1      12.903  -1.463   0.241  1.00  0.00     0.016 C 
ATOM      3  C   UNL     1      11.669  -2.226  -0.259  1.00  0.00     0.013 C 
BRANCH   2   4
ATOM      4  C   UNL     1      12.984  -0.094  -0.414  1.00  0.00    -0.045 A 
ATOM      5  C   UNL     1      13.299   3.789  -2.277  1.00  0.00     0.044 C 
ATOM      6  C   UNL     1      13.161   2.438  -1.643  1.00  0.00    -0.051 A 
ATOM      7  C   UNL     1      12.609   2.312  -0.361  1.00  0.00     0.004 A 
ATOM      8  C   UNL     1      13.647   1.296  -2.297  1.00  0.00     0.004 A 
ATOM      9  C   UNL     1      12.514   1.057   0.248  1.00  0.00     0.004 A 
ATOM     10  C   UNL     1      13.553   0.041  -1.691  1.00  0.00     0.004 A 
ENDBRANCH   2   4
ENDBRANCH   1   2
BRANCH   1  11
ATOM     11  C   UNL     1      14.296  -1.540   2.415  1.00  0.00     0.028 C 
BRANCH  11  12
ATOM     12  C   UNL     1      15.406  -1.184   1.453  1.00  0.00    -0.028 C 
ATOM     13  C   UNL     1      16.568  -0.593   1.811  1.00  0.00    -0.080 C 
ATOM     14  C   UNL     1      17.612  -0.304   0.764  1.00  0.00     0.039 C 
ATOM     15  C   UNL     1      16.839  -0.144   3.225  1.00  0.00     0.039 C 
ENDBRANCH  11  12
ENDBRANCH   1  11
TORSDOF 4
ENDMDL
MODEL 9
REMARK VINA RESULT:    -6.588      1.933      3.354
REMARK INTER + INTRA:          -9.162
REMARK INTER:                  -8.434
REMARK INTRA:                  -0.728
REMARK UNBOUND:                -1.033
REMARK SMILES CC(C)=CCC[C@@H](C)c1ccc(C)cc1
REMARK SMILES IDX 6 1 7 2 8 3 9 4 13 5 12 6 11 7 14 8 10 9 15 10 5 11 4 12
REMARK SMILES IDX 2 13 1 14 3 15
REMARK H PARENT
REMARK Flexibility Score: inf
ROOT
ATOM      1  C   UNL     1      15.616   0.002  -0.348  1.00  0.00     0.012 C 
ENDROOT
BRANCH   1   2
ATOM      2  C   UNL     1      15.233  -0.604  -1.719  1.00  0.00     0.016 C 
ATOM      3  C   UNL     1      16.488  -1.032  -2.493  1.00  0.00     0.013 C 
BRANCH   2   4
ATOM      4  C   UNL     1      14.269  -1.771  -1.581  1.00  0.00    -0.045 A 
ATOM      5  C   UNL     1      11.528  -5.074  -1.101  1.00  0.00     0.044 C 
ATOM      6  C   UNL     1      12.468  -3.922  -1.296  1.00  0.00    -0.051 A 
ATOM      7  C   UNL     1      13.744  -4.135  -1.838  1.00  0.00     0.004 A 
ATOM      8  C   UNL     1      12.107  -2.634  -0.875  1.00  0.00     0.004 A 
ATOM      9  C   UNL     1      14.636  -3.068  -1.985  1.00  0.00     0.004 A 
ATOM     10  C   UNL     1      12.997  -1.567  -1.021  1.00  0.00     0.004 A 
ENDBRANCH   2   4
ENDBRANCH   1   2
BRANCH   1  11
ATOM     11  C   UNL     1      16.786  -0.721   0.343  1.00  0.00     0.028 C 
BRANCH  11  12
ATOM     12  C   UNL     1      16.908  -0.349   1.802  1.00  0.00    -0.028 C 
ATOM     13  C   UNL     1      16.071  -0.778   2.773  1.00  0.00    -0.080 C 
ATOM     14  C   UNL     1      16.304  -0.355   4.200  1.00  0.00     0.039 C 
ATOM     15  C   UNL     1      14.856  -1.620   2.473  1.00  0.00     0.039 C 
ENDBRANCH  11  12
ENDBRANCH   1  11
TORSDOF 4
ENDMDL
