MODEL 1
REMARK VINA RESULT:    -2.907      0.000      0.000
REMARK INTER + INTRA:          -4.568
REMARK INTER:                  -4.266
REMARK INTRA:                  -0.302
REMARK UNBOUND:                -0.302
REMARK SMILES O=C([O-])CCCCCCCC(=O)[O-]
REMARK SMILES IDX 7 1 6 2 5 3 4 4 2 5 1 6 3 7 8 8 9 9 10 10 11 11 12 12 13 13
REMARK H PARENT
REMARK Flexibility Score: inf
ROOT
ATOM      1  C   UNL     1     -30.785 -22.006 -21.085  1.00  0.00     0.000 C 
ENDROOT
BRANCH   1   2
ATOM      2  C   UNL     1     -31.405 -21.444 -22.372  1.00  0.00     0.000 C 
BRANCH   2   3
ATOM      3  C   UNL     1     -30.334 -21.213 -23.447  1.00  0.00     0.006 C 
BRANCH   3   4
ATOM      4  C   UNL     1     -30.880 -21.429 -24.864  1.00  0.00     0.053 C 
BRANCH   4   5
ATOM      5  C   UNL     1     -30.428 -20.352 -25.803  1.00  0.00     0.041 C 
ATOM      6  O   UNL     1     -30.142 -20.630 -26.997  1.00  0.00    -0.550 OA
ATOM      7  O   UNL     1     -30.292 -19.046 -25.348  1.00  0.00    -0.550 OA
ENDBRANCH   4   5
ENDBRANCH   3   4
ENDBRANCH   2   3
ENDBRANCH   1   2
BRANCH   1   8
ATOM      8  C   UNL     1     -29.241 -21.948 -21.105  1.00  0.00     0.000 C 
BRANCH   8   9
ATOM      9  C   UNL     1     -28.635 -21.286 -19.853  1.00  0.00     0.006 C 
BRANCH   9  10
ATOM     10  C   UNL     1     -28.771 -22.122 -18.572  1.00  0.00     0.053 C 
BRANCH  10  11
ATOM     11  C   UNL     1     -27.504 -22.125 -17.771  1.00  0.00     0.041 C 
ATOM     12  O   UNL     1     -27.546 -22.115 -16.514  1.00  0.00    -0.550 OA
ATOM     13  O   UNL     1     -26.274 -22.123 -18.418  1.00  0.00    -0.550 OA
ENDBRANCH  10  11
ENDBRANCH   9  10
ENDBRANCH   8   9
ENDBRANCH   1   8
TORSDOF 8
ENDMDL
MODEL 2
REMARK VINA RESULT:    -2.755      2.315      3.147
REMARK INTER + INTRA:          -4.345
REMARK INTER:                  -3.985
REMARK INTRA:                  -0.360
REMARK UNBOUND:                -0.302
REMARK SMILES O=C([O-])CCCCCCCC(=O)[O-]
REMARK SMILES IDX 7 1 6 2 5 3 4 4 2 5 1 6 3 7 8 8 9 9 10 10 11 11 12 12 13 13
REMARK H PARENT
REMARK Flexibility Score: inf
ROOT
ATOM      1  C   UNL     1     -29.094 -21.470 -23.943  1.00  0.00     0.000 C 
ENDROOT
BRANCH   1   2
ATOM      2  C   UNL     1     -29.316 -20.220 -24.806  1.00  0.00     0.000 C 
BRANCH   2   3
ATOM      3  C   UNL     1     -30.759 -19.711 -24.679  1.00  0.00     0.006 C 
BRANCH   3   4
ATOM      4  C   UNL     1     -31.685 -20.750 -24.036  1.00  0.00     0.053 C 
BRANCH   4   5
ATOM      5  C   UNL     1     -31.997 -20.410 -22.610  1.00  0.00     0.041 C 
ATOM      6  O   UNL     1     -32.435 -19.268 -22.312  1.00  0.00    -0.550 OA
ATOM      7  O   UNL     1     -31.769 -21.343 -21.607  1.00  0.00    -0.550 OA
ENDBRANCH   4   5
ENDBRANCH   3   4
ENDBRANCH   2   3
ENDBRANCH   1   2
BRANCH   1   8
ATOM      8  C   UNL     1     -27.694 -21.491 -23.290  1.00  0.00     0.000 C 
BRANCH   8   9
ATOM      9  C   UNL     1     -27.699 -22.012 -21.841  1.00  0.00     0.006 C 
BRANCH   9  10
ATOM     10  C   UNL     1     -28.382 -21.070 -20.838  1.00  0.00     0.053 C 
BRANCH  10  11
ATOM     11  C   UNL     1     -28.577 -21.724 -19.504  1.00  0.00     0.041 C 
ATOM     12  O   UNL     1     -29.717 -22.125 -19.152  1.00  0.00    -0.550 OA
ATOM     13  O   UNL     1     -27.498 -21.877 -18.641  1.00  0.00    -0.550 OA
ENDBRANCH  10  11
ENDBRANCH   9  10
ENDBRANCH   8   9
ENDBRANCH   1   8
TORSDOF 8
ENDMDL
MODEL 3
REMARK VINA RESULT:    -2.735      2.317      6.040
REMARK INTER + INTRA:          -4.317
REMARK INTER:                  -4.095
REMARK INTRA:                  -0.222
REMARK UNBOUND:                -0.302
REMARK SMILES O=C([O-])CCCCCCCC(=O)[O-]
REMARK SMILES IDX 7 1 6 2 5 3 4 4 2 5 1 6 3 7 8 8 9 9 10 10 11 11 12 12 13 13
REMARK H PARENT
REMARK Flexibility Score: inf
ROOT
ATOM      1  C   UNL     1     -28.941 -20.769 -23.656  1.00  0.00     0.000 C 
ENDROOT
BRANCH   1   2
ATOM      2  C   UNL     1     -27.566 -21.392 -23.374  1.00  0.00     0.000 C 
BRANCH   2   3
ATOM      3  C   UNL     1     -27.559 -22.124 -22.024  1.00  0.00     0.006 C 
BRANCH   3   4
ATOM      4  C   UNL     1     -28.805 -21.806 -21.186  1.00  0.00     0.053 C 
BRANCH   4   5
ATOM      5  C   UNL     1     -28.443 -21.312 -19.819  1.00  0.00     0.041 C 
ATOM      6  O   UNL     1     -28.299 -22.125 -18.868  1.00  0.00    -0.550 OA
ATOM      7  O   UNL     1     -28.297 -19.950 -19.588  1.00  0.00    -0.550 OA
ENDBRANCH   4   5
ENDBRANCH   3   4
ENDBRANCH   2   3
ENDBRANCH   1   2
BRANCH   1   8
ATOM      8  C   UNL     1     -29.655 -21.442 -24.849  1.00  0.00     0.000 C 
BRANCH   8   9
ATOM      9  C   UNL     1     -31.151 -21.088 -24.949  1.00  0.00     0.006 C 
BRANCH   9  10
ATOM     10  C   UNL     1     -31.508 -19.705 -24.386  1.00  0.00     0.053 C 
BRANCH  10  11
ATOM     11  C   UNL     1     -32.061 -19.795 -22.996  1.00  0.00     0.041 C 
ATOM     12  O   UNL     1     -32.592 -18.790 -22.455  1.00  0.00    -0.550 OA
ATOM     13  O   UNL     1     -31.974 -20.989 -22.290  1.00  0.00    -0.550 OA
ENDBRANCH  10  11
ENDBRANCH   9  10
ENDBRANCH   8   9
ENDBRANCH   1   8
TORSDOF 8
ENDMDL
MODEL 4
REMARK VINA RESULT:    -2.622      1.053      7.401
REMARK INTER + INTRA:          -4.150
REMARK INTER:                  -3.906
REMARK INTRA:                  -0.244
REMARK UNBOUND:                -0.302
REMARK SMILES O=C([O-])CCCCCCCC(=O)[O-]
REMARK SMILES IDX 7 1 6 2 5 3 4 4 2 5 1 6 3 7 8 8 9 9 10 10 11 11 12 12 13 13
REMARK H PARENT
REMARK Flexibility Score: inf
ROOT
ATOM      1  C   UNL     1     -29.111 -21.513 -22.055  1.00  0.00     0.000 C 
ENDROOT
BRANCH   1   2
ATOM      2  C   UNL     1     -28.826 -22.123 -20.675  1.00  0.00     0.000 C 
BRANCH   2   3
ATOM      3  C   UNL     1     -28.719 -21.031 -19.601  1.00  0.00     0.006 C 
BRANCH   3   4
ATOM      4  C   UNL     1     -27.375 -21.075 -18.863  1.00  0.00     0.053 C 
BRANCH   4   5
ATOM      5  C   UNL     1     -27.483 -21.797 -17.554  1.00  0.00     0.041 C 
ATOM      6  O   UNL     1     -28.613 -22.096 -17.087  1.00  0.00    -0.550 OA
ATOM      7  O   UNL     1     -26.336 -22.109 -16.836  1.00  0.00    -0.550 OA
ENDBRANCH   4   5
ENDBRANCH   3   4
ENDBRANCH   2   3
ENDBRANCH   1   2
BRANCH   1   8
ATOM      8  C   UNL     1     -30.609 -21.191 -22.256  1.00  0.00     0.000 C 
BRANCH   8   9
ATOM      9  C   UNL     1     -30.932 -20.608 -23.644  1.00  0.00     0.006 C 
BRANCH   9  10
ATOM     10  C   UNL     1     -29.928 -20.999 -24.738  1.00  0.00     0.053 C 
BRANCH  10  11
ATOM     11  C   UNL     1     -30.425 -20.639 -26.106  1.00  0.00     0.041 C 
ATOM     12  O   UNL     1     -30.643 -19.437 -26.408  1.00  0.00    -0.550 OA
ATOM     13  O   UNL     1     -30.663 -21.637 -27.043  1.00  0.00    -0.550 OA
ENDBRANCH  10  11
ENDBRANCH   9  10
ENDBRANCH   8   9
ENDBRANCH   1   8
TORSDOF 8
ENDMDL
MODEL 5
REMARK VINA RESULT:    -2.002      2.478      3.063
REMARK INTER + INTRA:          -3.240
REMARK INTER:                  -3.553
REMARK INTRA:                   0.313
REMARK UNBOUND:                -0.302
REMARK SMILES O=C([O-])CCCCCCCC(=O)[O-]
REMARK SMILES IDX 7 1 6 2 5 3 4 4 2 5 1 6 3 7 8 8 9 9 10 10 11 11 12 12 13 13
REMARK H PARENT
REMARK Flexibility Score: inf
ROOT
ATOM      1  C   UNL     1     -30.583 -22.123 -21.751  1.00  0.00     0.000 C 
ENDROOT
BRANCH   1   2
ATOM      2  C   UNL     1     -31.444 -20.871 -21.969  1.00  0.00     0.000 C 
BRANCH   2   3
ATOM      3  C   UNL     1     -31.517 -20.503 -23.457  1.00  0.00     0.006 C 
BRANCH   3   4
ATOM      4  C   UNL     1     -31.052 -21.653 -24.362  1.00  0.00     0.053 C 
BRANCH   4   5
ATOM      5  C   UNL     1     -30.768 -21.183 -25.756  1.00  0.00     0.041 C 
ATOM      6  O   UNL     1     -30.753 -22.002 -26.711  1.00  0.00    -0.550 OA
ATOM      7  O   UNL     1     -30.485 -19.843 -25.993  1.00  0.00    -0.550 OA
ENDBRANCH   4   5
ENDBRANCH   3   4
ENDBRANCH   2   3
ENDBRANCH   1   2
BRANCH   1   8
ATOM      8  C   UNL     1     -29.876 -22.116 -20.377  1.00  0.00     0.000 C 
BRANCH   8   9
ATOM      9  C   UNL     1     -28.404 -21.670 -20.445  1.00  0.00     0.006 C 
BRANCH   9  10
ATOM     10  C   UNL     1     -28.123 -20.595 -21.506  1.00  0.00     0.053 C 
BRANCH  10  11
ATOM     11  C   UNL     1     -27.655 -21.195 -22.797  1.00  0.00     0.041 C 
ATOM     12  O   UNL     1     -28.235 -20.912 -23.878  1.00  0.00    -0.550 OA
ATOM     13  O   UNL     1     -26.586 -22.082 -22.803  1.00  0.00    -0.550 OA
ENDBRANCH  10  11
ENDBRANCH   9  10
ENDBRANCH   8   9
ENDBRANCH   1   8
TORSDOF 8
ENDMDL
MODEL 6
REMARK VINA RESULT:    -1.960      3.602      5.665
REMARK INTER + INTRA:          -3.178
REMARK INTER:                  -2.805
REMARK INTRA:                  -0.373
REMARK UNBOUND:                -0.302
REMARK SMILES O=C([O-])CCCCCCCC(=O)[O-]
REMARK SMILES IDX 7 1 6 2 5 3 4 4 2 5 1 6 3 7 8 8 9 9 10 10 11 11 12 12 13 13
REMARK H PARENT
REMARK Flexibility Score: inf
ROOT
ATOM      1  C   UNL     1     -28.284 -21.619 -21.631  1.00  0.00     0.000 C 
ENDROOT
BRANCH   1   2
ATOM      2  C   UNL     1     -29.734 -22.125 -21.607  1.00  0.00     0.000 C 
BRANCH   2   3
ATOM      3  C   UNL     1     -30.715 -20.978 -21.328  1.00  0.00     0.006 C 
BRANCH   3   4
ATOM      4  C   UNL     1     -31.900 -20.979 -22.303  1.00  0.00     0.053 C 
BRANCH   4   5
ATOM      5  C   UNL     1     -32.250 -19.593 -22.751  1.00  0.00     0.041 C 
ATOM      6  O   UNL     1     -32.273 -19.310 -23.978  1.00  0.00    -0.550 OA
ATOM      7  O   UNL     1     -32.520 -18.605 -21.812  1.00  0.00    -0.550 OA
ENDBRANCH   4   5
ENDBRANCH   3   4
ENDBRANCH   2   3
ENDBRANCH   1   2
BRANCH   1   8
ATOM      8  C   UNL     1     -27.820 -21.241 -23.055  1.00  0.00     0.000 C 
BRANCH   8   9
ATOM      9  C   UNL     1     -28.838 -21.606 -24.151  1.00  0.00     0.006 C 
BRANCH   9  10
ATOM     10  C   UNL     1     -29.363 -20.402 -24.947  1.00  0.00     0.053 C 
BRANCH  10  11
ATOM     11  C   UNL     1     -30.349 -20.815 -25.997  1.00  0.00     0.041 C 
ATOM     12  O   UNL     1     -30.519 -20.109 -27.025  1.00  0.00    -0.550 OA
ATOM     13  O   UNL     1     -31.094 -21.977 -25.831  1.00  0.00    -0.550 OA
ENDBRANCH  10  11
ENDBRANCH   9  10
ENDBRANCH   8   9
ENDBRANCH   1   8
TORSDOF 8
ENDMDL
MODEL 7
REMARK VINA RESULT:    -1.852      3.433      4.504
REMARK INTER + INTRA:          -3.020
REMARK INTER:                  -2.780
REMARK INTRA:                  -0.240
REMARK UNBOUND:                -0.302
REMARK SMILES O=C([O-])CCCCCCCC(=O)[O-]
REMARK SMILES IDX 7 1 6 2 5 3 4 4 2 5 1 6 3 7 8 8 9 9 10 10 11 11 12 12 13 13
REMARK H PARENT
REMARK Flexibility Score: inf
ROOT
ATOM      1  C   UNL     1     -28.562 -21.162 -21.679  1.00  0.00     0.000 C 
ENDROOT
BRANCH   1   2
ATOM      2  C   UNL     1     -27.941 -21.284 -23.078  1.00  0.00     0.000 C 
BRANCH   2   3
ATOM      3  C   UNL     1     -29.001 -21.665 -24.121  1.00  0.00     0.006 C 
BRANCH   3   4
ATOM      4  C   UNL     1     -29.533 -20.442 -24.880  1.00  0.00     0.053 C 
BRANCH   4   5
ATOM      5  C   UNL     1     -30.422 -20.839 -26.019  1.00  0.00     0.041 C 
ATOM      6  O   UNL     1     -30.548 -20.084 -27.018  1.00  0.00    -0.550 OA
ATOM      7  O   UNL     1     -31.136 -22.029 -25.961  1.00  0.00    -0.550 OA
ENDBRANCH   4   5
ENDBRANCH   3   4
ENDBRANCH   2   3
ENDBRANCH   1   2
BRANCH   1   8
ATOM      8  C   UNL     1     -29.754 -22.124 -21.481  1.00  0.00     0.000 C 
BRANCH   8   9
ATOM      9  C   UNL     1     -31.098 -21.402 -21.270  1.00  0.00     0.006 C 
BRANCH   9  10
ATOM     10  C   UNL     1     -31.832 -21.048 -22.572  1.00  0.00     0.053 C 
BRANCH  10  11
ATOM     11  C   UNL     1     -32.268 -19.614 -22.595  1.00  0.00     0.041 C 
ATOM     12  O   UNL     1     -32.595 -19.066 -23.678  1.00  0.00    -0.550 OA
ATOM     13  O   UNL     1     -32.296 -18.879 -21.416  1.00  0.00    -0.550 OA
ENDBRANCH  10  11
ENDBRANCH   9  10
ENDBRANCH   8   9
ENDBRANCH   1   8
TORSDOF 8
ENDMDL
MODEL 8
REMARK VINA RESULT:    -1.265      3.001      4.190
REMARK INTER + INTRA:          -2.159
REMARK INTER:                  -2.981
REMARK INTRA:                   0.823
REMARK UNBOUND:                -0.302
REMARK SMILES O=C([O-])CCCCCCCC(=O)[O-]
REMARK SMILES IDX 7 1 6 2 5 3 4 4 2 5 1 6 3 7 8 8 9 9 10 10 11 11 12 12 13 13
REMARK H PARENT
REMARK Flexibility Score: inf
ROOT
ATOM      1  C   UNL     1     -30.668 -21.026 -26.185  1.00  0.00     0.000 C 
ENDROOT
BRANCH   1   2
ATOM      2  C   UNL     1     -30.422 -19.528 -25.954  1.00  0.00     0.000 C 
BRANCH   2   3
ATOM      3  C   UNL     1     -30.759 -19.129 -24.510  1.00  0.00     0.006 C 
BRANCH   3   4
ATOM      4  C   UNL     1     -32.237 -19.364 -24.175  1.00  0.00     0.053 C 
BRANCH   4   5
ATOM      5  C   UNL     1     -32.460 -19.480 -22.697  1.00  0.00     0.041 C 
ATOM      6  O   UNL     1     -32.601 -18.445 -21.994  1.00  0.00    -0.550 OA
ATOM      7  O   UNL     1     -32.476 -20.731 -22.093  1.00  0.00    -0.550 OA
ENDBRANCH   4   5
ENDBRANCH   3   4
ENDBRANCH   2   3
ENDBRANCH   1   2
BRANCH   1   8
ATOM      8  C   UNL     1     -30.575 -21.844 -24.878  1.00  0.00     0.000 C 
BRANCH   8   9
ATOM      9  C   UNL     1     -29.354 -21.481 -24.012  1.00  0.00     0.006 C 
BRANCH   9  10
ATOM     10  C   UNL     1     -29.470 -21.924 -22.546  1.00  0.00     0.053 C 
BRANCH  10  11
ATOM     11  C   UNL     1     -28.130 -21.997 -21.878  1.00  0.00     0.041 C 
ATOM     12  O   UNL     1     -28.039 -21.929 -20.624  1.00  0.00    -0.550 OA
ATOM     13  O   UNL     1     -26.979 -22.125 -22.645  1.00  0.00    -0.550 OA
ENDBRANCH  10  11
ENDBRANCH   9  10
ENDBRANCH   8   9
ENDBRANCH   1   8
TORSDOF 8
ENDMDL
