MODEL 1
REMARK VINA RESULT:    -4.486      0.000      0.000
REMARK INTER + INTRA:          -4.783
REMARK INTER:                  -4.749
REMARK INTRA:                  -0.034
REMARK UNBOUND:                -0.034
REMARK SMILES COc1ccc2ccc(=O)oc2c1
REMARK SMILES IDX 3 1 13 2 12 3 6 4 5 5 4 6 7 7 8 8 9 9 10 10 11 11 2 12 1 13
REMARK H PARENT
REMARK Flexibility Score: inf
ROOT
ATOM      1  C   UNL     1     -45.931 -50.172  10.818  1.00  0.00     0.122 A 
ATOM      2  C   UNL     1     -46.099 -50.281   9.424  1.00  0.00     0.094 A 
ATOM      3  C   UNL     1     -46.001 -49.147   8.610  1.00  0.00     0.142 A 
ATOM      4  C   UNL     1     -45.732 -47.888   9.190  1.00  0.00     0.018 A 
ATOM      5  C   UNL     1     -45.565 -47.779  10.577  1.00  0.00     0.016 A 
ATOM      6  C   UNL     1     -45.664 -48.917  11.382  1.00  0.00     0.047 A 
ATOM      7  C   UNL     1     -45.641 -46.772   8.352  1.00  0.00     0.019 A 
ATOM      8  C   UNL     1     -45.815 -46.934   6.977  1.00  0.00     0.094 A 
ATOM      9  C   UNL     1     -46.079 -48.212   6.473  1.00  0.00     0.336 A 
ATOM     10  O   UNL     1     -46.239 -48.378   5.235  1.00  0.00    -0.246 OA
ATOM     11  O   UNL     1     -46.161 -49.256   7.294  1.00  0.00    -0.423 OA
ENDROOT
BRANCH   1  12
ATOM     12  O   UNL     1     -46.020 -51.280  11.674  1.00  0.00    -0.497 OA
ATOM     13  C   UNL     1     -45.190 -52.434  11.585  1.00  0.00     0.278 C 
ENDBRANCH   1  12
TORSDOF 1
ENDMDL
MODEL 2
REMARK VINA RESULT:    -4.429      1.881      4.752
REMARK INTER + INTRA:          -4.722
REMARK INTER:                  -4.685
REMARK INTRA:                  -0.036
REMARK UNBOUND:                -0.034
REMARK SMILES COc1ccc2ccc(=O)oc2c1
REMARK SMILES IDX 3 1 13 2 12 3 6 4 5 5 4 6 7 7 8 8 9 9 10 10 11 11 2 12 1 13
REMARK H PARENT
REMARK Flexibility Score: inf
ROOT
ATOM      1  C   UNL     1     -45.853 -48.678   9.263  1.00  0.00     0.122 A 
ATOM      2  C   UNL     1     -45.753 -49.930   8.623  1.00  0.00     0.094 A 
ATOM      3  C   UNL     1     -45.565 -51.094   9.377  1.00  0.00     0.142 A 
ATOM      4  C   UNL     1     -45.476 -51.014  10.784  1.00  0.00     0.018 A 
ATOM      5  C   UNL     1     -45.574 -49.769  11.420  1.00  0.00     0.016 A 
ATOM      6  C   UNL     1     -45.762 -48.611  10.660  1.00  0.00     0.047 A 
ATOM      7  C   UNL     1     -45.287 -52.194  11.509  1.00  0.00     0.019 A 
ATOM      8  C   UNL     1     -45.196 -53.408  10.828  1.00  0.00     0.094 A 
ATOM      9  C   UNL     1     -45.294 -53.411   9.432  1.00  0.00     0.336 A 
ATOM     10  O   UNL     1     -45.214 -54.497   8.799  1.00  0.00    -0.246 OA
ATOM     11  O   UNL     1     -45.473 -52.273   8.767  1.00  0.00    -0.423 OA
ENDROOT
BRANCH   1  12
ATOM     12  O   UNL     1     -46.041 -47.484   8.551  1.00  0.00    -0.497 OA
ATOM     13  C   UNL     1     -45.416 -46.247   8.875  1.00  0.00     0.278 C 
ENDBRANCH   1  12
TORSDOF 1
ENDMDL
MODEL 3
REMARK VINA RESULT:    -4.426      2.256      3.607
REMARK INTER + INTRA:          -4.719
REMARK INTER:                  -4.685
REMARK INTRA:                  -0.035
REMARK UNBOUND:                -0.034
REMARK SMILES COc1ccc2ccc(=O)oc2c1
REMARK SMILES IDX 3 1 13 2 12 3 6 4 5 5 4 6 7 7 8 8 9 9 10 10 11 11 2 12 1 13
REMARK H PARENT
REMARK Flexibility Score: inf
ROOT
ATOM      1  C   UNL     1     -45.420 -53.516   9.340  1.00  0.00     0.122 A 
ATOM      2  C   UNL     1     -45.658 -52.354   8.580  1.00  0.00     0.094 A 
ATOM      3  C   UNL     1     -45.673 -51.098   9.197  1.00  0.00     0.142 A 
ATOM      4  C   UNL     1     -45.449 -50.996  10.587  1.00  0.00     0.018 A 
ATOM      5  C   UNL     1     -45.213 -52.151  11.344  1.00  0.00     0.016 A 
ATOM      6  C   UNL     1     -45.199 -53.402  10.719  1.00  0.00     0.047 A 
ATOM      7  C   UNL     1     -45.471 -49.728  11.176  1.00  0.00     0.019 A 
ATOM      8  C   UNL     1     -45.710 -48.608  10.379  1.00  0.00     0.094 A 
ATOM      9  C   UNL     1     -45.924 -48.785   9.008  1.00  0.00     0.336 A 
ATOM     10  O   UNL     1     -46.141 -47.787   8.271  1.00  0.00    -0.246 OA
ATOM     11  O   UNL     1     -45.898 -50.004   8.474  1.00  0.00    -0.423 OA
ENDROOT
BRANCH   1  12
ATOM     12  O   UNL     1     -45.395 -54.796   8.767  1.00  0.00    -0.497 OA
ATOM     13  C   UNL     1     -44.530 -55.186   7.705  1.00  0.00     0.278 C 
ENDBRANCH   1  12
TORSDOF 1
ENDMDL
MODEL 4
REMARK VINA RESULT:    -4.411      2.141      5.627
REMARK INTER + INTRA:          -4.703
REMARK INTER:                  -4.665
REMARK INTRA:                  -0.038
REMARK UNBOUND:                -0.034
REMARK SMILES COc1ccc2ccc(=O)oc2c1
REMARK SMILES IDX 3 1 13 2 12 3 6 4 5 5 4 6 7 7 8 8 9 9 10 10 11 11 2 12 1 13
REMARK H PARENT
REMARK Flexibility Score: inf
ROOT
ATOM      1  C   UNL     1     -45.174 -49.934   8.899  1.00  0.00     0.122 A 
ATOM      2  C   UNL     1     -44.095 -50.824   9.066  1.00  0.00     0.094 A 
ATOM      3  C   UNL     1     -44.069 -51.707  10.151  1.00  0.00     0.142 A 
ATOM      4  C   UNL     1     -45.130 -51.705  11.083  1.00  0.00     0.018 A 
ATOM      5  C   UNL     1     -46.203 -50.819  10.918  1.00  0.00     0.016 A 
ATOM      6  C   UNL     1     -46.221 -49.941   9.831  1.00  0.00     0.047 A 
ATOM      7  C   UNL     1     -45.076 -52.598  12.158  1.00  0.00     0.019 A 
ATOM      8  C   UNL     1     -43.986 -53.459  12.277  1.00  0.00     0.094 A 
ATOM      9  C   UNL     1     -42.971 -53.405  11.316  1.00  0.00     0.336 A 
ATOM     10  O   UNL     1     -41.979 -54.175  11.406  1.00  0.00    -0.246 OA
ATOM     11  O   UNL     1     -43.047 -52.546  10.303  1.00  0.00    -0.423 OA
ENDROOT
BRANCH   1  12
ATOM     12  O   UNL     1     -45.244 -49.031   7.827  1.00  0.00    -0.497 OA
ATOM     13  C   UNL     1     -46.453 -48.479   7.318  1.00  0.00     0.278 C 
ENDBRANCH   1  12
TORSDOF 1
ENDMDL
MODEL 5
REMARK VINA RESULT:    -4.406      6.964      8.092
REMARK INTER + INTRA:          -4.698
REMARK INTER:                  -4.658
REMARK INTRA:                  -0.040
REMARK UNBOUND:                -0.034
REMARK SMILES COc1ccc2ccc(=O)oc2c1
REMARK SMILES IDX 3 1 13 2 12 3 6 4 5 5 4 6 7 7 8 8 9 9 10 10 11 11 2 12 1 13
REMARK H PARENT
REMARK Flexibility Score: inf
ROOT
ATOM      1  C   UNL     1     -45.866 -43.019  12.288  1.00  0.00     0.122 A 
ATOM      2  C   UNL     1     -44.908 -41.996  12.431  1.00  0.00     0.094 A 
ATOM      3  C   UNL     1     -44.357 -41.382  11.301  1.00  0.00     0.142 A 
ATOM      4  C   UNL     1     -44.764 -41.789  10.012  1.00  0.00     0.018 A 
ATOM      5  C   UNL     1     -45.716 -42.806   9.869  1.00  0.00     0.016 A 
ATOM      6  C   UNL     1     -46.262 -43.414  11.003  1.00  0.00     0.047 A 
ATOM      7  C   UNL     1     -44.195 -41.157   8.902  1.00  0.00     0.019 A 
ATOM      8  C   UNL     1     -43.251 -40.149   9.098  1.00  0.00     0.094 A 
ATOM      9  C   UNL     1     -42.896 -39.798  10.405  1.00  0.00     0.336 A 
ATOM     10  O   UNL     1     -42.046 -38.891  10.603  1.00  0.00    -0.246 OA
ATOM     11  O   UNL     1     -43.453 -40.416  11.443  1.00  0.00    -0.423 OA
ENDROOT
BRANCH   1  12
ATOM     12  O   UNL     1     -46.446 -43.665  13.390  1.00  0.00    -0.497 OA
ATOM     13  C   UNL     1     -47.323 -44.782  13.299  1.00  0.00     0.278 C 
ENDBRANCH   1  12
TORSDOF 1
ENDMDL
MODEL 6
REMARK VINA RESULT:    -4.399      2.238      3.352
REMARK INTER + INTRA:          -4.691
REMARK INTER:                  -4.652
REMARK INTRA:                  -0.039
REMARK UNBOUND:                -0.034
REMARK SMILES COc1ccc2ccc(=O)oc2c1
REMARK SMILES IDX 3 1 13 2 12 3 6 4 5 5 4 6 7 7 8 8 9 9 10 10 11 11 2 12 1 13
REMARK H PARENT
REMARK Flexibility Score: inf
ROOT
ATOM      1  C   UNL     1     -45.208 -52.710  10.979  1.00  0.00     0.122 A 
ATOM      2  C   UNL     1     -45.412 -51.380  11.399  1.00  0.00     0.094 A 
ATOM      3  C   UNL     1     -45.594 -50.362  10.456  1.00  0.00     0.142 A 
ATOM      4  C   UNL     1     -45.573 -50.670   9.078  1.00  0.00     0.018 A 
ATOM      5  C   UNL     1     -45.369 -51.991   8.660  1.00  0.00     0.016 A 
ATOM      6  C   UNL     1     -45.189 -53.002   9.608  1.00  0.00     0.047 A 
ATOM      7  C   UNL     1     -45.757 -49.631   8.160  1.00  0.00     0.019 A 
ATOM      8  C   UNL     1     -45.956 -48.332   8.627  1.00  0.00     0.094 A 
ATOM      9  C   UNL     1     -45.965 -48.102  10.007  1.00  0.00     0.336 A 
ATOM     10  O   UNL     1     -46.144 -46.937  10.449  1.00  0.00    -0.246 OA
ATOM     11  O   UNL     1     -45.787 -49.109  10.859  1.00  0.00    -0.423 OA
ENDROOT
BRANCH   1  12
ATOM     12  O   UNL     1     -45.021 -53.763  11.886  1.00  0.00    -0.497 OA
ATOM     13  C   UNL     1     -44.804 -53.593  13.283  1.00  0.00     0.278 C 
ENDBRANCH   1  12
TORSDOF 1
ENDMDL
MODEL 7
REMARK VINA RESULT:    -4.368      1.854      2.542
REMARK INTER + INTRA:          -4.657
REMARK INTER:                  -4.618
REMARK INTRA:                  -0.039
REMARK UNBOUND:                -0.034
REMARK SMILES COc1ccc2ccc(=O)oc2c1
REMARK SMILES IDX 3 1 13 2 12 3 6 4 5 5 4 6 7 7 8 8 9 9 10 10 11 11 2 12 1 13
REMARK H PARENT
REMARK Flexibility Score: inf
ROOT
ATOM      1  C   UNL     1     -45.154 -52.612  11.158  1.00  0.00     0.122 A 
ATOM      2  C   UNL     1     -44.848 -52.601   9.782  1.00  0.00     0.094 A 
ATOM      3  C   UNL     1     -45.137 -51.474   9.004  1.00  0.00     0.142 A 
ATOM      4  C   UNL     1     -45.737 -50.344   9.601  1.00  0.00     0.018 A 
ATOM      5  C   UNL     1     -46.042 -50.355  10.968  1.00  0.00     0.016 A 
ATOM      6  C   UNL     1     -45.750 -51.484  11.738  1.00  0.00     0.047 A 
ATOM      7  C   UNL     1     -46.014 -49.234   8.798  1.00  0.00     0.019 A 
ATOM      8  C   UNL     1     -45.691 -49.273   7.441  1.00  0.00     0.094 A 
ATOM      9  C   UNL     1     -45.098 -50.427   6.919  1.00  0.00     0.336 A 
ATOM     10  O   UNL     1     -44.798 -50.482   5.697  1.00  0.00    -0.246 OA
ATOM     11  O   UNL     1     -44.845 -51.470   7.706  1.00  0.00    -0.423 OA
ENDROOT
BRANCH   1  12
ATOM     12  O   UNL     1     -44.884 -53.718  11.978  1.00  0.00    -0.497 OA
ATOM     13  C   UNL     1     -44.828 -53.670  13.400  1.00  0.00     0.278 C 
ENDBRANCH   1  12
TORSDOF 1
ENDMDL
MODEL 8
REMARK VINA RESULT:    -4.353      2.198      5.174
REMARK INTER + INTRA:          -4.641
REMARK INTER:                  -4.604
REMARK INTRA:                  -0.037
REMARK UNBOUND:                -0.034
REMARK SMILES COc1ccc2ccc(=O)oc2c1
REMARK SMILES IDX 3 1 13 2 12 3 6 4 5 5 4 6 7 7 8 8 9 9 10 10 11 11 2 12 1 13
REMARK H PARENT
REMARK Flexibility Score: inf
ROOT
ATOM      1  C   UNL     1     -45.885 -48.451  10.114  1.00  0.00     0.122 A 
ATOM      2  C   UNL     1     -45.670 -49.429  11.105  1.00  0.00     0.094 A 
ATOM      3  C   UNL     1     -45.491 -50.770  10.747  1.00  0.00     0.142 A 
ATOM      4  C   UNL     1     -45.526 -51.144   9.385  1.00  0.00     0.018 A 
ATOM      5  C   UNL     1     -45.741 -50.172   8.400  1.00  0.00     0.016 A 
ATOM      6  C   UNL     1     -45.918 -48.835   8.766  1.00  0.00     0.047 A 
ATOM      7  C   UNL     1     -45.345 -52.491   9.058  1.00  0.00     0.019 A 
ATOM      8  C   UNL     1     -45.135 -53.420  10.077  1.00  0.00     0.094 A 
ATOM      9  C   UNL     1     -45.112 -52.978  11.404  1.00  0.00     0.336 A 
ATOM     10  O   UNL     1     -44.924 -53.801  12.338  1.00  0.00    -0.246 OA
ATOM     11  O   UNL     1     -45.288 -51.689  11.687  1.00  0.00    -0.423 OA
ENDROOT
BRANCH   1  12
ATOM     12  O   UNL     1     -46.069 -47.096  10.425  1.00  0.00    -0.497 OA
ATOM     13  C   UNL     1     -45.600 -46.016   9.624  1.00  0.00     0.278 C 
ENDBRANCH   1  12
TORSDOF 1
ENDMDL
MODEL 9
REMARK VINA RESULT:    -4.316      2.192      3.202
REMARK INTER + INTRA:          -4.603
REMARK INTER:                  -4.563
REMARK INTRA:                  -0.040
REMARK UNBOUND:                -0.034
REMARK SMILES COc1ccc2ccc(=O)oc2c1
REMARK SMILES IDX 3 1 13 2 12 3 6 4 5 5 4 6 7 7 8 8 9 9 10 10 11 11 2 12 1 13
REMARK H PARENT
REMARK Flexibility Score: inf
ROOT
ATOM      1  C   UNL     1     -45.731 -51.442   9.108  1.00  0.00     0.122 A 
ATOM      2  C   UNL     1     -45.753 -50.109   8.653  1.00  0.00     0.094 A 
ATOM      3  C   UNL     1     -45.771 -49.051   9.569  1.00  0.00     0.142 A 
ATOM      4  C   UNL     1     -45.767 -49.322  10.954  1.00  0.00     0.018 A 
ATOM      5  C   UNL     1     -45.746 -50.647  11.407  1.00  0.00     0.016 A 
ATOM      6  C   UNL     1     -45.728 -51.698  10.486  1.00  0.00     0.047 A 
ATOM      7  C   UNL     1     -45.786 -48.244  11.845  1.00  0.00     0.019 A 
ATOM      8  C   UNL     1     -45.807 -46.942  11.344  1.00  0.00     0.094 A 
ATOM      9  C   UNL     1     -45.809 -46.750   9.958  1.00  0.00     0.336 A 
ATOM     10  O   UNL     1     -45.827 -45.583   9.486  1.00  0.00    -0.246 OA
ATOM     11  O   UNL     1     -45.791 -47.794   9.133  1.00  0.00    -0.423 OA
ENDROOT
BRANCH   1  12
ATOM     12  O   UNL     1     -45.713 -52.535   8.228  1.00  0.00    -0.497 OA
ATOM     13  C   UNL     1     -45.837 -53.894   8.631  1.00  0.00     0.278 C 
ENDBRANCH   1  12
TORSDOF 1
ENDMDL
