MODEL 1
REMARK VINA RESULT:    -3.541      0.000      0.000
REMARK INTER + INTRA:         -11.004
REMARK INTER:                  -7.681
REMARK INTRA:                  -3.323
REMARK UNBOUND:                -3.323
REMARK SMILES CCCCCCCCCCCCCCCCCCCCCC(=O)[O-]
REMARK SMILES IDX 12 1 11 2 10 3 9 4 8 5 7 6 6 7 5 8 4 9 3 10 2 11 1 12 13 13
REMARK SMILES IDX 14 14 15 15 16 16 17 17 18 18 19 19 20 20 21 21 22 22 23 23
REMARK SMILES IDX 24 24
REMARK H PARENT
REMARK Flexibility Score: inf
ROOT
ATOM      1  C   UNL     1     -96.969 149.422 235.091  1.00  0.00     0.000 C 
ENDROOT
BRANCH   1   2
ATOM      2  C   UNL     1     -97.465 148.064 235.614  1.00  0.00     0.000 C 
BRANCH   2   3
ATOM      3  C   UNL     1     -98.643 148.245 236.583  1.00  0.00     0.000 C 
BRANCH   3   4
ATOM      4  C   UNL     1     -99.722 149.198 236.040  1.00  0.00    -0.000 C 
BRANCH   4   5
ATOM      5  C   UNL     1    -100.048 150.343 237.016  1.00  0.00    -0.000 C 
BRANCH   5   6
ATOM      6  C   UNL     1     -99.503 151.698 236.534  1.00  0.00    -0.000 C 
BRANCH   6   7
ATOM      7  C   UNL     1    -100.479 152.425 235.596  1.00  0.00    -0.000 C 
BRANCH   7   8
ATOM      8  C   UNL     1    -100.351 151.975 234.131  1.00  0.00    -0.000 C 
BRANCH   8   9
ATOM      9  C   UNL     1     -98.957 152.249 233.527  1.00  0.00    -0.000 C 
BRANCH   9  10
ATOM     10  C   UNL     1     -98.561 153.733 233.633  1.00  0.00    -0.000 C 
BRANCH  10  11
ATOM     11  C   UNL     1     -97.108 153.990 233.205  1.00  0.00    -0.003 C 
ATOM     12  C   UNL     1     -96.394 152.724 232.733  1.00  0.00     0.004 C 
ENDBRANCH  10  11
ENDBRANCH   9  10
ENDBRANCH   8   9
ENDBRANCH   7   8
ENDBRANCH   6   7
ENDBRANCH   5   6
ENDBRANCH   4   5
ENDBRANCH   3   4
ENDBRANCH   2   3
ENDBRANCH   1   2
BRANCH   1  13
ATOM     13  C   UNL     1     -95.436 149.487 234.951  1.00  0.00     0.000 C 
BRANCH  13  14
ATOM     14  C   UNL     1     -94.669 148.278 235.519  1.00  0.00     0.000 C 
BRANCH  14  15
ATOM     15  C   UNL     1     -94.036 148.471 236.912  1.00  0.00     0.000 C 
BRANCH  15  16
ATOM     16  C   UNL     1     -94.602 147.549 238.011  1.00  0.00     0.000 C 
BRANCH  16  17
ATOM     17  C   UNL     1     -95.631 148.244 238.918  1.00  0.00     0.000 C 
BRANCH  17  18
ATOM     18  C   UNL     1     -95.708 149.762 238.678  1.00  0.00     0.000 C 
BRANCH  18  19
ATOM     19  C   UNL     1     -97.040 150.399 239.148  1.00  0.00     0.000 C 
BRANCH  19  20
ATOM     20  C   UNL     1     -97.785 149.549 240.200  1.00  0.00     0.006 C 
BRANCH  20  21
ATOM     21  C   UNL     1     -99.143 150.142 240.617  1.00  0.00     0.053 C 
BRANCH  21  22
ATOM     22  C   UNL     1     -99.283 150.205 242.107  1.00  0.00     0.041 C 
ATOM     23  O   UNL     1     -98.750 151.145 242.752  1.00  0.00    -0.550 OA
ATOM     24  O   UNL     1     -99.954 149.196 242.787  1.00  0.00    -0.550 OA
ENDBRANCH  21  22
ENDBRANCH  20  21
ENDBRANCH  19  20
ENDBRANCH  18  19
ENDBRANCH  17  18
ENDBRANCH  16  17
ENDBRANCH  15  16
ENDBRANCH  14  15
ENDBRANCH  13  14
ENDBRANCH   1  13
TORSDOF 20
ENDMDL
MODEL 2
REMARK VINA RESULT:    -3.442      4.025      6.817
REMARK INTER + INTRA:         -10.790
REMARK INTER:                  -8.405
REMARK INTRA:                  -2.385
REMARK UNBOUND:                -3.323
REMARK SMILES CCCCCCCCCCCCCCCCCCCCCC(=O)[O-]
REMARK SMILES IDX 12 1 11 2 10 3 9 4 8 5 7 6 6 7 5 8 4 9 3 10 2 11 1 12 13 13
REMARK SMILES IDX 14 14 15 15 16 16 17 17 18 18 19 19 20 20 21 21 22 22 23 23
REMARK SMILES IDX 24 24
REMARK H PARENT
REMARK Flexibility Score: inf
ROOT
ATOM      1  C   UNL     1     -93.830 147.415 235.644  1.00  0.00     0.000 C 
ENDROOT
BRANCH   1   2
ATOM      2  C   UNL     1     -93.819 148.058 237.040  1.00  0.00     0.000 C 
BRANCH   2   3
ATOM      3  C   UNL     1     -94.674 147.248 238.026  1.00  0.00     0.000 C 
BRANCH   3   4
ATOM      4  C   UNL     1     -95.448 148.137 239.015  1.00  0.00    -0.000 C 
BRANCH   4   5
ATOM      5  C   UNL     1     -95.703 149.553 238.467  1.00  0.00    -0.000 C 
BRANCH   5   6
ATOM      6  C   UNL     1     -96.807 150.291 239.241  1.00  0.00    -0.000 C 
BRANCH   6   7
ATOM      7  C   UNL     1     -98.156 150.273 238.505  1.00  0.00    -0.000 C 
BRANCH   7   8
ATOM      8  C   UNL     1     -98.127 149.426 237.222  1.00  0.00    -0.000 C 
BRANCH   8   9
ATOM      9  C   UNL     1     -99.144 149.891 236.158  1.00  0.00    -0.000 C 
BRANCH   9  10
ATOM     10  C   UNL     1    -100.055 151.017 236.681  1.00  0.00    -0.000 C 
BRANCH  10  11
ATOM     11  C   UNL     1     -99.894 152.324 235.889  1.00  0.00    -0.003 C 
ATOM     12  C   UNL     1     -99.963 152.116 234.377  1.00  0.00     0.004 C 
ENDBRANCH  10  11
ENDBRANCH   9  10
ENDBRANCH   8   9
ENDBRANCH   7   8
ENDBRANCH   6   7
ENDBRANCH   5   6
ENDBRANCH   4   5
ENDBRANCH   3   4
ENDBRANCH   2   3
ENDBRANCH   1   2
BRANCH   1  13
ATOM     13  C   UNL     1     -94.988 147.918 234.761  1.00  0.00     0.000 C 
BRANCH  13  14
ATOM     14  C   UNL     1     -95.311 149.420 234.888  1.00  0.00     0.000 C 
BRANCH  14  15
ATOM     15  C   UNL     1     -96.211 150.015 233.786  1.00  0.00     0.000 C 
BRANCH  15  16
ATOM     16  C   UNL     1     -95.519 150.201 232.420  1.00  0.00     0.000 C 
BRANCH  16  17
ATOM     17  C   UNL     1     -95.748 151.592 231.806  1.00  0.00     0.000 C 
BRANCH  17  18
ATOM     18  C   UNL     1     -96.127 152.652 232.855  1.00  0.00     0.000 C 
BRANCH  18  19
ATOM     19  C   UNL     1     -97.312 153.552 232.428  1.00  0.00     0.000 C 
BRANCH  19  20
ATOM     20  C   UNL     1     -97.491 154.794 233.328  1.00  0.00     0.006 C 
BRANCH  20  21
ATOM     21  C   UNL     1     -98.708 155.657 232.949  1.00  0.00     0.053 C 
BRANCH  21  22
ATOM     22  C   UNL     1     -98.368 156.654 231.885  1.00  0.00     0.041 C 
ATOM     23  O   UNL     1     -98.724 156.455 230.694  1.00  0.00    -0.550 OA
ATOM     24  O   UNL     1     -97.610 157.776 232.199  1.00  0.00    -0.550 OA
ENDBRANCH  21  22
ENDBRANCH  20  21
ENDBRANCH  19  20
ENDBRANCH  18  19
ENDBRANCH  17  18
ENDBRANCH  16  17
ENDBRANCH  15  16
ENDBRANCH  14  15
ENDBRANCH  13  14
ENDBRANCH   1  13
TORSDOF 20
ENDMDL
MODEL 3
REMARK VINA RESULT:    -3.411      3.220      6.701
REMARK INTER + INTRA:         -10.723
REMARK INTER:                  -7.377
REMARK INTRA:                  -3.347
REMARK UNBOUND:                -3.323
REMARK SMILES CCCCCCCCCCCCCCCCCCCCCC(=O)[O-]
REMARK SMILES IDX 12 1 11 2 10 3 9 4 8 5 7 6 6 7 5 8 4 9 3 10 2 11 1 12 13 13
REMARK SMILES IDX 14 14 15 15 16 16 17 17 18 18 19 19 20 20 21 21 22 22 23 23
REMARK SMILES IDX 24 24
REMARK H PARENT
REMARK Flexibility Score: inf
ROOT
ATOM      1  C   UNL     1     -96.722 149.228 235.100  1.00  0.00     0.000 C 
ENDROOT
BRANCH   1   2
ATOM      2  C   UNL     1     -95.286 149.509 235.570  1.00  0.00     0.000 C 
BRANCH   2   3
ATOM      3  C   UNL     1     -94.451 148.219 235.589  1.00  0.00     0.000 C 
BRANCH   3   4
ATOM      4  C   UNL     1     -93.715 148.004 236.922  1.00  0.00    -0.000 C 
BRANCH   4   5
ATOM      5  C   UNL     1     -94.381 148.746 238.095  1.00  0.00    -0.000 C 
BRANCH   5   6
ATOM      6  C   UNL     1     -95.441 147.889 238.806  1.00  0.00    -0.000 C 
BRANCH   6   7
ATOM      7  C   UNL     1     -96.795 148.608 238.926  1.00  0.00    -0.000 C 
BRANCH   7   8
ATOM      8  C   UNL     1     -96.654 150.134 239.049  1.00  0.00    -0.000 C 
BRANCH   8   9
ATOM      9  C   UNL     1     -98.009 150.875 239.065  1.00  0.00    -0.000 C 
BRANCH   9  10
ATOM     10  C   UNL     1     -98.869 150.534 237.834  1.00  0.00    -0.000 C 
BRANCH  10  11
ATOM     11  C   UNL     1    -100.370 150.477 238.158  1.00  0.00    -0.003 C 
ATOM     12  C   UNL     1    -100.671 149.717 239.449  1.00  0.00     0.004 C 
ENDBRANCH  10  11
ENDBRANCH   9  10
ENDBRANCH   8   9
ENDBRANCH   7   8
ENDBRANCH   6   7
ENDBRANCH   5   6
ENDBRANCH   4   5
ENDBRANCH   3   4
ENDBRANCH   2   3
ENDBRANCH   1   2
BRANCH   1  13
ATOM     13  C   UNL     1     -97.001 147.728 234.883  1.00  0.00     0.000 C 
BRANCH  13  14
ATOM     14  C   UNL     1     -97.698 147.372 233.556  1.00  0.00     0.000 C 
BRANCH  14  15
ATOM     15  C   UNL     1     -97.077 147.977 232.281  1.00  0.00     0.000 C 
BRANCH  15  16
ATOM     16  C   UNL     1     -95.579 147.670 232.085  1.00  0.00     0.000 C 
BRANCH  16  17
ATOM     17  C   UNL     1     -94.711 148.932 231.948  1.00  0.00     0.000 C 
BRANCH  17  18
ATOM     18  C   UNL     1     -95.484 150.126 231.360  1.00  0.00     0.000 C 
BRANCH  18  19
ATOM     19  C   UNL     1     -95.460 151.385 232.262  1.00  0.00     0.000 C 
BRANCH  19  20
ATOM     20  C   UNL     1     -96.850 152.034 232.441  1.00  0.00     0.006 C 
BRANCH  20  21
ATOM     21  C   UNL     1     -96.790 153.476 232.977  1.00  0.00     0.053 C 
BRANCH  21  22
ATOM     22  C   UNL     1     -98.119 153.925 233.499  1.00  0.00     0.041 C 
ATOM     23  O   UNL     1     -98.914 153.092 234.008  1.00  0.00    -0.550 OA
ATOM     24  O   UNL     1     -98.503 155.256 233.374  1.00  0.00    -0.550 OA
ENDBRANCH  21  22
ENDBRANCH  20  21
ENDBRANCH  19  20
ENDBRANCH  18  19
ENDBRANCH  17  18
ENDBRANCH  16  17
ENDBRANCH  15  16
ENDBRANCH  14  15
ENDBRANCH  13  14
ENDBRANCH   1  13
TORSDOF 20
ENDMDL
MODEL 4
REMARK VINA RESULT:    -3.400      3.322      6.776
REMARK INTER + INTRA:         -10.698
REMARK INTER:                  -7.819
REMARK INTRA:                  -2.879
REMARK UNBOUND:                -3.323
REMARK SMILES CCCCCCCCCCCCCCCCCCCCCC(=O)[O-]
REMARK SMILES IDX 12 1 11 2 10 3 9 4 8 5 7 6 6 7 5 8 4 9 3 10 2 11 1 12 13 13
REMARK SMILES IDX 14 14 15 15 16 16 17 17 18 18 19 19 20 20 21 21 22 22 23 23
REMARK SMILES IDX 24 24
REMARK H PARENT
REMARK Flexibility Score: inf
ROOT
ATOM      1  C   UNL     1     -94.451 148.751 237.984  1.00  0.00     0.000 C 
ENDROOT
BRANCH   1   2
ATOM      2  C   UNL     1     -95.326 147.984 238.988  1.00  0.00     0.000 C 
BRANCH   2   3
ATOM      3  C   UNL     1     -96.703 148.648 239.137  1.00  0.00     0.000 C 
BRANCH   3   4
ATOM      4  C   UNL     1     -96.644 150.180 239.021  1.00  0.00    -0.000 C 
BRANCH   4   5
ATOM      5  C   UNL     1     -98.018 150.807 238.722  1.00  0.00    -0.000 C 
BRANCH   5   6
ATOM      6  C   UNL     1     -99.122 149.750 238.557  1.00  0.00    -0.000 C 
BRANCH   6   7
ATOM      7  C   UNL     1    -100.487 150.239 239.064  1.00  0.00    -0.000 C 
BRANCH   7   8
ATOM      8  C   UNL     1    -100.591 150.242 240.598  1.00  0.00    -0.000 C 
BRANCH   8   9
ATOM      9  C   UNL     1     -99.733 149.149 241.272  1.00  0.00    -0.000 C 
BRANCH   9  10
ATOM     10  C   UNL     1     -98.764 149.736 242.315  1.00  0.00    -0.000 C 
BRANCH  10  11
ATOM     11  C   UNL     1     -99.045 151.215 242.618  1.00  0.00    -0.003 C 
ATOM     12  C   UNL     1     -98.592 151.633 244.016  1.00  0.00     0.004 C 
ENDBRANCH  10  11
ENDBRANCH   9  10
ENDBRANCH   8   9
ENDBRANCH   7   8
ENDBRANCH   6   7
ENDBRANCH   5   6
ENDBRANCH   4   5
ENDBRANCH   3   4
ENDBRANCH   2   3
ENDBRANCH   1   2
BRANCH   1  13
ATOM     13  C   UNL     1     -93.940 147.864 236.832  1.00  0.00     0.000 C 
BRANCH  13  14
ATOM     14  C   UNL     1     -94.672 148.042 235.487  1.00  0.00     0.000 C 
BRANCH  14  15
ATOM     15  C   UNL     1     -95.180 149.464 235.176  1.00  0.00     0.000 C 
BRANCH  15  16
ATOM     16  C   UNL     1     -96.470 149.517 234.332  1.00  0.00     0.000 C 
BRANCH  16  17
ATOM     17  C   UNL     1     -97.743 149.705 235.175  1.00  0.00     0.000 C 
BRANCH  17  18
ATOM     18  C   UNL     1     -98.900 150.329 234.375  1.00  0.00     0.000 C 
BRANCH  18  19
ATOM     19  C   UNL     1     -99.266 151.763 234.830  1.00  0.00     0.000 C 
BRANCH  19  20
ATOM     20  C   UNL     1     -99.499 152.736 233.654  1.00  0.00     0.006 C 
BRANCH  20  21
ATOM     21  C   UNL     1     -98.442 152.620 232.541  1.00  0.00     0.053 C 
BRANCH  21  22
ATOM     22  C   UNL     1     -97.166 153.307 232.918  1.00  0.00     0.041 C 
ATOM     23  O   UNL     1     -96.083 152.667 232.929  1.00  0.00    -0.550 OA
ATOM     24  O   UNL     1     -97.183 154.640 233.311  1.00  0.00    -0.550 OA
ENDBRANCH  21  22
ENDBRANCH  20  21
ENDBRANCH  19  20
ENDBRANCH  18  19
ENDBRANCH  17  18
ENDBRANCH  16  17
ENDBRANCH  15  16
ENDBRANCH  14  15
ENDBRANCH  13  14
ENDBRANCH   1  13
TORSDOF 20
ENDMDL
MODEL 5
REMARK VINA RESULT:    -3.365      3.379      6.697
REMARK INTER + INTRA:         -10.623
REMARK INTER:                  -7.646
REMARK INTRA:                  -2.976
REMARK UNBOUND:                -3.323
REMARK SMILES CCCCCCCCCCCCCCCCCCCCCC(=O)[O-]
REMARK SMILES IDX 12 1 11 2 10 3 9 4 8 5 7 6 6 7 5 8 4 9 3 10 2 11 1 12 13 13
REMARK SMILES IDX 14 14 15 15 16 16 17 17 18 18 19 19 20 20 21 21 22 22 23 23
REMARK SMILES IDX 24 24
REMARK H PARENT
REMARK Flexibility Score: inf
ROOT
ATOM      1  C   UNL     1     -97.225 148.502 235.458  1.00  0.00     0.000 C 
ENDROOT
BRANCH   1   2
ATOM      2  C   UNL     1     -98.658 148.966 235.153  1.00  0.00     0.000 C 
BRANCH   2   3
ATOM      3  C   UNL     1     -98.726 150.496 235.028  1.00  0.00     0.000 C 
BRANCH   3   4
ATOM      4  C   UNL     1     -99.461 151.159 236.205  1.00  0.00    -0.000 C 
BRANCH   4   5
ATOM      5  C   UNL     1    -100.074 150.134 237.176  1.00  0.00    -0.000 C 
BRANCH   5   6
ATOM      6  C   UNL     1     -99.633 150.367 238.631  1.00  0.00    -0.000 C 
BRANCH   6   7
ATOM      7  C   UNL     1     -98.152 150.764 238.741  1.00  0.00    -0.000 C 
BRANCH   7   8
ATOM      8  C   UNL     1     -97.230 149.566 239.022  1.00  0.00    -0.000 C 
BRANCH   8   9
ATOM      9  C   UNL     1     -95.765 149.810 238.603  1.00  0.00    -0.000 C 
BRANCH   9  10
ATOM     10  C   UNL     1     -94.974 148.495 238.472  1.00  0.00    -0.000 C 
BRANCH  10  11
ATOM     11  C   UNL     1     -93.885 148.564 237.391  1.00  0.00    -0.003 C 
ATOM     12  C   UNL     1     -93.645 147.222 236.701  1.00  0.00     0.004 C 
ENDBRANCH  10  11
ENDBRANCH   9  10
ENDBRANCH   8   9
ENDBRANCH   7   8
ENDBRANCH   6   7
ENDBRANCH   5   6
ENDBRANCH   4   5
ENDBRANCH   3   4
ENDBRANCH   2   3
ENDBRANCH   1   2
BRANCH   1  13
ATOM     13  C   UNL     1     -96.152 149.430 234.857  1.00  0.00     0.000 C 
BRANCH  13  14
ATOM     14  C   UNL     1     -95.433 148.886 233.608  1.00  0.00     0.000 C 
BRANCH  14  15
ATOM     15  C   UNL     1     -95.389 149.828 232.388  1.00  0.00     0.000 C 
BRANCH  15  16
ATOM     16  C   UNL     1     -95.715 151.302 232.700  1.00  0.00     0.000 C 
BRANCH  16  17
ATOM     17  C   UNL     1     -95.846 152.177 231.441  1.00  0.00     0.000 C 
BRANCH  17  18
ATOM     18  C   UNL     1     -97.120 153.040 231.446  1.00  0.00     0.000 C 
BRANCH  18  19
ATOM     19  C   UNL     1     -97.727 153.244 232.856  1.00  0.00     0.000 C 
BRANCH  19  20
ATOM     20  C   UNL     1     -97.323 154.584 233.507  1.00  0.00     0.006 C 
BRANCH  20  21
ATOM     21  C   UNL     1     -98.141 155.785 233.000  1.00  0.00     0.053 C 
BRANCH  21  22
ATOM     22  C   UNL     1     -99.606 155.476 232.957  1.00  0.00     0.041 C 
ATOM     23  O   UNL     1    -100.232 155.533 231.867  1.00  0.00    -0.550 OA
ATOM     24  O   UNL     1    -100.289 155.178 234.130  1.00  0.00    -0.550 OA
ENDBRANCH  21  22
ENDBRANCH  20  21
ENDBRANCH  19  20
ENDBRANCH  18  19
ENDBRANCH  17  18
ENDBRANCH  16  17
ENDBRANCH  15  16
ENDBRANCH  14  15
ENDBRANCH  13  14
ENDBRANCH   1  13
TORSDOF 20
ENDMDL
MODEL 6
REMARK VINA RESULT:    -3.349      3.299      6.909
REMARK INTER + INTRA:         -10.589
REMARK INTER:                  -7.163
REMARK INTRA:                  -3.425
REMARK UNBOUND:                -3.323
REMARK SMILES CCCCCCCCCCCCCCCCCCCCCC(=O)[O-]
REMARK SMILES IDX 12 1 11 2 10 3 9 4 8 5 7 6 6 7 5 8 4 9 3 10 2 11 1 12 13 13
REMARK SMILES IDX 14 14 15 15 16 16 17 17 18 18 19 19 20 20 21 21 22 22 23 23
REMARK SMILES IDX 24 24
REMARK H PARENT
REMARK Flexibility Score: inf
ROOT
ATOM      1  C   UNL     1     -98.781 149.074 233.435  1.00  0.00     0.000 C 
ENDROOT
BRANCH   1   2
ATOM      2  C   UNL     1     -98.035 149.751 234.596  1.00  0.00     0.000 C 
BRANCH   2   3
ATOM      3  C   UNL     1     -97.111 148.754 235.312  1.00  0.00     0.000 C 
BRANCH   3   4
ATOM      4  C   UNL     1     -95.684 149.295 235.505  1.00  0.00    -0.000 C 
BRANCH   4   5
ATOM      5  C   UNL     1     -94.673 148.190 235.862  1.00  0.00    -0.000 C 
BRANCH   5   6
ATOM      6  C   UNL     1     -93.900 148.496 237.154  1.00  0.00    -0.000 C 
BRANCH   6   7
ATOM      7  C   UNL     1     -94.797 149.096 238.249  1.00  0.00    -0.000 C 
BRANCH   7   8
ATOM      8  C   UNL     1     -95.748 148.064 238.877  1.00  0.00    -0.000 C 
BRANCH   8   9
ATOM      9  C   UNL     1     -96.974 148.700 239.565  1.00  0.00    -0.000 C 
BRANCH   9  10
ATOM     10  C   UNL     1     -97.052 150.219 239.321  1.00  0.00    -0.000 C 
BRANCH  10  11
ATOM     11  C   UNL     1     -98.271 150.621 238.478  1.00  0.00    -0.003 C 
ATOM     12  C   UNL     1     -99.245 149.465 238.250  1.00  0.00     0.004 C 
ENDBRANCH  10  11
ENDBRANCH   9  10
ENDBRANCH   8   9
ENDBRANCH   7   8
ENDBRANCH   6   7
ENDBRANCH   5   6
ENDBRANCH   4   5
ENDBRANCH   3   4
ENDBRANCH   2   3
ENDBRANCH   1   2
BRANCH   1  13
ATOM     13  C   UNL     1     -98.907 149.979 232.194  1.00  0.00     0.000 C 
BRANCH  13  14
ATOM     14  C   UNL     1     -98.429 149.353 230.870  1.00  0.00     0.000 C 
BRANCH  14  15
ATOM     15  C   UNL     1     -97.026 149.775 230.388  1.00  0.00     0.000 C 
BRANCH  15  16
ATOM     16  C   UNL     1     -95.858 149.145 231.173  1.00  0.00     0.000 C 
BRANCH  16  17
ATOM     17  C   UNL     1     -95.135 150.141 232.096  1.00  0.00     0.000 C 
BRANCH  17  18
ATOM     18  C   UNL     1     -95.418 151.608 231.726  1.00  0.00     0.000 C 
BRANCH  18  19
ATOM     19  C   UNL     1     -96.146 152.400 232.840  1.00  0.00     0.000 C 
BRANCH  19  20
ATOM     20  C   UNL     1     -97.252 153.334 232.303  1.00  0.00     0.006 C 
BRANCH  20  21
ATOM     21  C   UNL     1     -97.730 154.375 233.331  1.00  0.00     0.053 C 
BRANCH  21  22
ATOM     22  C   UNL     1     -99.141 154.118 233.762  1.00  0.00     0.041 C 
ATOM     23  O   UNL     1     -99.445 153.027 234.311  1.00  0.00    -0.550 OA
ATOM     24  O   UNL     1    -100.130 155.061 233.506  1.00  0.00    -0.550 OA
ENDBRANCH  21  22
ENDBRANCH  20  21
ENDBRANCH  19  20
ENDBRANCH  18  19
ENDBRANCH  17  18
ENDBRANCH  16  17
ENDBRANCH  15  16
ENDBRANCH  14  15
ENDBRANCH  13  14
ENDBRANCH   1  13
TORSDOF 20
ENDMDL
MODEL 7
REMARK VINA RESULT:    -3.326      3.762      6.582
REMARK INTER + INTRA:         -10.537
REMARK INTER:                  -7.687
REMARK INTRA:                  -2.850
REMARK UNBOUND:                -3.323
REMARK SMILES CCCCCCCCCCCCCCCCCCCCCC(=O)[O-]
REMARK SMILES IDX 12 1 11 2 10 3 9 4 8 5 7 6 6 7 5 8 4 9 3 10 2 11 1 12 13 13
REMARK SMILES IDX 14 14 15 15 16 16 17 17 18 18 19 19 20 20 21 21 22 22 23 23
REMARK SMILES IDX 24 24
REMARK H PARENT
REMARK Flexibility Score: inf
ROOT
ATOM      1  C   UNL     1     -94.929 147.537 235.074  1.00  0.00     0.000 C 
ENDROOT
BRANCH   1   2
ATOM      2  C   UNL     1     -94.640 148.915 235.691  1.00  0.00     0.000 C 
BRANCH   2   3
ATOM      3  C   UNL     1     -94.340 148.794 237.192  1.00  0.00     0.000 C 
BRANCH   3   4
ATOM      4  C   UNL     1     -95.223 147.750 237.896  1.00  0.00    -0.000 C 
BRANCH   4   5
ATOM      5  C   UNL     1     -96.151 148.373 238.955  1.00  0.00    -0.000 C 
BRANCH   5   6
ATOM      6  C   UNL     1     -96.081 149.908 238.965  1.00  0.00    -0.000 C 
BRANCH   6   7
ATOM      7  C   UNL     1     -97.470 150.560 239.062  1.00  0.00    -0.000 C 
BRANCH   7   8
ATOM      8  C   UNL     1     -98.590 149.670 238.497  1.00  0.00    -0.000 C 
BRANCH   8   9
ATOM      9  C   UNL     1     -99.041 150.081 237.079  1.00  0.00    -0.000 C 
BRANCH   9  10
ATOM     10  C   UNL     1     -98.407 149.195 235.991  1.00  0.00    -0.000 C 
BRANCH  10  11
ATOM     11  C   UNL     1     -97.942 150.001 234.768  1.00  0.00    -0.003 C 
ATOM     12  C   UNL     1     -98.834 149.794 233.545  1.00  0.00     0.004 C 
ENDBRANCH  10  11
ENDBRANCH   9  10
ENDBRANCH   8   9
ENDBRANCH   7   8
ENDBRANCH   6   7
ENDBRANCH   5   6
ENDBRANCH   4   5
ENDBRANCH   3   4
ENDBRANCH   2   3
ENDBRANCH   1   2
BRANCH   1  13
ATOM     13  C   UNL     1     -93.885 147.121 234.019  1.00  0.00     0.000 C 
BRANCH  13  14
ATOM     14  C   UNL     1     -94.344 147.242 232.553  1.00  0.00     0.000 C 
BRANCH  14  15
ATOM     15  C   UNL     1     -94.067 148.595 231.867  1.00  0.00     0.000 C 
BRANCH  15  16
ATOM     16  C   UNL     1     -95.328 149.416 231.528  1.00  0.00     0.000 C 
BRANCH  16  17
ATOM     17  C   UNL     1     -95.435 150.726 232.328  1.00  0.00     0.000 C 
BRANCH  17  18
ATOM     18  C   UNL     1     -95.736 151.944 231.439  1.00  0.00     0.000 C 
BRANCH  18  19
ATOM     19  C   UNL     1     -97.009 152.720 231.858  1.00  0.00     0.000 C 
BRANCH  19  20
ATOM     20  C   UNL     1     -96.792 153.632 233.085  1.00  0.00     0.006 C 
BRANCH  20  21
ATOM     21  C   UNL     1     -98.054 154.408 233.505  1.00  0.00     0.053 C 
BRANCH  21  22
ATOM     22  C   UNL     1     -98.175 155.705 232.767  1.00  0.00     0.041 C 
ATOM     23  O   UNL     1     -97.511 156.708 233.139  1.00  0.00    -0.550 OA
ATOM     24  O   UNL     1     -99.061 155.821 231.703  1.00  0.00    -0.550 OA
ENDBRANCH  21  22
ENDBRANCH  20  21
ENDBRANCH  19  20
ENDBRANCH  18  19
ENDBRANCH  17  18
ENDBRANCH  16  17
ENDBRANCH  15  16
ENDBRANCH  14  15
ENDBRANCH  13  14
ENDBRANCH   1  13
TORSDOF 20
ENDMDL
MODEL 8
REMARK VINA RESULT:    -3.324      1.587      3.264
REMARK INTER + INTRA:         -10.534
REMARK INTER:                  -7.422
REMARK INTRA:                  -3.112
REMARK UNBOUND:                -3.323
REMARK SMILES CCCCCCCCCCCCCCCCCCCCCC(=O)[O-]
REMARK SMILES IDX 12 1 11 2 10 3 9 4 8 5 7 6 6 7 5 8 4 9 3 10 2 11 1 12 13 13
REMARK SMILES IDX 14 14 15 15 16 16 17 17 18 18 19 19 20 20 21 21 22 22 23 23
REMARK SMILES IDX 24 24
REMARK H PARENT
REMARK Flexibility Score: inf
ROOT
ATOM      1  C   UNL     1     -96.998 147.774 234.994  1.00  0.00     0.000 C 
ENDROOT
BRANCH   1   2
ATOM      2  C   UNL     1     -97.345 149.242 235.293  1.00  0.00     0.000 C 
BRANCH   2   3
ATOM      3  C   UNL     1     -97.792 149.972 234.017  1.00  0.00     0.000 C 
BRANCH   3   4
ATOM      4  C   UNL     1     -96.705 149.994 232.929  1.00  0.00    -0.000 C 
BRANCH   4   5
ATOM      5  C   UNL     1     -95.732 151.176 233.085  1.00  0.00    -0.000 C 
BRANCH   5   6
ATOM      6  C   UNL     1     -95.698 152.077 231.839  1.00  0.00    -0.000 C 
BRANCH   6   7
ATOM      7  C   UNL     1     -96.899 153.033 231.770  1.00  0.00    -0.000 C 
BRANCH   7   8
ATOM      8  C   UNL     1     -97.215 153.696 233.121  1.00  0.00    -0.000 C 
BRANCH   8   9
ATOM      9  C   UNL     1     -98.652 154.254 233.208  1.00  0.00    -0.000 C 
BRANCH   9  10
ATOM     10  C   UNL     1     -99.681 153.156 233.536  1.00  0.00    -0.000 C 
BRANCH  10  11
ATOM     11  C   UNL     1    -100.329 153.346 234.916  1.00  0.00    -0.003 C 
ATOM     12  C   UNL     1     -99.913 152.274 235.921  1.00  0.00     0.004 C 
ENDBRANCH  10  11
ENDBRANCH   9  10
ENDBRANCH   8   9
ENDBRANCH   7   8
ENDBRANCH   6   7
ENDBRANCH   5   6
ENDBRANCH   4   5
ENDBRANCH   3   4
ENDBRANCH   2   3
ENDBRANCH   1   2
BRANCH   1  13
ATOM     13  C   UNL     1     -95.511 147.448 235.232  1.00  0.00     0.000 C 
BRANCH  13  14
ATOM     14  C   UNL     1     -94.641 148.634 235.692  1.00  0.00     0.000 C 
BRANCH  14  15
ATOM     15  C   UNL     1     -93.978 148.490 237.077  1.00  0.00     0.000 C 
BRANCH  15  16
ATOM     16  C   UNL     1     -94.188 147.120 237.752  1.00  0.00     0.000 C 
BRANCH  16  17
ATOM     17  C   UNL     1     -94.983 147.203 239.066  1.00  0.00     0.000 C 
BRANCH  17  18
ATOM     18  C   UNL     1     -96.468 147.538 238.843  1.00  0.00     0.000 C 
BRANCH  18  19
ATOM     19  C   UNL     1     -96.962 148.752 239.667  1.00  0.00     0.000 C 
BRANCH  19  20
ATOM     20  C   UNL     1     -96.895 150.085 238.890  1.00  0.00     0.006 C 
BRANCH  20  21
ATOM     21  C   UNL     1     -98.189 150.915 238.980  1.00  0.00     0.053 C 
BRANCH  21  22
ATOM     22  C   UNL     1     -99.404 150.040 238.993  1.00  0.00     0.041 C 
ATOM     23  O   UNL     1     -99.713 149.370 237.974  1.00  0.00    -0.550 OA
ATOM     24  O   UNL     1    -100.227 150.009 240.113  1.00  0.00    -0.550 OA
ENDBRANCH  21  22
ENDBRANCH  20  21
ENDBRANCH  19  20
ENDBRANCH  18  19
ENDBRANCH  17  18
ENDBRANCH  16  17
ENDBRANCH  15  16
ENDBRANCH  14  15
ENDBRANCH  13  14
ENDBRANCH   1  13
TORSDOF 20
ENDMDL
MODEL 9
REMARK VINA RESULT:    -3.273      1.129      2.404
REMARK INTER + INTRA:         -10.423
REMARK INTER:                  -7.056
REMARK INTRA:                  -3.366
REMARK UNBOUND:                -3.323
REMARK SMILES CCCCCCCCCCCCCCCCCCCCCC(=O)[O-]
REMARK SMILES IDX 12 1 11 2 10 3 9 4 8 5 7 6 6 7 5 8 4 9 3 10 2 11 1 12 13 13
REMARK SMILES IDX 14 14 15 15 16 16 17 17 18 18 19 19 20 20 21 21 22 22 23 23
REMARK SMILES IDX 24 24
REMARK H PARENT
REMARK Flexibility Score: inf
ROOT
ATOM      1  C   UNL     1     -97.991 149.862 235.457  1.00  0.00     0.000 C 
ENDROOT
BRANCH   1   2
ATOM      2  C   UNL     1     -99.446 149.554 235.847  1.00  0.00     0.000 C 
BRANCH   2   3
ATOM      3  C   UNL     1    -100.162 150.820 236.342  1.00  0.00     0.000 C 
BRANCH   3   4
ATOM      4  C   UNL     1     -99.466 152.115 235.892  1.00  0.00    -0.000 C 
BRANCH   4   5
ATOM      5  C   UNL     1    -100.177 152.790 234.704  1.00  0.00    -0.000 C 
BRANCH   5   6
ATOM      6  C   UNL     1     -99.373 152.678 233.399  1.00  0.00    -0.000 C 
BRANCH   6   7
ATOM      7  C   UNL     1     -98.611 153.970 233.063  1.00  0.00    -0.000 C 
BRANCH   7   8
ATOM      8  C   UNL     1     -97.085 153.785 233.076  1.00  0.00    -0.000 C 
BRANCH   8   9
ATOM      9  C   UNL     1     -96.647 152.305 233.066  1.00  0.00    -0.000 C 
BRANCH   9  10
ATOM     10  C   UNL     1     -95.634 152.008 231.945  1.00  0.00    -0.000 C 
BRANCH  10  11
ATOM     11  C   UNL     1     -96.277 151.315 230.735  1.00  0.00    -0.003 C 
ATOM     12  C   UNL     1     -97.265 150.219 231.132  1.00  0.00     0.004 C 
ENDBRANCH  10  11
ENDBRANCH   9  10
ENDBRANCH   8   9
ENDBRANCH   7   8
ENDBRANCH   6   7
ENDBRANCH   5   6
ENDBRANCH   4   5
ENDBRANCH   3   4
ENDBRANCH   2   3
ENDBRANCH   1   2
BRANCH   1  13
ATOM     13  C   UNL     1     -97.380 148.795 234.529  1.00  0.00     0.000 C 
BRANCH  13  14
ATOM     14  C   UNL     1     -95.842 148.702 234.553  1.00  0.00     0.000 C 
BRANCH  14  15
ATOM     15  C   UNL     1     -95.135 149.462 235.694  1.00  0.00     0.000 C 
BRANCH  15  16
ATOM     16  C   UNL     1     -94.287 148.576 236.629  1.00  0.00     0.000 C 
BRANCH  16  17
ATOM     17  C   UNL     1     -94.856 148.475 238.055  1.00  0.00     0.000 C 
BRANCH  17  18
ATOM     18  C   UNL     1     -95.703 149.699 238.446  1.00  0.00     0.000 C 
BRANCH  18  19
ATOM     19  C   UNL     1     -97.071 149.333 239.073  1.00  0.00     0.000 C 
BRANCH  19  20
ATOM     20  C   UNL     1     -97.955 150.563 239.371  1.00  0.00     0.006 C 
BRANCH  20  21
ATOM     21  C   UNL     1     -99.340 150.201 239.938  1.00  0.00     0.053 C 
BRANCH  21  22
ATOM     22  C   UNL     1     -99.280 149.927 241.409  1.00  0.00     0.041 C 
ATOM     23  O   UNL     1     -98.768 150.772 242.189  1.00  0.00    -0.550 OA
ATOM     24  O   UNL     1     -99.741 148.716 241.912  1.00  0.00    -0.550 OA
ENDBRANCH  21  22
ENDBRANCH  20  21
ENDBRANCH  19  20
ENDBRANCH  18  19
ENDBRANCH  17  18
ENDBRANCH  16  17
ENDBRANCH  15  16
ENDBRANCH  14  15
ENDBRANCH  13  14
ENDBRANCH   1  13
TORSDOF 20
ENDMDL
