MODEL 1
REMARK VINA RESULT:    -2.975      0.000      0.000
REMARK INTER + INTRA:         -10.205
REMARK INTER:                  -6.453
REMARK INTRA:                  -3.752
REMARK UNBOUND:                -3.752
REMARK SMILES CCCCCCCCCCCCCCCCCCCCCC(=O)[O-]
REMARK SMILES IDX 12 1 11 2 10 3 9 4 8 5 7 6 6 7 5 8 4 9 3 10 2 11 1 12 13 13
REMARK SMILES IDX 14 14 15 15 16 16 17 17 18 18 19 19 20 20 21 21 22 22 23 23
REMARK SMILES IDX 24 24
REMARK H PARENT
REMARK Flexibility Score: inf
ROOT
ATOM      1  C   UNL     1      21.575  70.041  15.856  1.00  0.00     0.000 C 
ENDROOT
BRANCH   1   2
ATOM      2  C   UNL     1      22.209  70.738  17.070  1.00  0.00     0.000 C 
BRANCH   2   3
ATOM      3  C   UNL     1      22.386  69.793  18.275  1.00  0.00     0.000 C 
BRANCH   3   4
ATOM      4  C   UNL     1      22.512  68.303  17.906  1.00  0.00    -0.000 C 
BRANCH   4   5
ATOM      5  C   UNL     1      21.818  67.382  18.924  1.00  0.00    -0.000 C 
BRANCH   5   6
ATOM      6  C   UNL     1      20.331  67.726  19.130  1.00  0.00    -0.000 C 
BRANCH   6   7
ATOM      7  C   UNL     1      19.413  67.424  17.932  1.00  0.00    -0.000 C 
BRANCH   7   8
ATOM      8  C   UNL     1      19.175  65.919  17.720  1.00  0.00    -0.000 C 
BRANCH   8   9
ATOM      9  C   UNL     1      19.556  65.461  16.302  1.00  0.00    -0.000 C 
BRANCH   9  10
ATOM     10  C   UNL     1      20.031  66.623  15.411  1.00  0.00    -0.000 C 
BRANCH  10  11
ATOM     11  C   UNL     1      21.470  66.427  14.909  1.00  0.00    -0.003 C 
ATOM     12  C   UNL     1      22.178  65.256  15.590  1.00  0.00     0.004 C 
ENDBRANCH  10  11
ENDBRANCH   9  10
ENDBRANCH   8   9
ENDBRANCH   7   8
ENDBRANCH   6   7
ENDBRANCH   5   6
ENDBRANCH   4   5
ENDBRANCH   3   4
ENDBRANCH   2   3
ENDBRANCH   1   2
BRANCH   1  13
ATOM     13  C   UNL     1      20.067  70.330  15.783  1.00  0.00     0.000 C 
BRANCH  13  14
ATOM     14  C   UNL     1      19.617  71.415  16.778  1.00  0.00     0.000 C 
BRANCH  14  15
ATOM     15  C   UNL     1      18.964  72.657  16.136  1.00  0.00     0.000 C 
BRANCH  15  16
ATOM     16  C   UNL     1      19.946  73.768  15.711  1.00  0.00     0.000 C 
BRANCH  16  17
ATOM     17  C   UNL     1      20.150  73.907  14.191  1.00  0.00     0.000 C 
BRANCH  17  18
ATOM     18  C   UNL     1      21.499  73.339  13.717  1.00  0.00     0.000 C 
BRANCH  18  19
ATOM     19  C   UNL     1      22.673  73.789  14.615  1.00  0.00     0.000 C 
BRANCH  19  20
ATOM     20  C   UNL     1      23.853  72.799  14.627  1.00  0.00     0.006 C 
BRANCH  20  21
ATOM     21  C   UNL     1      23.881  71.847  13.424  1.00  0.00     0.053 C 
BRANCH  21  22
ATOM     22  C   UNL     1      25.157  71.971  12.648  1.00  0.00     0.041 C 
ATOM     23  O   UNL     1      25.131  72.104  11.397  1.00  0.00    -0.550 OA
ATOM     24  O   UNL     1      26.379  71.902  13.305  1.00  0.00    -0.550 OA
ENDBRANCH  21  22
ENDBRANCH  20  21
ENDBRANCH  19  20
ENDBRANCH  18  19
ENDBRANCH  17  18
ENDBRANCH  16  17
ENDBRANCH  15  16
ENDBRANCH  14  15
ENDBRANCH  13  14
ENDBRANCH   1  13
TORSDOF 20
ENDMDL
MODEL 2
REMARK VINA RESULT:    -2.765      1.537      2.193
REMARK INTER + INTRA:          -9.750
REMARK INTER:                  -6.547
REMARK INTRA:                  -3.203
REMARK UNBOUND:                -3.752
REMARK SMILES CCCCCCCCCCCCCCCCCCCCCC(=O)[O-]
REMARK SMILES IDX 12 1 11 2 10 3 9 4 8 5 7 6 6 7 5 8 4 9 3 10 2 11 1 12 13 13
REMARK SMILES IDX 14 14 15 15 16 16 17 17 18 18 19 19 20 20 21 21 22 22 23 23
REMARK SMILES IDX 24 24
REMARK H PARENT
REMARK Flexibility Score: inf
ROOT
ATOM      1  C   UNL     1      22.395  69.875  18.290  1.00  0.00     0.000 C 
ENDROOT
BRANCH   1   2
ATOM      2  C   UNL     1      22.624  68.523  17.595  1.00  0.00     0.000 C 
BRANCH   2   3
ATOM      3  C   UNL     1      22.812  67.363  18.593  1.00  0.00     0.000 C 
BRANCH   3   4
ATOM      4  C   UNL     1      22.979  65.979  17.940  1.00  0.00    -0.000 C 
BRANCH   4   5
ATOM      5  C   UNL     1      22.074  64.912  18.579  1.00  0.00    -0.000 C 
BRANCH   5   6
ATOM      6  C   UNL     1      20.731  65.481  19.073  1.00  0.00    -0.000 C 
BRANCH   6   7
ATOM      7  C   UNL     1      19.513  65.161  18.188  1.00  0.00    -0.000 C 
BRANCH   7   8
ATOM      8  C   UNL     1      19.261  66.223  17.103  1.00  0.00    -0.000 C 
BRANCH   8   9
ATOM      9  C   UNL     1      19.663  65.734  15.702  1.00  0.00    -0.000 C 
BRANCH   9  10
ATOM     10  C   UNL     1      20.783  66.584  15.075  1.00  0.00    -0.000 C 
BRANCH  10  11
ATOM     11  C   UNL     1      20.932  66.338  13.565  1.00  0.00    -0.003 C 
ATOM     12  C   UNL     1      19.673  66.711  12.781  1.00  0.00     0.004 C 
ENDBRANCH  10  11
ENDBRANCH   9  10
ENDBRANCH   8   9
ENDBRANCH   7   8
ENDBRANCH   6   7
ENDBRANCH   5   6
ENDBRANCH   4   5
ENDBRANCH   3   4
ENDBRANCH   2   3
ENDBRANCH   1   2
BRANCH   1  13
ATOM     13  C   UNL     1      21.236  70.640  17.634  1.00  0.00     0.000 C 
BRANCH  13  14
ATOM     14  C   UNL     1      20.283  69.722  16.846  1.00  0.00     0.000 C 
BRANCH  14  15
ATOM     15  C   UNL     1      19.405  70.440  15.800  1.00  0.00     0.000 C 
BRANCH  15  16
ATOM     16  C   UNL     1      19.740  70.118  14.330  1.00  0.00     0.000 C 
BRANCH  16  17
ATOM     17  C   UNL     1      21.239  70.169  13.980  1.00  0.00     0.000 C 
BRANCH  17  18
ATOM     18  C   UNL     1      21.743  71.601  13.729  1.00  0.00     0.000 C 
BRANCH  18  19
ATOM     19  C   UNL     1      22.855  72.013  14.719  1.00  0.00     0.000 C 
BRANCH  19  20
ATOM     20  C   UNL     1      24.128  72.539  14.029  1.00  0.00     0.006 C 
BRANCH  20  21
ATOM     21  C   UNL     1      24.465  71.827  12.712  1.00  0.00     0.053 C 
BRANCH  21  22
ATOM     22  C   UNL     1      25.943  71.662  12.533  1.00  0.00     0.041 C 
ATOM     23  O   UNL     1      26.406  71.193  11.461  1.00  0.00    -0.550 OA
ATOM     24  O   UNL     1      26.809  71.992  13.567  1.00  0.00    -0.550 OA
ENDBRANCH  21  22
ENDBRANCH  20  21
ENDBRANCH  19  20
ENDBRANCH  18  19
ENDBRANCH  17  18
ENDBRANCH  16  17
ENDBRANCH  15  16
ENDBRANCH  14  15
ENDBRANCH  13  14
ENDBRANCH   1  13
TORSDOF 20
ENDMDL
MODEL 3
REMARK VINA RESULT:    -2.753      1.746      3.154
REMARK INTER + INTRA:          -9.724
REMARK INTER:                  -6.433
REMARK INTRA:                  -3.291
REMARK UNBOUND:                -3.752
REMARK SMILES CCCCCCCCCCCCCCCCCCCCCC(=O)[O-]
REMARK SMILES IDX 12 1 11 2 10 3 9 4 8 5 7 6 6 7 5 8 4 9 3 10 2 11 1 12 13 13
REMARK SMILES IDX 14 14 15 15 16 16 17 17 18 18 19 19 20 20 21 21 22 22 23 23
REMARK SMILES IDX 24 24
REMARK H PARENT
REMARK Flexibility Score: inf
ROOT
ATOM      1  C   UNL     1      22.681  67.869  17.541  1.00  0.00     0.000 C 
ENDROOT
BRANCH   1   2
ATOM      2  C   UNL     1      22.537  66.458  18.134  1.00  0.00     0.000 C 
BRANCH   2   3
ATOM      3  C   UNL     1      21.366  66.346  19.128  1.00  0.00     0.000 C 
BRANCH   3   4
ATOM      4  C   UNL     1      20.305  65.295  18.751  1.00  0.00    -0.000 C 
BRANCH   4   5
ATOM      5  C   UNL     1      18.980  65.931  18.295  1.00  0.00    -0.000 C 
BRANCH   5   6
ATOM      6  C   UNL     1      18.962  67.463  18.457  1.00  0.00    -0.000 C 
BRANCH   6   7
ATOM      7  C   UNL     1      18.922  68.264  17.143  1.00  0.00    -0.000 C 
BRANCH   7   8
ATOM      8  C   UNL     1      19.366  67.441  15.922  1.00  0.00    -0.000 C 
BRANCH   8   9
ATOM      9  C   UNL     1      19.898  68.326  14.783  1.00  0.00    -0.000 C 
BRANCH   9  10
ATOM     10  C   UNL     1      18.988  69.533  14.493  1.00  0.00    -0.000 C 
BRANCH  10  11
ATOM     11  C   UNL     1      19.636  70.542  13.532  1.00  0.00    -0.003 C 
ATOM     12  C   UNL     1      20.782  69.932  12.725  1.00  0.00     0.004 C 
ENDBRANCH  10  11
ENDBRANCH   9  10
ENDBRANCH   8   9
ENDBRANCH   7   8
ENDBRANCH   6   7
ENDBRANCH   5   6
ENDBRANCH   4   5
ENDBRANCH   3   4
ENDBRANCH   2   3
ENDBRANCH   1   2
BRANCH   1  13
ATOM     13  C   UNL     1      22.367  68.943  18.595  1.00  0.00     0.000 C 
BRANCH  13  14
ATOM     14  C   UNL     1      21.993  70.300  17.973  1.00  0.00     0.000 C 
BRANCH  14  15
ATOM     15  C   UNL     1      22.356  70.454  16.481  1.00  0.00     0.000 C 
BRANCH  15  16
ATOM     16  C   UNL     1      21.969  71.807  15.849  1.00  0.00     0.000 C 
BRANCH  16  17
ATOM     17  C   UNL     1      23.109  72.525  15.104  1.00  0.00     0.000 C 
BRANCH  17  18
ATOM     18  C   UNL     1      22.616  73.313  13.879  1.00  0.00     0.000 C 
BRANCH  18  19
ATOM     19  C   UNL     1      23.552  73.149  12.660  1.00  0.00     0.000 C 
BRANCH  19  20
ATOM     20  C   UNL     1      24.081  71.714  12.481  1.00  0.00     0.006 C 
BRANCH  20  21
ATOM     21  C   UNL     1      25.250  71.597  11.494  1.00  0.00     0.053 C 
BRANCH  21  22
ATOM     22  C   UNL     1      26.570  71.544  12.201  1.00  0.00     0.041 C 
ATOM     23  O   UNL     1      27.592  71.108  11.610  1.00  0.00    -0.550 OA
ATOM     24  O   UNL     1      26.663  71.942  13.528  1.00  0.00    -0.550 OA
ENDBRANCH  21  22
ENDBRANCH  20  21
ENDBRANCH  19  20
ENDBRANCH  18  19
ENDBRANCH  17  18
ENDBRANCH  16  17
ENDBRANCH  15  16
ENDBRANCH  14  15
ENDBRANCH  13  14
ENDBRANCH   1  13
TORSDOF 20
ENDMDL
MODEL 4
REMARK VINA RESULT:    -2.725      1.802      3.863
REMARK INTER + INTRA:          -9.662
REMARK INTER:                  -6.207
REMARK INTRA:                  -3.455
REMARK UNBOUND:                -3.752
REMARK SMILES CCCCCCCCCCCCCCCCCCCCCC(=O)[O-]
REMARK SMILES IDX 12 1 11 2 10 3 9 4 8 5 7 6 6 7 5 8 4 9 3 10 2 11 1 12 13 13
REMARK SMILES IDX 14 14 15 15 16 16 17 17 18 18 19 19 20 20 21 21 22 22 23 23
REMARK SMILES IDX 24 24
REMARK H PARENT
REMARK Flexibility Score: inf
ROOT
ATOM      1  C   UNL     1      22.570  65.674  18.357  1.00  0.00     0.000 C 
ENDROOT
BRANCH   1   2
ATOM      2  C   UNL     1      21.331  65.044  19.012  1.00  0.00     0.000 C 
BRANCH   2   3
ATOM      3  C   UNL     1      20.053  65.228  18.172  1.00  0.00     0.000 C 
BRANCH   3   4
ATOM      4  C   UNL     1      18.851  65.794  18.951  1.00  0.00    -0.000 C 
BRANCH   4   5
ATOM      5  C   UNL     1      18.940  67.317  19.149  1.00  0.00    -0.000 C 
BRANCH   5   6
ATOM      6  C   UNL     1      17.882  68.091  18.341  1.00  0.00    -0.000 C 
BRANCH   6   7
ATOM      7  C   UNL     1      18.433  68.978  17.210  1.00  0.00    -0.000 C 
BRANCH   7   8
ATOM      8  C   UNL     1      19.055  68.169  16.059  1.00  0.00    -0.000 C 
BRANCH   8   9
ATOM      9  C   UNL     1      19.239  69.010  14.785  1.00  0.00    -0.000 C 
BRANCH   9  10
ATOM     10  C   UNL     1      20.500  68.622  13.994  1.00  0.00    -0.000 C 
BRANCH  10  11
ATOM     11  C   UNL     1      20.252  68.576  12.478  1.00  0.00    -0.003 C 
ATOM     12  C   UNL     1      20.061  69.965  11.870  1.00  0.00     0.004 C 
ENDBRANCH  10  11
ENDBRANCH   9  10
ENDBRANCH   8   9
ENDBRANCH   7   8
ENDBRANCH   6   7
ENDBRANCH   5   6
ENDBRANCH   4   5
ENDBRANCH   3   4
ENDBRANCH   2   3
ENDBRANCH   1   2
BRANCH   1  13
ATOM     13  C   UNL     1      22.201  66.366  17.035  1.00  0.00     0.000 C 
BRANCH  13  14
ATOM     14  C   UNL     1      22.498  67.877  17.047  1.00  0.00     0.000 C 
BRANCH  14  15
ATOM     15  C   UNL     1      22.261  68.575  18.402  1.00  0.00     0.000 C 
BRANCH  15  16
ATOM     16  C   UNL     1      22.372  70.113  18.375  1.00  0.00     0.000 C 
BRANCH  16  17
ATOM     17  C   UNL     1      22.483  70.731  16.968  1.00  0.00     0.000 C 
BRANCH  17  18
ATOM     18  C   UNL     1      21.163  71.357  16.487  1.00  0.00     0.000 C 
BRANCH  18  19
ATOM     19  C   UNL     1      21.333  72.141  15.167  1.00  0.00     0.000 C 
BRANCH  19  20
ATOM     20  C   UNL     1      22.795  72.245  14.697  1.00  0.00     0.006 C 
BRANCH  20  21
ATOM     21  C   UNL     1      23.052  71.634  13.313  1.00  0.00     0.053 C 
BRANCH  21  22
ATOM     22  C   UNL     1      24.245  72.250  12.647  1.00  0.00     0.041 C 
ATOM     23  O   UNL     1      24.103  72.968  11.624  1.00  0.00    -0.550 OA
ATOM     24  O   UNL     1      25.520  71.998  13.136  1.00  0.00    -0.550 OA
ENDBRANCH  21  22
ENDBRANCH  20  21
ENDBRANCH  19  20
ENDBRANCH  18  19
ENDBRANCH  17  18
ENDBRANCH  16  17
ENDBRANCH  15  16
ENDBRANCH  14  15
ENDBRANCH  13  14
ENDBRANCH   1  13
TORSDOF 20
ENDMDL
MODEL 5
REMARK VINA RESULT:    -2.718      1.140      2.474
REMARK INTER + INTRA:          -9.648
REMARK INTER:                  -6.398
REMARK INTRA:                  -3.250
REMARK UNBOUND:                -3.752
REMARK SMILES CCCCCCCCCCCCCCCCCCCCCC(=O)[O-]
REMARK SMILES IDX 12 1 11 2 10 3 9 4 8 5 7 6 6 7 5 8 4 9 3 10 2 11 1 12 13 13
REMARK SMILES IDX 14 14 15 15 16 16 17 17 18 18 19 19 20 20 21 21 22 22 23 23
REMARK SMILES IDX 24 24
REMARK H PARENT
REMARK Flexibility Score: inf
ROOT
ATOM      1  C   UNL     1      21.165  68.768  15.219  1.00  0.00     0.000 C 
ENDROOT
BRANCH   1   2
ATOM      2  C   UNL     1      19.715  68.299  15.023  1.00  0.00     0.000 C 
BRANCH   2   3
ATOM      3  C   UNL     1      19.431  66.939  15.691  1.00  0.00     0.000 C 
BRANCH   3   4
ATOM      4  C   UNL     1      19.162  67.014  17.205  1.00  0.00    -0.000 C 
BRANCH   4   5
ATOM      5  C   UNL     1      19.601  65.739  17.946  1.00  0.00    -0.000 C 
BRANCH   5   6
ATOM      6  C   UNL     1      20.691  66.003  19.002  1.00  0.00    -0.000 C 
BRANCH   6   7
ATOM      7  C   UNL     1      21.164  67.464  19.111  1.00  0.00    -0.000 C 
BRANCH   7   8
ATOM      8  C   UNL     1      22.606  67.669  18.615  1.00  0.00    -0.000 C 
BRANCH   8   9
ATOM      9  C   UNL     1      23.199  66.391  17.999  1.00  0.00    -0.000 C 
BRANCH   9  10
ATOM     10  C   UNL     1      23.762  66.620  16.584  1.00  0.00    -0.000 C 
BRANCH  10  11
ATOM     11  C   UNL     1      23.766  65.337  15.739  1.00  0.00    -0.003 C 
ATOM     12  C   UNL     1      22.360  64.889  15.340  1.00  0.00     0.004 C 
ENDBRANCH  10  11
ENDBRANCH   9  10
ENDBRANCH   8   9
ENDBRANCH   7   8
ENDBRANCH   6   7
ENDBRANCH   5   6
ENDBRANCH   4   5
ENDBRANCH   3   4
ENDBRANCH   2   3
ENDBRANCH   1   2
BRANCH   1  13
ATOM     13  C   UNL     1      21.233  69.947  16.202  1.00  0.00     0.000 C 
BRANCH  13  14
ATOM     14  C   UNL     1      19.872  70.638  16.401  1.00  0.00     0.000 C 
BRANCH  14  15
ATOM     15  C   UNL     1      19.932  72.176  16.503  1.00  0.00     0.000 C 
BRANCH  15  16
ATOM     16  C   UNL     1      19.558  72.933  15.212  1.00  0.00     0.000 C 
BRANCH  16  17
ATOM     17  C   UNL     1      20.731  73.191  14.248  1.00  0.00     0.000 C 
BRANCH  17  18
ATOM     18  C   UNL     1      21.818  74.091  14.861  1.00  0.00     0.000 C 
BRANCH  18  19
ATOM     19  C   UNL     1      23.233  73.489  14.707  1.00  0.00     0.000 C 
BRANCH  19  20
ATOM     20  C   UNL     1      23.245  72.121  13.999  1.00  0.00     0.006 C 
BRANCH  20  21
ATOM     21  C   UNL     1      23.830  72.158  12.580  1.00  0.00     0.053 C 
BRANCH  21  22
ATOM     22  C   UNL     1      25.273  71.754  12.565  1.00  0.00     0.041 C 
ATOM     23  O   UNL     1      26.025  72.043  13.531  1.00  0.00    -0.550 OA
ATOM     24  O   UNL     1      25.797  71.091  11.462  1.00  0.00    -0.550 OA
ENDBRANCH  21  22
ENDBRANCH  20  21
ENDBRANCH  19  20
ENDBRANCH  18  19
ENDBRANCH  17  18
ENDBRANCH  16  17
ENDBRANCH  15  16
ENDBRANCH  14  15
ENDBRANCH  13  14
ENDBRANCH   1  13
TORSDOF 20
ENDMDL
MODEL 6
REMARK VINA RESULT:    -2.715      1.564      2.600
REMARK INTER + INTRA:          -9.641
REMARK INTER:                  -7.221
REMARK INTRA:                  -2.420
REMARK UNBOUND:                -3.752
REMARK SMILES CCCCCCCCCCCCCCCCCCCCCC(=O)[O-]
REMARK SMILES IDX 12 1 11 2 10 3 9 4 8 5 7 6 6 7 5 8 4 9 3 10 2 11 1 12 13 13
REMARK SMILES IDX 14 14 15 15 16 16 17 17 18 18 19 19 20 20 21 21 22 22 23 23
REMARK SMILES IDX 24 24
REMARK H PARENT
REMARK Flexibility Score: inf
ROOT
ATOM      1  C   UNL     1      21.295  70.599  16.058  1.00  0.00     0.000 C 
ENDROOT
BRANCH   1   2
ATOM      2  C   UNL     1      21.181  70.072  17.497  1.00  0.00     0.000 C 
BRANCH   2   3
ATOM      3  C   UNL     1      22.515  69.522  18.039  1.00  0.00     0.000 C 
BRANCH   3   4
ATOM      4  C   UNL     1      22.399  68.179  18.782  1.00  0.00    -0.000 C 
BRANCH   4   5
ATOM      5  C   UNL     1      23.006  67.010  17.987  1.00  0.00    -0.000 C 
BRANCH   5   6
ATOM      6  C   UNL     1      22.244  65.687  18.187  1.00  0.00    -0.000 C 
BRANCH   6   7
ATOM      7  C   UNL     1      21.161  65.708  19.280  1.00  0.00    -0.000 C 
BRANCH   7   8
ATOM      8  C   UNL     1      19.735  65.568  18.718  1.00  0.00    -0.000 C 
BRANCH   8   9
ATOM      9  C   UNL     1      19.704  65.630  17.182  1.00  0.00    -0.000 C 
BRANCH   9  10
ATOM     10  C   UNL     1      19.323  67.024  16.652  1.00  0.00    -0.000 C 
BRANCH  10  11
ATOM     11  C   UNL     1      19.599  67.177  15.148  1.00  0.00    -0.003 C 
ATOM     12  C   UNL     1      21.092  67.175  14.820  1.00  0.00     0.004 C 
ENDBRANCH  10  11
ENDBRANCH   9  10
ENDBRANCH   8   9
ENDBRANCH   7   8
ENDBRANCH   6   7
ENDBRANCH   5   6
ENDBRANCH   4   5
ENDBRANCH   3   4
ENDBRANCH   2   3
ENDBRANCH   1   2
BRANCH   1  13
ATOM     13  C   UNL     1      20.092  71.487  15.701  1.00  0.00     0.000 C 
BRANCH  13  14
ATOM     14  C   UNL     1      20.489  72.948  15.425  1.00  0.00     0.000 C 
BRANCH  14  15
ATOM     15  C   UNL     1      21.625  73.131  14.397  1.00  0.00     0.000 C 
BRANCH  15  16
ATOM     16  C   UNL     1      22.990  73.532  14.993  1.00  0.00     0.000 C 
BRANCH  16  17
ATOM     17  C   UNL     1      24.196  72.757  14.431  1.00  0.00     0.000 C 
BRANCH  17  18
ATOM     18  C   UNL     1      23.835  71.903  13.203  1.00  0.00     0.000 C 
BRANCH  18  19
ATOM     19  C   UNL     1      24.917  71.973  12.102  1.00  0.00     0.000 C 
BRANCH  19  20
ATOM     20  C   UNL     1      26.336  71.662  12.614  1.00  0.00     0.006 C 
BRANCH  20  21
ATOM     21  C   UNL     1      27.446  72.431  11.884  1.00  0.00     0.053 C 
BRANCH  21  22
ATOM     22  C   UNL     1      27.530  72.045  10.439  1.00  0.00     0.041 C 
ATOM     23  O   UNL     1      27.016  72.776   9.553  1.00  0.00    -0.550 OA
ATOM     24  O   UNL     1      28.145  70.855  10.073  1.00  0.00    -0.550 OA
ENDBRANCH  21  22
ENDBRANCH  20  21
ENDBRANCH  19  20
ENDBRANCH  18  19
ENDBRANCH  17  18
ENDBRANCH  16  17
ENDBRANCH  15  16
ENDBRANCH  14  15
ENDBRANCH  13  14
ENDBRANCH   1  13
TORSDOF 20
ENDMDL
MODEL 7
REMARK VINA RESULT:    -2.692      3.569      8.236
REMARK INTER + INTRA:          -9.591
REMARK INTER:                  -7.541
REMARK INTRA:                  -2.050
REMARK UNBOUND:                -3.752
REMARK SMILES CCCCCCCCCCCCCCCCCCCCCC(=O)[O-]
REMARK SMILES IDX 12 1 11 2 10 3 9 4 8 5 7 6 6 7 5 8 4 9 3 10 2 11 1 12 13 13
REMARK SMILES IDX 14 14 15 15 16 16 17 17 18 18 19 19 20 20 21 21 22 22 23 23
REMARK SMILES IDX 24 24
REMARK H PARENT
REMARK Flexibility Score: inf
ROOT
ATOM      1  C   UNL     1      21.613  70.272  16.016  1.00  0.00     0.000 C 
ENDROOT
BRANCH   1   2
ATOM      2  C   UNL     1      22.388  71.589  15.853  1.00  0.00     0.000 C 
BRANCH   2   3
ATOM      3  C   UNL     1      21.685  72.582  14.907  1.00  0.00     0.000 C 
BRANCH   3   4
ATOM      4  C   UNL     1      22.620  73.619  14.258  1.00  0.00    -0.000 C 
BRANCH   4   5
ATOM      5  C   UNL     1      23.402  73.042  13.065  1.00  0.00    -0.000 C 
BRANCH   5   6
ATOM      6  C   UNL     1      24.725  72.372  13.481  1.00  0.00    -0.000 C 
BRANCH   6   7
ATOM      7  C   UNL     1      25.472  71.632  12.357  1.00  0.00    -0.000 C 
BRANCH   7   8
ATOM      8  C   UNL     1      26.989  71.544  12.598  1.00  0.00    -0.000 C 
BRANCH   8   9
ATOM      9  C   UNL     1      27.799  72.211  11.474  1.00  0.00    -0.000 C 
BRANCH   9  10
ATOM     10  C   UNL     1      26.924  72.630  10.279  1.00  0.00    -0.000 C 
BRANCH  10  11
ATOM     11  C   UNL     1      27.292  71.880   8.989  1.00  0.00    -0.003 C 
ATOM     12  C   UNL     1      28.580  71.069   9.127  1.00  0.00     0.004 C 
ENDBRANCH  10  11
ENDBRANCH   9  10
ENDBRANCH   8   9
ENDBRANCH   7   8
ENDBRANCH   6   7
ENDBRANCH   5   6
ENDBRANCH   4   5
ENDBRANCH   3   4
ENDBRANCH   2   3
ENDBRANCH   1   2
BRANCH   1  13
ATOM     13  C   UNL     1      21.256  70.022  17.489  1.00  0.00     0.000 C 
BRANCH  13  14
ATOM     14  C   UNL     1      22.428  69.434  18.297  1.00  0.00     0.000 C 
BRANCH  14  15
ATOM     15  C   UNL     1      22.130  68.089  18.990  1.00  0.00     0.000 C 
BRANCH  15  16
ATOM     16  C   UNL     1      22.834  66.863  18.374  1.00  0.00     0.000 C 
BRANCH  16  17
ATOM     17  C   UNL     1      23.312  67.052  16.922  1.00  0.00     0.000 C 
BRANCH  17  18
ATOM     18  C   UNL     1      22.256  66.624  15.888  1.00  0.00     0.000 C 
BRANCH  18  19
ATOM     19  C   UNL     1      21.543  65.312  16.285  1.00  0.00     0.000 C 
BRANCH  19  20
ATOM     20  C   UNL     1      20.009  65.437  16.337  1.00  0.00     0.006 C 
BRANCH  20  21
ATOM     21  C   UNL     1      19.507  66.866  16.584  1.00  0.00     0.053 C 
BRANCH  21  22
ATOM     22  C   UNL     1      18.953  67.029  17.966  1.00  0.00     0.041 C 
ATOM     23  O   UNL     1      18.361  68.089  18.295  1.00  0.00    -0.550 OA
ATOM     24  O   UNL     1      19.125  66.020  18.906  1.00  0.00    -0.550 OA
ENDBRANCH  21  22
ENDBRANCH  20  21
ENDBRANCH  19  20
ENDBRANCH  18  19
ENDBRANCH  17  18
ENDBRANCH  16  17
ENDBRANCH  15  16
ENDBRANCH  14  15
ENDBRANCH  13  14
ENDBRANCH   1  13
TORSDOF 20
ENDMDL
MODEL 8
REMARK VINA RESULT:    -2.684      1.820      2.991
REMARK INTER + INTRA:          -9.573
REMARK INTER:                  -6.741
REMARK INTRA:                  -2.832
REMARK UNBOUND:                -3.752
REMARK SMILES CCCCCCCCCCCCCCCCCCCCCC(=O)[O-]
REMARK SMILES IDX 12 1 11 2 10 3 9 4 8 5 7 6 6 7 5 8 4 9 3 10 2 11 1 12 13 13
REMARK SMILES IDX 14 14 15 15 16 16 17 17 18 18 19 19 20 20 21 21 22 22 23 23
REMARK SMILES IDX 24 24
REMARK H PARENT
REMARK Flexibility Score: inf
ROOT
ATOM      1  C   UNL     1      22.346  70.013  18.376  1.00  0.00     0.000 C 
ENDROOT
BRANCH   1   2
ATOM      2  C   UNL     1      22.401  68.567  18.892  1.00  0.00     0.000 C 
BRANCH   2   3
ATOM      3  C   UNL     1      22.806  67.558  17.800  1.00  0.00     0.000 C 
BRANCH   3   4
ATOM      4  C   UNL     1      22.230  66.143  17.990  1.00  0.00    -0.000 C 
BRANCH   4   5
ATOM      5  C   UNL     1      21.088  66.104  19.020  1.00  0.00    -0.000 C 
BRANCH   5   6
ATOM      6  C   UNL     1      19.694  66.028  18.369  1.00  0.00    -0.000 C 
BRANCH   6   7
ATOM      7  C   UNL     1      18.942  67.367  18.262  1.00  0.00    -0.000 C 
BRANCH   7   8
ATOM      8  C   UNL     1      19.157  68.072  16.912  1.00  0.00    -0.000 C 
BRANCH   8   9
ATOM      9  C   UNL     1      19.392  67.077  15.763  1.00  0.00    -0.000 C 
BRANCH   9  10
ATOM     10  C   UNL     1      20.591  67.463  14.879  1.00  0.00    -0.000 C 
BRANCH  10  11
ATOM     11  C   UNL     1      20.216  68.486  13.795  1.00  0.00    -0.003 C 
ATOM     12  C   UNL     1      19.181  67.946  12.808  1.00  0.00     0.004 C 
ENDBRANCH  10  11
ENDBRANCH   9  10
ENDBRANCH   8   9
ENDBRANCH   7   8
ENDBRANCH   6   7
ENDBRANCH   5   6
ENDBRANCH   4   5
ENDBRANCH   3   4
ENDBRANCH   2   3
ENDBRANCH   1   2
BRANCH   1  13
ATOM     13  C   UNL     1      22.342  70.049  16.840  1.00  0.00     0.000 C 
BRANCH  13  14
ATOM     14  C   UNL     1      21.325  71.052  16.267  1.00  0.00     0.000 C 
BRANCH  14  15
ATOM     15  C   UNL     1      21.896  72.031  15.220  1.00  0.00     0.000 C 
BRANCH  15  16
ATOM     16  C   UNL     1      23.342  72.499  15.480  1.00  0.00     0.000 C 
BRANCH  16  17
ATOM     17  C   UNL     1      24.219  72.626  14.221  1.00  0.00     0.000 C 
BRANCH  17  18
ATOM     18  C   UNL     1      23.625  71.895  13.005  1.00  0.00     0.000 C 
BRANCH  18  19
ATOM     19  C   UNL     1      24.670  71.664  11.891  1.00  0.00     0.000 C 
BRANCH  19  20
ATOM     20  C   UNL     1      26.126  71.779  12.380  1.00  0.00     0.006 C 
BRANCH  20  21
ATOM     21  C   UNL     1      27.034  72.598  11.453  1.00  0.00     0.053 C 
BRANCH  21  22
ATOM     22  C   UNL     1      27.563  71.770  10.322  1.00  0.00     0.041 C 
ATOM     23  O   UNL     1      28.732  71.309  10.362  1.00  0.00    -0.550 OA
ATOM     24  O   UNL     1      26.773  71.539   9.202  1.00  0.00    -0.550 OA
ENDBRANCH  21  22
ENDBRANCH  20  21
ENDBRANCH  19  20
ENDBRANCH  18  19
ENDBRANCH  17  18
ENDBRANCH  16  17
ENDBRANCH  15  16
ENDBRANCH  14  15
ENDBRANCH  13  14
ENDBRANCH   1  13
TORSDOF 20
ENDMDL
MODEL 9
REMARK VINA RESULT:    -2.653      3.395      7.920
REMARK INTER + INTRA:          -9.506
REMARK INTER:                  -7.197
REMARK INTRA:                  -2.309
REMARK UNBOUND:                -3.752
REMARK SMILES CCCCCCCCCCCCCCCCCCCCCC(=O)[O-]
REMARK SMILES IDX 12 1 11 2 10 3 9 4 8 5 7 6 6 7 5 8 4 9 3 10 2 11 1 12 13 13
REMARK SMILES IDX 14 14 15 15 16 16 17 17 18 18 19 19 20 20 21 21 22 22 23 23
REMARK SMILES IDX 24 24
REMARK H PARENT
REMARK Flexibility Score: inf
ROOT
ATOM      1  C   UNL     1      22.370  69.884  18.152  1.00  0.00     0.000 C 
ENDROOT
BRANCH   1   2
ATOM      2  C   UNL     1      21.338  70.313  17.096  1.00  0.00     0.000 C 
BRANCH   2   3
ATOM      3  C   UNL     1      21.843  70.117  15.654  1.00  0.00     0.000 C 
BRANCH   3   4
ATOM      4  C   UNL     1      21.456  71.246  14.681  1.00  0.00    -0.000 C 
BRANCH   4   5
ATOM      5  C   UNL     1      21.719  72.645  15.266  1.00  0.00    -0.000 C 
BRANCH   5   6
ATOM      6  C   UNL     1      22.861  73.390  14.551  1.00  0.00    -0.000 C 
BRANCH   6   7
ATOM      7  C   UNL     1      23.442  72.678  13.316  1.00  0.00    -0.000 C 
BRANCH   7   8
ATOM      8  C   UNL     1      24.927  72.312  13.475  1.00  0.00    -0.000 C 
BRANCH   8   9
ATOM      9  C   UNL     1      25.486  71.586  12.240  1.00  0.00    -0.000 C 
BRANCH   9  10
ATOM     10  C   UNL     1      26.662  72.337  11.591  1.00  0.00    -0.000 C 
BRANCH  10  11
ATOM     11  C   UNL     1      28.026  71.765  12.007  1.00  0.00    -0.003 C 
ATOM     12  C   UNL     1      28.479  72.261  13.380  1.00  0.00     0.004 C 
ENDBRANCH  10  11
ENDBRANCH   9  10
ENDBRANCH   8   9
ENDBRANCH   7   8
ENDBRANCH   6   7
ENDBRANCH   5   6
ENDBRANCH   4   5
ENDBRANCH   3   4
ENDBRANCH   2   3
ENDBRANCH   1   2
BRANCH   1  13
ATOM     13  C   UNL     1      22.139  68.428  18.585  1.00  0.00     0.000 C 
BRANCH  13  14
ATOM     14  C   UNL     1      23.123  67.444  17.925  1.00  0.00     0.000 C 
BRANCH  14  15
ATOM     15  C   UNL     1      22.941  65.968  18.336  1.00  0.00     0.000 C 
BRANCH  15  16
ATOM     16  C   UNL     1      22.989  64.954  17.175  1.00  0.00     0.000 C 
BRANCH  16  17
ATOM     17  C   UNL     1      22.939  65.576  15.767  1.00  0.00     0.000 C 
BRANCH  17  18
ATOM     18  C   UNL     1      21.543  65.488  15.126  1.00  0.00     0.000 C 
BRANCH  18  19
ATOM     19  C   UNL     1      20.740  66.798  15.289  1.00  0.00     0.000 C 
BRANCH  19  20
ATOM     20  C   UNL     1      19.358  66.595  15.936  1.00  0.00     0.006 C 
BRANCH  20  21
ATOM     21  C   UNL     1      19.414  66.144  17.402  1.00  0.00     0.053 C 
BRANCH  21  22
ATOM     22  C   UNL     1      18.651  67.072  18.298  1.00  0.00     0.041 C 
ATOM     23  O   UNL     1      18.561  68.296  18.019  1.00  0.00    -0.550 OA
ATOM     24  O   UNL     1      18.071  66.590  19.464  1.00  0.00    -0.550 OA
ENDBRANCH  21  22
ENDBRANCH  20  21
ENDBRANCH  19  20
ENDBRANCH  18  19
ENDBRANCH  17  18
ENDBRANCH  16  17
ENDBRANCH  15  16
ENDBRANCH  14  15
ENDBRANCH  13  14
ENDBRANCH   1  13
TORSDOF 20
ENDMDL
