MODEL 1
REMARK VINA RESULT:    -3.420      0.000      0.000
REMARK INTER + INTRA:          -4.098
REMARK INTER:                  -3.919
REMARK INTRA:                  -0.178
REMARK UNBOUND:                -0.178
REMARK SMILES CC=Cc1ccc(O)c(OC)c1
REMARK SMILES IDX 4 1 12 2 9 3 7 4 6 5 5 6 3 7 1 8 2 9 10 10 11 11 8 12
REMARK H PARENT 8 13
REMARK Flexibility Score: inf
ROOT
ATOM      1  C   UNL     1     109.975 107.893 105.560  1.00  0.00    -0.022 A 
ATOM      2  C   UNL     1     109.570 107.925 106.909  1.00  0.00     0.058 A 
ATOM      3  C   UNL     1     108.320 107.401 107.298  1.00  0.00     0.161 A 
ATOM      4  C   UNL     1     107.479 106.834 106.324  1.00  0.00     0.157 A 
ATOM      5  C   UNL     1     107.888 106.787 104.989  1.00  0.00     0.051 A 
ATOM      6  C   UNL     1     109.127 107.306 104.611  1.00  0.00     0.012 A 
ENDROOT
BRANCH   1   7
ATOM      7  C   UNL     1     111.285 108.423 105.108  1.00  0.00     0.003 C 
ATOM      8  C   UNL     1     113.516 108.293 104.072  1.00  0.00     0.035 C 
ATOM      9  C   UNL     1     112.212 107.688 104.482  1.00  0.00    -0.030 C 
ENDBRANCH   1   7
BRANCH   3  10
ATOM     10  O   UNL     1     107.885 107.424 108.633  1.00  0.00    -0.493 OA
ATOM     11  C   UNL     1     108.507 106.714 109.700  1.00  0.00     0.278 C 
ENDBRANCH   3  10
BRANCH   4  12
ATOM     12  O   UNL     1     106.233 106.308 106.664  1.00  0.00    -0.504 OA
ATOM     13  H   UNL     1     105.375 106.625 106.229  1.00  0.00     0.293 HD
ENDBRANCH   4  12
TORSDOF 3
ENDMDL
MODEL 2
REMARK VINA RESULT:    -3.381      4.287      4.893
REMARK INTER + INTRA:          -4.054
REMARK INTER:                  -3.866
REMARK INTRA:                  -0.188
REMARK UNBOUND:                -0.178
REMARK SMILES CC=Cc1ccc(O)c(OC)c1
REMARK SMILES IDX 4 1 12 2 9 3 7 4 6 5 5 6 3 7 1 8 2 9 10 10 11 11 8 12
REMARK H PARENT 8 13
REMARK Flexibility Score: inf
ROOT
ATOM      1  C   UNL     1     112.249 109.933 105.690  1.00  0.00    -0.022 A 
ATOM      2  C   UNL     1     112.283 109.507 107.033  1.00  0.00     0.058 A 
ATOM      3  C   UNL     1     112.776 108.230 107.371  1.00  0.00     0.161 A 
ATOM      4  C   UNL     1     113.246 107.383 106.351  1.00  0.00     0.157 A 
ATOM      5  C   UNL     1     113.229 107.813 105.022  1.00  0.00     0.051 A 
ATOM      6  C   UNL     1     112.740 109.078 104.694  1.00  0.00     0.012 A 
ENDROOT
BRANCH   1   7
ATOM      7  C   UNL     1     111.747 111.272 105.290  1.00  0.00     0.003 C 
ATOM      8  C   UNL     1     111.815 113.420 104.087  1.00  0.00     0.035 C 
ATOM      9  C   UNL     1     112.377 112.077 104.428  1.00  0.00    -0.030 C 
ENDBRANCH   1   7
BRANCH   3  10
ATOM     10  O   UNL     1     112.817 107.775 108.698  1.00  0.00    -0.493 OA
ATOM     11  C   UNL     1     113.861 108.065 109.622  1.00  0.00     0.278 C 
ENDBRANCH   3  10
BRANCH   4  12
ATOM     12  O   UNL     1     113.739 106.111 106.641  1.00  0.00    -0.504 OA
ATOM     13  H   UNL     1     114.237 105.907 107.499  1.00  0.00     0.293 HD
ENDBRANCH   4  12
TORSDOF 3
ENDMDL
MODEL 3
REMARK VINA RESULT:    -3.378      4.267      4.934
REMARK INTER + INTRA:          -4.050
REMARK INTER:                  -3.868
REMARK INTRA:                  -0.182
REMARK UNBOUND:                -0.178
REMARK SMILES CC=Cc1ccc(O)c(OC)c1
REMARK SMILES IDX 4 1 12 2 9 3 7 4 6 5 5 6 3 7 1 8 2 9 10 10 11 11 8 12
REMARK H PARENT 8 13
REMARK Flexibility Score: inf
ROOT
ATOM      1  C   UNL     1     107.901 110.094 105.639  1.00  0.00    -0.022 A 
ATOM      2  C   UNL     1     107.869 110.467 106.998  1.00  0.00     0.058 A 
ATOM      3  C   UNL     1     107.357 111.721 107.388  1.00  0.00     0.161 A 
ATOM      4  C   UNL     1     106.866 112.599 106.405  1.00  0.00     0.157 A 
ATOM      5  C   UNL     1     106.881 112.222 105.060  1.00  0.00     0.051 A 
ATOM      6  C   UNL     1     107.389 110.979 104.680  1.00  0.00     0.012 A 
ENDROOT
BRANCH   1   7
ATOM      7  C   UNL     1     108.422 108.781 105.185  1.00  0.00     0.003 C 
ATOM      8  C   UNL     1     108.324 106.619 104.007  1.00  0.00     0.035 C 
ATOM      9  C   UNL     1     107.735 107.933 104.410  1.00  0.00    -0.030 C 
ENDBRANCH   1   7
BRANCH   3  10
ATOM     10  O   UNL     1     107.317 112.124 108.733  1.00  0.00    -0.493 OA
ATOM     11  C   UNL     1     108.415 112.689 109.442  1.00  0.00     0.278 C 
ENDBRANCH   3  10
BRANCH   4  12
ATOM     12  O   UNL     1     106.353 113.851 106.747  1.00  0.00    -0.504 OA
ATOM     13  H   UNL     1     106.850 114.711 106.549  1.00  0.00     0.293 HD
ENDBRANCH   4  12
TORSDOF 3
ENDMDL
MODEL 4
REMARK VINA RESULT:    -3.336      3.938      4.963
REMARK INTER + INTRA:          -4.002
REMARK INTER:                  -3.849
REMARK INTRA:                  -0.153
REMARK UNBOUND:                -0.178
REMARK SMILES CC=Cc1ccc(O)c(OC)c1
REMARK SMILES IDX 4 1 12 2 9 3 7 4 6 5 5 6 3 7 1 8 2 9 10 10 11 11 8 12
REMARK H PARENT 8 13
REMARK Flexibility Score: inf
ROOT
ATOM      1  C   UNL     1     111.589 109.746 104.674  1.00  0.00    -0.022 A 
ATOM      2  C   UNL     1     111.602 109.542 106.068  1.00  0.00     0.058 A 
ATOM      3  C   UNL     1     112.493 108.618 106.651  1.00  0.00     0.161 A 
ATOM      4  C   UNL     1     113.381 107.905 105.827  1.00  0.00     0.157 A 
ATOM      5  C   UNL     1     113.380 108.121 104.447  1.00  0.00     0.051 A 
ATOM      6  C   UNL     1     112.496 109.037 103.875  1.00  0.00     0.012 A 
ENDROOT
BRANCH   1   7
ATOM      7  C   UNL     1     110.675 110.715 104.018  1.00  0.00     0.003 C 
ATOM      8  C   UNL     1     109.062 112.576 103.946  1.00  0.00     0.035 C 
ATOM      9  C   UNL     1     109.976 111.645 104.678  1.00  0.00    -0.030 C 
ENDBRANCH   1   7
BRANCH   3  10
ATOM     10  O   UNL     1     112.526 108.388 108.036  1.00  0.00    -0.493 OA
ATOM     11  C   UNL     1     112.645 109.407 109.024  1.00  0.00     0.278 C 
ENDBRANCH   3  10
BRANCH   4  12
ATOM     12  O   UNL     1     114.277 106.980 106.363  1.00  0.00    -0.504 OA
ATOM     13  H   UNL     1     115.276 107.044 106.209  1.00  0.00     0.293 HD
ENDBRANCH   4  12
TORSDOF 3
ENDMDL
MODEL 5
REMARK VINA RESULT:    -3.297      3.959      4.190
REMARK INTER + INTRA:          -3.957
REMARK INTER:                  -3.808
REMARK INTRA:                  -0.149
REMARK UNBOUND:                -0.178
REMARK SMILES CC=Cc1ccc(O)c(OC)c1
REMARK SMILES IDX 4 1 12 2 9 3 7 4 6 5 5 6 3 7 1 8 2 9 10 10 11 11 8 12
REMARK H PARENT 8 13
REMARK Flexibility Score: inf
ROOT
ATOM      1  C   UNL     1     108.217 110.081 105.033  1.00  0.00    -0.022 A 
ATOM      2  C   UNL     1     108.249 110.380 106.410  1.00  0.00     0.058 A 
ATOM      3  C   UNL     1     107.496 111.452 106.931  1.00  0.00     0.161 A 
ATOM      4  C   UNL     1     106.700 112.220 106.062  1.00  0.00     0.157 A 
ATOM      5  C   UNL     1     106.655 111.912 104.700  1.00  0.00     0.051 A 
ATOM      6  C   UNL     1     107.401 110.850 104.190  1.00  0.00     0.012 A 
ENDROOT
BRANCH   1   7
ATOM      7  C   UNL     1     108.985 108.957 104.443  1.00  0.00     0.003 C 
ATOM      8  C   UNL     1     111.021 107.690 103.875  1.00  0.00     0.035 C 
ATOM      9  C   UNL     1     110.317 108.847 104.510  1.00  0.00    -0.030 C 
ENDBRANCH   1   7
BRANCH   3  10
ATOM     10  O   UNL     1     107.512 111.779 108.297  1.00  0.00    -0.493 OA
ATOM     11  C   UNL     1     107.390 110.835 109.356  1.00  0.00     0.278 C 
ENDBRANCH   3  10
BRANCH   4  12
ATOM     12  O   UNL     1     105.942 113.291 106.535  1.00  0.00    -0.504 OA
ATOM     13  H   UNL     1     106.076 114.237 106.201  1.00  0.00     0.293 HD
ENDBRANCH   4  12
TORSDOF 3
ENDMDL
MODEL 6
REMARK VINA RESULT:    -3.229      1.999      2.317
REMARK INTER + INTRA:          -3.880
REMARK INTER:                  -3.726
REMARK INTRA:                  -0.154
REMARK UNBOUND:                -0.178
REMARK SMILES CC=Cc1ccc(O)c(OC)c1
REMARK SMILES IDX 4 1 12 2 9 3 7 4 6 5 5 6 3 7 1 8 2 9 10 10 11 11 8 12
REMARK H PARENT 8 13
REMARK Flexibility Score: inf
ROOT
ATOM      1  C   UNL     1     109.342 109.174 105.092  1.00  0.00    -0.022 A 
ATOM      2  C   UNL     1     109.341 108.736 106.432  1.00  0.00     0.058 A 
ATOM      3  C   UNL     1     108.564 107.628 106.826  1.00  0.00     0.161 A 
ATOM      4  C   UNL     1     107.791 106.953 105.864  1.00  0.00     0.157 A 
ATOM      5  C   UNL     1     107.807 107.376 104.533  1.00  0.00     0.051 A 
ATOM      6  C   UNL     1     108.579 108.473 104.148  1.00  0.00     0.012 A 
ENDROOT
BRANCH   1   7
ATOM      7  C   UNL     1     110.152 110.329 104.631  1.00  0.00     0.003 C 
ATOM      8  C   UNL     1     110.524 112.644 103.875  1.00  0.00     0.035 C 
ATOM      9  C   UNL     1     109.642 111.533 104.351  1.00  0.00    -0.030 C 
ENDBRANCH   1   7
BRANCH   3  10
ATOM     10  O   UNL     1     108.537 107.172 108.154  1.00  0.00    -0.493 OA
ATOM     11  C   UNL     1     109.426 107.607 109.178  1.00  0.00     0.278 C 
ENDBRANCH   3  10
BRANCH   4  12
ATOM     12  O   UNL     1     107.006 105.854 106.212  1.00  0.00    -0.504 OA
ATOM     13  H   UNL     1     106.516 105.299 105.520  1.00  0.00     0.293 HD
ENDBRANCH   4  12
TORSDOF 3
ENDMDL
MODEL 7
REMARK VINA RESULT:    -3.228      3.759      5.229
REMARK INTER + INTRA:          -3.878
REMARK INTER:                  -3.701
REMARK INTRA:                  -0.177
REMARK UNBOUND:                -0.178
REMARK SMILES CC=Cc1ccc(O)c(OC)c1
REMARK SMILES IDX 4 1 12 2 9 3 7 4 6 5 5 6 3 7 1 8 2 9 10 10 11 11 8 12
REMARK H PARENT 8 13
REMARK Flexibility Score: inf
ROOT
ATOM      1  C   UNL     1     110.767 109.301 105.884  1.00  0.00    -0.022 A 
ATOM      2  C   UNL     1     111.656 108.417 106.527  1.00  0.00     0.058 A 
ATOM      3  C   UNL     1     112.817 107.959 105.870  1.00  0.00     0.161 A 
ATOM      4  C   UNL     1     113.088 108.404 104.563  1.00  0.00     0.157 A 
ATOM      5  C   UNL     1     112.215 109.295 103.934  1.00  0.00     0.051 A 
ATOM      6  C   UNL     1     111.069 109.744 104.589  1.00  0.00     0.012 A 
ENDROOT
BRANCH   1   7
ATOM      7  C   UNL     1     109.539 109.815 106.541  1.00  0.00     0.003 C 
ATOM      8  C   UNL     1     107.556 111.259 106.763  1.00  0.00     0.035 C 
ATOM      9  C   UNL     1     108.771 110.784 106.031  1.00  0.00    -0.030 C 
ENDBRANCH   1   7
BRANCH   3  10
ATOM     10  O   UNL     1     113.718 107.073 106.481  1.00  0.00    -0.493 OA
ATOM     11  C   UNL     1     113.606 106.598 107.819  1.00  0.00     0.278 C 
ENDBRANCH   3  10
BRANCH   4  12
ATOM     12  O   UNL     1     114.223 107.975 103.876  1.00  0.00    -0.504 OA
ATOM     13  H   UNL     1     114.290 107.050 103.469  1.00  0.00     0.293 HD
ENDBRANCH   4  12
TORSDOF 3
ENDMDL
MODEL 8
REMARK VINA RESULT:    -3.227      4.615      5.995
REMARK INTER + INTRA:          -3.877
REMARK INTER:                  -3.733
REMARK INTRA:                  -0.144
REMARK UNBOUND:                -0.178
REMARK SMILES CC=Cc1ccc(O)c(OC)c1
REMARK SMILES IDX 4 1 12 2 9 3 7 4 6 5 5 6 3 7 1 8 2 9 10 10 11 11 8 12
REMARK H PARENT 8 13
REMARK Flexibility Score: inf
ROOT
ATOM      1  C   UNL     1     110.780 111.046 104.875  1.00  0.00    -0.022 A 
ATOM      2  C   UNL     1     110.763 111.446 106.226  1.00  0.00     0.058 A 
ATOM      3  C   UNL     1     111.507 112.564 106.655  1.00  0.00     0.161 A 
ATOM      4  C   UNL     1     112.262 113.289 105.716  1.00  0.00     0.157 A 
ATOM      5  C   UNL     1     112.264 112.903 104.374  1.00  0.00     0.051 A 
ATOM      6  C   UNL     1     111.526 111.796 103.955  1.00  0.00     0.012 A 
ENDROOT
BRANCH   1   7
ATOM      7  C   UNL     1     110.005 109.882 104.377  1.00  0.00     0.003 C 
ATOM      8  C   UNL     1     109.538 107.489 104.025  1.00  0.00     0.035 C 
ATOM      9  C   UNL     1     110.365 108.609 104.572  1.00  0.00    -0.030 C 
ENDBRANCH   1   7
BRANCH   3  10
ATOM     10  O   UNL     1     111.515 112.983 107.996  1.00  0.00    -0.493 OA
ATOM     11  C   UNL     1     110.559 112.587 108.974  1.00  0.00     0.278 C 
ENDBRANCH   3  10
BRANCH   4  12
ATOM     12  O   UNL     1     113.015 114.399 106.099  1.00  0.00    -0.504 OA
ATOM     13  H   UNL     1     113.896 114.633 105.657  1.00  0.00     0.293 HD
ENDBRANCH   4  12
TORSDOF 3
ENDMDL
