MODEL 1
REMARK VINA RESULT:    -3.709      0.000      0.000
REMARK INTER + INTRA:          -5.314
REMARK INTER:                  -5.444
REMARK INTRA:                   0.129
REMARK UNBOUND:                 0.129
REMARK SMILES CC(C)COC(=O)c1ccccc1C(=O)OCC(C)C
REMARK SMILES IDX 8 1 9 2 10 3 11 4 12 5 13 6 6 7 7 8 5 9 4 10 2 11 1 12 3 13
REMARK SMILES IDX 14 14 15 15 16 16 17 17 18 18 19 19 20 20
REMARK H PARENT
REMARK Flexibility Score: inf
ROOT
ATOM      1  C   UNL     1      75.560  33.558  52.574  1.00  0.00     0.074 A 
ATOM      2  C   UNL     1      75.572  32.195  52.923  1.00  0.00     0.016 A 
ATOM      3  C   UNL     1      76.718  31.420  52.734  1.00  0.00     0.001 A 
ATOM      4  C   UNL     1      77.868  31.993  52.194  1.00  0.00     0.001 A 
ATOM      5  C   UNL     1      77.870  33.337  51.819  1.00  0.00     0.016 A 
ATOM      6  C   UNL     1      76.719  34.129  51.978  1.00  0.00     0.074 A 
ENDROOT
BRANCH   1   7
ATOM      7  C   UNL     1      74.352  34.347  52.906  1.00  0.00     0.339 C 
ATOM      8  O   UNL     1      73.444  34.518  52.047  1.00  0.00    -0.246 OA
BRANCH   7   9
ATOM      9  O   UNL     1      74.251  34.952  54.162  1.00  0.00    -0.462 OA
BRANCH   9  10
ATOM     10  C   UNL     1      73.005  35.161  54.822  1.00  0.00     0.236 C 
BRANCH  10  11
ATOM     11  C   UNL     1      72.667  33.966  55.727  1.00  0.00     0.021 C 
ATOM     12  C   UNL     1      71.385  34.224  56.529  1.00  0.00     0.011 C 
ATOM     13  C   UNL     1      72.545  32.672  54.912  1.00  0.00     0.011 C 
ENDBRANCH  10  11
ENDBRANCH   9  10
ENDBRANCH   7   9
ENDBRANCH   1   7
BRANCH   6  14
ATOM     14  C   UNL     1      76.755  35.514  51.459  1.00  0.00     0.339 C 
ATOM     15  O   UNL     1      75.681  36.120  51.189  1.00  0.00    -0.246 OA
BRANCH  14  16
ATOM     16  O   UNL     1      77.990  36.125  51.213  1.00  0.00    -0.462 OA
BRANCH  16  17
ATOM     17  C   UNL     1      78.639  36.103  49.942  1.00  0.00     0.236 C 
BRANCH  17  18
ATOM     18  C   UNL     1      80.104  35.645  50.073  1.00  0.00     0.021 C 
ATOM     19  C   UNL     1      80.529  35.567  51.545  1.00  0.00     0.011 C 
ATOM     20  C   UNL     1      80.301  34.287  49.389  1.00  0.00     0.011 C 
ENDBRANCH  17  18
ENDBRANCH  16  17
ENDBRANCH  14  16
ENDBRANCH   6  14
TORSDOF 8
ENDMDL
MODEL 2
REMARK VINA RESULT:    -3.587      1.028      6.329
REMARK INTER + INTRA:          -5.135
REMARK INTER:                  -5.112
REMARK INTRA:                  -0.023
REMARK UNBOUND:                 0.129
REMARK SMILES CC(C)COC(=O)c1ccccc1C(=O)OCC(C)C
REMARK SMILES IDX 8 1 9 2 10 3 11 4 12 5 13 6 6 7 7 8 5 9 4 10 2 11 1 12 3 13
REMARK SMILES IDX 14 14 15 15 16 16 17 17 18 18 19 19 20 20
REMARK H PARENT
REMARK Flexibility Score: inf
ROOT
ATOM      1  C   UNL     1      77.429  34.159  51.936  1.00  0.00     0.074 A 
ATOM      2  C   UNL     1      78.301  33.056  51.970  1.00  0.00     0.016 A 
ATOM      3  C   UNL     1      77.843  31.796  52.360  1.00  0.00     0.001 A 
ATOM      4  C   UNL     1      76.509  31.618  52.721  1.00  0.00     0.001 A 
ATOM      5  C   UNL     1      75.633  32.704  52.717  1.00  0.00     0.016 A 
ATOM      6  C   UNL     1      76.080  33.987  52.351  1.00  0.00     0.074 A 
ENDROOT
BRANCH   1   7
ATOM      7  C   UNL     1      77.952  35.438  51.404  1.00  0.00     0.339 C 
ATOM      8  O   UNL     1      77.265  36.124  50.599  1.00  0.00    -0.246 OA
BRANCH   7   9
ATOM      9  O   UNL     1      79.241  35.852  51.755  1.00  0.00    -0.462 OA
BRANCH   9  10
ATOM     10  C   UNL     1      80.326  35.866  50.831  1.00  0.00     0.236 C 
BRANCH  10  11
ATOM     11  C   UNL     1      79.923  35.187  49.514  1.00  0.00     0.021 C 
ATOM     12  C   UNL     1      80.134  36.125  48.319  1.00  0.00     0.011 C 
ATOM     13  C   UNL     1      80.687  33.872  49.313  1.00  0.00     0.011 C 
ENDBRANCH  10  11
ENDBRANCH   9  10
ENDBRANCH   7   9
ENDBRANCH   1   7
BRANCH   6  14
ATOM     14  C   UNL     1      75.128  35.112  52.474  1.00  0.00     0.339 C 
ATOM     15  O   UNL     1      74.515  35.540  51.458  1.00  0.00    -0.246 OA
BRANCH  14  16
ATOM     16  O   UNL     1      74.957  35.737  53.716  1.00  0.00    -0.462 OA
BRANCH  16  17
ATOM     17  C   UNL     1      73.762  35.635  54.490  1.00  0.00     0.236 C 
BRANCH  17  18
ATOM     18  C   UNL     1      73.268  34.177  54.562  1.00  0.00     0.021 C 
ATOM     19  C   UNL     1      72.662  33.867  55.935  1.00  0.00     0.011 C 
ATOM     20  C   UNL     1      72.244  33.908  53.453  1.00  0.00     0.011 C 
ENDBRANCH  17  18
ENDBRANCH  16  17
ENDBRANCH  14  16
ENDBRANCH   6  14
TORSDOF 8
ENDMDL
MODEL 3
REMARK VINA RESULT:    -3.381      1.163      1.678
REMARK INTER + INTRA:          -4.833
REMARK INTER:                  -4.777
REMARK INTRA:                  -0.056
REMARK UNBOUND:                 0.129
REMARK SMILES CC(C)COC(=O)c1ccccc1C(=O)OCC(C)C
REMARK SMILES IDX 8 1 9 2 10 3 11 4 12 5 13 6 6 7 7 8 5 9 4 10 2 11 1 12 3 13
REMARK SMILES IDX 14 14 15 15 16 16 17 17 18 18 19 19 20 20
REMARK H PARENT
REMARK Flexibility Score: inf
ROOT
ATOM      1  C   UNL     1      76.130  34.104  52.312  1.00  0.00     0.074 A 
ATOM      2  C   UNL     1      75.460  32.880  52.491  1.00  0.00     0.016 A 
ATOM      3  C   UNL     1      76.163  31.674  52.489  1.00  0.00     0.001 A 
ATOM      4  C   UNL     1      77.545  31.672  52.311  1.00  0.00     0.001 A 
ATOM      5  C   UNL     1      78.227  32.872  52.108  1.00  0.00     0.016 A 
ATOM      6  C   UNL     1      77.533  34.096  52.081  1.00  0.00     0.074 A 
ENDROOT
BRANCH   1   7
ATOM      7  C   UNL     1      75.340  35.350  52.438  1.00  0.00     0.339 C 
ATOM      8  O   UNL     1      75.110  36.066  51.425  1.00  0.00    -0.246 OA
BRANCH   7   9
ATOM      9  O   UNL     1      74.901  35.760  53.701  1.00  0.00    -0.462 OA
BRANCH   9  10
ATOM     10  C   UNL     1      73.536  35.692  54.104  1.00  0.00     0.236 C 
BRANCH  10  11
ATOM     11  C   UNL     1      73.194  34.285  54.618  1.00  0.00     0.021 C 
ATOM     12  C   UNL     1      72.509  34.347  55.988  1.00  0.00     0.011 C 
ATOM     13  C   UNL     1      72.322  33.525  53.610  1.00  0.00     0.011 C 
ENDBRANCH  10  11
ENDBRANCH   9  10
ENDBRANCH   7   9
ENDBRANCH   1   7
BRANCH   6  14
ATOM     14  C   UNL     1      78.300  35.318  51.752  1.00  0.00     0.339 C 
ATOM     15  O   UNL     1      78.639  36.120  52.665  1.00  0.00    -0.246 OA
BRANCH  14  16
ATOM     16  O   UNL     1      78.592  35.608  50.414  1.00  0.00    -0.462 OA
BRANCH  16  17
ATOM     17  C   UNL     1      79.871  35.382  49.823  1.00  0.00     0.236 C 
BRANCH  17  18
ATOM     18  C   UNL     1      80.232  33.884  49.831  1.00  0.00     0.021 C 
ATOM     19  C   UNL     1      80.971  33.486  48.547  1.00  0.00     0.011 C 
ATOM     20  C   UNL     1      81.082  33.548  51.062  1.00  0.00     0.011 C 
ENDBRANCH  17  18
ENDBRANCH  16  17
ENDBRANCH  14  16
ENDBRANCH   6  14
TORSDOF 8
ENDMDL
MODEL 4
REMARK VINA RESULT:    -3.162      1.805      2.876
REMARK INTER + INTRA:          -4.511
REMARK INTER:                  -3.980
REMARK INTRA:                  -0.532
REMARK UNBOUND:                 0.129
REMARK SMILES CC(C)COC(=O)c1ccccc1C(=O)OCC(C)C
REMARK SMILES IDX 8 1 9 2 10 3 11 4 12 5 13 6 6 7 7 8 5 9 4 10 2 11 1 12 3 13
REMARK SMILES IDX 14 14 15 15 16 16 17 17 18 18 19 19 20 20
REMARK H PARENT
REMARK Flexibility Score: inf
ROOT
ATOM      1  C   UNL     1      74.115  34.464  52.704  1.00  0.00     0.074 A 
ATOM      2  C   UNL     1      72.760  34.567  52.340  1.00  0.00     0.016 A 
ATOM      3  C   UNL     1      72.365  35.392  51.285  1.00  0.00     0.001 A 
ATOM      4  C   UNL     1      73.316  36.125  50.578  1.00  0.00     0.001 A 
ATOM      5  C   UNL     1      74.662  36.056  50.937  1.00  0.00     0.016 A 
ATOM      6  C   UNL     1      75.078  35.250  52.013  1.00  0.00     0.074 A 
ENDROOT
BRANCH   1   7
ATOM      7  C   UNL     1      74.476  33.486  53.755  1.00  0.00     0.339 C 
ATOM      8  O   UNL     1      75.252  32.526  53.496  1.00  0.00    -0.246 OA
BRANCH   7   9
ATOM      9  O   UNL     1      73.902  33.599  55.026  1.00  0.00    -0.462 OA
BRANCH   9  10
ATOM     10  C   UNL     1      72.675  32.966  55.378  1.00  0.00     0.236 C 
BRANCH  10  11
ATOM     11  C   UNL     1      72.116  33.560  56.681  1.00  0.00     0.021 C 
ATOM     12  C   UNL     1      70.672  34.041  56.495  1.00  0.00     0.011 C 
ATOM     13  C   UNL     1      72.208  32.550  57.833  1.00  0.00     0.011 C 
ENDBRANCH  10  11
ENDBRANCH   9  10
ENDBRANCH   7   9
ENDBRANCH   1   7
BRANCH   6  14
ATOM     14  C   UNL     1      76.502  35.308  52.411  1.00  0.00     0.339 C 
ATOM     15  O   UNL     1      76.870  36.071  53.345  1.00  0.00    -0.246 OA
BRANCH  14  16
ATOM     16  O   UNL     1      77.445  34.554  51.702  1.00  0.00    -0.462 OA
BRANCH  16  17
ATOM     17  C   UNL     1      78.225  35.079  50.628  1.00  0.00     0.236 C 
BRANCH  17  18
ATOM     18  C   UNL     1      79.730  34.856  50.872  1.00  0.00     0.021 C 
ATOM     19  C   UNL     1      80.377  36.097  51.500  1.00  0.00     0.011 C 
ATOM     20  C   UNL     1      79.948  33.631  51.767  1.00  0.00     0.011 C 
ENDBRANCH  17  18
ENDBRANCH  16  17
ENDBRANCH  14  16
ENDBRANCH   6  14
TORSDOF 8
ENDMDL
MODEL 5
REMARK VINA RESULT:    -3.148      1.723      6.896
REMARK INTER + INTRA:          -4.490
REMARK INTER:                  -4.613
REMARK INTRA:                   0.122
REMARK UNBOUND:                 0.129
REMARK SMILES CC(C)COC(=O)c1ccccc1C(=O)OCC(C)C
REMARK SMILES IDX 8 1 9 2 10 3 11 4 12 5 13 6 6 7 7 8 5 9 4 10 2 11 1 12 3 13
REMARK SMILES IDX 14 14 15 15 16 16 17 17 18 18 19 19 20 20
REMARK H PARENT
REMARK Flexibility Score: inf
ROOT
ATOM      1  C   UNL     1      75.149  35.098  52.002  1.00  0.00     0.074 A 
ATOM      2  C   UNL     1      74.563  36.062  51.162  1.00  0.00     0.016 A 
ATOM      3  C   UNL     1      73.177  36.125  51.006  1.00  0.00     0.001 A 
ATOM      4  C   UNL     1      72.356  35.228  51.686  1.00  0.00     0.001 A 
ATOM      5  C   UNL     1      72.918  34.248  52.505  1.00  0.00     0.016 A 
ATOM      6  C   UNL     1      74.313  34.152  52.657  1.00  0.00     0.074 A 
ENDROOT
BRANCH   1   7
ATOM      7  C   UNL     1      76.614  35.161  52.211  1.00  0.00     0.339 C 
ATOM      8  O   UNL     1      77.104  35.946  53.068  1.00  0.00    -0.246 OA
BRANCH   7   9
ATOM      9  O   UNL     1      77.456  34.386  51.407  1.00  0.00    -0.462 OA
BRANCH   9  10
ATOM     10  C   UNL     1      78.623  33.740  51.909  1.00  0.00     0.236 C 
BRANCH  10  11
ATOM     11  C   UNL     1      79.890  34.401  51.344  1.00  0.00     0.021 C 
ATOM     12  C   UNL     1      79.608  35.080  49.999  1.00  0.00     0.011 C 
ATOM     13  C   UNL     1      80.485  35.402  52.343  1.00  0.00     0.011 C 
ENDBRANCH  10  11
ENDBRANCH   9  10
ENDBRANCH   7   9
ENDBRANCH   1   7
BRANCH   6  14
ATOM     14  C   UNL     1      74.846  33.024  53.452  1.00  0.00     0.339 C 
ATOM     15  O   UNL     1      75.767  32.298  52.987  1.00  0.00    -0.246 OA
BRANCH  14  16
ATOM     16  O   UNL     1      74.280  32.733  54.699  1.00  0.00    -0.462 OA
BRANCH  16  17
ATOM     17  C   UNL     1      72.878  32.790  54.959  1.00  0.00     0.236 C 
BRANCH  17  18
ATOM     18  C   UNL     1      72.589  33.499  56.296  1.00  0.00     0.021 C 
ATOM     19  C   UNL     1      71.206  34.161  56.282  1.00  0.00     0.011 C 
ATOM     20  C   UNL     1      72.693  32.505  57.459  1.00  0.00     0.011 C 
ENDBRANCH  17  18
ENDBRANCH  16  17
ENDBRANCH  14  16
ENDBRANCH   6  14
TORSDOF 8
ENDMDL
MODEL 6
REMARK VINA RESULT:    -2.743     15.714     17.139
REMARK INTER + INTRA:          -3.897
REMARK INTER:                  -2.706
REMARK INTRA:                  -1.190
REMARK UNBOUND:                 0.129
REMARK SMILES CC(C)COC(=O)c1ccccc1C(=O)OCC(C)C
REMARK SMILES IDX 8 1 9 2 10 3 11 4 12 5 13 6 6 7 7 8 5 9 4 10 2 11 1 12 3 13
REMARK SMILES IDX 14 14 15 15 16 16 17 17 18 18 19 19 20 20
REMARK H PARENT
REMARK Flexibility Score: inf
ROOT
ATOM      1  C   UNL     1      86.871  30.924  65.904  1.00  0.00     0.074 A 
ATOM      2  C   UNL     1      87.556  31.332  67.063  1.00  0.00     0.016 A 
ATOM      3  C   UNL     1      86.872  31.929  68.124  1.00  0.00     0.001 A 
ATOM      4  C   UNL     1      85.495  32.126  68.045  1.00  0.00     0.001 A 
ATOM      5  C   UNL     1      84.800  31.750  66.895  1.00  0.00     0.016 A 
ATOM      6  C   UNL     1      85.474  31.170  65.805  1.00  0.00     0.074 A 
ENDROOT
BRANCH   1   7
ATOM      7  C   UNL     1      87.638  30.196  64.868  1.00  0.00     0.339 C 
ATOM      8  O   UNL     1      87.966  30.771  63.794  1.00  0.00    -0.246 OA
BRANCH   7   9
ATOM      9  O   UNL     1      87.944  28.846  65.061  1.00  0.00    -0.462 OA
BRANCH   9  10
ATOM     10  C   UNL     1      88.125  27.932  63.982  1.00  0.00     0.236 C 
BRANCH  10  11
ATOM     11  C   UNL     1      87.352  26.630  64.242  1.00  0.00     0.021 C 
ATOM     12  C   UNL     1      85.869  26.911  64.514  1.00  0.00     0.011 C 
ATOM     13  C   UNL     1      87.513  25.648  63.074  1.00  0.00     0.011 C 
ENDBRANCH  10  11
ENDBRANCH   9  10
ENDBRANCH   7   9
ENDBRANCH   1   7
BRANCH   6  14
ATOM     14  C   UNL     1      84.696  30.897  64.576  1.00  0.00     0.339 C 
ATOM     15  O   UNL     1      83.918  29.906  64.524  1.00  0.00    -0.246 OA
BRANCH  14  16
ATOM     16  O   UNL     1      84.876  31.713  63.453  1.00  0.00    -0.462 OA
BRANCH  16  17
ATOM     17  C   UNL     1      84.582  33.109  63.439  1.00  0.00     0.236 C 
BRANCH  17  18
ATOM     18  C   UNL     1      85.830  33.938  63.080  1.00  0.00     0.021 C 
ATOM     19  C   UNL     1      85.439  35.304  62.504  1.00  0.00     0.011 C 
ATOM     20  C   UNL     1      86.725  34.114  64.312  1.00  0.00     0.011 C 
ENDBRANCH  17  18
ENDBRANCH  16  17
ENDBRANCH  14  16
ENDBRANCH   6  14
TORSDOF 8
ENDMDL
MODEL 7
REMARK VINA RESULT:    -2.608     15.854     17.366
REMARK INTER + INTRA:          -3.698
REMARK INTER:                  -3.862
REMARK INTRA:                   0.164
REMARK UNBOUND:                 0.129
REMARK SMILES CC(C)COC(=O)c1ccccc1C(=O)OCC(C)C
REMARK SMILES IDX 8 1 9 2 10 3 11 4 12 5 13 6 6 7 7 8 5 9 4 10 2 11 1 12 3 13
REMARK SMILES IDX 14 14 15 15 16 16 17 17 18 18 19 19 20 20
REMARK H PARENT
REMARK Flexibility Score: inf
ROOT
ATOM      1  C   UNL     1      85.777  29.667  65.182  1.00  0.00     0.074 A 
ATOM      2  C   UNL     1      84.876  28.819  64.512  1.00  0.00     0.016 A 
ATOM      3  C   UNL     1      83.546  29.198  64.320  1.00  0.00     0.001 A 
ATOM      4  C   UNL     1      83.095  30.428  64.793  1.00  0.00     0.001 A 
ATOM      5  C   UNL     1      83.965  31.275  65.482  1.00  0.00     0.016 A 
ATOM      6  C   UNL     1      85.303  30.901  65.707  1.00  0.00     0.074 A 
ENDROOT
BRANCH   1   7
ATOM      7  C   UNL     1      87.197  29.254  65.250  1.00  0.00     0.339 C 
ATOM      8  O   UNL     1      87.979  29.791  66.081  1.00  0.00    -0.246 OA
BRANCH   7   9
ATOM      9  O   UNL     1      87.680  28.305  64.344  1.00  0.00    -0.462 OA
BRANCH   9  10
ATOM     10  C   UNL     1      87.500  26.902  64.525  1.00  0.00     0.236 C 
BRANCH  10  11
ATOM     11  C   UNL     1      88.119  26.123  63.354  1.00  0.00     0.021 C 
ATOM     12  C   UNL     1      87.389  24.794  63.126  1.00  0.00     0.011 C 
ATOM     13  C   UNL     1      88.125  26.965  62.071  1.00  0.00     0.011 C 
ENDBRANCH  10  11
ENDBRANCH   9  10
ENDBRANCH   7   9
ENDBRANCH   1   7
BRANCH   6  14
ATOM     14  C   UNL     1      86.140  31.795  66.538  1.00  0.00     0.339 C 
ATOM     15  O   UNL     1      86.089  31.724  67.796  1.00  0.00    -0.246 OA
BRANCH  14  16
ATOM     16  O   UNL     1      86.944  32.758  65.917  1.00  0.00    -0.462 OA
BRANCH  16  17
ATOM     17  C   UNL     1      86.696  33.262  64.605  1.00  0.00     0.236 C 
BRANCH  17  18
ATOM     18  C   UNL     1      87.529  34.528  64.328  1.00  0.00     0.021 C 
ATOM     19  C   UNL     1      86.684  35.607  63.641  1.00  0.00     0.011 C 
ATOM     20  C   UNL     1      88.125  35.069  65.633  1.00  0.00     0.011 C 
ENDBRANCH  17  18
ENDBRANCH  16  17
ENDBRANCH  14  16
ENDBRANCH   6  14
TORSDOF 8
ENDMDL
MODEL 8
REMARK VINA RESULT:    -2.606     15.987     17.482
REMARK INTER + INTRA:          -3.695
REMARK INTER:                  -3.618
REMARK INTRA:                  -0.076
REMARK UNBOUND:                 0.129
REMARK SMILES CC(C)COC(=O)c1ccccc1C(=O)OCC(C)C
REMARK SMILES IDX 8 1 9 2 10 3 11 4 12 5 13 6 6 7 7 8 5 9 4 10 2 11 1 12 3 13
REMARK SMILES IDX 14 14 15 15 16 16 17 17 18 18 19 19 20 20
REMARK H PARENT
REMARK Flexibility Score: inf
ROOT
ATOM      1  C   UNL     1      84.588  29.043  64.649  1.00  0.00     0.074 A 
ATOM      2  C   UNL     1      83.195  29.148  64.483  1.00  0.00     0.016 A 
ATOM      3  C   UNL     1      82.586  30.396  64.335  1.00  0.00     0.001 A 
ATOM      4  C   UNL     1      83.357  31.556  64.350  1.00  0.00     0.001 A 
ATOM      5  C   UNL     1      84.737  31.476  64.538  1.00  0.00     0.016 A 
ATOM      6  C   UNL     1      85.368  30.231  64.714  1.00  0.00     0.074 A 
ENDROOT
BRANCH   1   7
ATOM      7  C   UNL     1      85.180  27.687  64.686  1.00  0.00     0.339 C 
ATOM      8  O   UNL     1      84.452  26.677  64.887  1.00  0.00    -0.246 OA
BRANCH   7   9
ATOM      9  O   UNL     1      86.564  27.538  64.556  1.00  0.00    -0.462 OA
BRANCH   9  10
ATOM     10  C   UNL     1      87.230  26.293  64.753  1.00  0.00     0.236 C 
BRANCH  10  11
ATOM     11  C   UNL     1      88.125  25.962  63.549  1.00  0.00     0.021 C 
ATOM     12  C   UNL     1      87.698  24.646  62.887  1.00  0.00     0.011 C 
ATOM     13  C   UNL     1      88.125  27.108  62.528  1.00  0.00     0.011 C 
ENDBRANCH  10  11
ENDBRANCH   9  10
ENDBRANCH   7   9
ENDBRANCH   1   7
BRANCH   6  14
ATOM     14  C   UNL     1      86.816  30.225  65.018  1.00  0.00     0.339 C 
ATOM     15  O   UNL     1      87.661  30.289  64.084  1.00  0.00    -0.246 OA
BRANCH  14  16
ATOM     16  O   UNL     1      87.240  30.089  66.345  1.00  0.00    -0.462 OA
BRANCH  16  17
ATOM     17  C   UNL     1      88.125  31.007  66.986  1.00  0.00     0.236 C 
BRANCH  17  18
ATOM     18  C   UNL     1      87.416  32.338  67.299  1.00  0.00     0.021 C 
ATOM     19  C   UNL     1      87.404  33.259  66.073  1.00  0.00     0.011 C 
ATOM     20  C   UNL     1      85.985  32.078  67.784  1.00  0.00     0.011 C 
ENDBRANCH  17  18
ENDBRANCH  16  17
ENDBRANCH  14  16
ENDBRANCH   6  14
TORSDOF 8
ENDMDL
