MODEL 1
REMARK VINA RESULT:    -7.464      0.000      0.000
REMARK INTER + INTRA:         -11.733
REMARK INTER:                 -10.737
REMARK INTRA:                  -0.996
REMARK UNBOUND:                -0.996
REMARK SMILES O=c1c(O[C@H]2O[C@H](CO)[C@H](O)[C@@H](O)[C@@H]2O)c(-c2ccc(O)cc2)oc2cc(O)cc(O)c12
REMARK SMILES IDX 4 1 3 2 16 3 24 4 2 5 25 6 1 7 32 8 26 9 30 10 27 11 29 12
REMARK SMILES IDX 17 13 18 14 19 15 20 16 23 17 22 18 21 19 31 21 28 23 5 25
REMARK SMILES IDX 14 26 6 27 12 28 7 29 10 30 15 31 13 33 8 35 9 36 11 38
REMARK H PARENT 21 20 31 22 28 24 15 32 13 34 9 37 11 39
REMARK Flexibility Score: inf
ROOT
ATOM      1  O   UNL     1       0.899 -23.694  27.664  1.00  0.00    -0.454 OA
ENDROOT
BRANCH   1   2
ATOM      2  C   UNL     1       0.408 -22.585  26.966  1.00  0.00     0.214 A 
ATOM      3  C   UNL     1      -0.621 -21.772  27.487  1.00  0.00     0.180 A 
ATOM      4  O   UNL     1      -1.117 -20.784  26.746  1.00  0.00    -0.452 OA
ATOM      5  C   UNL     1       0.936 -22.284  25.706  1.00  0.00     0.239 A 
ATOM      6  C   UNL     1      -0.669 -20.486  25.532  1.00  0.00     0.146 A 
ATOM      7  O   UNL     1       1.882 -22.986  25.253  1.00  0.00    -0.285 OA
ATOM      8  C   UNL     1       0.395 -21.219  24.957  1.00  0.00     0.111 A 
ATOM      9  C   UNL     1      -1.255 -19.429  24.830  1.00  0.00     0.094 A 
ATOM     10  C   UNL     1       0.859 -20.868  23.667  1.00  0.00     0.134 A 
ATOM     11  C   UNL     1      -0.796 -19.085  23.558  1.00  0.00     0.123 A 
ATOM     12  C   UNL     1       0.259 -19.802  22.980  1.00  0.00     0.093 A 
BRANCH   3  13
ATOM     13  C   UNL     1      -1.172 -21.966  28.845  1.00  0.00     0.021 A 
ATOM     14  C   UNL     1      -1.440 -20.871  29.685  1.00  0.00     0.016 A 
ATOM     15  C   UNL     1      -1.964 -21.074  30.965  1.00  0.00     0.047 A 
ATOM     16  C   UNL     1      -2.243 -22.368  31.413  1.00  0.00     0.115 A 
ATOM     17  C   UNL     1      -1.474 -23.262  29.293  1.00  0.00     0.016 A 
ATOM     18  C   UNL     1      -2.001 -23.463  30.573  1.00  0.00     0.047 A 
BRANCH  16  19
ATOM     19  O   UNL     1      -2.765 -22.557  32.692  1.00  0.00    -0.508 OA
ATOM     20  H   UNL     1      -3.760 -22.512  32.870  1.00  0.00     0.293 HD
ENDBRANCH  16  19
ENDBRANCH   3  13
BRANCH  10  21
ATOM     21  O   UNL     1       1.906 -21.567  23.065  1.00  0.00    -0.507 OA
ATOM     22  H   UNL     1       2.675 -21.088  22.611  1.00  0.00     0.293 HD
ENDBRANCH  10  21
BRANCH  11  23
ATOM     23  O   UNL     1      -1.394 -18.028  22.875  1.00  0.00    -0.508 OA
ATOM     24  H   UNL     1      -1.057 -17.077  22.973  1.00  0.00     0.293 HD
ENDBRANCH  11  23
ENDBRANCH   1   2
BRANCH   1  25
ATOM     25  C   UNL     1       2.202 -23.709  28.251  1.00  0.00     0.339 C 
ATOM     26  C   UNL     1       2.537 -25.145  28.746  1.00  0.00     0.214 C 
ATOM     27  O   UNL     1       2.285 -22.717  29.270  1.00  0.00    -0.332 OA
ATOM     28  C   UNL     1       3.423 -25.078  29.998  1.00  0.00     0.180 C 
ATOM     29  C   UNL     1       1.769 -23.195  30.497  1.00  0.00     0.179 C 
ATOM     30  C   UNL     1       2.740 -24.241  31.111  1.00  0.00     0.177 C 
BRANCH  26  31
ATOM     31  O   UNL     1       3.199 -25.866  27.739  1.00  0.00    -0.384 OA
ATOM     32  H   UNL     1       3.821 -26.489  28.197  1.00  0.00     0.211 HD
ENDBRANCH  26  31
BRANCH  28  33
ATOM     33  O   UNL     1       3.679 -26.380  30.457  1.00  0.00    -0.387 OA
ATOM     34  H   UNL     1       4.285 -26.803  29.793  1.00  0.00     0.211 HD
ENDBRANCH  28  33
BRANCH  29  35
ATOM     35  C   UNL     1       1.471 -22.011  31.434  1.00  0.00     0.191 C 
BRANCH  35  36
ATOM     36  O   UNL     1       0.901 -22.442  32.641  1.00  0.00    -0.394 OA
ATOM     37  H   UNL     1       0.362 -21.684  32.992  1.00  0.00     0.210 HD
ENDBRANCH  35  36
ENDBRANCH  29  35
BRANCH  30  38
ATOM     38  O   UNL     1       3.728 -23.613  31.888  1.00  0.00    -0.387 OA
ATOM     39  H   UNL     1       4.559 -23.603  31.346  1.00  0.00     0.211 HD
ENDBRANCH  30  38
ENDBRANCH   1  25
TORSDOF 11
ENDMDL
MODEL 2
REMARK VINA RESULT:    -7.442      2.656      7.914
REMARK INTER + INTRA:         -11.701
REMARK INTER:                 -10.436
REMARK INTRA:                  -1.265
REMARK UNBOUND:                -0.996
REMARK SMILES O=c1c(O[C@H]2O[C@H](CO)[C@H](O)[C@@H](O)[C@@H]2O)c(-c2ccc(O)cc2)oc2cc(O)cc(O)c12
REMARK SMILES IDX 4 1 3 2 16 3 24 4 2 5 25 6 1 7 32 8 26 9 30 10 27 11 29 12
REMARK SMILES IDX 17 13 18 14 19 15 20 16 23 17 22 18 21 19 31 21 28 23 5 25
REMARK SMILES IDX 14 26 6 27 12 28 7 29 10 30 15 31 13 33 8 35 9 36 11 38
REMARK H PARENT 21 20 31 22 28 24 15 32 13 34 9 37 11 39
REMARK Flexibility Score: inf
ROOT
ATOM      1  O   UNL     1      -0.150 -19.463  27.219  1.00  0.00    -0.454 OA
ENDROOT
BRANCH   1   2
ATOM      2  C   UNL     1      -0.324 -20.644  27.950  1.00  0.00     0.214 A 
ATOM      3  C   UNL     1       0.193 -21.879  27.505  1.00  0.00     0.180 A 
ATOM      4  O   UNL     1      -0.077 -22.989  28.187  1.00  0.00    -0.452 OA
ATOM      5  C   UNL     1      -1.049 -20.605  29.145  1.00  0.00     0.239 A 
ATOM      6  C   UNL     1      -0.788 -23.002  29.308  1.00  0.00     0.146 A 
ATOM      7  O   UNL     1      -1.481 -19.497  29.566  1.00  0.00    -0.285 OA
ATOM      8  C   UNL     1      -1.301 -21.800  29.850  1.00  0.00     0.111 A 
ATOM      9  C   UNL     1      -1.019 -24.220  29.954  1.00  0.00     0.094 A 
ATOM     10  C   UNL     1      -2.045 -21.846  31.052  1.00  0.00     0.134 A 
ATOM     11  C   UNL     1      -1.754 -24.262  31.140  1.00  0.00     0.123 A 
ATOM     12  C   UNL     1      -2.263 -23.078  31.687  1.00  0.00     0.093 A 
BRANCH   3  13
ATOM     13  C   UNL     1       1.044 -21.993  26.301  1.00  0.00     0.021 A 
ATOM     14  C   UNL     1       2.202 -21.209  26.152  1.00  0.00     0.016 A 
ATOM     15  C   UNL     1       2.997 -21.333  25.008  1.00  0.00     0.047 A 
ATOM     16  C   UNL     1       2.655 -22.251  24.011  1.00  0.00     0.115 A 
ATOM     17  C   UNL     1       0.718 -22.928  25.306  1.00  0.00     0.016 A 
ATOM     18  C   UNL     1       1.516 -23.053  24.163  1.00  0.00     0.047 A 
BRANCH  16  19
ATOM     19  O   UNL     1       3.456 -22.364  22.876  1.00  0.00    -0.508 OA
ATOM     20  H   UNL     1       4.376 -21.943  22.832  1.00  0.00     0.293 HD
ENDBRANCH  16  19
ENDBRANCH   3  13
BRANCH  10  21
ATOM     21  O   UNL     1      -2.567 -20.683  31.620  1.00  0.00    -0.507 OA
ATOM     22  H   UNL     1      -2.418 -19.773  31.201  1.00  0.00     0.293 HD
ENDBRANCH  10  21
BRANCH  11  23
ATOM     23  O   UNL     1      -1.973 -25.486  31.768  1.00  0.00    -0.508 OA
ATOM     24  H   UNL     1      -1.206 -26.111  31.993  1.00  0.00     0.293 HD
ENDBRANCH  11  23
ENDBRANCH   1   2
BRANCH   1  25
ATOM     25  C   UNL     1      -1.117 -19.005  26.271  1.00  0.00     0.339 C 
ATOM     26  C   UNL     1      -0.446 -18.840  24.878  1.00  0.00     0.214 C 
ATOM     27  O   UNL     1      -1.742 -17.819  26.752  1.00  0.00    -0.332 OA
ATOM     28  C   UNL     1      -1.100 -17.681  24.113  1.00  0.00     0.180 C 
ATOM     29  C   UNL     1      -0.966 -16.673  26.457  1.00  0.00     0.179 C 
ATOM     30  C   UNL     1      -1.026 -16.368  24.935  1.00  0.00     0.177 C 
BRANCH  26  31
ATOM     31  O   UNL     1      -0.570 -20.024  24.133  1.00  0.00    -0.384 OA
ATOM     32  H   UNL     1       0.353 -20.347  23.958  1.00  0.00     0.211 HD
ENDBRANCH  26  31
BRANCH  28  33
ATOM     33  O   UNL     1      -0.454 -17.516  22.876  1.00  0.00    -0.387 OA
ATOM     34  H   UNL     1      -0.074 -18.400  22.632  1.00  0.00     0.211 HD
ENDBRANCH  28  33
BRANCH  29  35
ATOM     35  C   UNL     1      -1.420 -15.496  27.337  1.00  0.00     0.191 C 
BRANCH  35  36
ATOM     36  O   UNL     1      -2.780 -15.596  27.670  1.00  0.00    -0.394 OA
ATOM     37  H   UNL     1      -3.145 -16.367  27.160  1.00  0.00     0.210 HD
ENDBRANCH  35  36
ENDBRANCH  29  35
BRANCH  30  38
ATOM     38  O   UNL     1      -2.140 -15.568  24.627  1.00  0.00    -0.387 OA
ATOM     39  H   UNL     1      -1.861 -14.951  23.901  1.00  0.00     0.211 HD
ENDBRANCH  30  38
ENDBRANCH   1  25
TORSDOF 11
ENDMDL
MODEL 3
REMARK VINA RESULT:    -7.429      8.725     12.195
REMARK INTER + INTRA:         -11.682
REMARK INTER:                 -10.325
REMARK INTRA:                  -1.358
REMARK UNBOUND:                -0.996
REMARK SMILES O=c1c(O[C@H]2O[C@H](CO)[C@H](O)[C@@H](O)[C@@H]2O)c(-c2ccc(O)cc2)oc2cc(O)cc(O)c12
REMARK SMILES IDX 4 1 3 2 16 3 24 4 2 5 25 6 1 7 32 8 26 9 30 10 27 11 29 12
REMARK SMILES IDX 17 13 18 14 19 15 20 16 23 17 22 18 21 19 31 21 28 23 5 25
REMARK SMILES IDX 14 26 6 27 12 28 7 29 10 30 15 31 13 33 8 35 9 36 11 38
REMARK H PARENT 21 20 31 22 28 24 15 32 13 34 9 37 11 39
REMARK Flexibility Score: inf
ROOT
ATOM      1  O   UNL     1      -4.071 -12.437  29.142  1.00  0.00    -0.454 OA
ENDROOT
BRANCH   1   2
ATOM      2  C   UNL     1      -2.799 -12.240  29.694  1.00  0.00     0.214 A 
ATOM      3  C   UNL     1      -1.648 -12.851  29.154  1.00  0.00     0.180 A 
ATOM      4  O   UNL     1      -0.477 -12.707  29.769  1.00  0.00    -0.452 OA
ATOM      5  C   UNL     1      -2.668 -11.431  30.828  1.00  0.00     0.239 A 
ATOM      6  C   UNL     1      -0.313 -11.975  30.865  1.00  0.00     0.146 A 
ATOM      7  O   UNL     1      -3.688 -10.852  31.292  1.00  0.00    -0.285 OA
ATOM      8  C   UNL     1      -1.407 -11.288  31.443  1.00  0.00     0.111 A 
ATOM      9  C   UNL     1       0.958 -11.884  31.440  1.00  0.00     0.094 A 
ATOM     10  C   UNL     1      -1.197 -10.507  32.604  1.00  0.00     0.134 A 
ATOM     11  C   UNL     1       1.161 -11.114  32.585  1.00  0.00     0.123 A 
ATOM     12  C   UNL     1       0.087 -10.427  33.163  1.00  0.00     0.093 A 
BRANCH   3  13
ATOM     13  C   UNL     1      -1.686 -13.647  27.909  1.00  0.00     0.021 A 
ATOM     14  C   UNL     1      -1.732 -15.052  27.945  1.00  0.00     0.016 A 
ATOM     15  C   UNL     1      -1.771 -15.789  26.757  1.00  0.00     0.047 A 
ATOM     16  C   UNL     1      -1.784 -15.131  25.523  1.00  0.00     0.115 A 
ATOM     17  C   UNL     1      -1.720 -12.993  26.667  1.00  0.00     0.016 A 
ATOM     18  C   UNL     1      -1.762 -13.731  25.480  1.00  0.00     0.047 A 
BRANCH  16  19
ATOM     19  O   UNL     1      -1.822 -15.877  24.346  1.00  0.00    -0.508 OA
ATOM     20  H   UNL     1      -1.786 -15.434  23.437  1.00  0.00     0.293 HD
ENDBRANCH  16  19
ENDBRANCH   3  13
BRANCH  10  21
ATOM     21  O   UNL     1      -2.249  -9.814  33.204  1.00  0.00    -0.507 OA
ATOM     22  H   UNL     1      -2.122  -8.890  33.598  1.00  0.00     0.293 HD
ENDBRANCH  10  21
BRANCH  11  23
ATOM     23  O   UNL     1       2.436 -11.035  33.142  1.00  0.00    -0.508 OA
ATOM     24  H   UNL     1       2.987 -11.867  33.322  1.00  0.00     0.293 HD
ENDBRANCH  11  23
ENDBRANCH   1   2
BRANCH   1  25
ATOM     25  C   UNL     1      -4.760 -13.684  29.247  1.00  0.00     0.339 C 
ATOM     26  C   UNL     1      -5.992 -13.682  28.296  1.00  0.00     0.214 C 
ATOM     27  O   UNL     1      -5.087 -13.944  30.608  1.00  0.00    -0.332 OA
ATOM     28  C   UNL     1      -7.128 -14.516  28.904  1.00  0.00     0.180 C 
ATOM     29  C   UNL     1      -6.286 -13.292  30.983  1.00  0.00     0.179 C 
ATOM     30  C   UNL     1      -7.502 -13.990  30.314  1.00  0.00     0.177 C 
BRANCH  26  31
ATOM     31  O   UNL     1      -5.641 -14.208  27.042  1.00  0.00    -0.384 OA
ATOM     32  H   UNL     1      -5.904 -15.165  27.052  1.00  0.00     0.211 HD
ENDBRANCH  26  31
BRANCH  28  33
ATOM     33  O   UNL     1      -8.246 -14.468  28.056  1.00  0.00    -0.387 OA
ATOM     34  H   UNL     1      -7.963 -14.856  27.187  1.00  0.00     0.211 HD
ENDBRANCH  28  33
BRANCH  29  35
ATOM     35  C   UNL     1      -6.385 -13.224  32.517  1.00  0.00     0.191 C 
BRANCH  35  36
ATOM     36  O   UNL     1      -6.024 -14.443  33.111  1.00  0.00    -0.394 OA
ATOM     37  H   UNL     1      -5.047 -14.552  32.972  1.00  0.00     0.210 HD
ENDBRANCH  35  36
ENDBRANCH  29  35
BRANCH  30  38
ATOM     38  O   UNL     1      -7.959 -15.062  31.100  1.00  0.00    -0.387 OA
ATOM     39  H   UNL     1      -8.727 -14.725  31.631  1.00  0.00     0.211 HD
ENDBRANCH  30  38
ENDBRANCH   1  25
TORSDOF 11
ENDMDL
MODEL 4
REMARK VINA RESULT:    -7.398      2.428      7.755
REMARK INTER + INTRA:         -11.637
REMARK INTER:                 -10.546
REMARK INTRA:                  -1.092
REMARK UNBOUND:                -0.996
REMARK SMILES O=c1c(O[C@H]2O[C@H](CO)[C@H](O)[C@@H](O)[C@@H]2O)c(-c2ccc(O)cc2)oc2cc(O)cc(O)c12
REMARK SMILES IDX 4 1 3 2 16 3 24 4 2 5 25 6 1 7 32 8 26 9 30 10 27 11 29 12
REMARK SMILES IDX 17 13 18 14 19 15 20 16 23 17 22 18 21 19 31 21 28 23 5 25
REMARK SMILES IDX 14 26 6 27 12 28 7 29 10 30 15 31 13 33 8 35 9 36 11 38
REMARK H PARENT 21 20 31 22 28 24 15 32 13 34 9 37 11 39
REMARK Flexibility Score: inf
ROOT
ATOM      1  O   UNL     1       0.056 -20.281  27.613  1.00  0.00    -0.454 OA
ENDROOT
BRANCH   1   2
ATOM      2  C   UNL     1      -0.114 -21.508  28.266  1.00  0.00     0.214 A 
ATOM      3  C   UNL     1       0.486 -22.694  27.792  1.00  0.00     0.180 A 
ATOM      4  O   UNL     1       0.221 -23.851  28.393  1.00  0.00    -0.452 OA
ATOM      5  C   UNL     1      -0.919 -21.566  29.408  1.00  0.00     0.239 A 
ATOM      6  C   UNL     1      -0.564 -23.956  29.459  1.00  0.00     0.146 A 
ATOM      7  O   UNL     1      -1.428 -20.502  29.856  1.00  0.00    -0.285 OA
ATOM      8  C   UNL     1      -1.165 -22.808  30.027  1.00  0.00     0.111 A 
ATOM      9  C   UNL     1      -0.784 -25.217  30.021  1.00  0.00     0.094 A 
ATOM     10  C   UNL     1      -1.986 -22.953  31.170  1.00  0.00     0.134 A 
ATOM     11  C   UNL     1      -1.595 -25.356  31.148  1.00  0.00     0.123 A 
ATOM     12  C   UNL     1      -2.192 -24.227  31.721  1.00  0.00     0.093 A 
BRANCH   3  13
ATOM     13  C   UNL     1       1.421 -22.704  26.647  1.00  0.00     0.021 A 
ATOM     14  C   UNL     1       1.143 -23.448  25.487  1.00  0.00     0.016 A 
ATOM     15  C   UNL     1       2.037 -23.442  24.411  1.00  0.00     0.047 A 
ATOM     16  C   UNL     1       3.208 -22.682  24.476  1.00  0.00     0.115 A 
ATOM     17  C   UNL     1       2.589 -21.926  26.696  1.00  0.00     0.016 A 
ATOM     18  C   UNL     1       3.481 -21.919  25.619  1.00  0.00     0.047 A 
BRANCH  16  19
ATOM     19  O   UNL     1       4.092 -22.686  23.398  1.00  0.00    -0.508 OA
ATOM     20  H   UNL     1       4.577 -23.527  23.114  1.00  0.00     0.293 HD
ENDBRANCH  16  19
ENDBRANCH   3  13
BRANCH  10  21
ATOM     21  O   UNL     1      -2.597 -21.846  31.761  1.00  0.00    -0.507 OA
ATOM     22  H   UNL     1      -2.245 -21.438  32.619  1.00  0.00     0.293 HD
ENDBRANCH  10  21
BRANCH  11  23
ATOM     23  O   UNL     1      -1.801 -26.622  31.693  1.00  0.00    -0.508 OA
ATOM     24  H   UNL     1      -2.622 -26.831  32.250  1.00  0.00     0.293 HD
ENDBRANCH  11  23
ENDBRANCH   1   2
BRANCH   1  25
ATOM     25  C   UNL     1      -0.943 -19.732  26.752  1.00  0.00     0.339 C 
ATOM     26  C   UNL     1      -0.753 -20.286  25.311  1.00  0.00     0.214 C 
ATOM     27  O   UNL     1      -0.920 -18.310  26.828  1.00  0.00    -0.332 OA
ATOM     28  C   UNL     1      -1.173 -19.228  24.281  1.00  0.00     0.180 C 
ATOM     29  C   UNL     1       0.065 -17.765  25.970  1.00  0.00     0.179 C 
ATOM     30  C   UNL     1      -0.380 -17.912  24.489  1.00  0.00     0.177 C 
BRANCH  26  31
ATOM     31  O   UNL     1      -1.520 -21.449  25.131  1.00  0.00    -0.384 OA
ATOM     32  H   UNL     1      -2.104 -21.286  24.345  1.00  0.00     0.211 HD
ENDBRANCH  26  31
BRANCH  28  33
ATOM     33  O   UNL     1      -0.955 -19.727  22.986  1.00  0.00    -0.387 OA
ATOM     34  H   UNL     1      -1.740 -19.459  22.441  1.00  0.00     0.211 HD
ENDBRANCH  28  33
BRANCH  29  35
ATOM     35  C   UNL     1       0.367 -16.313  26.379  1.00  0.00     0.191 C 
BRANCH  35  36
ATOM     36  O   UNL     1       1.274 -15.708  25.496  1.00  0.00    -0.394 OA
ATOM     37  H   UNL     1       1.174 -14.726  25.609  1.00  0.00     0.210 HD
ENDBRANCH  35  36
ENDBRANCH  29  35
BRANCH  30  38
ATOM     38  O   UNL     1      -1.179 -16.825  24.095  1.00  0.00    -0.387 OA
ATOM     39  H   UNL     1      -0.876 -16.039  24.620  1.00  0.00     0.211 HD
ENDBRANCH  30  38
ENDBRANCH   1  25
TORSDOF 11
ENDMDL
MODEL 5
REMARK VINA RESULT:    -7.374      7.043     11.064
REMARK INTER + INTRA:         -11.603
REMARK INTER:                 -10.127
REMARK INTRA:                  -1.475
REMARK UNBOUND:                -0.996
REMARK SMILES O=c1c(O[C@H]2O[C@H](CO)[C@H](O)[C@@H](O)[C@@H]2O)c(-c2ccc(O)cc2)oc2cc(O)cc(O)c12
REMARK SMILES IDX 4 1 3 2 16 3 24 4 2 5 25 6 1 7 32 8 26 9 30 10 27 11 29 12
REMARK SMILES IDX 17 13 18 14 19 15 20 16 23 17 22 18 21 19 31 21 28 23 5 25
REMARK SMILES IDX 14 26 6 27 12 28 7 29 10 30 15 31 13 33 8 35 9 36 11 38
REMARK H PARENT 21 20 31 22 28 24 15 32 13 34 9 37 11 39
REMARK Flexibility Score: inf
ROOT
ATOM      1  O   UNL     1      -2.771 -13.770  29.859  1.00  0.00    -0.454 OA
ENDROOT
BRANCH   1   2
ATOM      2  C   UNL     1      -1.607 -14.359  30.368  1.00  0.00     0.214 A 
ATOM      3  C   UNL     1      -0.790 -15.197  29.581  1.00  0.00     0.180 A 
ATOM      4  O   UNL     1       0.255 -15.806  30.136  1.00  0.00    -0.452 OA
ATOM      5  C   UNL     1      -1.255 -14.128  31.702  1.00  0.00     0.239 A 
ATOM      6  C   UNL     1       0.606 -15.641  31.406  1.00  0.00     0.146 A 
ATOM      7  O   UNL     1      -1.962 -13.349  32.399  1.00  0.00    -0.285 OA
ATOM      8  C   UNL     1      -0.131 -14.778  32.251  1.00  0.00     0.111 A 
ATOM      9  C   UNL     1       1.721 -16.326  31.899  1.00  0.00     0.094 A 
ATOM     10  C   UNL     1       0.276 -14.615  33.596  1.00  0.00     0.134 A 
ATOM     11  C   UNL     1       2.119 -16.163  33.226  1.00  0.00     0.123 A 
ATOM     12  C   UNL     1       1.400 -15.309  34.071  1.00  0.00     0.093 A 
BRANCH   3  13
ATOM     13  C   UNL     1      -1.041 -15.421  28.142  1.00  0.00     0.021 A 
ATOM     14  C   UNL     1      -0.979 -14.363  27.218  1.00  0.00     0.016 A 
ATOM     15  C   UNL     1      -1.215 -14.595  25.860  1.00  0.00     0.047 A 
ATOM     16  C   UNL     1      -1.499 -15.887  25.407  1.00  0.00     0.115 A 
ATOM     17  C   UNL     1      -1.306 -16.719  27.677  1.00  0.00     0.016 A 
ATOM     18  C   UNL     1      -1.540 -16.950  26.318  1.00  0.00     0.047 A 
BRANCH  16  19
ATOM     19  O   UNL     1      -1.734 -16.104  24.050  1.00  0.00    -0.508 OA
ATOM     20  H   UNL     1      -1.750 -17.037  23.659  1.00  0.00     0.293 HD
ENDBRANCH  16  19
ENDBRANCH   3  13
BRANCH  10  21
ATOM     21  O   UNL     1      -0.423 -13.773  34.462  1.00  0.00    -0.507 OA
ATOM     22  H   UNL     1      -1.432 -13.690  34.425  1.00  0.00     0.293 HD
ENDBRANCH  10  21
BRANCH  11  23
ATOM     23  O   UNL     1       3.233 -16.853  33.698  1.00  0.00    -0.508 OA
ATOM     24  H   UNL     1       3.204 -17.853  33.867  1.00  0.00     0.293 HD
ENDBRANCH  11  23
ENDBRANCH   1   2
BRANCH   1  25
ATOM     25  C   UNL     1      -3.994 -14.496  29.722  1.00  0.00     0.339 C 
ATOM     26  C   UNL     1      -4.813 -13.921  28.531  1.00  0.00     0.214 C 
ATOM     27  O   UNL     1      -4.700 -14.494  30.959  1.00  0.00    -0.332 OA
ATOM     28  C   UNL     1      -6.316 -14.043  28.818  1.00  0.00     0.180 C 
ATOM     29  C   UNL     1      -5.463 -13.312  31.113  1.00  0.00     0.179 C 
ATOM     30  C   UNL     1      -6.682 -13.336  30.150  1.00  0.00     0.177 C 
BRANCH  26  31
ATOM     31  O   UNL     1      -4.502 -14.609  27.348  1.00  0.00    -0.384 OA
ATOM     32  H   UNL     1      -4.443 -13.927  26.629  1.00  0.00     0.211 HD
ENDBRANCH  26  31
BRANCH  28  33
ATOM     33  O   UNL     1      -7.041 -13.480  27.755  1.00  0.00    -0.387 OA
ATOM     34  H   UNL     1      -7.796 -12.978  28.159  1.00  0.00     0.211 HD
ENDBRANCH  28  33
BRANCH  29  35
ATOM     35  C   UNL     1      -5.853 -13.133  32.591  1.00  0.00     0.191 C 
BRANCH  35  36
ATOM     36  O   UNL     1      -6.084 -14.368  33.216  1.00  0.00    -0.394 OA
ATOM     37  H   UNL     1      -6.106 -15.054  32.497  1.00  0.00     0.210 HD
ENDBRANCH  35  36
ENDBRANCH  29  35
BRANCH  30  38
ATOM     38  O   UNL     1      -7.773 -13.997  30.738  1.00  0.00    -0.387 OA
ATOM     39  H   UNL     1      -8.573 -13.430  30.582  1.00  0.00     0.211 HD
ENDBRANCH  30  38
ENDBRANCH   1  25
TORSDOF 11
ENDMDL
MODEL 6
REMARK VINA RESULT:    -7.283      2.672      5.437
REMARK INTER + INTRA:         -11.472
REMARK INTER:                  -9.887
REMARK INTRA:                  -1.585
REMARK UNBOUND:                -0.996
REMARK SMILES O=c1c(O[C@H]2O[C@H](CO)[C@H](O)[C@@H](O)[C@@H]2O)c(-c2ccc(O)cc2)oc2cc(O)cc(O)c12
REMARK SMILES IDX 4 1 3 2 16 3 24 4 2 5 25 6 1 7 32 8 26 9 30 10 27 11 29 12
REMARK SMILES IDX 17 13 18 14 19 15 20 16 23 17 22 18 21 19 31 21 28 23 5 25
REMARK SMILES IDX 14 26 6 27 12 28 7 29 10 30 15 31 13 33 8 35 9 36 11 38
REMARK H PARENT 21 20 31 22 28 24 15 32 13 34 9 37 11 39
REMARK Flexibility Score: inf
ROOT
ATOM      1  O   UNL     1      -0.458 -20.726  29.232  1.00  0.00    -0.454 OA
ENDROOT
BRANCH   1   2
ATOM      2  C   UNL     1      -0.693 -19.740  28.266  1.00  0.00     0.214 A 
ATOM      3  C   UNL     1      -0.249 -19.881  26.934  1.00  0.00     0.180 A 
ATOM      4  O   UNL     1      -0.416 -18.878  26.076  1.00  0.00    -0.452 OA
ATOM      5  C   UNL     1      -1.369 -18.572  28.635  1.00  0.00     0.239 A 
ATOM      6  C   UNL     1      -1.022 -17.739  26.393  1.00  0.00     0.146 A 
ATOM      7  O   UNL     1      -1.800 -18.458  29.815  1.00  0.00    -0.285 OA
ATOM      8  C   UNL     1      -1.541 -17.537  27.693  1.00  0.00     0.111 A 
ATOM      9  C   UNL     1      -1.150 -16.742  25.421  1.00  0.00     0.094 A 
ATOM     10  C   UNL     1      -2.192 -16.318  27.995  1.00  0.00     0.134 A 
ATOM     11  C   UNL     1      -1.791 -15.540  25.723  1.00  0.00     0.123 A 
ATOM     12  C   UNL     1      -2.312 -15.331  27.006  1.00  0.00     0.093 A 
BRANCH   3  13
ATOM     13  C   UNL     1       0.392 -21.118  26.441  1.00  0.00     0.021 A 
ATOM     14  C   UNL     1      -0.205 -21.895  25.433  1.00  0.00     0.016 A 
ATOM     15  C   UNL     1       0.418 -23.061  24.976  1.00  0.00     0.047 A 
ATOM     16  C   UNL     1       1.651 -23.452  25.506  1.00  0.00     0.115 A 
ATOM     17  C   UNL     1       1.640 -21.505  26.954  1.00  0.00     0.016 A 
ATOM     18  C   UNL     1       2.264 -22.670  26.494  1.00  0.00     0.047 A 
BRANCH  16  19
ATOM     19  O   UNL     1       2.261 -24.616  25.043  1.00  0.00    -0.508 OA
ATOM     20  H   UNL     1       2.879 -24.607  24.240  1.00  0.00     0.293 HD
ENDBRANCH  16  19
ENDBRANCH   3  13
BRANCH  10  21
ATOM     21  O   UNL     1      -2.718 -16.079  29.266  1.00  0.00    -0.507 OA
ATOM     22  H   UNL     1      -3.717 -16.017  29.426  1.00  0.00     0.293 HD
ENDBRANCH  10  21
BRANCH  11  23
ATOM     23  O   UNL     1      -1.908 -14.559  24.740  1.00  0.00    -0.508 OA
ATOM     24  H   UNL     1      -1.819 -13.574  24.963  1.00  0.00     0.293 HD
ENDBRANCH  11  23
ENDBRANCH   1   2
BRANCH   1  25
ATOM     25  C   UNL     1      -1.451 -21.686  29.597  1.00  0.00     0.339 C 
ATOM     26  C   UNL     1      -1.570 -21.752  31.146  1.00  0.00     0.214 C 
ATOM     27  O   UNL     1      -1.156 -22.941  28.990  1.00  0.00    -0.332 OA
ATOM     28  C   UNL     1      -1.929 -23.178  31.587  1.00  0.00     0.180 C 
ATOM     29  C   UNL     1      -0.219 -23.675  29.754  1.00  0.00     0.179 C 
ATOM     30  C   UNL     1      -0.887 -24.197  31.056  1.00  0.00     0.177 C 
BRANCH  26  31
ATOM     31  O   UNL     1      -2.554 -20.858  31.598  1.00  0.00    -0.384 OA
ATOM     32  H   UNL     1      -2.716 -21.073  32.554  1.00  0.00     0.211 HD
ENDBRANCH  26  31
BRANCH  28  33
ATOM     33  O   UNL     1      -1.990 -23.232  32.989  1.00  0.00    -0.387 OA
ATOM     34  H   UNL     1      -2.923 -23.473  33.225  1.00  0.00     0.211 HD
ENDBRANCH  28  33
BRANCH  29  35
ATOM     35  C   UNL     1       0.398 -24.790  28.892  1.00  0.00     0.191 C 
BRANCH  35  36
ATOM     36  O   UNL     1       1.121 -25.704  29.673  1.00  0.00    -0.394 OA
ATOM     37  H   UNL     1       1.934 -25.944  29.155  1.00  0.00     0.210 HD
ENDBRANCH  35  36
ENDBRANCH  29  35
BRANCH  30  38
ATOM     38  O   UNL     1      -1.521 -25.432  30.834  1.00  0.00    -0.387 OA
ATOM     39  H   UNL     1      -2.456 -25.233  30.568  1.00  0.00     0.211 HD
ENDBRANCH  30  38
ENDBRANCH   1  25
TORSDOF 11
ENDMDL
MODEL 7
REMARK VINA RESULT:    -7.269      8.996     11.043
REMARK INTER + INTRA:         -11.452
REMARK INTER:                 -10.070
REMARK INTRA:                  -1.383
REMARK UNBOUND:                -0.996
REMARK SMILES O=c1c(O[C@H]2O[C@H](CO)[C@H](O)[C@@H](O)[C@@H]2O)c(-c2ccc(O)cc2)oc2cc(O)cc(O)c12
REMARK SMILES IDX 4 1 3 2 16 3 24 4 2 5 25 6 1 7 32 8 26 9 30 10 27 11 29 12
REMARK SMILES IDX 17 13 18 14 19 15 20 16 23 17 22 18 21 19 31 21 28 23 5 25
REMARK SMILES IDX 14 26 6 27 12 28 7 29 10 30 15 31 13 33 8 35 9 36 11 38
REMARK H PARENT 21 20 31 22 28 24 15 32 13 34 9 37 11 39
REMARK Flexibility Score: inf
ROOT
ATOM      1  O   UNL     1      -3.991 -13.016  28.836  1.00  0.00    -0.454 OA
ENDROOT
BRANCH   1   2
ATOM      2  C   UNL     1      -2.733 -13.053  28.221  1.00  0.00     0.214 A 
ATOM      3  C   UNL     1      -1.643 -12.301  28.707  1.00  0.00     0.180 A 
ATOM      4  O   UNL     1      -0.495 -12.297  28.035  1.00  0.00    -0.452 OA
ATOM      5  C   UNL     1      -2.557 -13.841  27.079  1.00  0.00     0.239 A 
ATOM      6  C   UNL     1      -0.295 -13.004  26.929  1.00  0.00     0.146 A 
ATOM      7  O   UNL     1      -3.518 -14.544  26.663  1.00  0.00    -0.285 OA
ATOM      8  C   UNL     1      -1.320 -13.824  26.403  1.00  0.00     0.111 A 
ATOM      9  C   UNL     1       0.948 -12.935  26.292  1.00  0.00     0.094 A 
ATOM     10  C   UNL     1      -1.070 -14.574  25.229  1.00  0.00     0.134 A 
ATOM     11  C   UNL     1       1.191 -13.676  25.135  1.00  0.00     0.123 A 
ATOM     12  C   UNL     1       0.184 -14.493  24.607  1.00  0.00     0.093 A 
BRANCH   3  13
ATOM     13  C   UNL     1      -1.720 -11.514  29.956  1.00  0.00     0.021 A 
ATOM     14  C   UNL     1      -1.352 -12.073  31.192  1.00  0.00     0.016 A 
ATOM     15  C   UNL     1      -1.427 -11.312  32.364  1.00  0.00     0.047 A 
ATOM     16  C   UNL     1      -1.853  -9.982  32.311  1.00  0.00     0.115 A 
ATOM     17  C   UNL     1      -2.127 -10.171  29.908  1.00  0.00     0.016 A 
ATOM     18  C   UNL     1      -2.199  -9.410  31.079  1.00  0.00     0.047 A 
BRANCH  16  19
ATOM     19  O   UNL     1      -1.924  -9.235  33.485  1.00  0.00    -0.508 OA
ATOM     20  H   UNL     1      -1.199  -9.284  34.189  1.00  0.00     0.293 HD
ENDBRANCH  16  19
ENDBRANCH   3  13
BRANCH  10  21
ATOM     21  O   UNL     1      -2.055 -15.396  24.678  1.00  0.00    -0.507 OA
ATOM     22  H   UNL     1      -2.663 -15.962  25.258  1.00  0.00     0.293 HD
ENDBRANCH  10  21
BRANCH  11  23
ATOM     23  O   UNL     1       2.436 -13.594  24.516  1.00  0.00    -0.508 OA
ATOM     24  H   UNL     1       3.134 -12.923  24.818  1.00  0.00     0.293 HD
ENDBRANCH  11  23
ENDBRANCH   1   2
BRANCH   1  25
ATOM     25  C   UNL     1      -4.557 -14.159  29.480  1.00  0.00     0.339 C 
ATOM     26  C   UNL     1      -6.067 -14.266  29.124  1.00  0.00     0.214 C 
ATOM     27  O   UNL     1      -4.300 -14.102  30.880  1.00  0.00    -0.332 OA
ATOM     28  C   UNL     1      -6.845 -14.868  30.302  1.00  0.00     0.180 C 
ATOM     29  C   UNL     1      -5.257 -13.300  31.546  1.00  0.00     0.179 C 
ATOM     30  C   UNL     1      -6.627 -14.032  31.590  1.00  0.00     0.177 C 
BRANCH  26  31
ATOM     31  O   UNL     1      -6.243 -15.069  27.984  1.00  0.00    -0.384 OA
ATOM     32  H   UNL     1      -5.502 -15.730  27.985  1.00  0.00     0.211 HD
ENDBRANCH  26  31
BRANCH  28  33
ATOM     33  O   UNL     1      -8.211 -14.917  29.981  1.00  0.00    -0.387 OA
ATOM     34  H   UNL     1      -8.529 -13.978  29.940  1.00  0.00     0.211 HD
ENDBRANCH  28  33
BRANCH  29  35
ATOM     35  C   UNL     1      -4.729 -12.904  32.936  1.00  0.00     0.191 C 
BRANCH  35  36
ATOM     36  O   UNL     1      -4.903 -11.534  33.182  1.00  0.00    -0.394 OA
ATOM     37  H   UNL     1      -5.085 -11.436  34.153  1.00  0.00     0.210 HD
ENDBRANCH  35  36
ENDBRANCH  29  35
BRANCH  30  38
ATOM     38  O   UNL     1      -6.708 -14.878  32.709  1.00  0.00    -0.387 OA
ATOM     39  H   UNL     1      -6.081 -14.518  33.389  1.00  0.00     0.211 HD
ENDBRANCH  30  38
ENDBRANCH   1  25
TORSDOF 11
ENDMDL
MODEL 8
REMARK VINA RESULT:    -7.265      2.470      4.461
REMARK INTER + INTRA:         -11.446
REMARK INTER:                  -9.712
REMARK INTRA:                  -1.734
REMARK UNBOUND:                -0.996
REMARK SMILES O=c1c(O[C@H]2O[C@H](CO)[C@H](O)[C@@H](O)[C@@H]2O)c(-c2ccc(O)cc2)oc2cc(O)cc(O)c12
REMARK SMILES IDX 4 1 3 2 16 3 24 4 2 5 25 6 1 7 32 8 26 9 30 10 27 11 29 12
REMARK SMILES IDX 17 13 18 14 19 15 20 16 23 17 22 18 21 19 31 21 28 23 5 25
REMARK SMILES IDX 14 26 6 27 12 28 7 29 10 30 15 31 13 33 8 35 9 36 11 38
REMARK H PARENT 21 20 31 22 28 24 15 32 13 34 9 37 11 39
REMARK Flexibility Score: inf
ROOT
ATOM      1  O   UNL     1      -0.666 -20.929  26.270  1.00  0.00    -0.454 OA
ENDROOT
BRANCH   1   2
ATOM      2  C   UNL     1      -0.881 -19.569  26.525  1.00  0.00     0.214 A 
ATOM      3  C   UNL     1      -0.944 -19.058  27.839  1.00  0.00     0.180 A 
ATOM      4  O   UNL     1      -1.241 -17.775  28.031  1.00  0.00    -0.452 OA
ATOM      5  C   UNL     1      -1.061 -18.694  25.449  1.00  0.00     0.239 A 
ATOM      6  C   UNL     1      -1.452 -16.918  27.040  1.00  0.00     0.146 A 
ATOM      7  O   UNL     1      -0.969 -19.141  24.272  1.00  0.00    -0.285 OA
ATOM      8  C   UNL     1      -1.358 -17.338  25.692  1.00  0.00     0.111 A 
ATOM      9  C   UNL     1      -1.760 -15.588  27.342  1.00  0.00     0.094 A 
ATOM     10  C   UNL     1      -1.577 -16.397  24.658  1.00  0.00     0.134 A 
ATOM     11  C   UNL     1      -1.975 -14.663  26.320  1.00  0.00     0.123 A 
ATOM     12  C   UNL     1      -1.882 -15.067  24.983  1.00  0.00     0.093 A 
BRANCH   3  13
ATOM     13  C   UNL     1      -0.677 -19.896  29.027  1.00  0.00     0.021 A 
ATOM     14  C   UNL     1      -1.679 -20.711  29.582  1.00  0.00     0.016 A 
ATOM     15  C   UNL     1      -1.407 -21.500  30.705  1.00  0.00     0.047 A 
ATOM     16  C   UNL     1      -0.130 -21.497  31.272  1.00  0.00     0.115 A 
ATOM     17  C   UNL     1       0.609 -19.914  29.589  1.00  0.00     0.016 A 
ATOM     18  C   UNL     1       0.880 -20.706  30.710  1.00  0.00     0.047 A 
BRANCH  16  19
ATOM     19  O   UNL     1       0.127 -22.288  32.391  1.00  0.00    -0.508 OA
ATOM     20  H   UNL     1       0.287 -21.878  33.303  1.00  0.00     0.293 HD
ENDBRANCH  16  19
ENDBRANCH   3  13
BRANCH  10  21
ATOM     21  O   UNL     1      -1.493 -16.771  23.316  1.00  0.00    -0.507 OA
ATOM     22  H   UNL     1      -2.198 -17.354  22.881  1.00  0.00     0.293 HD
ENDBRANCH  10  21
BRANCH  11  23
ATOM     23  O   UNL     1      -2.280 -13.342  26.643  1.00  0.00    -0.508 OA
ATOM     24  H   UNL     1      -2.857 -13.113  27.445  1.00  0.00     0.293 HD
ENDBRANCH  11  23
ENDBRANCH   1   2
BRANCH   1  25
ATOM     25  C   UNL     1       0.588 -21.426  25.801  1.00  0.00     0.339 C 
ATOM     26  C   UNL     1       0.352 -22.409  24.619  1.00  0.00     0.214 C 
ATOM     27  O   UNL     1       1.319 -21.996  26.883  1.00  0.00    -0.332 OA
ATOM     28  C   UNL     1       1.423 -23.509  24.625  1.00  0.00     0.180 C 
ATOM     29  C   UNL     1       0.922 -23.332  27.125  1.00  0.00     0.179 C 
ATOM     30  C   UNL     1       1.438 -24.254  25.985  1.00  0.00     0.177 C 
BRANCH  26  31
ATOM     31  O   UNL     1       0.393 -21.719  23.396  1.00  0.00    -0.384 OA
ATOM     32  H   UNL     1       1.352 -21.609  23.163  1.00  0.00     0.211 HD
ENDBRANCH  26  31
BRANCH  28  33
ATOM     33  O   UNL     1       1.170 -24.411  23.580  1.00  0.00    -0.387 OA
ATOM     34  H   UNL     1       1.996 -24.450  23.030  1.00  0.00     0.211 HD
ENDBRANCH  28  33
BRANCH  29  35
ATOM     35  C   UNL     1       1.388 -23.769  28.525  1.00  0.00     0.191 C 
BRANCH  35  36
ATOM     36  O   UNL     1       2.640 -23.223  28.844  1.00  0.00    -0.394 OA
ATOM     37  H   UNL     1       2.577 -22.882  29.775  1.00  0.00     0.210 HD
ENDBRANCH  35  36
ENDBRANCH  29  35
BRANCH  30  38
ATOM     38  O   UNL     1       2.743 -24.700  26.253  1.00  0.00    -0.387 OA
ATOM     39  H   UNL     1       3.294 -24.473  25.459  1.00  0.00     0.211 HD
ENDBRANCH  30  38
ENDBRANCH   1  25
TORSDOF 11
ENDMDL
MODEL 9
REMARK VINA RESULT:    -7.191      2.747      5.193
REMARK INTER + INTRA:         -11.340
REMARK INTER:                  -9.961
REMARK INTRA:                  -1.380
REMARK UNBOUND:                -0.996
REMARK SMILES O=c1c(O[C@H]2O[C@H](CO)[C@H](O)[C@@H](O)[C@@H]2O)c(-c2ccc(O)cc2)oc2cc(O)cc(O)c12
REMARK SMILES IDX 4 1 3 2 16 3 24 4 2 5 25 6 1 7 32 8 26 9 30 10 27 11 29 12
REMARK SMILES IDX 17 13 18 14 19 15 20 16 23 17 22 18 21 19 31 21 28 23 5 25
REMARK SMILES IDX 14 26 6 27 12 28 7 29 10 30 15 31 13 33 8 35 9 36 11 38
REMARK H PARENT 21 20 31 22 28 24 15 32 13 34 9 37 11 39
REMARK Flexibility Score: inf
ROOT
ATOM      1  O   UNL     1       0.823 -20.172  26.980  1.00  0.00    -0.454 OA
ENDROOT
BRANCH   1   2
ATOM      2  C   UNL     1       0.006 -19.062  27.226  1.00  0.00     0.214 A 
ATOM      3  C   UNL     1      -0.761 -18.949  28.405  1.00  0.00     0.180 A 
ATOM      4  O   UNL     1      -1.592 -17.920  28.552  1.00  0.00    -0.452 OA
ATOM      5  C   UNL     1      -0.070 -18.046  26.268  1.00  0.00     0.239 A 
ATOM      6  C   UNL     1      -1.720 -16.951  27.653  1.00  0.00     0.146 A 
ATOM      7  O   UNL     1       0.642 -18.126  25.230  1.00  0.00    -0.285 OA
ATOM      8  C   UNL     1      -0.950 -16.962  26.467  1.00  0.00     0.111 A 
ATOM      9  C   UNL     1      -2.621 -15.910  27.897  1.00  0.00     0.094 A 
ATOM     10  C   UNL     1      -1.101 -15.909  25.535  1.00  0.00     0.134 A 
ATOM     11  C   UNL     1      -2.768 -14.873  26.976  1.00  0.00     0.123 A 
ATOM     12  C   UNL     1      -2.009 -14.872  25.800  1.00  0.00     0.093 A 
BRANCH   3  13
ATOM     13  C   UNL     1      -0.671 -19.932  29.505  1.00  0.00     0.021 A 
ATOM     14  C   UNL     1      -1.577 -21.003  29.600  1.00  0.00     0.016 A 
ATOM     15  C   UNL     1      -1.474 -21.926  30.645  1.00  0.00     0.047 A 
ATOM     16  C   UNL     1      -0.456 -21.801  31.595  1.00  0.00     0.115 A 
ATOM     17  C   UNL     1       0.361 -19.824  30.450  1.00  0.00     0.016 A 
ATOM     18  C   UNL     1       0.465 -20.749  31.494  1.00  0.00     0.047 A 
BRANCH  16  19
ATOM     19  O   UNL     1      -0.365 -22.727  32.633  1.00  0.00    -0.508 OA
ATOM     20  H   UNL     1      -1.069 -23.442  32.768  1.00  0.00     0.293 HD
ENDBRANCH  16  19
ENDBRANCH   3  13
BRANCH  10  21
ATOM     21  O   UNL     1      -0.360 -15.883  24.352  1.00  0.00    -0.507 OA
ATOM     22  H   UNL     1      -0.439 -16.616  23.658  1.00  0.00     0.293 HD
ENDBRANCH  10  21
BRANCH  11  23
ATOM     23  O   UNL     1      -3.671 -13.845  27.238  1.00  0.00    -0.508 OA
ATOM     24  H   UNL     1      -3.524 -13.193  28.001  1.00  0.00     0.293 HD
ENDBRANCH  11  23
ENDBRANCH   1   2
BRANCH   1  25
ATOM     25  C   UNL     1       0.299 -21.409  26.492  1.00  0.00     0.339 C 
ATOM     26  C   UNL     1       1.383 -22.519  26.613  1.00  0.00     0.214 C 
ATOM     27  O   UNL     1      -0.200 -21.236  25.170  1.00  0.00    -0.332 OA
ATOM     28  C   UNL     1       1.232 -23.529  25.467  1.00  0.00     0.180 C 
ATOM     29  C   UNL     1       0.835 -21.339  24.211  1.00  0.00     0.179 C 
ATOM     30  C   UNL     1       1.304 -22.816  24.092  1.00  0.00     0.177 C 
BRANCH  26  31
ATOM     31  O   UNL     1       1.265 -23.183  27.845  1.00  0.00    -0.384 OA
ATOM     32  H   UNL     1       1.407 -24.149  27.662  1.00  0.00     0.211 HD
ENDBRANCH  26  31
BRANCH  28  33
ATOM     33  O   UNL     1       2.243 -24.499  25.565  1.00  0.00    -0.387 OA
ATOM     34  H   UNL     1       2.000 -25.229  24.937  1.00  0.00     0.211 HD
ENDBRANCH  28  33
BRANCH  29  35
ATOM     35  C   UNL     1       0.372 -20.733  22.875  1.00  0.00     0.191 C 
BRANCH  35  36
ATOM     36  O   UNL     1      -0.740 -19.895  23.049  1.00  0.00    -0.394 OA
ATOM     37  H   UNL     1      -1.088 -19.687  22.142  1.00  0.00     0.210 HD
ENDBRANCH  35  36
ENDBRANCH  29  35
BRANCH  30  38
ATOM     38  O   UNL     1       0.514 -23.519  23.166  1.00  0.00    -0.387 OA
ATOM     39  H   UNL     1       1.128 -24.096  22.641  1.00  0.00     0.211 HD
ENDBRANCH  30  38
ENDBRANCH   1  25
TORSDOF 11
ENDMDL
