MODEL 1
REMARK VINA RESULT:    -2.945      0.000      0.000
REMARK INTER + INTRA:          -3.530
REMARK INTER:                  -3.375
REMARK INTRA:                  -0.155
REMARK UNBOUND:                -0.155
REMARK SMILES CC=Cc1ccc(O)c(OC)c1
REMARK SMILES IDX 4 1 12 2 9 3 7 4 6 5 5 6 3 7 1 8 2 9 10 10 11 11 8 12
REMARK H PARENT 8 13
REMARK Flexibility Score: inf
ROOT
ATOM      1  C   UNL     1     142.447 145.019 138.378  1.00  0.00    -0.022 A 
ATOM      2  C   UNL     1     143.094 144.114 139.237  1.00  0.00     0.058 A 
ATOM      3  C   UNL     1     144.369 144.404 139.763  1.00  0.00     0.161 A 
ATOM      4  C   UNL     1     144.998 145.606 139.415  1.00  0.00     0.157 A 
ATOM      5  C   UNL     1     144.365 146.505 138.549  1.00  0.00     0.051 A 
ATOM      6  C   UNL     1     143.102 146.214 138.029  1.00  0.00     0.012 A 
ENDROOT
BRANCH   1   7
ATOM      7  C   UNL     1     141.109 144.659 137.845  1.00  0.00     0.003 C 
ATOM      8  C   UNL     1     139.501 143.966 136.111  1.00  0.00     0.035 C 
ATOM      9  C   UNL     1     140.882 144.301 136.575  1.00  0.00    -0.030 C 
ENDBRANCH   1   7
BRANCH   3  10
ATOM     10  O   UNL     1     145.037 143.526 140.631  1.00  0.00    -0.493 OA
ATOM     11  C   UNL     1     144.973 142.106 140.550  1.00  0.00     0.278 C 
ENDBRANCH   3  10
BRANCH   4  12
ATOM     12  O   UNL     1     146.259 145.899 139.933  1.00  0.00    -0.504 OA
ATOM     13  H   UNL     1     146.559 146.854 140.091  1.00  0.00     0.293 HD
ENDBRANCH   4  12
TORSDOF 3
ENDMDL
MODEL 2
REMARK VINA RESULT:    -2.903      8.608     10.842
REMARK INTER + INTRA:          -3.482
REMARK INTER:                  -3.319
REMARK INTRA:                  -0.163
REMARK UNBOUND:                -0.155
REMARK SMILES CC=Cc1ccc(O)c(OC)c1
REMARK SMILES IDX 4 1 12 2 9 3 7 4 6 5 5 6 3 7 1 8 2 9 10 10 11 11 8 12
REMARK H PARENT 8 13
REMARK Flexibility Score: inf
ROOT
ATOM      1  C   UNL     1     145.952 135.450 138.555  1.00  0.00    -0.022 A 
ATOM      2  C   UNL     1     145.313 134.558 139.434  1.00  0.00     0.058 A 
ATOM      3  C   UNL     1     146.018 133.482 140.008  1.00  0.00     0.161 A 
ATOM      4  C   UNL     1     147.369 133.296 139.686  1.00  0.00     0.157 A 
ATOM      5  C   UNL     1     148.007 134.171 138.801  1.00  0.00     0.051 A 
ATOM      6  C   UNL     1     147.306 135.238 138.234  1.00  0.00     0.012 A 
ENDROOT
BRANCH   1   7
ATOM      7  C   UNL     1     145.160 136.561 137.972  1.00  0.00     0.003 C 
ATOM      8  C   UNL     1     144.241 137.942 136.149  1.00  0.00     0.035 C 
ATOM      9  C   UNL     1     145.047 136.790 136.658  1.00  0.00    -0.030 C 
ENDBRANCH   1   7
BRANCH   3  10
ATOM     10  O   UNL     1     145.412 132.580 140.897  1.00  0.00    -0.493 OA
ATOM     11  C   UNL     1     144.122 132.008 140.712  1.00  0.00     0.278 C 
ENDBRANCH   3  10
BRANCH   4  12
ATOM     12  O   UNL     1     148.071 132.233 140.252  1.00  0.00    -0.504 OA
ATOM     13  H   UNL     1     149.057 132.089 140.065  1.00  0.00     0.293 HD
ENDBRANCH   4  12
TORSDOF 3
ENDMDL
MODEL 3
REMARK VINA RESULT:    -2.867      9.609     10.875
REMARK INTER + INTRA:          -3.441
REMARK INTER:                  -3.273
REMARK INTRA:                  -0.169
REMARK UNBOUND:                -0.155
REMARK SMILES CC=Cc1ccc(O)c(OC)c1
REMARK SMILES IDX 4 1 12 2 9 3 7 4 6 5 5 6 3 7 1 8 2 9 10 10 11 11 8 12
REMARK H PARENT 8 13
REMARK Flexibility Score: inf
ROOT
ATOM      1  C   UNL     1     132.238 144.331 138.292  1.00  0.00    -0.022 A 
ATOM      2  C   UNL     1     133.338 144.567 139.135  1.00  0.00     0.058 A 
ATOM      3  C   UNL     1     133.532 145.829 139.731  1.00  0.00     0.161 A 
ATOM      4  C   UNL     1     132.621 146.861 139.468  1.00  0.00     0.157 A 
ATOM      5  C   UNL     1     131.533 146.637 138.618  1.00  0.00     0.051 A 
ATOM      6  C   UNL     1     131.343 145.385 138.029  1.00  0.00     0.012 A 
ENDROOT
BRANCH   1   7
ATOM      7  C   UNL     1     132.087 142.986 137.683  1.00  0.00     0.003 C 
ATOM      8  C   UNL     1     132.225 141.317 135.875  1.00  0.00     0.035 C 
ATOM      9  C   UNL     1     132.422 142.695 136.420  1.00  0.00    -0.030 C 
ENDBRANCH   1   7
BRANCH   3  10
ATOM     10  O   UNL     1     134.614 146.094 140.585  1.00  0.00    -0.493 OA
ATOM     11  C   UNL     1     134.653 145.757 141.968  1.00  0.00     0.278 C 
ENDBRANCH   3  10
BRANCH   4  12
ATOM     12  O   UNL     1     132.808 148.111 140.056  1.00  0.00    -0.504 OA
ATOM     13  H   UNL     1     133.581 148.291 140.686  1.00  0.00     0.293 HD
ENDBRANCH   4  12
TORSDOF 3
ENDMDL
MODEL 4
REMARK VINA RESULT:    -2.755      1.519      2.943
REMARK INTER + INTRA:          -3.313
REMARK INTER:                  -3.159
REMARK INTRA:                  -0.154
REMARK UNBOUND:                -0.155
REMARK SMILES CC=Cc1ccc(O)c(OC)c1
REMARK SMILES IDX 4 1 12 2 9 3 7 4 6 5 5 6 3 7 1 8 2 9 10 10 11 11 8 12
REMARK H PARENT 8 13
REMARK Flexibility Score: inf
ROOT
ATOM      1  C   UNL     1     142.736 143.744 139.121  1.00  0.00    -0.022 A 
ATOM      2  C   UNL     1     142.879 145.046 138.611  1.00  0.00     0.058 A 
ATOM      3  C   UNL     1     144.050 145.791 138.852  1.00  0.00     0.161 A 
ATOM      4  C   UNL     1     145.078 145.227 139.618  1.00  0.00     0.157 A 
ATOM      5  C   UNL     1     144.937 143.937 140.141  1.00  0.00     0.051 A 
ATOM      6  C   UNL     1     143.774 143.201 139.901  1.00  0.00     0.012 A 
ENDROOT
BRANCH   1   7
ATOM      7  C   UNL     1     141.478 143.008 138.846  1.00  0.00     0.003 C 
ATOM      8  C   UNL     1     139.670 142.110 137.432  1.00  0.00     0.035 C 
ATOM      9  C   UNL     1     140.952 142.854 137.625  1.00  0.00    -0.030 C 
ENDBRANCH   1   7
BRANCH   3  10
ATOM     10  O   UNL     1     144.227 147.090 138.348  1.00  0.00    -0.493 OA
ATOM     11  C   UNL     1     143.198 148.069 138.261  1.00  0.00     0.278 C 
ENDBRANCH   3  10
BRANCH   4  12
ATOM     12  O   UNL     1     146.240 145.959 139.858  1.00  0.00    -0.504 OA
ATOM     13  H   UNL     1     146.517 146.727 139.257  1.00  0.00     0.293 HD
ENDBRANCH   4  12
TORSDOF 3
ENDMDL
MODEL 5
REMARK VINA RESULT:    -2.744     10.586     12.083
REMARK INTER + INTRA:          -3.300
REMARK INTER:                  -3.128
REMARK INTRA:                  -0.172
REMARK UNBOUND:                -0.155
REMARK SMILES CC=Cc1ccc(O)c(OC)c1
REMARK SMILES IDX 4 1 12 2 9 3 7 4 6 5 5 6 3 7 1 8 2 9 10 10 11 11 8 12
REMARK H PARENT 8 13
REMARK Flexibility Score: inf
ROOT
ATOM      1  C   UNL     1     132.607 143.731 138.192  1.00  0.00    -0.022 A 
ATOM      2  C   UNL     1     131.506 144.469 137.724  1.00  0.00     0.058 A 
ATOM      3  C   UNL     1     131.305 145.802 138.132  1.00  0.00     0.161 A 
ATOM      4  C   UNL     1     132.212 146.393 139.022  1.00  0.00     0.157 A 
ATOM      5  C   UNL     1     133.302 145.659 139.502  1.00  0.00     0.051 A 
ATOM      6  C   UNL     1     133.498 144.337 139.097  1.00  0.00     0.012 A 
ENDROOT
BRANCH   1   7
ATOM      7  C   UNL     1     132.765 142.327 137.738  1.00  0.00     0.003 C 
ATOM      8  C   UNL     1     132.178 140.308 136.453  1.00  0.00     0.035 C 
ATOM      9  C   UNL     1     131.961 141.733 136.847  1.00  0.00    -0.030 C 
ENDBRANCH   1   7
BRANCH   3  10
ATOM     10  O   UNL     1     130.221 146.569 137.675  1.00  0.00    -0.493 OA
ATOM     11  C   UNL     1     128.856 146.293 137.970  1.00  0.00     0.278 C 
ENDBRANCH   3  10
BRANCH   4  12
ATOM     12  O   UNL     1     132.019 147.712 139.428  1.00  0.00    -0.504 OA
ATOM     13  H   UNL     1     131.091 148.112 139.509  1.00  0.00     0.293 HD
ENDBRANCH   4  12
TORSDOF 3
ENDMDL
MODEL 6
REMARK VINA RESULT:    -2.657      2.570      3.475
REMARK INTER + INTRA:          -3.200
REMARK INTER:                  -3.027
REMARK INTRA:                  -0.173
REMARK UNBOUND:                -0.155
REMARK SMILES CC=Cc1ccc(O)c(OC)c1
REMARK SMILES IDX 4 1 12 2 9 3 7 4 6 5 5 6 3 7 1 8 2 9 10 10 11 11 8 12
REMARK H PARENT 8 13
REMARK Flexibility Score: inf
ROOT
ATOM      1  C   UNL     1     142.470 147.494 139.213  1.00  0.00    -0.022 A 
ATOM      2  C   UNL     1     143.203 147.984 140.308  1.00  0.00     0.058 A 
ATOM      3  C   UNL     1     144.457 147.434 140.640  1.00  0.00     0.161 A 
ATOM      4  C   UNL     1     144.971 146.380 139.874  1.00  0.00     0.157 A 
ATOM      5  C   UNL     1     144.240 145.878 138.791  1.00  0.00     0.051 A 
ATOM      6  C   UNL     1     142.997 146.425 138.464  1.00  0.00     0.012 A 
ENDROOT
BRANCH   1   7
ATOM      7  C   UNL     1     141.151 148.103 138.913  1.00  0.00     0.003 C 
ATOM      8  C   UNL     1     138.701 148.123 138.648  1.00  0.00     0.035 C 
ATOM      9  C   UNL     1     139.989 147.442 138.981  1.00  0.00    -0.030 C 
ENDBRANCH   1   7
BRANCH   3  10
ATOM     10  O   UNL     1     145.218 147.907 141.721  1.00  0.00    -0.493 OA
ATOM     11  C   UNL     1     144.990 147.560 143.082  1.00  0.00     0.278 C 
ENDBRANCH   3  10
BRANCH   4  12
ATOM     12  O   UNL     1     146.211 145.833 140.197  1.00  0.00    -0.504 OA
ATOM     13  H   UNL     1     147.020 146.419 140.370  1.00  0.00     0.293 HD
ENDBRANCH   4  12
TORSDOF 3
ENDMDL
MODEL 7
REMARK VINA RESULT:    -2.644     12.307     13.174
REMARK INTER + INTRA:          -3.185
REMARK INTER:                  -3.016
REMARK INTRA:                  -0.169
REMARK UNBOUND:                -0.155
REMARK SMILES CC=Cc1ccc(O)c(OC)c1
REMARK SMILES IDX 4 1 12 2 9 3 7 4 6 5 5 6 3 7 1 8 2 9 10 10 11 11 8 12
REMARK H PARENT 8 13
REMARK Flexibility Score: inf
ROOT
ATOM      1  C   UNL     1     132.227 138.743 136.684  1.00  0.00    -0.022 A 
ATOM      2  C   UNL     1     131.987 139.701 137.683  1.00  0.00     0.058 A 
ATOM      3  C   UNL     1     131.871 141.068 137.359  1.00  0.00     0.161 A 
ATOM      4  C   UNL     1     132.008 141.472 136.025  1.00  0.00     0.157 A 
ATOM      5  C   UNL     1     132.262 140.524 135.027  1.00  0.00     0.051 A 
ATOM      6  C   UNL     1     132.376 139.170 135.351  1.00  0.00     0.012 A 
ENDROOT
BRANCH   1   7
ATOM      7  C   UNL     1     132.351 137.318 137.082  1.00  0.00     0.003 C 
ATOM      8  C   UNL     1     131.822 135.307 138.405  1.00  0.00     0.035 C 
ATOM      9  C   UNL     1     131.628 136.748 138.053  1.00  0.00    -0.030 C 
ENDBRANCH   1   7
BRANCH   3  10
ATOM     10  O   UNL     1     131.622 142.048 138.333  1.00  0.00    -0.493 OA
ATOM     11  C   UNL     1     130.335 142.356 138.858  1.00  0.00     0.278 C 
ENDBRANCH   3  10
BRANCH   4  12
ATOM     12  O   UNL     1     131.893 142.822 135.699  1.00  0.00    -0.504 OA
ATOM     13  H   UNL     1     132.475 143.525 136.139  1.00  0.00     0.293 HD
ENDBRANCH   4  12
TORSDOF 3
ENDMDL
MODEL 8
REMARK VINA RESULT:    -2.642     14.842     16.028
REMARK INTER + INTRA:          -3.183
REMARK INTER:                  -3.015
REMARK INTRA:                  -0.169
REMARK UNBOUND:                -0.155
REMARK SMILES CC=Cc1ccc(O)c(OC)c1
REMARK SMILES IDX 4 1 12 2 9 3 7 4 6 5 5 6 3 7 1 8 2 9 10 10 11 11 8 12
REMARK H PARENT 8 13
REMARK Flexibility Score: inf
ROOT
ATOM      1  C   UNL     1     134.837 132.904 136.897  1.00  0.00    -0.022 A 
ATOM      2  C   UNL     1     133.816 132.976 137.860  1.00  0.00     0.058 A 
ATOM      3  C   UNL     1     132.489 133.265 137.483  1.00  0.00     0.161 A 
ATOM      4  C   UNL     1     132.192 133.493 136.134  1.00  0.00     0.157 A 
ATOM      5  C   UNL     1     133.207 133.437 135.172  1.00  0.00     0.051 A 
ATOM      6  C   UNL     1     134.521 133.150 135.548  1.00  0.00     0.012 A 
ENDROOT
BRANCH   1   7
ATOM      7  C   UNL     1     136.219 132.605 137.350  1.00  0.00     0.003 C 
ATOM      8  C   UNL     1     137.945 131.412 138.642  1.00  0.00     0.035 C 
ATOM      9  C   UNL     1     136.528 131.640 138.225  1.00  0.00    -0.030 C 
ENDBRANCH   1   7
BRANCH   3  10
ATOM     10  O   UNL     1     131.445 133.334 138.419  1.00  0.00    -0.493 OA
ATOM     11  C   UNL     1     130.755 132.206 138.945  1.00  0.00     0.278 C 
ENDBRANCH   3  10
BRANCH   4  12
ATOM     12  O   UNL     1     130.881 133.779 135.755  1.00  0.00    -0.504 OA
ATOM     13  H   UNL     1     130.645 134.632 135.262  1.00  0.00     0.293 HD
ENDBRANCH   4  12
TORSDOF 3
ENDMDL
MODEL 9
REMARK VINA RESULT:    -2.607      1.995      4.544
REMARK INTER + INTRA:          -3.142
REMARK INTER:                  -2.975
REMARK INTRA:                  -0.168
REMARK UNBOUND:                -0.155
REMARK SMILES CC=Cc1ccc(O)c(OC)c1
REMARK SMILES IDX 4 1 12 2 9 3 7 4 6 5 5 6 3 7 1 8 2 9 10 10 11 11 8 12
REMARK H PARENT 8 13
REMARK Flexibility Score: inf
ROOT
ATOM      1  C   UNL     1     144.252 144.078 140.009  1.00  0.00    -0.022 A 
ATOM      2  C   UNL     1     142.991 144.014 139.391  1.00  0.00     0.058 A 
ATOM      3  C   UNL     1     142.551 145.049 138.543  1.00  0.00     0.161 A 
ATOM      4  C   UNL     1     143.379 146.158 138.324  1.00  0.00     0.157 A 
ATOM      5  C   UNL     1     144.630 146.234 138.947  1.00  0.00     0.051 A 
ATOM      6  C   UNL     1     145.064 145.206 139.788  1.00  0.00     0.012 A 
ENDROOT
BRANCH   1   7
ATOM      7  C   UNL     1     144.662 142.965 140.902  1.00  0.00     0.003 C 
ATOM      8  C   UNL     1     145.862 140.896 141.497  1.00  0.00     0.035 C 
ATOM      9  C   UNL     1     145.510 141.992 140.544  1.00  0.00    -0.030 C 
ENDBRANCH   1   7
BRANCH   3  10
ATOM     10  O   UNL     1     141.302 145.011 137.903  1.00  0.00    -0.493 OA
ATOM     11  C   UNL     1     141.022 144.268 136.722  1.00  0.00     0.278 C 
ENDBRANCH   3  10
BRANCH   4  12
ATOM     12  O   UNL     1     142.949 147.184 137.484  1.00  0.00    -0.504 OA
ATOM     13  H   UNL     1     143.577 147.918 137.179  1.00  0.00     0.293 HD
ENDBRANCH   4  12
TORSDOF 3
ENDMDL
