MODEL 1
REMARK VINA RESULT:    -4.135      0.000      0.000
REMARK INTER + INTRA:          -9.969
REMARK INTER:                  -8.002
REMARK INTRA:                  -1.967
REMARK UNBOUND:                -1.967
REMARK SMILES CCCCCCCCCCCCCCCCCC(=O)[O-]
REMARK SMILES IDX 10 1 11 2 12 3 13 4 14 5 15 6 16 7 17 8 18 9 19 10 20 11
REMARK SMILES IDX 9 12 8 13 7 14 6 15 5 16 4 17 3 18 2 19 1 20
REMARK H PARENT
REMARK Flexibility Score: inf
ROOT
ATOM      1  C   UNL     1      46.601  26.069   2.548  1.00  0.00     0.000 C 
ENDROOT
BRANCH   1   2
ATOM      2  C   UNL     1      46.084  27.081   1.510  1.00  0.00     0.000 C 
BRANCH   2   3
ATOM      3  C   UNL     1      46.073  28.524   2.042  1.00  0.00     0.000 C 
BRANCH   3   4
ATOM      4  C   UNL     1      44.655  29.025   2.378  1.00  0.00     0.000 C 
BRANCH   4   5
ATOM      5  C   UNL     1      43.542  27.971   2.221  1.00  0.00     0.000 C 
BRANCH   5   6
ATOM      6  C   UNL     1      42.529  28.333   1.122  1.00  0.00     0.000 C 
BRANCH   6   7
ATOM      7  C   UNL     1      42.597  27.384  -0.085  1.00  0.00     0.006 C 
BRANCH   7   8
ATOM      8  C   UNL     1      43.509  27.905  -1.205  1.00  0.00     0.053 C 
BRANCH   8   9
ATOM      9  C   UNL     1      44.198  26.766  -1.887  1.00  0.00     0.041 C 
ATOM     10  O   UNL     1      45.185  26.982  -2.638  1.00  0.00    -0.550 OA
ATOM     11  O   UNL     1      43.780  25.461  -1.660  1.00  0.00    -0.550 OA
ENDBRANCH   8   9
ENDBRANCH   7   8
ENDBRANCH   6   7
ENDBRANCH   5   6
ENDBRANCH   4   5
ENDBRANCH   3   4
ENDBRANCH   2   3
ENDBRANCH   1   2
BRANCH   1  12
ATOM     12  C   UNL     1      45.507  25.422   3.423  1.00  0.00     0.000 C 
BRANCH  12  13
ATOM     13  C   UNL     1      45.662  25.653   4.940  1.00  0.00    -0.000 C 
BRANCH  13  14
ATOM     14  C   UNL     1      46.649  26.771   5.327  1.00  0.00    -0.000 C 
BRANCH  14  15
ATOM     15  C   UNL     1      46.005  28.017   5.964  1.00  0.00    -0.000 C 
BRANCH  15  16
ATOM     16  C   UNL     1      46.378  28.262   7.438  1.00  0.00    -0.000 C 
BRANCH  16  17
ATOM     17  C   UNL     1      45.232  27.922   8.405  1.00  0.00    -0.000 C 
BRANCH  17  18
ATOM     18  C   UNL     1      45.144  26.407   8.644  1.00  0.00    -0.000 C 
BRANCH  18  19
ATOM     19  C   UNL     1      46.493  25.793   9.049  1.00  0.00    -0.003 C 
ATOM     20  C   UNL     1      46.850  26.057  10.511  1.00  0.00     0.004 C 
ENDBRANCH  18  19
ENDBRANCH  17  18
ENDBRANCH  16  17
ENDBRANCH  15  16
ENDBRANCH  14  15
ENDBRANCH  13  14
ENDBRANCH  12  13
ENDBRANCH   1  12
TORSDOF 16
ENDMDL
MODEL 2
REMARK VINA RESULT:    -4.112      1.295      2.611
REMARK INTER + INTRA:          -9.925
REMARK INTER:                  -8.674
REMARK INTRA:                  -1.251
REMARK UNBOUND:                -1.967
REMARK SMILES CCCCCCCCCCCCCCCCCC(=O)[O-]
REMARK SMILES IDX 10 1 11 2 12 3 13 4 14 5 15 6 16 7 17 8 18 9 19 10 20 11
REMARK SMILES IDX 9 12 8 13 7 14 6 15 5 16 4 17 3 18 2 19 1 20
REMARK H PARENT
REMARK Flexibility Score: inf
ROOT
ATOM      1  C   UNL     1      44.773  27.181   1.365  1.00  0.00     0.000 C 
ENDROOT
BRANCH   1   2
ATOM      2  C   UNL     1      43.348  27.126   1.944  1.00  0.00     0.000 C 
BRANCH   2   3
ATOM      3  C   UNL     1      42.340  27.944   1.118  1.00  0.00     0.000 C 
BRANCH   3   4
ATOM      4  C   UNL     1      42.795  29.398   0.892  1.00  0.00     0.000 C 
BRANCH   4   5
ATOM      5  C   UNL     1      42.408  29.993  -0.475  1.00  0.00     0.000 C 
BRANCH   5   6
ATOM      6  C   UNL     1      43.370  29.574  -1.601  1.00  0.00     0.000 C 
BRANCH   6   7
ATOM      7  C   UNL     1      42.709  28.649  -2.634  1.00  0.00     0.006 C 
BRANCH   7   8
ATOM      8  C   UNL     1      43.711  27.720  -3.333  1.00  0.00     0.053 C 
BRANCH   8   9
ATOM      9  C   UNL     1      44.466  26.914  -2.324  1.00  0.00     0.041 C 
ATOM     10  O   UNL     1      43.884  26.007  -1.674  1.00  0.00    -0.550 OA
ATOM     11  O   UNL     1      45.824  27.134  -2.131  1.00  0.00    -0.550 OA
ENDBRANCH   8   9
ENDBRANCH   7   8
ENDBRANCH   6   7
ENDBRANCH   5   6
ENDBRANCH   4   5
ENDBRANCH   3   4
ENDBRANCH   2   3
ENDBRANCH   1   2
BRANCH   1  12
ATOM     12  C   UNL     1      45.863  26.563   2.266  1.00  0.00     0.000 C 
BRANCH  12  13
ATOM     13  C   UNL     1      45.336  25.778   3.484  1.00  0.00    -0.000 C 
BRANCH  13  14
ATOM     14  C   UNL     1      46.334  25.644   4.650  1.00  0.00    -0.000 C 
BRANCH  14  15
ATOM     15  C   UNL     1      46.156  26.675   5.782  1.00  0.00    -0.000 C 
BRANCH  15  16
ATOM     16  C   UNL     1      46.375  26.127   7.203  1.00  0.00    -0.000 C 
BRANCH  16  17
ATOM     17  C   UNL     1      45.274  26.562   8.185  1.00  0.00    -0.000 C 
BRANCH  17  18
ATOM     18  C   UNL     1      45.735  27.755   9.036  1.00  0.00    -0.000 C 
BRANCH  18  19
ATOM     19  C   UNL     1      44.896  29.017   8.789  1.00  0.00    -0.003 C 
ATOM     20  C   UNL     1      45.266  29.732   7.490  1.00  0.00     0.004 C 
ENDBRANCH  18  19
ENDBRANCH  17  18
ENDBRANCH  16  17
ENDBRANCH  15  16
ENDBRANCH  14  15
ENDBRANCH  13  14
ENDBRANCH  12  13
ENDBRANCH   1  12
TORSDOF 16
ENDMDL
MODEL 3
REMARK VINA RESULT:    -4.093      1.212      2.464
REMARK INTER + INTRA:          -9.888
REMARK INTER:                  -8.751
REMARK INTRA:                  -1.138
REMARK UNBOUND:                -1.967
REMARK SMILES CCCCCCCCCCCCCCCCCC(=O)[O-]
REMARK SMILES IDX 10 1 11 2 12 3 13 4 14 5 15 6 16 7 17 8 18 9 19 10 20 11
REMARK SMILES IDX 9 12 8 13 7 14 6 15 5 16 4 17 3 18 2 19 1 20
REMARK H PARENT
REMARK Flexibility Score: inf
ROOT
ATOM      1  C   UNL     1      43.885  27.308   1.429  1.00  0.00     0.000 C 
ENDROOT
BRANCH   1   2
ATOM      2  C   UNL     1      42.404  27.574   1.750  1.00  0.00     0.000 C 
BRANCH   2   3
ATOM      3  C   UNL     1      42.017  29.053   1.583  1.00  0.00     0.000 C 
BRANCH   3   4
ATOM      4  C   UNL     1      42.898  29.787   0.556  1.00  0.00     0.000 C 
BRANCH   4   5
ATOM      5  C   UNL     1      42.283  29.915  -0.851  1.00  0.00     0.000 C 
BRANCH   5   6
ATOM      6  C   UNL     1      42.980  29.019  -1.890  1.00  0.00     0.000 C 
BRANCH   6   7
ATOM      7  C   UNL     1      44.511  29.144  -1.849  1.00  0.00     0.006 C 
BRANCH   7   8
ATOM      8  C   UNL     1      45.225  27.794  -2.010  1.00  0.00     0.053 C 
BRANCH   8   9
ATOM      9  C   UNL     1      44.270  26.755  -2.506  1.00  0.00     0.041 C 
ATOM     10  O   UNL     1      43.926  26.736  -3.717  1.00  0.00    -0.550 OA
ATOM     11  O   UNL     1      43.791  25.779  -1.641  1.00  0.00    -0.550 OA
ENDBRANCH   8   9
ENDBRANCH   7   8
ENDBRANCH   6   7
ENDBRANCH   5   6
ENDBRANCH   4   5
ENDBRANCH   3   4
ENDBRANCH   2   3
ENDBRANCH   1   2
BRANCH   1  12
ATOM     12  C   UNL     1      44.801  27.169   2.663  1.00  0.00     0.000 C 
BRANCH  12  13
ATOM     13  C   UNL     1      44.901  25.745   3.246  1.00  0.00    -0.000 C 
BRANCH  13  14
ATOM     14  C   UNL     1      46.311  25.334   3.714  1.00  0.00    -0.000 C 
BRANCH  14  15
ATOM     15  C   UNL     1      46.895  26.191   4.853  1.00  0.00    -0.000 C 
BRANCH  15  16
ATOM     16  C   UNL     1      45.984  26.345   6.085  1.00  0.00    -0.000 C 
BRANCH  16  17
ATOM     17  C   UNL     1      46.007  27.767   6.667  1.00  0.00    -0.000 C 
BRANCH  17  18
ATOM     18  C   UNL     1      45.399  27.796   8.078  1.00  0.00    -0.000 C 
BRANCH  18  19
ATOM     19  C   UNL     1      45.262  26.393   8.690  1.00  0.00    -0.003 C 
ATOM     20  C   UNL     1      46.314  26.109   9.762  1.00  0.00     0.004 C 
ENDBRANCH  18  19
ENDBRANCH  17  18
ENDBRANCH  16  17
ENDBRANCH  15  16
ENDBRANCH  14  15
ENDBRANCH  13  14
ENDBRANCH  12  13
ENDBRANCH   1  12
TORSDOF 16
ENDMDL
MODEL 4
REMARK VINA RESULT:    -4.066      2.071      3.532
REMARK INTER + INTRA:          -9.836
REMARK INTER:                  -8.687
REMARK INTRA:                  -1.149
REMARK UNBOUND:                -1.967
REMARK SMILES CCCCCCCCCCCCCCCCCC(=O)[O-]
REMARK SMILES IDX 10 1 11 2 12 3 13 4 14 5 15 6 16 7 17 8 18 9 19 10 20 11
REMARK SMILES IDX 9 12 8 13 7 14 6 15 5 16 4 17 3 18 2 19 1 20
REMARK H PARENT
REMARK Flexibility Score: inf
ROOT
ATOM      1  C   UNL     1      42.384  27.691   1.259  1.00  0.00     0.000 C 
ENDROOT
BRANCH   1   2
ATOM      2  C   UNL     1      42.588  29.187   1.556  1.00  0.00     0.000 C 
BRANCH   2   3
ATOM      3  C   UNL     1      43.194  29.952   0.367  1.00  0.00     0.000 C 
BRANCH   3   4
ATOM      4  C   UNL     1      42.235  30.039  -0.835  1.00  0.00     0.000 C 
BRANCH   4   5
ATOM      5  C   UNL     1      42.848  29.615  -2.184  1.00  0.00     0.000 C 
BRANCH   5   6
ATOM      6  C   UNL     1      43.391  28.176  -2.165  1.00  0.00     0.000 C 
BRANCH   6   7
ATOM      7  C   UNL     1      44.271  27.857  -3.383  1.00  0.00     0.006 C 
BRANCH   7   8
ATOM      8  C   UNL     1      43.684  26.753  -4.274  1.00  0.00     0.053 C 
BRANCH   8   9
ATOM      9  C   UNL     1      42.984  27.352  -5.452  1.00  0.00     0.041 C 
ATOM     10  O   UNL     1      43.453  27.204  -6.610  1.00  0.00    -0.550 OA
ATOM     11  O   UNL     1      41.788  28.038  -5.279  1.00  0.00    -0.550 OA
ENDBRANCH   8   9
ENDBRANCH   7   8
ENDBRANCH   6   7
ENDBRANCH   5   6
ENDBRANCH   4   5
ENDBRANCH   3   4
ENDBRANCH   2   3
ENDBRANCH   1   2
BRANCH   1  12
ATOM     12  C   UNL     1      43.663  26.832   1.346  1.00  0.00     0.000 C 
BRANCH  12  13
ATOM     13  C   UNL     1      44.505  27.041   2.622  1.00  0.00    -0.000 C 
BRANCH  13  14
ATOM     14  C   UNL     1      45.081  25.751   3.237  1.00  0.00    -0.000 C 
BRANCH  14  15
ATOM     15  C   UNL     1      45.511  25.869   4.712  1.00  0.00    -0.000 C 
BRANCH  15  16
ATOM     16  C   UNL     1      46.478  27.027   5.018  1.00  0.00    -0.000 C 
BRANCH  16  17
ATOM     17  C   UNL     1      46.667  27.260   6.526  1.00  0.00    -0.000 C 
BRANCH  17  18
ATOM     18  C   UNL     1      45.641  28.271   7.061  1.00  0.00    -0.000 C 
BRANCH  18  19
ATOM     19  C   UNL     1      45.267  28.013   8.528  1.00  0.00    -0.003 C 
ATOM     20  C   UNL     1      45.208  26.526   8.874  1.00  0.00     0.004 C 
ENDBRANCH  18  19
ENDBRANCH  17  18
ENDBRANCH  16  17
ENDBRANCH  15  16
ENDBRANCH  14  15
ENDBRANCH  13  14
ENDBRANCH  12  13
ENDBRANCH   1  12
TORSDOF 16
ENDMDL
MODEL 5
REMARK VINA RESULT:    -4.000      4.020      9.676
REMARK INTER + INTRA:          -9.708
REMARK INTER:                  -8.616
REMARK INTRA:                  -1.091
REMARK UNBOUND:                -1.967
REMARK SMILES CCCCCCCCCCCCCCCCCC(=O)[O-]
REMARK SMILES IDX 10 1 11 2 12 3 13 4 14 5 15 6 16 7 17 8 18 9 19 10 20 11
REMARK SMILES IDX 9 12 8 13 7 14 6 15 5 16 4 17 3 18 2 19 1 20
REMARK H PARENT
REMARK Flexibility Score: inf
ROOT
ATOM      1  C   UNL     1      42.532  27.695   1.502  1.00  0.00     0.000 C 
ENDROOT
BRANCH   1   2
ATOM      2  C   UNL     1      43.892  28.006   2.153  1.00  0.00     0.000 C 
BRANCH   2   3
ATOM      3  C   UNL     1      44.914  26.872   1.964  1.00  0.00     0.000 C 
BRANCH   3   4
ATOM      4  C   UNL     1      44.935  25.886   3.147  1.00  0.00     0.000 C 
BRANCH   4   5
ATOM      5  C   UNL     1      46.278  25.162   3.362  1.00  0.00     0.000 C 
BRANCH   5   6
ATOM      6  C   UNL     1      47.048  25.686   4.586  1.00  0.00     0.000 C 
BRANCH   6   7
ATOM      7  C   UNL     1      46.130  26.341   5.629  1.00  0.00     0.006 C 
BRANCH   7   8
ATOM      8  C   UNL     1      46.602  26.108   7.071  1.00  0.00     0.053 C 
BRANCH   8   9
ATOM      9  C   UNL     1      45.635  26.713   8.040  1.00  0.00     0.041 C 
ATOM     10  O   UNL     1      45.253  27.904   7.894  1.00  0.00    -0.550 OA
ATOM     11  O   UNL     1      45.120  25.949   9.080  1.00  0.00    -0.550 OA
ENDBRANCH   8   9
ENDBRANCH   7   8
ENDBRANCH   6   7
ENDBRANCH   5   6
ENDBRANCH   4   5
ENDBRANCH   3   4
ENDBRANCH   2   3
ENDBRANCH   1   2
BRANCH   1  12
ATOM     12  C   UNL     1      42.615  27.124   0.071  1.00  0.00     0.000 C 
BRANCH  12  13
ATOM     13  C   UNL     1      43.086  28.123  -1.006  1.00  0.00    -0.000 C 
BRANCH  13  14
ATOM     14  C   UNL     1      44.429  27.770  -1.674  1.00  0.00    -0.000 C 
BRANCH  14  15
ATOM     15  C   UNL     1      44.598  28.294  -3.113  1.00  0.00    -0.000 C 
BRANCH  15  16
ATOM     16  C   UNL     1      44.750  27.204  -4.190  1.00  0.00    -0.000 C 
BRANCH  16  17
ATOM     17  C   UNL     1      43.399  26.707  -4.729  1.00  0.00    -0.000 C 
BRANCH  17  18
ATOM     18  C   UNL     1      42.440  27.881  -4.980  1.00  0.00    -0.000 C 
BRANCH  18  19
ATOM     19  C   UNL     1      42.443  28.342  -6.446  1.00  0.00    -0.003 C 
ATOM     20  C   UNL     1      41.730  29.678  -6.650  1.00  0.00     0.004 C 
ENDBRANCH  18  19
ENDBRANCH  17  18
ENDBRANCH  16  17
ENDBRANCH  15  16
ENDBRANCH  14  15
ENDBRANCH  13  14
ENDBRANCH  12  13
ENDBRANCH   1  12
TORSDOF 16
ENDMDL
MODEL 6
REMARK VINA RESULT:    -3.993      2.553      4.763
REMARK INTER + INTRA:          -9.695
REMARK INTER:                  -8.203
REMARK INTRA:                  -1.492
REMARK UNBOUND:                -1.967
REMARK SMILES CCCCCCCCCCCCCCCCCC(=O)[O-]
REMARK SMILES IDX 10 1 11 2 12 3 13 4 14 5 15 6 16 7 17 8 18 9 19 10 20 11
REMARK SMILES IDX 9 12 8 13 7 14 6 15 5 16 4 17 3 18 2 19 1 20
REMARK H PARENT
REMARK Flexibility Score: inf
ROOT
ATOM      1  C   UNL     1      42.591  27.108   0.330  1.00  0.00     0.000 C 
ENDROOT
BRANCH   1   2
ATOM      2  C   UNL     1      43.131  27.918  -0.863  1.00  0.00     0.000 C 
BRANCH   2   3
ATOM      3  C   UNL     1      44.130  27.121  -1.718  1.00  0.00     0.000 C 
BRANCH   3   4
ATOM      4  C   UNL     1      44.924  28.011  -2.693  1.00  0.00     0.000 C 
BRANCH   4   5
ATOM      5  C   UNL     1      46.020  27.280  -3.491  1.00  0.00     0.000 C 
BRANCH   5   6
ATOM      6  C   UNL     1      45.580  26.930  -4.923  1.00  0.00     0.000 C 
BRANCH   6   7
ATOM      7  C   UNL     1      44.702  28.019  -5.558  1.00  0.00     0.006 C 
BRANCH   7   8
ATOM      8  C   UNL     1      43.435  27.458  -6.217  1.00  0.00     0.053 C 
BRANCH   8   9
ATOM      9  C   UNL     1      42.222  28.164  -5.700  1.00  0.00     0.041 C 
ATOM     10  O   UNL     1      41.506  28.846  -6.479  1.00  0.00    -0.550 OA
ATOM     11  O   UNL     1      41.855  28.034  -4.366  1.00  0.00    -0.550 OA
ENDBRANCH   8   9
ENDBRANCH   7   8
ENDBRANCH   6   7
ENDBRANCH   5   6
ENDBRANCH   4   5
ENDBRANCH   3   4
ENDBRANCH   2   3
ENDBRANCH   1   2
BRANCH   1  12
ATOM     12  C   UNL     1      42.806  27.764   1.710  1.00  0.00     0.000 C 
BRANCH  12  13
ATOM     13  C   UNL     1      44.236  28.277   1.973  1.00  0.00    -0.000 C 
BRANCH  13  14
ATOM     14  C   UNL     1      45.300  27.174   2.139  1.00  0.00    -0.000 C 
BRANCH  14  15
ATOM     15  C   UNL     1      44.859  25.966   2.989  1.00  0.00    -0.000 C 
BRANCH  15  16
ATOM     16  C   UNL     1      46.005  25.186   3.657  1.00  0.00    -0.000 C 
BRANCH  16  17
ATOM     17  C   UNL     1      46.748  26.014   4.719  1.00  0.00    -0.000 C 
BRANCH  17  18
ATOM     18  C   UNL     1      45.870  26.231   5.961  1.00  0.00    -0.000 C 
BRANCH  18  19
ATOM     19  C   UNL     1      46.079  27.613   6.598  1.00  0.00    -0.003 C 
ATOM     20  C   UNL     1      46.034  28.750   5.577  1.00  0.00     0.004 C 
ENDBRANCH  18  19
ENDBRANCH  17  18
ENDBRANCH  16  17
ENDBRANCH  15  16
ENDBRANCH  14  15
ENDBRANCH  13  14
ENDBRANCH  12  13
ENDBRANCH   1  12
TORSDOF 16
ENDMDL
MODEL 7
REMARK VINA RESULT:    -3.910      1.869      2.594
REMARK INTER + INTRA:          -9.535
REMARK INTER:                  -8.606
REMARK INTRA:                  -0.929
REMARK UNBOUND:                -1.967
REMARK SMILES CCCCCCCCCCCCCCCCCC(=O)[O-]
REMARK SMILES IDX 10 1 11 2 12 3 13 4 14 5 15 6 16 7 17 8 18 9 19 10 20 11
REMARK SMILES IDX 9 12 8 13 7 14 6 15 5 16 4 17 3 18 2 19 1 20
REMARK H PARENT
REMARK Flexibility Score: inf
ROOT
ATOM      1  C   UNL     1      44.557  25.988   3.142  1.00  0.00     0.000 C 
ENDROOT
BRANCH   1   2
ATOM      2  C   UNL     1      44.438  26.732   1.800  1.00  0.00     0.000 C 
BRANCH   2   3
ATOM      3  C   UNL     1      43.071  27.412   1.617  1.00  0.00     0.000 C 
BRANCH   3   4
ATOM      4  C   UNL     1      42.545  27.313   0.173  1.00  0.00     0.000 C 
BRANCH   4   5
ATOM      5  C   UNL     1      43.283  28.201  -0.847  1.00  0.00     0.000 C 
BRANCH   5   6
ATOM      6  C   UNL     1      44.153  27.390  -1.823  1.00  0.00     0.000 C 
BRANCH   6   7
ATOM      7  C   UNL     1      44.379  28.115  -3.159  1.00  0.00     0.006 C 
BRANCH   7   8
ATOM      8  C   UNL     1      43.078  28.641  -3.782  1.00  0.00     0.053 C 
BRANCH   8   9
ATOM      9  C   UNL     1      42.626  27.738  -4.885  1.00  0.00     0.041 C 
ATOM     10  O   UNL     1      43.128  26.591  -5.011  1.00  0.00    -0.550 OA
ATOM     11  O   UNL     1      41.617  28.145  -5.750  1.00  0.00    -0.550 OA
ENDBRANCH   8   9
ENDBRANCH   7   8
ENDBRANCH   6   7
ENDBRANCH   5   6
ENDBRANCH   4   5
ENDBRANCH   3   4
ENDBRANCH   2   3
ENDBRANCH   1   2
BRANCH   1  12
ATOM     12  C   UNL     1      45.926  25.322   3.396  1.00  0.00     0.000 C 
BRANCH  12  13
ATOM     13  C   UNL     1      46.792  26.000   4.477  1.00  0.00    -0.000 C 
BRANCH  13  14
ATOM     14  C   UNL     1      46.015  26.502   5.709  1.00  0.00    -0.000 C 
BRANCH  14  15
ATOM     15  C   UNL     1      46.587  27.773   6.367  1.00  0.00    -0.000 C 
BRANCH  15  16
ATOM     16  C   UNL     1      45.534  28.778   6.868  1.00  0.00    -0.000 C 
BRANCH  16  17
ATOM     17  C   UNL     1      45.141  28.545   8.336  1.00  0.00    -0.000 C 
BRANCH  17  18
ATOM     18  C   UNL     1      46.245  27.787   9.088  1.00  0.00    -0.000 C 
BRANCH  18  19
ATOM     19  C   UNL     1      45.808  26.378   9.516  1.00  0.00    -0.003 C 
ATOM     20  C   UNL     1      46.877  25.319   9.251  1.00  0.00     0.004 C 
ENDBRANCH  18  19
ENDBRANCH  17  18
ENDBRANCH  16  17
ENDBRANCH  15  16
ENDBRANCH  14  15
ENDBRANCH  13  14
ENDBRANCH  12  13
ENDBRANCH   1  12
TORSDOF 16
ENDMDL
MODEL 8
REMARK VINA RESULT:    -3.905      2.905      5.429
REMARK INTER + INTRA:          -9.525
REMARK INTER:                  -7.113
REMARK INTRA:                  -2.412
REMARK UNBOUND:                -1.967
REMARK SMILES CCCCCCCCCCCCCCCCCC(=O)[O-]
REMARK SMILES IDX 10 1 11 2 12 3 13 4 14 5 15 6 16 7 17 8 18 9 19 10 20 11
REMARK SMILES IDX 9 12 8 13 7 14 6 15 5 16 4 17 3 18 2 19 1 20
REMARK H PARENT
REMARK Flexibility Score: inf
ROOT
ATOM      1  C   UNL     1      43.363  27.915  -1.082  1.00  0.00     0.000 C 
ENDROOT
BRANCH   1   2
ATOM      2  C   UNL     1      44.721  27.389  -1.580  1.00  0.00     0.000 C 
BRANCH   2   3
ATOM      3  C   UNL     1      45.839  28.441  -1.477  1.00  0.00     0.000 C 
BRANCH   3   4
ATOM      4  C   UNL     1      47.010  28.162  -2.437  1.00  0.00     0.000 C 
BRANCH   4   5
ATOM      5  C   UNL     1      46.703  28.418  -3.925  1.00  0.00     0.000 C 
BRANCH   5   6
ATOM      6  C   UNL     1      46.593  27.119  -4.742  1.00  0.00     0.000 C 
BRANCH   6   7
ATOM      7  C   UNL     1      45.473  27.172  -5.792  1.00  0.00     0.006 C 
BRANCH   7   8
ATOM      8  C   UNL     1      44.328  28.117  -5.399  1.00  0.00     0.053 C 
BRANCH   8   9
ATOM      9  C   UNL     1      43.125  27.333  -4.983  1.00  0.00     0.041 C 
ATOM     10  O   UNL     1      43.252  26.156  -4.555  1.00  0.00    -0.550 OA
ATOM     11  O   UNL     1      41.864  27.915  -5.026  1.00  0.00    -0.550 OA
ENDBRANCH   8   9
ENDBRANCH   7   8
ENDBRANCH   6   7
ENDBRANCH   5   6
ENDBRANCH   4   5
ENDBRANCH   3   4
ENDBRANCH   2   3
ENDBRANCH   1   2
BRANCH   1  12
ATOM     12  C   UNL     1      42.725  27.088   0.054  1.00  0.00     0.000 C 
BRANCH  12  13
ATOM     13  C   UNL     1      42.122  27.916   1.207  1.00  0.00    -0.000 C 
BRANCH  13  14
ATOM     14  C   UNL     1      42.530  29.402   1.219  1.00  0.00    -0.000 C 
BRANCH  14  15
ATOM     15  C   UNL     1      43.572  29.783   2.289  1.00  0.00    -0.000 C 
BRANCH  15  16
ATOM     16  C   UNL     1      45.038  29.529   1.890  1.00  0.00    -0.000 C 
BRANCH  16  17
ATOM     17  C   UNL     1      45.730  28.496   2.795  1.00  0.00    -0.000 C 
BRANCH  17  18
ATOM     18  C   UNL     1      45.744  27.108   2.137  1.00  0.00    -0.000 C 
BRANCH  18  19
ATOM     19  C   UNL     1      44.851  26.097   2.871  1.00  0.00    -0.003 C 
ATOM     20  C   UNL     1      45.457  25.617   4.189  1.00  0.00     0.004 C 
ENDBRANCH  18  19
ENDBRANCH  17  18
ENDBRANCH  16  17
ENDBRANCH  15  16
ENDBRANCH  14  15
ENDBRANCH  13  14
ENDBRANCH  12  13
ENDBRANCH   1  12
TORSDOF 16
ENDMDL
MODEL 9
REMARK VINA RESULT:    -3.857      4.242      9.361
REMARK INTER + INTRA:          -9.431
REMARK INTER:                  -8.330
REMARK INTRA:                  -1.102
REMARK UNBOUND:                -1.967
REMARK SMILES CCCCCCCCCCCCCCCCCC(=O)[O-]
REMARK SMILES IDX 10 1 11 2 12 3 13 4 14 5 15 6 16 7 17 8 18 9 19 10 20 11
REMARK SMILES IDX 9 12 8 13 7 14 6 15 5 16 4 17 3 18 2 19 1 20
REMARK H PARENT
REMARK Flexibility Score: inf
ROOT
ATOM      1  C   UNL     1      43.830  27.255   1.253  1.00  0.00     0.000 C 
ENDROOT
BRANCH   1   2
ATOM      2  C   UNL     1      44.715  27.284   2.512  1.00  0.00     0.000 C 
BRANCH   2   3
ATOM      3  C   UNL     1      44.885  25.894   3.150  1.00  0.00     0.000 C 
BRANCH   3   4
ATOM      4  C   UNL     1      45.597  25.948   4.515  1.00  0.00     0.000 C 
BRANCH   4   5
ATOM      5  C   UNL     1      46.085  27.347   4.935  1.00  0.00     0.000 C 
BRANCH   5   6
ATOM      6  C   UNL     1      46.025  27.567   6.457  1.00  0.00     0.000 C 
BRANCH   6   7
ATOM      7  C   UNL     1      45.995  26.249   7.246  1.00  0.00     0.006 C 
BRANCH   7   8
ATOM      8  C   UNL     1      45.266  26.374   8.591  1.00  0.00     0.053 C 
BRANCH   8   9
ATOM      9  C   UNL     1      46.225  26.182   9.723  1.00  0.00     0.041 C 
ATOM     10  O   UNL     1      46.333  25.056  10.277  1.00  0.00    -0.550 OA
ATOM     11  O   UNL     1      47.031  27.233  10.141  1.00  0.00    -0.550 OA
ENDBRANCH   8   9
ENDBRANCH   7   8
ENDBRANCH   6   7
ENDBRANCH   5   6
ENDBRANCH   4   5
ENDBRANCH   3   4
ENDBRANCH   2   3
ENDBRANCH   1   2
BRANCH   1  12
ATOM     12  C   UNL     1      42.337  27.551   1.502  1.00  0.00     0.000 C 
BRANCH  12  13
ATOM     13  C   UNL     1      41.962  29.046   1.529  1.00  0.00    -0.000 C 
BRANCH  13  14
ATOM     14  C   UNL     1      42.845  29.951   0.649  1.00  0.00    -0.000 C 
BRANCH  14  15
ATOM     15  C   UNL     1      42.476  29.965  -0.847  1.00  0.00    -0.000 C 
BRANCH  15  16
ATOM     16  C   UNL     1      43.624  29.596  -1.805  1.00  0.00    -0.000 C 
BRANCH  16  17
ATOM     17  C   UNL     1      43.413  28.237  -2.491  1.00  0.00    -0.000 C 
BRANCH  17  18
ATOM     18  C   UNL     1      44.164  28.173  -3.830  1.00  0.00    -0.000 C 
BRANCH  18  19
ATOM     19  C   UNL     1      43.468  27.264  -4.855  1.00  0.00    -0.003 C 
ATOM     20  C   UNL     1      42.256  27.926  -5.509  1.00  0.00     0.004 C 
ENDBRANCH  18  19
ENDBRANCH  17  18
ENDBRANCH  16  17
ENDBRANCH  15  16
ENDBRANCH  14  15
ENDBRANCH  13  14
ENDBRANCH  12  13
ENDBRANCH   1  12
TORSDOF 16
ENDMDL
