MODEL 1
REMARK VINA RESULT:    -6.774      0.000      0.000
REMARK INTER + INTRA:          -8.257
REMARK INTER:                  -7.963
REMARK INTRA:                  -0.295
REMARK UNBOUND:                -0.295
REMARK SMILES O=c1cc(-c2ccc(O)c(O)c2)oc2cc(O)cc(O)c12
REMARK SMILES IDX 4 1 3 2 2 3 1 4 21 5 19 6 18 7 16 8 15 9 14 10 13 11 5 12
REMARK SMILES IDX 6 13 7 14 8 15 12 16 10 17 9 18 11 20 20 22 17 24
REMARK H PARENT 9 19 11 21 20 23 17 25
REMARK Flexibility Score: inf
ROOT
ATOM      1  C   UNL     1     -61.197  21.922 -30.501  1.00  0.00     0.138 A 
ATOM      2  C   UNL     1     -62.148  22.523 -31.342  1.00  0.00     0.100 A 
ATOM      3  C   UNL     1     -62.263  23.914 -31.368  1.00  0.00     0.197 A 
ATOM      4  O   UNL     1     -63.120  24.442 -32.125  1.00  0.00    -0.289 OA
ATOM      5  C   UNL     1     -61.424  24.695 -30.548  1.00  0.00     0.107 A 
ATOM      6  C   UNL     1     -61.474  26.108 -30.513  1.00  0.00     0.134 A 
ATOM      7  C   UNL     1     -60.608  26.814 -29.665  1.00  0.00     0.093 A 
ATOM      8  C   UNL     1     -59.696  26.133 -28.850  1.00  0.00     0.123 A 
ATOM      9  C   UNL     1     -59.645  24.737 -28.880  1.00  0.00     0.094 A 
ATOM     10  C   UNL     1     -60.499  24.016 -29.721  1.00  0.00     0.146 A 
ATOM     11  O   UNL     1     -60.427  22.689 -29.731  1.00  0.00    -0.456 OA
ENDROOT
BRANCH   1  12
ATOM     12  C   UNL     1     -61.033  20.448 -30.431  1.00  0.00     0.021 A 
ATOM     13  C   UNL     1     -60.173  19.843 -29.494  1.00  0.00     0.016 A 
ATOM     14  C   UNL     1     -60.047  18.452 -29.443  1.00  0.00     0.051 A 
ATOM     15  C   UNL     1     -60.780  17.643 -30.320  1.00  0.00     0.157 A 
ATOM     16  C   UNL     1     -61.776  19.627 -31.298  1.00  0.00     0.062 A 
ATOM     17  C   UNL     1     -61.647  18.232 -31.247  1.00  0.00     0.158 A 
BRANCH  15  18
ATOM     18  O   UNL     1     -60.655  16.256 -30.273  1.00  0.00    -0.504 OA
ATOM     19  H   UNL     1     -61.080  15.710 -29.532  1.00  0.00     0.293 HD
ENDBRANCH  15  18
BRANCH  17  20
ATOM     20  O   UNL     1     -62.380  17.423 -32.116  1.00  0.00    -0.504 OA
ATOM     21  H   UNL     1     -63.144  16.847 -31.786  1.00  0.00     0.293 HD
ENDBRANCH  17  20
ENDBRANCH   1  12
BRANCH   6  22
ATOM     22  O   UNL     1     -62.372  26.814 -31.314  1.00  0.00    -0.507 OA
ATOM     23  H   UNL     1     -62.101  27.661 -31.802  1.00  0.00     0.293 HD
ENDBRANCH   6  22
BRANCH   8  24
ATOM     24  O   UNL     1     -58.837  26.833 -28.007  1.00  0.00    -0.508 OA
ATOM     25  H   UNL     1     -57.883  27.040 -28.276  1.00  0.00     0.293 HD
ENDBRANCH   8  24
TORSDOF 5
ENDMDL
MODEL 2
REMARK VINA RESULT:    -6.708      1.490      3.313
REMARK INTER + INTRA:          -8.179
REMARK INTER:                  -7.915
REMARK INTRA:                  -0.263
REMARK UNBOUND:                -0.295
REMARK SMILES O=c1cc(-c2ccc(O)c(O)c2)oc2cc(O)cc(O)c12
REMARK SMILES IDX 4 1 3 2 2 3 1 4 21 5 19 6 18 7 16 8 15 9 14 10 13 11 5 12
REMARK SMILES IDX 6 13 7 14 8 15 12 16 10 17 9 18 11 20 20 22 17 24
REMARK H PARENT 9 19 11 21 20 23 17 25
REMARK Flexibility Score: inf
ROOT
ATOM      1  C   UNL     1     -60.250  20.320 -30.195  1.00  0.00     0.138 A 
ATOM      2  C   UNL     1     -59.408  20.817 -29.186  1.00  0.00     0.100 A 
ATOM      3  C   UNL     1     -59.419  22.181 -28.892  1.00  0.00     0.197 A 
ATOM      4  O   UNL     1     -58.658  22.618 -27.988  1.00  0.00    -0.289 OA
ATOM      5  C   UNL     1     -60.273  23.041 -29.612  1.00  0.00     0.107 A 
ATOM      6  C   UNL     1     -60.347  24.434 -29.378  1.00  0.00     0.134 A 
ATOM      7  C   UNL     1     -61.219  25.222 -30.142  1.00  0.00     0.093 A 
ATOM      8  C   UNL     1     -62.017  24.644 -31.136  1.00  0.00     0.123 A 
ATOM      9  C   UNL     1     -61.946  23.269 -31.372  1.00  0.00     0.094 A 
ATOM     10  C   UNL     1     -61.084  22.466 -30.619  1.00  0.00     0.146 A 
ATOM     11  O   UNL     1     -61.038  21.160 -30.863  1.00  0.00    -0.456 OA
ENDROOT
BRANCH   1  12
ATOM     12  C   UNL     1     -60.279  18.879 -30.551  1.00  0.00     0.021 A 
ATOM     13  C   UNL     1     -59.869  18.422 -31.819  1.00  0.00     0.016 A 
ATOM     14  C   UNL     1     -59.896  17.058 -32.124  1.00  0.00     0.051 A 
ATOM     15  C   UNL     1     -60.324  16.129 -31.168  1.00  0.00     0.157 A 
ATOM     16  C   UNL     1     -60.694  17.936 -29.593  1.00  0.00     0.062 A 
ATOM     17  C   UNL     1     -60.722  16.569 -29.901  1.00  0.00     0.158 A 
BRANCH  15  18
ATOM     18  O   UNL     1     -60.353  14.769 -31.470  1.00  0.00    -0.504 OA
ATOM     19  H   UNL     1     -59.585  14.316 -31.952  1.00  0.00     0.293 HD
ENDBRANCH  15  18
BRANCH  17  20
ATOM     20  O   UNL     1     -61.144  15.640 -28.949  1.00  0.00    -0.504 OA
ATOM     21  H   UNL     1     -62.026  15.743 -28.463  1.00  0.00     0.293 HD
ENDBRANCH  17  20
ENDBRANCH   1  12
BRANCH   6  22
ATOM     22  O   UNL     1     -59.563  25.038 -28.393  1.00  0.00    -0.507 OA
ATOM     23  H   UNL     1     -59.776  24.938 -27.407  1.00  0.00     0.293 HD
ENDBRANCH   6  22
BRANCH   8  24
ATOM     24  O   UNL     1     -62.883  25.426 -31.896  1.00  0.00    -0.508 OA
ATOM     25  H   UNL     1     -63.773  25.742 -31.528  1.00  0.00     0.293 HD
ENDBRANCH   8  24
TORSDOF 5
ENDMDL
MODEL 3
REMARK VINA RESULT:    -6.694      1.614      7.191
REMARK INTER + INTRA:          -8.162
REMARK INTER:                  -7.886
REMARK INTRA:                  -0.276
REMARK UNBOUND:                -0.295
REMARK SMILES O=c1cc(-c2ccc(O)c(O)c2)oc2cc(O)cc(O)c12
REMARK SMILES IDX 4 1 3 2 2 3 1 4 21 5 19 6 18 7 16 8 15 9 14 10 13 11 5 12
REMARK SMILES IDX 6 13 7 14 8 15 12 16 10 17 9 18 11 20 20 22 17 24
REMARK H PARENT 9 19 11 21 20 23 17 25
REMARK Flexibility Score: inf
ROOT
ATOM      1  C   UNL     1     -60.565  22.358 -30.426  1.00  0.00     0.138 A 
ATOM      2  C   UNL     1     -59.310  21.777 -30.674  1.00  0.00     0.100 A 
ATOM      3  C   UNL     1     -59.241  20.464 -31.143  1.00  0.00     0.197 A 
ATOM      4  O   UNL     1     -58.110  19.952 -31.361  1.00  0.00    -0.289 OA
ATOM      5  C   UNL     1     -60.430  19.740 -31.360  1.00  0.00     0.107 A 
ATOM      6  C   UNL     1     -60.450  18.408 -31.835  1.00  0.00     0.134 A 
ATOM      7  C   UNL     1     -61.676  17.753 -32.019  1.00  0.00     0.093 A 
ATOM      8  C   UNL     1     -62.882  18.406 -31.736  1.00  0.00     0.123 A 
ATOM      9  C   UNL     1     -62.867  19.721 -31.266  1.00  0.00     0.094 A 
ATOM     10  C   UNL     1     -61.654  20.391 -31.077  1.00  0.00     0.146 A 
ATOM     11  O   UNL     1     -61.669  21.643 -30.631  1.00  0.00    -0.456 OA
ENDROOT
BRANCH   1  12
ATOM     12  C   UNL     1     -60.698  23.749 -29.924  1.00  0.00     0.021 A 
ATOM     13  C   UNL     1     -60.162  24.142 -28.682  1.00  0.00     0.016 A 
ATOM     14  C   UNL     1     -60.293  25.461 -28.239  1.00  0.00     0.051 A 
ATOM     15  C   UNL     1     -60.954  26.409 -29.029  1.00  0.00     0.157 A 
ATOM     16  C   UNL     1     -61.349  24.712 -30.716  1.00  0.00     0.062 A 
ATOM     17  C   UNL     1     -61.481  26.034 -30.270  1.00  0.00     0.158 A 
BRANCH  15  18
ATOM     18  O   UNL     1     -61.088  27.725 -28.590  1.00  0.00    -0.504 OA
ATOM     19  H   UNL     1     -61.934  28.049 -28.135  1.00  0.00     0.293 HD
ENDBRANCH  15  18
BRANCH  17  20
ATOM     20  O   UNL     1     -62.135  26.982 -31.057  1.00  0.00    -0.504 OA
ATOM     21  H   UNL     1     -61.663  27.458 -31.816  1.00  0.00     0.293 HD
ENDBRANCH  17  20
ENDBRANCH   1  12
BRANCH   6  22
ATOM     22  O   UNL     1     -59.264  17.732 -32.125  1.00  0.00    -0.507 OA
ATOM     23  H   UNL     1     -59.186  16.726 -32.028  1.00  0.00     0.293 HD
ENDBRANCH   6  22
BRANCH   8  24
ATOM     24  O   UNL     1     -64.100  17.756 -31.917  1.00  0.00    -0.508 OA
ATOM     25  H   UNL     1     -64.179  16.930 -32.499  1.00  0.00     0.293 HD
ENDBRANCH   8  24
TORSDOF 5
ENDMDL
MODEL 4
REMARK VINA RESULT:    -6.382      0.774      1.345
REMARK INTER + INTRA:          -7.796
REMARK INTER:                  -7.513
REMARK INTRA:                  -0.283
REMARK UNBOUND:                -0.295
REMARK SMILES O=c1cc(-c2ccc(O)c(O)c2)oc2cc(O)cc(O)c12
REMARK SMILES IDX 4 1 3 2 2 3 1 4 21 5 19 6 18 7 16 8 15 9 14 10 13 11 5 12
REMARK SMILES IDX 6 13 7 14 8 15 12 16 10 17 9 18 11 20 20 22 17 24
REMARK H PARENT 9 19 11 21 20 23 17 25
REMARK Flexibility Score: inf
ROOT
ATOM      1  C   UNL     1     -61.113  22.125 -30.721  1.00  0.00     0.138 A 
ATOM      2  C   UNL     1     -62.087  22.780 -31.493  1.00  0.00     0.100 A 
ATOM      3  C   UNL     1     -62.201  24.169 -31.421  1.00  0.00     0.197 A 
ATOM      4  O   UNL     1     -63.078  24.747 -32.116  1.00  0.00    -0.289 OA
ATOM      5  C   UNL     1     -61.340  24.894 -30.573  1.00  0.00     0.107 A 
ATOM      6  C   UNL     1     -61.387  26.302 -30.442  1.00  0.00     0.134 A 
ATOM      7  C   UNL     1     -60.498  26.949 -29.571  1.00  0.00     0.093 A 
ATOM      8  C   UNL     1     -59.565  26.215 -28.830  1.00  0.00     0.123 A 
ATOM      9  C   UNL     1     -59.515  24.825 -28.956  1.00  0.00     0.094 A 
ATOM     10  C   UNL     1     -60.392  24.161 -29.820  1.00  0.00     0.146 A 
ATOM     11  O   UNL     1     -60.322  22.838 -29.923  1.00  0.00    -0.456 OA
ENDROOT
BRANCH   1  12
ATOM     12  C   UNL     1     -60.948  20.649 -30.756  1.00  0.00     0.021 A 
ATOM     13  C   UNL     1     -60.694  19.962 -31.959  1.00  0.00     0.016 A 
ATOM     14  C   UNL     1     -60.532  18.573 -31.960  1.00  0.00     0.051 A 
ATOM     15  C   UNL     1     -60.613  17.851 -30.764  1.00  0.00     0.157 A 
ATOM     16  C   UNL     1     -61.015  19.916 -29.557  1.00  0.00     0.062 A 
ATOM     17  C   UNL     1     -60.854  18.524 -29.561  1.00  0.00     0.158 A 
BRANCH  15  18
ATOM     18  O   UNL     1     -60.454  16.466 -30.762  1.00  0.00    -0.504 OA
ATOM     19  H   UNL     1     -60.495  15.929 -29.904  1.00  0.00     0.293 HD
ENDBRANCH  15  18
BRANCH  17  20
ATOM     20  O   UNL     1     -60.930  17.802 -28.369  1.00  0.00    -0.504 OA
ATOM     21  H   UNL     1     -61.227  16.834 -28.354  1.00  0.00     0.293 HD
ENDBRANCH  17  20
ENDBRANCH   1  12
BRANCH   6  22
ATOM     22  O   UNL     1     -62.307  27.059 -31.168  1.00  0.00    -0.507 OA
ATOM     23  H   UNL     1     -62.011  27.794 -31.801  1.00  0.00     0.293 HD
ENDBRANCH   6  22
BRANCH   8  24
ATOM     24  O   UNL     1     -58.682  26.857 -27.965  1.00  0.00    -0.508 OA
ATOM     25  H   UNL     1     -58.009  26.338 -27.413  1.00  0.00     0.293 HD
ENDBRANCH   8  24
TORSDOF 5
ENDMDL
MODEL 5
REMARK VINA RESULT:    -6.376      1.982      7.115
REMARK INTER + INTRA:          -7.789
REMARK INTER:                  -7.503
REMARK INTRA:                  -0.286
REMARK UNBOUND:                -0.295
REMARK SMILES O=c1cc(-c2ccc(O)c(O)c2)oc2cc(O)cc(O)c12
REMARK SMILES IDX 4 1 3 2 2 3 1 4 21 5 19 6 18 7 16 8 15 9 14 10 13 11 5 12
REMARK SMILES IDX 6 13 7 14 8 15 12 16 10 17 9 18 11 20 20 22 17 24
REMARK H PARENT 9 19 11 21 20 23 17 25
REMARK Flexibility Score: inf
ROOT
ATOM      1  C   UNL     1     -60.432  24.527 -29.717  1.00  0.00     0.138 A 
ATOM      2  C   UNL     1     -61.159  24.062 -30.826  1.00  0.00     0.100 A 
ATOM      3  C   UNL     1     -61.193  22.695 -31.101  1.00  0.00     0.197 A 
ATOM      4  O   UNL     1     -61.847  22.288 -32.098  1.00  0.00    -0.289 OA
ATOM      5  C   UNL     1     -60.497  21.800 -30.264  1.00  0.00     0.107 A 
ATOM      6  C   UNL     1     -60.480  20.400 -30.470  1.00  0.00     0.134 A 
ATOM      7  C   UNL     1     -59.757  19.577 -29.594  1.00  0.00     0.093 A 
ATOM      8  C   UNL     1     -59.051  20.127 -28.518  1.00  0.00     0.123 A 
ATOM      9  C   UNL     1     -59.064  21.508 -28.312  1.00  0.00     0.094 A 
ATOM     10  C   UNL     1     -59.780  22.346 -29.173  1.00  0.00     0.146 A 
ATOM     11  O   UNL     1     -59.777  23.656 -28.952  1.00  0.00    -0.456 OA
ENDROOT
BRANCH   1  12
ATOM     12  C   UNL     1     -60.358  25.971 -29.378  1.00  0.00     0.021 A 
ATOM     13  C   UNL     1     -59.230  26.525 -28.743  1.00  0.00     0.016 A 
ATOM     14  C   UNL     1     -59.183  27.891 -28.446  1.00  0.00     0.051 A 
ATOM     15  C   UNL     1     -60.256  28.724 -28.783  1.00  0.00     0.157 A 
ATOM     16  C   UNL     1     -61.426  26.819 -29.725  1.00  0.00     0.062 A 
ATOM     17  C   UNL     1     -61.378  28.188 -29.424  1.00  0.00     0.158 A 
BRANCH  15  18
ATOM     18  O   UNL     1     -60.214  30.085 -28.486  1.00  0.00    -0.504 OA
ATOM     19  H   UNL     1     -59.525  30.698 -28.907  1.00  0.00     0.293 HD
ENDBRANCH  15  18
BRANCH  17  20
ATOM     20  O   UNL     1     -62.444  29.021 -29.763  1.00  0.00    -0.504 OA
ATOM     21  H   UNL     1     -63.347  28.938 -29.310  1.00  0.00     0.293 HD
ENDBRANCH  17  20
ENDBRANCH   1  12
BRANCH   6  22
ATOM     22  O   UNL     1     -61.175  19.824 -31.534  1.00  0.00    -0.507 OA
ATOM     23  H   UNL     1     -60.695  19.338 -32.284  1.00  0.00     0.293 HD
ENDBRANCH   6  22
BRANCH   8  24
ATOM     24  O   UNL     1     -58.332  19.310 -27.649  1.00  0.00    -0.508 OA
ATOM     25  H   UNL     1     -58.795  18.757 -26.937  1.00  0.00     0.293 HD
ENDBRANCH   8  24
TORSDOF 5
ENDMDL
MODEL 6
REMARK VINA RESULT:    -6.085      1.658      2.803
REMARK INTER + INTRA:          -7.447
REMARK INTER:                  -7.128
REMARK INTRA:                  -0.318
REMARK UNBOUND:                -0.295
REMARK SMILES O=c1cc(-c2ccc(O)c(O)c2)oc2cc(O)cc(O)c12
REMARK SMILES IDX 4 1 3 2 2 3 1 4 21 5 19 6 18 7 16 8 15 9 14 10 13 11 5 12
REMARK SMILES IDX 6 13 7 14 8 15 12 16 10 17 9 18 11 20 20 22 17 24
REMARK H PARENT 9 19 11 21 20 23 17 25
REMARK Flexibility Score: inf
ROOT
ATOM      1  C   UNL     1     -60.506  22.303 -30.520  1.00  0.00     0.138 A 
ATOM      2  C   UNL     1     -59.119  22.520 -30.465  1.00  0.00     0.100 A 
ATOM      3  C   UNL     1     -58.633  23.762 -30.055  1.00  0.00     0.197 A 
ATOM      4  O   UNL     1     -57.388  23.947 -30.010  1.00  0.00    -0.289 OA
ATOM      5  C   UNL     1     -59.541  24.781 -29.703  1.00  0.00     0.107 A 
ATOM      6  C   UNL     1     -59.134  26.067 -29.276  1.00  0.00     0.134 A 
ATOM      7  C   UNL     1     -60.101  27.030 -28.949  1.00  0.00     0.093 A 
ATOM      8  C   UNL     1     -61.465  26.730 -29.043  1.00  0.00     0.123 A 
ATOM      9  C   UNL     1     -61.871  25.462 -29.465  1.00  0.00     0.094 A 
ATOM     10  C   UNL     1     -60.922  24.489 -29.794  1.00  0.00     0.146 A 
ATOM     11  O   UNL     1     -61.336  23.290 -30.191  1.00  0.00    -0.456 OA
ENDROOT
BRANCH   1  12
ATOM     12  C   UNL     1     -61.078  21.002 -30.952  1.00  0.00     0.021 A 
ATOM     13  C   UNL     1     -60.259  19.930 -31.352  1.00  0.00     0.016 A 
ATOM     14  C   UNL     1     -60.825  18.713 -31.743  1.00  0.00     0.051 A 
ATOM     15  C   UNL     1     -62.215  18.545 -31.734  1.00  0.00     0.157 A 
ATOM     16  C   UNL     1     -62.473  20.820 -30.933  1.00  0.00     0.062 A 
ATOM     17  C   UNL     1     -63.040  19.599 -31.327  1.00  0.00     0.158 A 
BRANCH  15  18
ATOM     18  O   UNL     1     -62.782  17.333 -32.125  1.00  0.00    -0.504 OA
ATOM     19  H   UNL     1     -63.530  16.902 -31.593  1.00  0.00     0.293 HD
ENDBRANCH  15  18
BRANCH  17  20
ATOM     20  O   UNL     1     -64.424  19.428 -31.315  1.00  0.00    -0.504 OA
ATOM     21  H   UNL     1     -64.851  18.589 -30.941  1.00  0.00     0.293 HD
ENDBRANCH  17  20
ENDBRANCH   1  12
BRANCH   6  22
ATOM     22  O   UNL     1     -57.781  26.394 -29.173  1.00  0.00    -0.507 OA
ATOM     23  H   UNL     1     -57.435  27.314 -29.423  1.00  0.00     0.293 HD
ENDBRANCH   6  22
BRANCH   8  24
ATOM     24  O   UNL     1     -62.425  27.685 -28.720  1.00  0.00    -0.508 OA
ATOM     25  H   UNL     1     -63.017  28.102 -29.428  1.00  0.00     0.293 HD
ENDBRANCH   8  24
TORSDOF 5
ENDMDL
MODEL 7
REMARK VINA RESULT:    -6.039      1.221      1.552
REMARK INTER + INTRA:          -7.393
REMARK INTER:                  -7.100
REMARK INTRA:                  -0.293
REMARK UNBOUND:                -0.295
REMARK SMILES O=c1cc(-c2ccc(O)c(O)c2)oc2cc(O)cc(O)c12
REMARK SMILES IDX 4 1 3 2 2 3 1 4 21 5 19 6 18 7 16 8 15 9 14 10 13 11 5 12
REMARK SMILES IDX 6 13 7 14 8 15 12 16 10 17 9 18 11 20 20 22 17 24
REMARK H PARENT 9 19 11 21 20 23 17 25
REMARK Flexibility Score: inf
ROOT
ATOM      1  C   UNL     1     -60.858  23.367 -30.288  1.00  0.00     0.138 A 
ATOM      2  C   UNL     1     -61.694  23.936 -31.263  1.00  0.00     0.100 A 
ATOM      3  C   UNL     1     -61.932  25.312 -31.246  1.00  0.00     0.197 A 
ATOM      4  O   UNL     1     -62.684  25.812 -32.124  1.00  0.00    -0.289 OA
ATOM      5  C   UNL     1     -61.332  26.109 -30.251  1.00  0.00     0.107 A 
ATOM      6  C   UNL     1     -61.519  27.508 -30.162  1.00  0.00     0.134 A 
ATOM      7  C   UNL     1     -60.891  28.231 -29.137  1.00  0.00     0.093 A 
ATOM      8  C   UNL     1     -60.081  27.579 -28.200  1.00  0.00     0.123 A 
ATOM      9  C   UNL     1     -59.894  26.197 -28.283  1.00  0.00     0.094 A 
ATOM     10  C   UNL     1     -60.511  25.460 -29.298  1.00  0.00     0.146 A 
ATOM     11  O   UNL     1     -60.315  24.147 -29.355  1.00  0.00    -0.456 OA
ENDROOT
BRANCH   1  12
ATOM     12  C   UNL     1     -60.572  21.910 -30.255  1.00  0.00     0.021 A 
ATOM     13  C   UNL     1     -59.528  21.379 -29.474  1.00  0.00     0.016 A 
ATOM     14  C   UNL     1     -59.288  20.002 -29.453  1.00  0.00     0.051 A 
ATOM     15  C   UNL     1     -60.089  19.134 -30.205  1.00  0.00     0.157 A 
ATOM     16  C   UNL     1     -61.380  21.029 -30.996  1.00  0.00     0.062 A 
ATOM     17  C   UNL     1     -61.138  19.648 -30.976  1.00  0.00     0.158 A 
BRANCH  15  18
ATOM     18  O   UNL     1     -59.852  17.761 -30.188  1.00  0.00    -0.504 OA
ATOM     19  H   UNL     1     -58.952  17.382 -29.914  1.00  0.00     0.293 HD
ENDBRANCH  15  18
BRANCH  17  20
ATOM     20  O   UNL     1     -61.937  18.781 -31.720  1.00  0.00    -0.504 OA
ATOM     21  H   UNL     1     -61.579  17.901 -32.073  1.00  0.00     0.293 HD
ENDBRANCH  17  20
ENDBRANCH   1  12
BRANCH   6  22
ATOM     22  O   UNL     1     -62.321  28.184 -31.083  1.00  0.00    -0.507 OA
ATOM     23  H   UNL     1     -61.966  28.962 -31.629  1.00  0.00     0.293 HD
ENDBRANCH   6  22
BRANCH   8  24
ATOM     24  O   UNL     1     -59.458  28.296 -27.181  1.00  0.00    -0.508 OA
ATOM     25  H   UNL     1     -58.820  27.849 -26.533  1.00  0.00     0.293 HD
ENDBRANCH   8  24
TORSDOF 5
ENDMDL
