MODEL 1
REMARK VINA RESULT:    -4.647      0.000      0.000
REMARK INTER + INTRA:          -5.912
REMARK INTER:                  -5.598
REMARK INTRA:                  -0.314
REMARK UNBOUND:                -0.314
REMARK SMILES O=c1c(O)c(-c2ccc(O)c(O)c2)oc2cc(O)cc(O)c12
REMARK SMILES IDX 5 1 3 2 2 3 1 4 22 5 20 6 19 7 17 8 16 9 15 10 14 11 6 12
REMARK SMILES IDX 7 13 8 14 9 15 13 16 11 17 10 18 12 20 4 22 21 24 18 26
REMARK H PARENT 10 19 12 21 4 23 21 25 18 27
REMARK Flexibility Score: inf
ROOT
ATOM      1  C   UNL     1     -10.184  13.757  31.697  1.00  0.00     0.180 A 
ATOM      2  C   UNL     1     -10.420  12.402  31.409  1.00  0.00     0.208 A 
ATOM      3  C   UNL     1     -10.723  12.028  30.090  1.00  0.00     0.238 A 
ATOM      4  O   UNL     1     -11.007  10.826  29.854  1.00  0.00    -0.285 OA
ATOM      5  C   UNL     1     -10.732  13.006  29.065  1.00  0.00     0.111 A 
ATOM      6  C   UNL     1     -10.982  12.733  27.685  1.00  0.00     0.134 A 
ATOM      7  C   UNL     1     -11.069  13.795  26.777  1.00  0.00     0.093 A 
ATOM      8  C   UNL     1     -10.853  15.113  27.185  1.00  0.00     0.123 A 
ATOM      9  C   UNL     1     -10.554  15.383  28.518  1.00  0.00     0.094 A 
ATOM     10  C   UNL     1     -10.497  14.349  29.456  1.00  0.00     0.146 A 
ATOM     11  O   UNL     1     -10.230  14.656  30.720  1.00  0.00    -0.452 OA
ENDROOT
BRANCH   1  12
ATOM     12  C   UNL     1      -9.873  14.230  33.065  1.00  0.00     0.025 A 
ATOM     13  C   UNL     1     -10.921  14.491  33.958  1.00  0.00     0.016 A 
ATOM     14  C   UNL     1     -10.650  14.918  35.260  1.00  0.00     0.051 A 
ATOM     15  C   UNL     1      -9.332  15.077  35.700  1.00  0.00     0.157 A 
ATOM     16  C   UNL     1      -8.547  14.366  33.510  1.00  0.00     0.062 A 
ATOM     17  C   UNL     1      -8.266  14.791  34.815  1.00  0.00     0.158 A 
BRANCH  15  18
ATOM     18  O   UNL     1      -9.129  15.514  37.010  1.00  0.00    -0.504 OA
ATOM     19  H   UNL     1      -9.610  15.134  37.813  1.00  0.00     0.293 HD
ENDBRANCH  15  18
BRANCH  17  20
ATOM     20  O   UNL     1      -6.925  14.906  35.187  1.00  0.00    -0.504 OA
ATOM     21  H   UNL     1      -6.581  15.576  35.861  1.00  0.00     0.293 HD
ENDBRANCH  17  20
ENDBRANCH   1  12
BRANCH   2  22
ATOM     22  O   UNL     1     -10.332  11.443  32.421  1.00  0.00    -0.502 OA
ATOM     23  H   UNL     1      -9.477  11.276  32.939  1.00  0.00     0.293 HD
ENDBRANCH   2  22
BRANCH   6  24
ATOM     24  O   UNL     1     -11.125  11.447  27.154  1.00  0.00    -0.507 OA
ATOM     25  H   UNL     1     -11.550  11.232  26.266  1.00  0.00     0.293 HD
ENDBRANCH   6  24
BRANCH   8  26
ATOM     26  O   UNL     1     -10.925  16.162  26.270  1.00  0.00    -0.508 OA
ATOM     27  H   UNL     1     -10.398  17.016  26.402  1.00  0.00     0.293 HD
ENDBRANCH   8  26
TORSDOF 6
ENDMDL
MODEL 2
REMARK VINA RESULT:    -4.504      2.977      7.234
REMARK INTER + INTRA:          -5.740
REMARK INTER:                  -5.558
REMARK INTRA:                  -0.182
REMARK UNBOUND:                -0.314
REMARK SMILES O=c1c(O)c(-c2ccc(O)c(O)c2)oc2cc(O)cc(O)c12
REMARK SMILES IDX 5 1 3 2 2 3 1 4 22 5 20 6 19 7 17 8 16 9 15 10 14 11 6 12
REMARK SMILES IDX 7 13 8 14 9 15 13 16 11 17 10 18 12 20 4 22 21 24 18 26
REMARK H PARENT 10 19 12 21 4 23 21 25 18 27
REMARK Flexibility Score: inf
ROOT
ATOM      1  C   UNL     1      -8.631  15.764  31.962  1.00  0.00     0.180 A 
ATOM      2  C   UNL     1      -9.770  15.061  32.394  1.00  0.00     0.208 A 
ATOM      3  C   UNL     1      -9.964  14.858  33.770  1.00  0.00     0.238 A 
ATOM      4  O   UNL     1     -10.944  14.165  34.144  1.00  0.00    -0.285 OA
ATOM      5  C   UNL     1      -9.049  15.409  34.700  1.00  0.00     0.111 A 
ATOM      6  C   UNL     1      -9.172  15.305  36.119  1.00  0.00     0.134 A 
ATOM      7  C   UNL     1      -8.149  15.799  36.938  1.00  0.00     0.093 A 
ATOM      8  C   UNL     1      -7.039  16.449  36.393  1.00  0.00     0.123 A 
ATOM      9  C   UNL     1      -6.937  16.604  35.013  1.00  0.00     0.094 A 
ATOM     10  C   UNL     1      -7.922  16.088  34.167  1.00  0.00     0.146 A 
ATOM     11  O   UNL     1      -7.773  16.241  32.857  1.00  0.00    -0.452 OA
ENDROOT
BRANCH   1  12
ATOM     12  C   UNL     1      -8.350  16.004  30.529  1.00  0.00     0.025 A 
ATOM     13  C   UNL     1      -9.179  16.868  29.799  1.00  0.00     0.016 A 
ATOM     14  C   UNL     1      -8.920  17.125  28.452  1.00  0.00     0.051 A 
ATOM     15  C   UNL     1      -7.824  16.539  27.811  1.00  0.00     0.157 A 
ATOM     16  C   UNL     1      -7.235  15.432  29.894  1.00  0.00     0.062 A 
ATOM     17  C   UNL     1      -6.966  15.686  28.543  1.00  0.00     0.158 A 
BRANCH  15  18
ATOM     18  O   UNL     1      -7.625  16.831  26.460  1.00  0.00    -0.504 OA
ATOM     19  H   UNL     1      -7.477  17.762  26.099  1.00  0.00     0.293 HD
ENDBRANCH  15  18
BRANCH  17  20
ATOM     20  O   UNL     1      -5.840  15.082  27.979  1.00  0.00    -0.504 OA
ATOM     21  H   UNL     1      -4.952  15.547  27.856  1.00  0.00     0.293 HD
ENDBRANCH  17  20
ENDBRANCH   1  12
BRANCH   2  22
ATOM     22  O   UNL     1     -10.700  14.591  31.464  1.00  0.00    -0.502 OA
ATOM     23  H   UNL     1     -11.649  14.347  31.720  1.00  0.00     0.293 HD
ENDBRANCH   2  22
BRANCH   6  24
ATOM     24  O   UNL     1     -10.279  14.755  36.771  1.00  0.00    -0.507 OA
ATOM     25  H   UNL     1     -10.234  14.127  37.558  1.00  0.00     0.293 HD
ENDBRANCH   6  24
BRANCH   8  26
ATOM     26  O   UNL     1      -6.034  16.952  37.218  1.00  0.00    -0.508 OA
ATOM     27  H   UNL     1      -6.238  17.607  37.962  1.00  0.00     0.293 HD
ENDBRANCH   8  26
TORSDOF 6
ENDMDL
MODEL 3
REMARK VINA RESULT:    -4.439      2.870      3.690
REMARK INTER + INTRA:          -5.662
REMARK INTER:                  -5.407
REMARK INTRA:                  -0.254
REMARK UNBOUND:                -0.314
REMARK SMILES O=c1c(O)c(-c2ccc(O)c(O)c2)oc2cc(O)cc(O)c12
REMARK SMILES IDX 5 1 3 2 2 3 1 4 22 5 20 6 19 7 17 8 16 9 15 10 14 11 6 12
REMARK SMILES IDX 7 13 8 14 9 15 13 16 11 17 10 18 12 20 4 22 21 24 18 26
REMARK H PARENT 10 19 12 21 4 23 21 25 18 27
REMARK Flexibility Score: inf
ROOT
ATOM      1  C   UNL     1      -8.559  15.820  32.516  1.00  0.00     0.180 A 
ATOM      2  C   UNL     1      -9.818  15.848  31.891  1.00  0.00     0.208 A 
ATOM      3  C   UNL     1      -9.884  15.820  30.489  1.00  0.00     0.238 A 
ATOM      4  O   UNL     1     -11.009  15.921  29.937  1.00  0.00    -0.285 OA
ATOM      5  C   UNL     1      -8.694  15.709  29.730  1.00  0.00     0.111 A 
ATOM      6  C   UNL     1      -8.645  15.626  28.304  1.00  0.00     0.134 A 
ATOM      7  C   UNL     1      -7.404  15.624  27.656  1.00  0.00     0.093 A 
ATOM      8  C   UNL     1      -6.210  15.639  28.382  1.00  0.00     0.123 A 
ATOM      9  C   UNL     1      -6.248  15.663  29.774  1.00  0.00     0.094 A 
ATOM     10  C   UNL     1      -7.471  15.704  30.449  1.00  0.00     0.146 A 
ATOM     11  O   UNL     1      -7.459  15.748  31.776  1.00  0.00    -0.452 OA
ENDROOT
BRANCH   1  12
ATOM     12  C   UNL     1      -8.408  15.862  33.988  1.00  0.00     0.025 A 
ATOM     13  C   UNL     1      -8.017  17.057  34.607  1.00  0.00     0.016 A 
ATOM     14  C   UNL     1      -7.888  17.124  35.996  1.00  0.00     0.051 A 
ATOM     15  C   UNL     1      -8.162  16.009  36.793  1.00  0.00     0.157 A 
ATOM     16  C   UNL     1      -8.706  14.746  34.788  1.00  0.00     0.062 A 
ATOM     17  C   UNL     1      -8.583  14.805  36.182  1.00  0.00     0.158 A 
BRANCH  15  18
ATOM     18  O   UNL     1      -8.007  16.139  38.175  1.00  0.00    -0.504 OA
ATOM     19  H   UNL     1      -7.884  17.023  38.648  1.00  0.00     0.293 HD
ENDBRANCH  15  18
BRANCH  17  20
ATOM     20  O   UNL     1      -8.894  13.656  36.912  1.00  0.00    -0.504 OA
ATOM     21  H   UNL     1      -9.836  13.327  37.073  1.00  0.00     0.293 HD
ENDBRANCH  17  20
ENDBRANCH   1  12
BRANCH   2  22
ATOM     22  O   UNL     1     -10.983  15.882  32.662  1.00  0.00    -0.502 OA
ATOM     23  H   UNL     1     -11.893  15.643  32.283  1.00  0.00     0.293 HD
ENDBRANCH   2  22
BRANCH   6  24
ATOM     24  O   UNL     1      -9.774  15.518  27.487  1.00  0.00    -0.507 OA
ATOM     25  H   UNL     1     -10.498  16.215  27.406  1.00  0.00     0.293 HD
ENDBRANCH   6  24
BRANCH   8  26
ATOM     26  O   UNL     1      -4.980  15.620  27.728  1.00  0.00    -0.508 OA
ATOM     27  H   UNL     1      -4.133  15.328  28.200  1.00  0.00     0.293 HD
ENDBRANCH   8  26
TORSDOF 6
ENDMDL
MODEL 4
REMARK VINA RESULT:    -4.236      1.952      3.634
REMARK INTER + INTRA:          -5.417
REMARK INTER:                  -5.088
REMARK INTRA:                  -0.330
REMARK UNBOUND:                -0.314
REMARK SMILES O=c1c(O)c(-c2ccc(O)c(O)c2)oc2cc(O)cc(O)c12
REMARK SMILES IDX 5 1 3 2 2 3 1 4 22 5 20 6 19 7 17 8 16 9 15 10 14 11 6 12
REMARK SMILES IDX 7 13 8 14 9 15 13 16 11 17 10 18 12 20 4 22 21 24 18 26
REMARK H PARENT 10 19 12 21 4 23 21 25 18 27
REMARK Flexibility Score: inf
ROOT
ATOM      1  C   UNL     1      -9.011  14.658  32.805  1.00  0.00     0.180 A 
ATOM      2  C   UNL     1      -9.172  15.385  31.612  1.00  0.00     0.208 A 
ATOM      3  C   UNL     1      -9.719  14.742  30.491  1.00  0.00     0.238 A 
ATOM      4  O   UNL     1      -9.791  15.377  29.407  1.00  0.00    -0.285 OA
ATOM      5  C   UNL     1     -10.150  13.397  30.591  1.00  0.00     0.111 A 
ATOM      6  C   UNL     1     -10.761  12.659  29.530  1.00  0.00     0.134 A 
ATOM      7  C   UNL     1     -11.051  11.301  29.713  1.00  0.00     0.093 A 
ATOM      8  C   UNL     1     -10.811  10.670  30.935  1.00  0.00     0.123 A 
ATOM      9  C   UNL     1     -10.266  11.395  31.992  1.00  0.00     0.094 A 
ATOM     10  C   UNL     1      -9.931  12.742  31.830  1.00  0.00     0.146 A 
ATOM     11  O   UNL     1      -9.395  13.388  32.858  1.00  0.00    -0.452 OA
ENDROOT
BRANCH   1  12
ATOM     12  C   UNL     1      -8.428  15.263  34.024  1.00  0.00     0.025 A 
ATOM     13  C   UNL     1      -9.272  15.875  34.961  1.00  0.00     0.016 A 
ATOM     14  C   UNL     1      -8.747  16.433  36.127  1.00  0.00     0.051 A 
ATOM     15  C   UNL     1      -7.374  16.379  36.390  1.00  0.00     0.157 A 
ATOM     16  C   UNL     1      -7.051  15.186  34.295  1.00  0.00     0.062 A 
ATOM     17  C   UNL     1      -6.515  15.740  35.464  1.00  0.00     0.158 A 
BRANCH  15  18
ATOM     18  O   UNL     1      -6.911  16.962  37.570  1.00  0.00    -0.504 OA
ATOM     19  H   UNL     1      -6.297  16.500  38.226  1.00  0.00     0.293 HD
ENDBRANCH  15  18
BRANCH  17  20
ATOM     20  O   UNL     1      -5.138  15.627  35.666  1.00  0.00    -0.504 OA
ATOM     21  H   UNL     1      -4.671  14.763  35.904  1.00  0.00     0.293 HD
ENDBRANCH  17  20
ENDBRANCH   1  12
BRANCH   2  22
ATOM     22  O   UNL     1      -8.809  16.734  31.558  1.00  0.00    -0.502 OA
ATOM     23  H   UNL     1      -8.540  17.189  30.694  1.00  0.00     0.293 HD
ENDBRANCH   2  22
BRANCH   6  24
ATOM     24  O   UNL     1     -11.125  13.213  28.299  1.00  0.00    -0.507 OA
ATOM     25  H   UNL     1     -10.592  13.130  27.448  1.00  0.00     0.293 HD
ENDBRANCH   6  24
BRANCH   8  26
ATOM     26  O   UNL     1     -11.118   9.322  31.112  1.00  0.00    -0.508 OA
ATOM     27  H   UNL     1     -10.613   8.595  30.621  1.00  0.00     0.293 HD
ENDBRANCH   8  26
TORSDOF 6
ENDMDL
MODEL 5
REMARK VINA RESULT:    -4.139      2.147      7.474
REMARK INTER + INTRA:          -5.300
REMARK INTER:                  -5.764
REMARK INTRA:                   0.464
REMARK UNBOUND:                -0.314
REMARK SMILES O=c1c(O)c(-c2ccc(O)c(O)c2)oc2cc(O)cc(O)c12
REMARK SMILES IDX 5 1 3 2 2 3 1 4 22 5 20 6 19 7 17 8 16 9 15 10 14 11 6 12
REMARK SMILES IDX 7 13 8 14 9 15 13 16 11 17 10 18 12 20 4 22 21 24 18 26
REMARK H PARENT 10 19 12 21 4 23 21 25 18 27
REMARK Flexibility Score: inf
ROOT
ATOM      1  C   UNL     1      -8.545  15.534  31.213  1.00  0.00     0.180 A 
ATOM      2  C   UNL     1      -7.344  16.238  31.409  1.00  0.00     0.208 A 
ATOM      3  C   UNL     1      -6.868  16.423  32.717  1.00  0.00     0.238 A 
ATOM      4  O   UNL     1      -5.834  17.117  32.889  1.00  0.00    -0.285 OA
ATOM      5  C   UNL     1      -7.569  15.854  33.809  1.00  0.00     0.111 A 
ATOM      6  C   UNL     1      -7.153  15.939  35.173  1.00  0.00     0.134 A 
ATOM      7  C   UNL     1      -7.982  15.428  36.179  1.00  0.00     0.093 A 
ATOM      8  C   UNL     1      -9.179  14.779  35.868  1.00  0.00     0.123 A 
ATOM      9  C   UNL     1      -9.565  14.642  34.537  1.00  0.00     0.094 A 
ATOM     10  C   UNL     1      -8.779  15.175  33.512  1.00  0.00     0.146 A 
ATOM     11  O   UNL     1      -9.197  15.040  32.259  1.00  0.00    -0.452 OA
ENDROOT
BRANCH   1  12
ATOM     12  C   UNL     1      -9.118  15.312  29.866  1.00  0.00     0.025 A 
ATOM     13  C   UNL     1     -10.296  14.564  29.733  1.00  0.00     0.016 A 
ATOM     14  C   UNL     1     -10.865  14.359  28.475  1.00  0.00     0.051 A 
ATOM     15  C   UNL     1     -10.280  14.908  27.329  1.00  0.00     0.157 A 
ATOM     16  C   UNL     1      -8.541  15.884  28.720  1.00  0.00     0.062 A 
ATOM     17  C   UNL     1      -9.106  15.687  27.454  1.00  0.00     0.158 A 
BRANCH  15  18
ATOM     18  O   UNL     1     -10.894  14.659  26.100  1.00  0.00    -0.504 OA
ATOM     19  H   UNL     1     -11.740  14.119  25.990  1.00  0.00     0.293 HD
ENDBRANCH  15  18
BRANCH  17  20
ATOM     20  O   UNL     1      -8.477  16.284  26.360  1.00  0.00    -0.504 OA
ATOM     21  H   UNL     1      -7.913  15.781  25.689  1.00  0.00     0.293 HD
ENDBRANCH  17  20
ENDBRANCH   1  12
BRANCH   2  22
ATOM     22  O   UNL     1      -6.629  16.726  30.312  1.00  0.00    -0.502 OA
ATOM     23  H   UNL     1      -7.041  17.351  29.629  1.00  0.00     0.293 HD
ENDBRANCH   2  22
BRANCH   6  24
ATOM     24  O   UNL     1      -5.936  16.487  35.588  1.00  0.00    -0.507 OA
ATOM     25  H   UNL     1      -5.650  16.601  36.548  1.00  0.00     0.293 HD
ENDBRANCH   6  24
BRANCH   8  26
ATOM     26  O   UNL     1      -9.988  14.258  36.876  1.00  0.00    -0.508 OA
ATOM     27  H   UNL     1     -10.326  13.304  36.844  1.00  0.00     0.293 HD
ENDBRANCH   8  26
TORSDOF 6
ENDMDL
MODEL 6
REMARK VINA RESULT:    -3.876      3.218      7.459
REMARK INTER + INTRA:          -4.984
REMARK INTER:                  -5.447
REMARK INTRA:                   0.464
REMARK UNBOUND:                -0.314
REMARK SMILES O=c1c(O)c(-c2ccc(O)c(O)c2)oc2cc(O)cc(O)c12
REMARK SMILES IDX 5 1 3 2 2 3 1 4 22 5 20 6 19 7 17 8 16 9 15 10 14 11 6 12
REMARK SMILES IDX 7 13 8 14 9 15 13 16 11 17 10 18 12 20 4 22 21 24 18 26
REMARK H PARENT 10 19 12 21 4 23 21 25 18 27
REMARK Flexibility Score: inf
ROOT
ATOM      1  C   UNL     1      -7.745  15.944  32.079  1.00  0.00     0.180 A 
ATOM      2  C   UNL     1      -9.021  15.356  32.119  1.00  0.00     0.208 A 
ATOM      3  C   UNL     1      -9.605  15.077  33.365  1.00  0.00     0.238 A 
ATOM      4  O   UNL     1     -10.713  14.484  33.392  1.00  0.00    -0.285 OA
ATOM      5  C   UNL     1      -8.930  15.441  34.556  1.00  0.00     0.111 A 
ATOM      6  C   UNL     1      -9.448  15.248  35.874  1.00  0.00     0.134 A 
ATOM      7  C   UNL     1      -8.646  15.551  36.981  1.00  0.00     0.093 A 
ATOM      8  C   UNL     1      -7.371  16.098  36.820  1.00  0.00     0.123 A 
ATOM      9  C   UNL     1      -6.879  16.341  35.540  1.00  0.00     0.094 A 
ATOM     10  C   UNL     1      -7.640  16.015  34.415  1.00  0.00     0.146 A 
ATOM     11  O   UNL     1      -7.123  16.244  33.214  1.00  0.00    -0.452 OA
ENDROOT
BRANCH   1  12
ATOM     12  C   UNL     1      -7.059  16.254  30.804  1.00  0.00     0.025 A 
ATOM     13  C   UNL     1      -5.786  16.840  30.832  1.00  0.00     0.016 A 
ATOM     14  C   UNL     1      -5.112  17.122  29.642  1.00  0.00     0.051 A 
ATOM     15  C   UNL     1      -5.685  16.811  28.405  1.00  0.00     0.157 A 
ATOM     16  C   UNL     1      -7.628  15.918  29.564  1.00  0.00     0.062 A 
ATOM     17  C   UNL     1      -6.958  16.194  28.366  1.00  0.00     0.158 A 
BRANCH  15  18
ATOM     18  O   UNL     1      -4.963  17.125  27.253  1.00  0.00    -0.504 OA
ATOM     19  H   UNL     1      -5.241  16.855  26.320  1.00  0.00     0.293 HD
ENDBRANCH  15  18
BRANCH  17  20
ATOM     20  O   UNL     1      -7.586  15.834  27.172  1.00  0.00    -0.504 OA
ATOM     21  H   UNL     1      -7.114  15.781  26.280  1.00  0.00     0.293 HD
ENDBRANCH  17  20
ENDBRANCH   1  12
BRANCH   2  22
ATOM     22  O   UNL     1      -9.702  15.074  30.931  1.00  0.00    -0.502 OA
ATOM     23  H   UNL     1     -10.051  15.802  30.319  1.00  0.00     0.293 HD
ENDBRANCH   2  22
BRANCH   6  24
ATOM     24  O   UNL     1     -10.740  14.791  36.148  1.00  0.00    -0.507 OA
ATOM     25  H   UNL     1     -10.989  13.830  36.322  1.00  0.00     0.293 HD
ENDBRANCH   6  24
BRANCH   8  26
ATOM     26  O   UNL     1      -6.587  16.412  37.929  1.00  0.00    -0.508 OA
ATOM     27  H   UNL     1      -5.741  15.897  38.142  1.00  0.00     0.293 HD
ENDBRANCH   8  26
TORSDOF 6
ENDMDL
MODEL 7
REMARK VINA RESULT:    -2.923      3.901      7.492
REMARK INTER + INTRA:          -3.835
REMARK INTER:                  -4.346
REMARK INTRA:                   0.512
REMARK UNBOUND:                -0.314
REMARK SMILES O=c1c(O)c(-c2ccc(O)c(O)c2)oc2cc(O)cc(O)c12
REMARK SMILES IDX 5 1 3 2 2 3 1 4 22 5 20 6 19 7 17 8 16 9 15 10 14 11 6 12
REMARK SMILES IDX 7 13 8 14 9 15 13 16 11 17 10 18 12 20 4 22 21 24 18 26
REMARK H PARENT 10 19 12 21 4 23 21 25 18 27
REMARK Flexibility Score: inf
ROOT
ATOM      1  C   UNL     1      -7.294  16.362  31.432  1.00  0.00     0.180 A 
ATOM      2  C   UNL     1      -8.641  15.974  31.333  1.00  0.00     0.208 A 
ATOM      3  C   UNL     1      -9.390  15.807  32.509  1.00  0.00     0.238 A 
ATOM      4  O   UNL     1     -10.572  15.387  32.416  1.00  0.00    -0.285 OA
ATOM      5  C   UNL     1      -8.799  16.083  33.766  1.00  0.00     0.111 A 
ATOM      6  C   UNL     1      -9.478  15.991  35.020  1.00  0.00     0.134 A 
ATOM      7  C   UNL     1      -8.763  16.187  36.207  1.00  0.00     0.093 A 
ATOM      8  C   UNL     1      -7.409  16.533  36.186  1.00  0.00     0.123 A 
ATOM      9  C   UNL     1      -6.752  16.679  34.966  1.00  0.00     0.094 A 
ATOM     10  C   UNL     1      -7.429  16.453  33.765  1.00  0.00     0.146 A 
ATOM     11  O   UNL     1      -6.758  16.583  32.627  1.00  0.00    -0.452 OA
ENDROOT
BRANCH   1  12
ATOM     12  C   UNL     1      -6.436  16.544  30.239  1.00  0.00     0.025 A 
ATOM     13  C   UNL     1      -7.024  16.580  28.967  1.00  0.00     0.016 A 
ATOM     14  C   UNL     1      -6.237  16.771  27.830  1.00  0.00     0.051 A 
ATOM     15  C   UNL     1      -4.854  16.945  27.940  1.00  0.00     0.157 A 
ATOM     16  C   UNL     1      -5.050  16.741  30.355  1.00  0.00     0.062 A 
ATOM     17  C   UNL     1      -4.253  16.937  29.220  1.00  0.00     0.158 A 
BRANCH  15  18
ATOM     18  O   UNL     1      -4.123  17.124  26.764  1.00  0.00    -0.504 OA
ATOM     19  H   UNL     1      -3.236  16.678  26.576  1.00  0.00     0.293 HD
ENDBRANCH  15  18
BRANCH  17  20
ATOM     20  O   UNL     1      -2.882  17.125  29.412  1.00  0.00    -0.504 OA
ATOM     21  H   UNL     1      -2.488  17.852  29.992  1.00  0.00     0.293 HD
ENDBRANCH  17  20
ENDBRANCH   1  12
BRANCH   2  22
ATOM     22  O   UNL     1      -9.226  15.779  30.079  1.00  0.00    -0.502 OA
ATOM     23  H   UNL     1     -10.213  15.931  29.910  1.00  0.00     0.293 HD
ENDBRANCH   2  22
BRANCH   6  24
ATOM     24  O   UNL     1     -10.847  15.739  35.153  1.00  0.00    -0.507 OA
ATOM     25  H   UNL     1     -11.257  15.124  35.837  1.00  0.00     0.293 HD
ENDBRANCH   6  24
BRANCH   8  26
ATOM     26  O   UNL     1      -6.710  16.742  37.373  1.00  0.00    -0.508 OA
ATOM     27  H   UNL     1      -7.117  16.523  38.274  1.00  0.00     0.293 HD
ENDBRANCH   8  26
TORSDOF 6
ENDMDL
MODEL 8
REMARK VINA RESULT:    -2.861      5.330      7.422
REMARK INTER + INTRA:          -3.761
REMARK INTER:                  -4.087
REMARK INTRA:                   0.326
REMARK UNBOUND:                -0.314
REMARK SMILES O=c1c(O)c(-c2ccc(O)c(O)c2)oc2cc(O)cc(O)c12
REMARK SMILES IDX 5 1 3 2 2 3 1 4 22 5 20 6 19 7 17 8 16 9 15 10 14 11 6 12
REMARK SMILES IDX 7 13 8 14 9 15 13 16 11 17 10 18 12 20 4 22 21 24 18 26
REMARK H PARENT 10 19 12 21 4 23 21 25 18 27
REMARK Flexibility Score: inf
ROOT
ATOM      1  C   UNL     1      -5.946  16.364  29.227  1.00  0.00     0.180 A 
ATOM      2  C   UNL     1      -6.967  16.620  28.295  1.00  0.00     0.208 A 
ATOM      3  C   UNL     1      -8.301  16.380  28.661  1.00  0.00     0.238 A 
ATOM      4  O   UNL     1      -9.201  16.540  27.798  1.00  0.00    -0.285 OA
ATOM      5  C   UNL     1      -8.603  15.941  29.974  1.00  0.00     0.111 A 
ATOM      6  C   UNL     1      -9.923  15.710  30.469  1.00  0.00     0.134 A 
ATOM      7  C   UNL     1     -10.094  15.176  31.751  1.00  0.00     0.093 A 
ATOM      8  C   UNL     1      -8.999  14.923  32.581  1.00  0.00     0.123 A 
ATOM      9  C   UNL     1      -7.711  15.197  32.127  1.00  0.00     0.094 A 
ATOM     10  C   UNL     1      -7.505  15.696  30.838  1.00  0.00     0.146 A 
ATOM     11  O   UNL     1      -6.258  15.922  30.440  1.00  0.00    -0.452 OA
ENDROOT
BRANCH   1  12
ATOM     12  C   UNL     1      -4.516  16.578  28.909  1.00  0.00     0.025 A 
ATOM     13  C   UNL     1      -3.594  16.732  29.954  1.00  0.00     0.016 A 
ATOM     14  C   UNL     1      -2.237  16.914  29.678  1.00  0.00     0.051 A 
ATOM     15  C   UNL     1      -1.773  16.931  28.359  1.00  0.00     0.157 A 
ATOM     16  C   UNL     1      -4.050  16.571  27.584  1.00  0.00     0.062 A 
ATOM     17  C   UNL     1      -2.691  16.750  27.297  1.00  0.00     0.158 A 
BRANCH  15  18
ATOM     18  O   UNL     1      -0.406  17.125  28.150  1.00  0.00    -0.504 OA
ATOM     19  H   UNL     1      -0.018  17.578  27.336  1.00  0.00     0.293 HD
ENDBRANCH  15  18
BRANCH  17  20
ATOM     20  O   UNL     1      -2.301  16.734  25.957  1.00  0.00    -0.504 OA
ATOM     21  H   UNL     1      -1.400  16.408  25.635  1.00  0.00     0.293 HD
ENDBRANCH  17  20
ENDBRANCH   1  12
BRANCH   2  22
ATOM     22  O   UNL     1      -6.652  17.125  27.030  1.00  0.00    -0.502 OA
ATOM     23  H   UNL     1      -6.630  16.541  26.202  1.00  0.00     0.293 HD
ENDBRANCH   2  22
BRANCH   6  24
ATOM     24  O   UNL     1     -11.089  16.009  29.758  1.00  0.00    -0.507 OA
ATOM     25  H   UNL     1     -11.426  16.940  29.566  1.00  0.00     0.293 HD
ENDBRANCH   6  24
BRANCH   8  26
ATOM     26  O   UNL     1      -9.181  14.407  33.862  1.00  0.00    -0.508 OA
ATOM     27  H   UNL     1      -9.411  15.005  34.646  1.00  0.00     0.293 HD
ENDBRANCH   8  26
TORSDOF 6
ENDMDL
