MODEL 1
REMARK VINA RESULT:    -2.672      0.000      0.000
REMARK INTER + INTRA:          -3.396
REMARK INTER:                  -3.219
REMARK INTRA:                  -0.178
REMARK UNBOUND:                -0.178
REMARK SMILES O=c1c(O)c(-c2ccc(O)c(O)c2)oc2cc(O)cc(O)c12
REMARK SMILES IDX 5 1 3 2 2 3 1 4 22 5 20 6 19 7 17 8 16 9 15 10 14 11 6 12
REMARK SMILES IDX 7 13 8 14 9 15 13 16 11 17 10 18 12 20 4 22 21 24 18 26
REMARK H PARENT 10 19 12 21 4 23 21 25 18 27
REMARK Flexibility Score: inf
ROOT
ATOM      1  C   UNL     1      16.322  40.513  11.150  1.00  0.00     0.180 A 
ATOM      2  C   UNL     1      16.759  41.242  12.270  1.00  0.00     0.208 A 
ATOM      3  C   UNL     1      16.784  42.644  12.202  1.00  0.00     0.238 A 
ATOM      4  O   UNL     1      17.124  43.292  13.226  1.00  0.00    -0.285 OA
ATOM      5  C   UNL     1      16.387  43.299  11.012  1.00  0.00     0.111 A 
ATOM      6  C   UNL     1      16.411  44.713  10.819  1.00  0.00     0.134 A 
ATOM      7  C   UNL     1      15.874  45.260   9.646  1.00  0.00     0.093 A 
ATOM      8  C   UNL     1      15.374  44.438   8.633  1.00  0.00     0.123 A 
ATOM      9  C   UNL     1      15.400  43.055   8.787  1.00  0.00     0.094 A 
ATOM     10  C   UNL     1      15.897  42.482   9.960  1.00  0.00     0.146 A 
ATOM     11  O   UNL     1      15.894  41.159  10.071  1.00  0.00    -0.452 OA
ENDROOT
BRANCH   1  12
ATOM     12  C   UNL     1      16.291  39.032  11.136  1.00  0.00     0.025 A 
ATOM     13  C   UNL     1      17.124  38.292  10.279  1.00  0.00     0.016 A 
ATOM     14  C   UNL     1      17.061  36.896  10.265  1.00  0.00     0.051 A 
ATOM     15  C   UNL     1      16.160  36.220  11.092  1.00  0.00     0.157 A 
ATOM     16  C   UNL     1      15.372  38.352  11.950  1.00  0.00     0.062 A 
ATOM     17  C   UNL     1      15.308  36.950  11.938  1.00  0.00     0.158 A 
BRANCH  15  18
ATOM     18  O   UNL     1      16.121  34.826  11.058  1.00  0.00    -0.504 OA
ATOM     19  H   UNL     1      16.122  34.309  10.187  1.00  0.00     0.293 HD
ENDBRANCH  15  18
BRANCH  17  20
ATOM     20  O   UNL     1      14.402  36.284  12.761  1.00  0.00    -0.504 OA
ATOM     21  H   UNL     1      14.475  35.288  12.937  1.00  0.00     0.293 HD
ENDBRANCH  17  20
ENDBRANCH   1  12
BRANCH   2  22
ATOM     22  O   UNL     1      17.125  40.576  13.442  1.00  0.00    -0.502 OA
ATOM     23  H   UNL     1      16.588  39.803  13.820  1.00  0.00     0.293 HD
ENDBRANCH   2  22
BRANCH   6  24
ATOM     24  O   UNL     1      16.972  45.616  11.728  1.00  0.00    -0.507 OA
ATOM     25  H   UNL     1      16.574  46.512  11.967  1.00  0.00     0.293 HD
ENDBRANCH   6  24
BRANCH   8  26
ATOM     26  O   UNL     1      14.855  44.990   7.463  1.00  0.00    -0.508 OA
ATOM     27  H   UNL     1      14.995  45.965   7.230  1.00  0.00     0.293 HD
ENDBRANCH   8  26
TORSDOF 6
ENDMDL
MODEL 2
REMARK VINA RESULT:    -2.307      1.804      3.238
REMARK INTER + INTRA:          -2.956
REMARK INTER:                  -3.282
REMARK INTRA:                   0.326
REMARK UNBOUND:                -0.178
REMARK SMILES O=c1c(O)c(-c2ccc(O)c(O)c2)oc2cc(O)cc(O)c12
REMARK SMILES IDX 5 1 3 2 2 3 1 4 22 5 20 6 19 7 17 8 16 9 15 10 14 11 6 12
REMARK SMILES IDX 7 13 8 14 9 15 13 16 11 17 10 18 12 20 4 22 21 24 18 26
REMARK H PARENT 10 19 12 21 4 23 21 25 18 27
REMARK Flexibility Score: inf
ROOT
ATOM      1  C   UNL     1      16.348  42.007  10.970  1.00  0.00     0.180 A 
ATOM      2  C   UNL     1      16.555  42.761   9.802  1.00  0.00     0.208 A 
ATOM      3  C   UNL     1      16.486  44.161   9.874  1.00  0.00     0.238 A 
ATOM      4  O   UNL     1      16.726  44.832   8.836  1.00  0.00    -0.285 OA
ATOM      5  C   UNL     1      16.194  44.790  11.108  1.00  0.00     0.111 A 
ATOM      6  C   UNL     1      16.060  46.200  11.287  1.00  0.00     0.134 A 
ATOM      7  C   UNL     1      15.899  46.720  12.578  1.00  0.00     0.093 A 
ATOM      8  C   UNL     1      15.803  45.875  13.687  1.00  0.00     0.123 A 
ATOM      9  C   UNL     1      15.873  44.496  13.515  1.00  0.00     0.094 A 
ATOM     10  C   UNL     1      16.070  43.949  12.245  1.00  0.00     0.146 A 
ATOM     11  O   UNL     1      16.142  42.629  12.126  1.00  0.00    -0.452 OA
ENDROOT
BRANCH   1  12
ATOM     12  C   UNL     1      16.381  40.527  10.970  1.00  0.00     0.025 A 
ATOM     13  C   UNL     1      17.120  39.812  10.012  1.00  0.00     0.016 A 
ATOM     14  C   UNL     1      17.118  38.414  10.016  1.00  0.00     0.051 A 
ATOM     15  C   UNL     1      16.370  37.711  10.964  1.00  0.00     0.157 A 
ATOM     16  C   UNL     1      15.614  39.818  11.909  1.00  0.00     0.062 A 
ATOM     17  C   UNL     1      15.611  38.415  11.915  1.00  0.00     0.158 A 
BRANCH  15  18
ATOM     18  O   UNL     1      16.388  36.316  10.945  1.00  0.00    -0.504 OA
ATOM     19  H   UNL     1      16.264  35.789  10.090  1.00  0.00     0.293 HD
ENDBRANCH  15  18
BRANCH  17  20
ATOM     20  O   UNL     1      14.857  37.721  12.859  1.00  0.00    -0.504 OA
ATOM     21  H   UNL     1      13.922  38.017  13.116  1.00  0.00     0.293 HD
ENDBRANCH  17  20
ENDBRANCH   1  12
BRANCH   2  22
ATOM     22  O   UNL     1      16.863  42.121   8.599  1.00  0.00    -0.502 OA
ATOM     23  H   UNL     1      17.342  41.227   8.564  1.00  0.00     0.293 HD
ENDBRANCH   2  22
BRANCH   6  24
ATOM     24  O   UNL     1      16.050  47.123  10.237  1.00  0.00    -0.507 OA
ATOM     25  H   UNL     1      15.516  47.019   9.386  1.00  0.00     0.293 HD
ENDBRANCH   6  24
BRANCH   8  26
ATOM     26  O   UNL     1      15.628  46.401  14.966  1.00  0.00    -0.508 OA
ATOM     27  H   UNL     1      14.869  47.037  15.177  1.00  0.00     0.293 HD
ENDBRANCH   8  26
TORSDOF 6
ENDMDL
MODEL 3
REMARK VINA RESULT:    -1.571     21.629     23.339
REMARK INTER + INTRA:          -2.069
REMARK INTER:                  -1.918
REMARK INTRA:                  -0.151
REMARK UNBOUND:                -0.178
REMARK SMILES O=c1c(O)c(-c2ccc(O)c(O)c2)oc2cc(O)cc(O)c12
REMARK SMILES IDX 5 1 3 2 2 3 1 4 22 5 20 6 19 7 17 8 16 9 15 10 14 11 6 12
REMARK SMILES IDX 7 13 8 14 9 15 13 16 11 17 10 18 12 20 4 22 21 24 18 26
REMARK H PARENT 10 19 12 21 4 23 21 25 18 27
REMARK Flexibility Score: inf
ROOT
ATOM      1  C   UNL     1      -1.825  41.185  24.289  1.00  0.00     0.180 A 
ATOM      2  C   UNL     1      -2.450  40.835  23.079  1.00  0.00     0.208 A 
ATOM      3  C   UNL     1      -2.417  39.497  22.658  1.00  0.00     0.238 A 
ATOM      4  O   UNL     1      -3.025  39.181  21.601  1.00  0.00    -0.285 OA
ATOM      5  C   UNL     1      -1.747  38.527  23.442  1.00  0.00     0.111 A 
ATOM      6  C   UNL     1      -1.617  37.150  23.090  1.00  0.00     0.134 A 
ATOM      7  C   UNL     1      -1.045  36.255  24.004  1.00  0.00     0.093 A 
ATOM      8  C   UNL     1      -0.541  36.700  25.228  1.00  0.00     0.123 A 
ATOM      9  C   UNL     1      -0.610  38.052  25.555  1.00  0.00     0.094 A 
ATOM     10  C   UNL     1      -1.206  38.963  24.680  1.00  0.00     0.146 A 
ATOM     11  O   UNL     1      -1.261  40.241  25.034  1.00  0.00    -0.452 OA
ENDROOT
BRANCH   1  12
ATOM     12  C   UNL     1      -1.795  42.579  24.788  1.00  0.00     0.025 A 
ATOM     13  C   UNL     1      -2.977  43.257  25.135  1.00  0.00     0.016 A 
ATOM     14  C   UNL     1      -2.927  44.580  25.581  1.00  0.00     0.051 A 
ATOM     15  C   UNL     1      -1.704  45.250  25.674  1.00  0.00     0.157 A 
ATOM     16  C   UNL     1      -0.570  43.261  24.862  1.00  0.00     0.062 A 
ATOM     17  C   UNL     1      -0.518  44.589  25.311  1.00  0.00     0.158 A 
BRANCH  15  18
ATOM     18  O   UNL     1      -1.686  46.570  26.124  1.00  0.00    -0.504 OA
ATOM     19  H   UNL     1      -2.386  46.931  26.760  1.00  0.00     0.293 HD
ENDBRANCH  15  18
BRANCH  17  20
ATOM     20  O   UNL     1       0.704  45.253  25.394  1.00  0.00    -0.504 OA
ATOM     21  H   UNL     1       1.045  45.634  26.270  1.00  0.00     0.293 HD
ENDBRANCH  17  20
ENDBRANCH   1  12
BRANCH   2  22
ATOM     22  O   UNL     1      -3.124  41.804  22.332  1.00  0.00    -0.502 OA
ATOM     23  H   UNL     1      -4.128  41.780  22.188  1.00  0.00     0.293 HD
ENDBRANCH   2  22
BRANCH   6  24
ATOM     24  O   UNL     1      -2.004  36.619  21.856  1.00  0.00    -0.507 OA
ATOM     25  H   UNL     1      -2.340  35.678  21.715  1.00  0.00     0.293 HD
ENDBRANCH   6  24
BRANCH   8  26
ATOM     26  O   UNL     1       0.040  35.805  26.125  1.00  0.00    -0.508 OA
ATOM     27  H   UNL     1       0.595  35.021  25.805  1.00  0.00     0.293 HD
ENDBRANCH   8  26
TORSDOF 6
ENDMDL
MODEL 4
REMARK VINA RESULT:    -1.055     21.396     22.479
REMARK INTER + INTRA:          -1.448
REMARK INTER:                  -1.508
REMARK INTRA:                   0.060
REMARK UNBOUND:                -0.178
REMARK SMILES O=c1c(O)c(-c2ccc(O)c(O)c2)oc2cc(O)cc(O)c12
REMARK SMILES IDX 5 1 3 2 2 3 1 4 22 5 20 6 19 7 17 8 16 9 15 10 14 11 6 12
REMARK SMILES IDX 7 13 8 14 9 15 13 16 11 17 10 18 12 20 4 22 21 24 18 26
REMARK H PARENT 10 19 12 21 4 23 21 25 18 27
REMARK Flexibility Score: inf
ROOT
ATOM      1  C   UNL     1      -1.740  41.197  24.175  1.00  0.00     0.180 A 
ATOM      2  C   UNL     1      -0.778  41.511  23.199  1.00  0.00     0.208 A 
ATOM      3  C   UNL     1      -0.486  42.860  22.941  1.00  0.00     0.238 A 
ATOM      4  O   UNL     1       0.415  43.133  22.105  1.00  0.00    -0.285 OA
ATOM      5  C   UNL     1      -1.171  43.877  23.649  1.00  0.00     0.111 A 
ATOM      6  C   UNL     1      -0.983  45.276  23.439  1.00  0.00     0.134 A 
ATOM      7  C   UNL     1      -1.618  46.193  24.287  1.00  0.00     0.093 A 
ATOM      8  C   UNL     1      -2.484  45.761  25.294  1.00  0.00     0.123 A 
ATOM      9  C   UNL     1      -2.720  44.400  25.468  1.00  0.00     0.094 A 
ATOM     10  C   UNL     1      -2.073  43.460  24.662  1.00  0.00     0.146 A 
ATOM     11  O   UNL     1      -2.317  42.171  24.868  1.00  0.00    -0.452 OA
ENDROOT
BRANCH   1  12
ATOM     12  C   UNL     1      -2.120  39.800  24.486  1.00  0.00     0.025 A 
ATOM     13  C   UNL     1      -2.154  39.328  25.811  1.00  0.00     0.016 A 
ATOM     14  C   UNL     1      -2.492  38.000  26.079  1.00  0.00     0.051 A 
ATOM     15  C   UNL     1      -2.788  37.120  25.035  1.00  0.00     0.157 A 
ATOM     16  C   UNL     1      -2.398  38.908  23.438  1.00  0.00     0.062 A 
ATOM     17  C   UNL     1      -2.739  37.574  23.706  1.00  0.00     0.158 A 
BRANCH  15  18
ATOM     18  O   UNL     1      -3.125  35.800  25.334  1.00  0.00    -0.504 OA
ATOM     19  H   UNL     1      -2.509  35.025  25.116  1.00  0.00     0.293 HD
ENDBRANCH  15  18
BRANCH  17  20
ATOM     20  O   UNL     1      -3.026  36.700  22.658  1.00  0.00    -0.504 OA
ATOM     21  H   UNL     1      -2.873  35.702  22.741  1.00  0.00     0.293 HD
ENDBRANCH  17  20
ENDBRANCH   1  12
BRANCH   2  22
ATOM     22  O   UNL     1      -0.099  40.491  22.528  1.00  0.00    -0.502 OA
ATOM     23  H   UNL     1      -0.454  40.068  21.678  1.00  0.00     0.293 HD
ENDBRANCH   2  22
BRANCH   6  24
ATOM     24  O   UNL     1      -0.212  45.815  22.404  1.00  0.00    -0.507 OA
ATOM     25  H   UNL     1       0.143  45.289  21.619  1.00  0.00     0.293 HD
ENDBRANCH   6  24
BRANCH   8  26
ATOM     26  O   UNL     1      -3.124  46.680  26.123  1.00  0.00    -0.508 OA
ATOM     27  H   UNL     1      -3.546  46.399  27.000  1.00  0.00     0.293 HD
ENDBRANCH   8  26
TORSDOF 6
ENDMDL
MODEL 5
REMARK VINA RESULT:    -0.063      4.207      7.959
REMARK INTER + INTRA:          -0.253
REMARK INTER:                   0.006
REMARK INTRA:                  -0.259
REMARK UNBOUND:                -0.178
REMARK SMILES O=c1c(O)c(-c2ccc(O)c(O)c2)oc2cc(O)cc(O)c12
REMARK SMILES IDX 5 1 3 2 2 3 1 4 22 5 20 6 19 7 17 8 16 9 15 10 14 11 6 12
REMARK SMILES IDX 7 13 8 14 9 15 13 16 11 17 10 18 12 20 4 22 21 24 18 26
REMARK H PARENT 10 19 12 21 4 23 21 25 18 27
REMARK Flexibility Score: inf
ROOT
ATOM      1  C   UNL     1      12.789  35.257  13.346  1.00  0.00     0.180 A 
ATOM      2  C   UNL     1      13.451  34.136  12.817  1.00  0.00     0.208 A 
ATOM      3  C   UNL     1      14.664  34.319  12.136  1.00  0.00     0.238 A 
ATOM      4  O   UNL     1      15.279  33.306  11.711  1.00  0.00    -0.285 OA
ATOM      5  C   UNL     1      15.193  35.623  11.977  1.00  0.00     0.111 A 
ATOM      6  C   UNL     1      16.394  35.929  11.270  1.00  0.00     0.134 A 
ATOM      7  C   UNL     1      16.891  37.239  11.287  1.00  0.00     0.093 A 
ATOM      8  C   UNL     1      16.195  38.264  11.933  1.00  0.00     0.123 A 
ATOM      9  C   UNL     1      14.992  37.986  12.575  1.00  0.00     0.094 A 
ATOM     10  C   UNL     1      14.489  36.683  12.605  1.00  0.00     0.146 A 
ATOM     11  O   UNL     1      13.344  36.459  13.238  1.00  0.00    -0.452 OA
ENDROOT
BRANCH   1  12
ATOM     12  C   UNL     1      11.494  35.147  14.056  1.00  0.00     0.025 A 
ATOM     13  C   UNL     1      10.302  34.869  13.363  1.00  0.00     0.016 A 
ATOM     14  C   UNL     1       9.088  34.793  14.051  1.00  0.00     0.051 A 
ATOM     15  C   UNL     1       9.041  35.006  15.431  1.00  0.00     0.157 A 
ATOM     16  C   UNL     1      11.441  35.381  15.439  1.00  0.00     0.062 A 
ATOM     17  C   UNL     1      10.223  35.305  16.130  1.00  0.00     0.158 A 
BRANCH  15  18
ATOM     18  O   UNL     1       7.815  34.922  16.090  1.00  0.00    -0.504 OA
ATOM     19  H   UNL     1       6.958  35.275  15.680  1.00  0.00     0.293 HD
ENDBRANCH  15  18
BRANCH  17  20
ATOM     20  O   UNL     1      10.183  35.526  17.506  1.00  0.00    -0.504 OA
ATOM     21  H   UNL     1      10.669  36.306  17.933  1.00  0.00     0.293 HD
ENDBRANCH  17  20
ENDBRANCH   1  12
BRANCH   2  22
ATOM     22  O   UNL     1      12.922  32.856  13.004  1.00  0.00    -0.502 OA
ATOM     23  H   UNL     1      13.482  32.016  12.909  1.00  0.00     0.293 HD
ENDBRANCH   2  22
BRANCH   6  24
ATOM     24  O   UNL     1      17.117  34.998  10.517  1.00  0.00    -0.507 OA
ATOM     25  H   UNL     1      17.971  34.555  10.819  1.00  0.00     0.293 HD
ENDBRANCH   6  24
BRANCH   8  26
ATOM     26  O   UNL     1      16.689  39.567  11.932  1.00  0.00    -0.508 OA
ATOM     27  H   UNL     1      17.363  39.878  11.243  1.00  0.00     0.293 HD
ENDBRANCH   8  26
TORSDOF 6
ENDMDL
