MODEL 1
REMARK VINA RESULT:    -5.686      0.000      0.000
REMARK INTER + INTRA:          -6.667
REMARK INTER:                  -6.518
REMARK INTRA:                  -0.149
REMARK UNBOUND:                -0.149
REMARK SMILES O=C([O-])C=Cc1ccc(O)cc1
REMARK SMILES IDX 6 1 7 2 12 3 8 4 11 5 9 6 5 7 4 8 2 9 1 10 3 11 10 12
REMARK H PARENT 10 13
REMARK Flexibility Score: inf
ROOT
ATOM      1  C   UNL     1       6.968   1.514   0.982  1.00  0.00    -0.025 A 
ATOM      2  C   UNL     1       7.800   2.566   1.416  1.00  0.00     0.012 A 
ATOM      3  C   UNL     1       6.018   1.772  -0.021  1.00  0.00     0.012 A 
ATOM      4  C   UNL     1       7.696   3.835   0.838  1.00  0.00     0.047 A 
ATOM      5  C   UNL     1       5.918   3.041  -0.597  1.00  0.00     0.047 A 
ATOM      6  C   UNL     1       6.756   4.075  -0.172  1.00  0.00     0.115 A 
ENDROOT
BRANCH   1   7
ATOM      7  C   UNL     1       7.028   0.153   1.570  1.00  0.00     0.010 C 
ATOM      8  C   UNL     1       5.967  -0.662   1.675  1.00  0.00     0.025 C 
BRANCH   8   9
ATOM      9  C   UNL     1       6.062  -2.002   2.276  1.00  0.00     0.064 C 
ATOM     10  O   UNL     1       5.238  -2.909   1.983  1.00  0.00    -0.545 OA
ATOM     11  O   UNL     1       7.078  -2.272   3.184  1.00  0.00    -0.545 OA
ENDBRANCH   8   9
ENDBRANCH   1   7
BRANCH   6  12
ATOM     12  O   UNL     1       6.646   5.335  -0.756  1.00  0.00    -0.508 OA
ATOM     13  H   UNL     1       7.035   6.160  -0.314  1.00  0.00     0.293 HD
ENDBRANCH   6  12
TORSDOF 3
ENDMDL
MODEL 2
REMARK VINA RESULT:    -5.573      0.524      1.492
REMARK INTER + INTRA:          -6.537
REMARK INTER:                  -6.404
REMARK INTRA:                  -0.133
REMARK UNBOUND:                -0.149
REMARK SMILES O=C([O-])C=Cc1ccc(O)cc1
REMARK SMILES IDX 6 1 7 2 12 3 8 4 11 5 9 6 5 7 4 8 2 9 1 10 3 11 10 12
REMARK H PARENT 10 13
REMARK Flexibility Score: inf
ROOT
ATOM      1  C   UNL     1       7.065   1.531   1.041  1.00  0.00    -0.025 A 
ATOM      2  C   UNL     1       6.134   1.730   0.000  1.00  0.00     0.012 A 
ATOM      3  C   UNL     1       7.862   2.614   1.452  1.00  0.00     0.012 A 
ATOM      4  C   UNL     1       5.992   2.990  -0.591  1.00  0.00     0.047 A 
ATOM      5  C   UNL     1       7.716   3.870   0.859  1.00  0.00     0.047 A 
ATOM      6  C   UNL     1       6.781   4.063  -0.161  1.00  0.00     0.115 A 
ENDROOT
BRANCH   1   7
ATOM      7  C   UNL     1       7.266   0.214   1.693  1.00  0.00     0.010 C 
ATOM      8  C   UNL     1       6.284  -0.481   2.287  1.00  0.00     0.025 C 
BRANCH   8   9
ATOM      9  C   UNL     1       6.522  -1.781   2.936  1.00  0.00     0.064 C 
ATOM     10  O   UNL     1       5.598  -2.628   3.059  1.00  0.00    -0.545 OA
ATOM     11  O   UNL     1       7.789  -2.079   3.422  1.00  0.00    -0.545 OA
ENDBRANCH   8   9
ENDBRANCH   1   7
BRANCH   6  12
ATOM     12  O   UNL     1       6.645   5.323  -0.742  1.00  0.00    -0.508 OA
ATOM     13  H   UNL     1       5.773   5.619  -1.165  1.00  0.00     0.293 HD
ENDBRANCH   6  12
TORSDOF 3
ENDMDL
MODEL 3
REMARK VINA RESULT:    -5.278      1.507      5.925
REMARK INTER + INTRA:          -6.198
REMARK INTER:                  -6.058
REMARK INTRA:                  -0.140
REMARK UNBOUND:                -0.149
REMARK SMILES O=C([O-])C=Cc1ccc(O)cc1
REMARK SMILES IDX 6 1 7 2 12 3 8 4 11 5 9 6 5 7 4 8 2 9 1 10 3 11 10 12
REMARK H PARENT 10 13
REMARK Flexibility Score: inf
ROOT
ATOM      1  C   UNL     1       6.320  -0.095   1.721  1.00  0.00    -0.025 A 
ATOM      2  C   UNL     1       5.661  -1.338   1.614  1.00  0.00     0.012 A 
ATOM      3  C   UNL     1       7.393   0.026   2.621  1.00  0.00     0.012 A 
ATOM      4  C   UNL     1       6.088  -2.433   2.372  1.00  0.00     0.047 A 
ATOM      5  C   UNL     1       7.816  -1.071   3.376  1.00  0.00     0.047 A 
ATOM      6  C   UNL     1       7.168  -2.302   3.253  1.00  0.00     0.115 A 
ENDROOT
BRANCH   1   7
ATOM      7  C   UNL     1       5.901   1.101   0.950  1.00  0.00     0.010 C 
ATOM      8  C   UNL     1       6.714   1.781   0.129  1.00  0.00     0.025 C 
BRANCH   8   9
ATOM      9  C   UNL     1       6.266   2.972  -0.611  1.00  0.00     0.064 C 
ATOM     10  O   UNL     1       7.083   3.860  -0.975  1.00  0.00    -0.545 OA
ATOM     11  O   UNL     1       4.919   3.122  -0.913  1.00  0.00    -0.545 OA
ENDBRANCH   8   9
ENDBRANCH   1   7
BRANCH   6  12
ATOM     12  O   UNL     1       7.602  -3.388   4.011  1.00  0.00    -0.508 OA
ATOM     13  H   UNL     1       7.473  -3.418   5.016  1.00  0.00     0.293 HD
ENDBRANCH   6  12
TORSDOF 3
ENDMDL
MODEL 4
REMARK VINA RESULT:    -5.212      1.422      5.758
REMARK INTER + INTRA:          -6.123
REMARK INTER:                  -5.983
REMARK INTRA:                  -0.140
REMARK UNBOUND:                -0.149
REMARK SMILES O=C([O-])C=Cc1ccc(O)cc1
REMARK SMILES IDX 6 1 7 2 12 3 8 4 11 5 9 6 5 7 4 8 2 9 1 10 3 11 10 12
REMARK H PARENT 10 13
REMARK Flexibility Score: inf
ROOT
ATOM      1  C   UNL     1       6.783  -0.111   1.697  1.00  0.00    -0.025 A 
ATOM      2  C   UNL     1       7.923  -0.086   2.528  1.00  0.00     0.012 A 
ATOM      3  C   UNL     1       5.938  -1.234   1.743  1.00  0.00     0.012 A 
ATOM      4  C   UNL     1       8.189  -1.148   3.398  1.00  0.00     0.047 A 
ATOM      5  C   UNL     1       6.207  -2.292   2.614  1.00  0.00     0.047 A 
ATOM      6  C   UNL     1       7.330  -2.253   3.445  1.00  0.00     0.115 A 
ENDROOT
BRANCH   1   7
ATOM      7  C   UNL     1       6.461   0.982   0.748  1.00  0.00     0.010 C 
ATOM      8  C   UNL     1       7.166   2.119   0.654  1.00  0.00     0.025 C 
BRANCH   8   9
ATOM      9  C   UNL     1       6.810   3.189  -0.292  1.00  0.00     0.064 C 
ATOM     10  O   UNL     1       6.430   2.924  -1.464  1.00  0.00    -0.545 OA
ATOM     11  O   UNL     1       6.895   4.515   0.113  1.00  0.00    -0.545 OA
ENDBRANCH   8   9
ENDBRANCH   1   7
BRANCH   6  12
ATOM     12  O   UNL     1       7.585  -3.315   4.310  1.00  0.00    -0.508 OA
ATOM     13  H   UNL     1       7.761  -4.251   3.962  1.00  0.00     0.293 HD
ENDBRANCH   6  12
TORSDOF 3
ENDMDL
MODEL 5
REMARK VINA RESULT:    -5.161      1.849      5.735
REMARK INTER + INTRA:          -6.064
REMARK INTER:                  -5.912
REMARK INTRA:                  -0.151
REMARK UNBOUND:                -0.149
REMARK SMILES O=C([O-])C=Cc1ccc(O)cc1
REMARK SMILES IDX 6 1 7 2 12 3 8 4 11 5 9 6 5 7 4 8 2 9 1 10 3 11 10 12
REMARK H PARENT 10 13
REMARK Flexibility Score: inf
ROOT
ATOM      1  C   UNL     1       7.403   0.321   1.680  1.00  0.00    -0.025 A 
ATOM      2  C   UNL     1       6.737  -0.714   2.368  1.00  0.00     0.012 A 
ATOM      3  C   UNL     1       8.784   0.489   1.883  1.00  0.00     0.012 A 
ATOM      4  C   UNL     1       7.445  -1.571   3.216  1.00  0.00     0.047 A 
ATOM      5  C   UNL     1       9.488  -0.371   2.731  1.00  0.00     0.047 A 
ATOM      6  C   UNL     1       8.823  -1.403   3.397  1.00  0.00     0.115 A 
ENDROOT
BRANCH   1   7
ATOM      7  C   UNL     1       6.698   1.265   0.779  1.00  0.00     0.010 C 
ATOM      8  C   UNL     1       7.135   2.504   0.508  1.00  0.00     0.025 C 
BRANCH   8   9
ATOM      9  C   UNL     1       6.402   3.419  -0.382  1.00  0.00     0.064 C 
ATOM     10  O   UNL     1       5.468   3.004  -1.119  1.00  0.00    -0.545 OA
ATOM     11  O   UNL     1       6.746   4.765  -0.411  1.00  0.00    -0.545 OA
ENDBRANCH   8   9
ENDBRANCH   1   7
BRANCH   6  12
ATOM     12  O   UNL     1       9.539  -2.253   4.238  1.00  0.00    -0.508 OA
ATOM     13  H   UNL     1       9.689  -2.028   5.215  1.00  0.00     0.293 HD
ENDBRANCH   6  12
TORSDOF 3
ENDMDL
MODEL 6
REMARK VINA RESULT:    -5.030      4.244      5.669
REMARK INTER + INTRA:          -5.915
REMARK INTER:                  -5.775
REMARK INTRA:                  -0.140
REMARK UNBOUND:                -0.149
REMARK SMILES O=C([O-])C=Cc1ccc(O)cc1
REMARK SMILES IDX 6 1 7 2 12 3 8 4 11 5 9 6 5 7 4 8 2 9 1 10 3 11 10 12
REMARK H PARENT 10 13
REMARK Flexibility Score: inf
ROOT
ATOM      1  C   UNL     1       8.262  -2.567   4.143  1.00  0.00    -0.025 A 
ATOM      2  C   UNL     1       9.622  -2.194   4.173  1.00  0.00     0.012 A 
ATOM      3  C   UNL     1       7.364  -1.790   3.389  1.00  0.00     0.012 A 
ATOM      4  C   UNL     1      10.069  -1.087   3.444  1.00  0.00     0.047 A 
ATOM      5  C   UNL     1       7.816  -0.686   2.662  1.00  0.00     0.047 A 
ATOM      6  C   UNL     1       9.167  -0.332   2.685  1.00  0.00     0.115 A 
ENDROOT
BRANCH   1   7
ATOM      7  C   UNL     1       7.732  -3.723   4.906  1.00  0.00     0.010 C 
ATOM      8  C   UNL     1       8.019  -3.959   6.195  1.00  0.00     0.025 C 
BRANCH   8   9
ATOM      9  C   UNL     1       7.485  -5.125   6.918  1.00  0.00     0.064 C 
ATOM     10  O   UNL     1       7.126  -6.166   6.304  1.00  0.00    -0.545 OA
ATOM     11  O   UNL     1       7.372  -5.078   8.301  1.00  0.00    -0.545 OA
ENDBRANCH   8   9
ENDBRANCH   1   7
BRANCH   6  12
ATOM     12  O   UNL     1       9.604   0.771   1.954  1.00  0.00    -0.508 OA
ATOM     13  H   UNL     1       8.967   1.309   1.377  1.00  0.00     0.293 HD
ENDBRANCH   6  12
TORSDOF 3
ENDMDL
MODEL 7
REMARK VINA RESULT:    -5.012      2.401      3.538
REMARK INTER + INTRA:          -5.894
REMARK INTER:                  -5.759
REMARK INTRA:                  -0.135
REMARK UNBOUND:                -0.149
REMARK SMILES O=C([O-])C=Cc1ccc(O)cc1
REMARK SMILES IDX 6 1 7 2 12 3 8 4 11 5 9 6 5 7 4 8 2 9 1 10 3 11 10 12
REMARK H PARENT 10 13
REMARK Flexibility Score: inf
ROOT
ATOM      1  C   UNL     1       7.172  -0.561   2.852  1.00  0.00    -0.025 A 
ATOM      2  C   UNL     1       6.377   0.221   1.989  1.00  0.00     0.012 A 
ATOM      3  C   UNL     1       8.493  -0.155   3.109  1.00  0.00     0.012 A 
ATOM      4  C   UNL     1       6.889   1.392   1.421  1.00  0.00     0.047 A 
ATOM      5  C   UNL     1       9.000   1.016   2.539  1.00  0.00     0.047 A 
ATOM      6  C   UNL     1       8.202   1.793   1.697  1.00  0.00     0.115 A 
ENDROOT
BRANCH   1   7
ATOM      7  C   UNL     1       6.682  -1.817   3.470  1.00  0.00     0.010 C 
ATOM      8  C   UNL     1       6.325  -1.924   4.759  1.00  0.00     0.025 C 
BRANCH   8   9
ATOM      9  C   UNL     1       5.855  -3.192   5.342  1.00  0.00     0.064 C 
ATOM     10  O   UNL     1       6.664  -4.106   5.655  1.00  0.00    -0.545 OA
ATOM     11  O   UNL     1       4.495  -3.385   5.549  1.00  0.00    -0.545 OA
ENDBRANCH   8   9
ENDBRANCH   1   7
BRANCH   6  12
ATOM     12  O   UNL     1       8.721   2.959   1.138  1.00  0.00    -0.508 OA
ATOM     13  H   UNL     1       8.976   3.754   1.713  1.00  0.00     0.293 HD
ENDBRANCH   6  12
TORSDOF 3
ENDMDL
MODEL 8
REMARK VINA RESULT:    -4.920      3.438      5.028
REMARK INTER + INTRA:          -5.788
REMARK INTER:                  -5.648
REMARK INTRA:                  -0.140
REMARK UNBOUND:                -0.149
REMARK SMILES O=C([O-])C=Cc1ccc(O)cc1
REMARK SMILES IDX 6 1 7 2 12 3 8 4 11 5 9 6 5 7 4 8 2 9 1 10 3 11 10 12
REMARK H PARENT 10 13
REMARK Flexibility Score: inf
ROOT
ATOM      1  C   UNL     1       8.198  -1.883   3.766  1.00  0.00    -0.025 A 
ATOM      2  C   UNL     1       6.967  -1.666   3.111  1.00  0.00     0.012 A 
ATOM      3  C   UNL     1       9.312  -1.115   3.383  1.00  0.00     0.012 A 
ATOM      4  C   UNL     1       6.856  -0.687   2.120  1.00  0.00     0.047 A 
ATOM      5  C   UNL     1       9.195  -0.138   2.392  1.00  0.00     0.047 A 
ATOM      6  C   UNL     1       7.969   0.082   1.759  1.00  0.00     0.115 A 
ENDROOT
BRANCH   1   7
ATOM      7  C   UNL     1       8.374  -2.917   4.815  1.00  0.00     0.010 C 
ATOM      8  C   UNL     1       7.386  -3.711   5.253  1.00  0.00     0.025 C 
BRANCH   8   9
ATOM      9  C   UNL     1       7.595  -4.718   6.306  1.00  0.00     0.064 C 
ATOM     10  O   UNL     1       8.185  -4.426   7.381  1.00  0.00    -0.545 OA
ATOM     11  O   UNL     1       7.136  -6.014   6.111  1.00  0.00    -0.545 OA
ENDBRANCH   8   9
ENDBRANCH   1   7
BRANCH   6  12
ATOM     12  O   UNL     1       7.868   1.062   0.773  1.00  0.00    -0.508 OA
ATOM     13  H   UNL     1       7.027   1.169   0.219  1.00  0.00     0.293 HD
ENDBRANCH   6  12
TORSDOF 3
ENDMDL
