MODEL 1
REMARK VINA RESULT:    -2.837      0.000      0.000
REMARK INTER + INTRA:          -5.044
REMARK INTER:                  -4.495
REMARK INTRA:                  -0.549
REMARK UNBOUND:                -0.549
REMARK SMILES CCCCCCCCCCCC=O
REMARK SMILES IDX 7 1 6 2 5 3 4 4 3 5 2 6 1 7 8 8 9 9 10 10 11 11 12 12 13 13
REMARK H PARENT
REMARK Flexibility Score: inf
ROOT
ATOM      1  C   UNL     1     128.097 125.275 114.959  1.00  0.00     0.000 C 
ENDROOT
BRANCH   1   2
ATOM      2  C   UNL     1     127.896 126.745 115.373  1.00  0.00     0.000 C 
BRANCH   2   3
ATOM      3  C   UNL     1     128.305 127.018 116.828  1.00  0.00    -0.000 C 
BRANCH   3   4
ATOM      4  C   UNL     1     127.079 127.374 117.683  1.00  0.00    -0.000 C 
BRANCH   4   5
ATOM      5  C   UNL     1     127.155 128.796 118.263  1.00  0.00    -0.000 C 
BRANCH   5   6
ATOM      6  C   UNL     1     125.786 129.317 118.726  1.00  0.00    -0.003 C 
ATOM      7  C   UNL     1     124.705 128.254 118.550  1.00  0.00     0.004 C 
ENDBRANCH   5   6
ENDBRANCH   4   5
ENDBRANCH   3   4
ENDBRANCH   2   3
ENDBRANCH   1   2
BRANCH   1   8
ATOM      8  C   UNL     1     129.565 124.814 114.887  1.00  0.00     0.000 C 
BRANCH   8   9
ATOM      9  C   UNL     1     129.793 123.437 115.525  1.00  0.00     0.000 C 
BRANCH   9  10
ATOM     10  C   UNL     1     128.489 122.884 116.119  1.00  0.00     0.008 C 
BRANCH  10  11
ATOM     11  C   UNL     1     128.124 121.501 115.561  1.00  0.00     0.072 C 
BRANCH  11  12
ATOM     12  C   UNL     1     126.671 121.175 115.749  1.00  0.00     0.224 C 
ATOM     13  O   UNL     1     126.280 120.636 116.772  1.00  0.00    -0.303 OA
ENDBRANCH  11  12
ENDBRANCH  10  11
ENDBRANCH   9  10
ENDBRANCH   8   9
ENDBRANCH   1   8
TORSDOF 10
ENDMDL
MODEL 2
REMARK VINA RESULT:    -2.816      1.504      3.362
REMARK INTER + INTRA:          -5.010
REMARK INTER:                  -4.198
REMARK INTRA:                  -0.812
REMARK UNBOUND:                -0.549
REMARK SMILES CCCCCCCCCCCC=O
REMARK SMILES IDX 7 1 6 2 5 3 4 4 3 5 2 6 1 7 8 8 9 9 10 10 11 11 12 12 13 13
REMARK H PARENT
REMARK Flexibility Score: inf
ROOT
ATOM      1  C   UNL     1     127.514 126.983 118.314  1.00  0.00     0.000 C 
ENDROOT
BRANCH   1   2
ATOM      2  C   UNL     1     126.510 128.054 117.847  1.00  0.00     0.000 C 
BRANCH   2   3
ATOM      3  C   UNL     1     126.101 129.020 118.969  1.00  0.00    -0.000 C 
BRANCH   3   4
ATOM      4  C   UNL     1     124.818 128.540 119.664  1.00  0.00    -0.000 C 
BRANCH   4   5
ATOM      5  C   UNL     1     123.882 127.774 118.715  1.00  0.00    -0.000 C 
BRANCH   5   6
ATOM      6  C   UNL     1     123.386 126.451 119.316  1.00  0.00    -0.003 C 
ATOM      7  C   UNL     1     124.463 125.804 120.184  1.00  0.00     0.004 C 
ENDBRANCH   5   6
ENDBRANCH   4   5
ENDBRANCH   3   4
ENDBRANCH   2   3
ENDBRANCH   1   2
BRANCH   1   8
ATOM      8  C   UNL     1     128.444 126.440 117.213  1.00  0.00     0.000 C 
BRANCH   8   9
ATOM      9  C   UNL     1     127.935 126.740 115.796  1.00  0.00     0.000 C 
BRANCH   9  10
ATOM     10  C   UNL     1     127.922 125.467 114.936  1.00  0.00     0.008 C 
BRANCH  10  11
ATOM     11  C   UNL     1     129.265 124.722 114.960  1.00  0.00     0.072 C 
BRANCH  11  12
ATOM     12  C   UNL     1     129.110 123.279 115.341  1.00  0.00     0.224 C 
ATOM     13  O   UNL     1     128.067 122.871 115.826  1.00  0.00    -0.303 OA
ENDBRANCH  11  12
ENDBRANCH  10  11
ENDBRANCH   9  10
ENDBRANCH   8   9
ENDBRANCH   1   8
TORSDOF 10
ENDMDL
MODEL 3
REMARK VINA RESULT:    -2.800     11.609     14.499
REMARK INTER + INTRA:          -4.986
REMARK INTER:                  -4.429
REMARK INTRA:                  -0.557
REMARK UNBOUND:                -0.549
REMARK SMILES CCCCCCCCCCCC=O
REMARK SMILES IDX 7 1 6 2 5 3 4 4 3 5 2 6 1 7 8 8 9 9 10 10 11 11 12 12 13 13
REMARK H PARENT
REMARK Flexibility Score: inf
ROOT
ATOM      1  C   UNL     1     113.750 128.125 114.875  1.00  0.00     0.000 C 
ENDROOT
BRANCH   1   2
ATOM      2  C   UNL     1     112.388 127.785 115.510  1.00  0.00     0.000 C 
BRANCH   2   3
ATOM      3  C   UNL     1     112.214 128.385 116.913  1.00  0.00    -0.000 C 
BRANCH   3   4
ATOM      4  C   UNL     1     111.052 127.709 117.656  1.00  0.00    -0.000 C 
BRANCH   4   5
ATOM      5  C   UNL     1     111.507 126.506 118.498  1.00  0.00    -0.000 C 
BRANCH   5   6
ATOM      6  C   UNL     1     110.449 125.395 118.560  1.00  0.00    -0.003 C 
ATOM      7  C   UNL     1     111.099 124.029 118.763  1.00  0.00     0.004 C 
ENDBRANCH   5   6
ENDBRANCH   4   5
ENDBRANCH   3   4
ENDBRANCH   2   3
ENDBRANCH   1   2
BRANCH   1   8
ATOM      8  C   UNL     1     114.111 129.622 114.875  1.00  0.00     0.000 C 
BRANCH   8   9
ATOM      9  C   UNL     1     115.561 129.889 115.301  1.00  0.00     0.000 C 
BRANCH   9  10
ATOM     10  C   UNL     1     116.142 128.685 116.058  1.00  0.00     0.008 C 
BRANCH  10  11
ATOM     11  C   UNL     1     117.511 128.249 115.517  1.00  0.00     0.072 C 
BRANCH  11  12
ATOM     12  C   UNL     1     117.658 126.756 115.470  1.00  0.00     0.224 C 
ATOM     13  O   UNL     1     118.421 126.181 116.228  1.00  0.00    -0.303 OA
ENDBRANCH  11  12
ENDBRANCH  10  11
ENDBRANCH   9  10
ENDBRANCH   8   9
ENDBRANCH   1   8
TORSDOF 10
ENDMDL
MODEL 4
REMARK VINA RESULT:    -2.704      1.214      2.532
REMARK INTER + INTRA:          -4.834
REMARK INTER:                  -4.172
REMARK INTRA:                  -0.662
REMARK UNBOUND:                -0.549
REMARK SMILES CCCCCCCCCCCC=O
REMARK SMILES IDX 7 1 6 2 5 3 4 4 3 5 2 6 1 7 8 8 9 9 10 10 11 11 12 12 13 13
REMARK H PARENT
REMARK Flexibility Score: inf
ROOT
ATOM      1  C   UNL     1     127.567 126.968 117.200  1.00  0.00     0.000 C 
ENDROOT
BRANCH   1   2
ATOM      2  C   UNL     1     128.118 128.234 117.884  1.00  0.00     0.000 C 
BRANCH   2   3
ATOM      3  C   UNL     1     127.034 129.041 118.613  1.00  0.00    -0.000 C 
BRANCH   3   4
ATOM      4  C   UNL     1     125.632 128.617 118.150  1.00  0.00    -0.000 C 
BRANCH   4   5
ATOM      5  C   UNL     1     124.689 128.307 119.323  1.00  0.00    -0.000 C 
BRANCH   5   6
ATOM      6  C   UNL     1     124.391 126.807 119.461  1.00  0.00    -0.003 C 
ATOM      7  C   UNL     1     122.973 126.484 118.998  1.00  0.00     0.004 C 
ENDBRANCH   5   6
ENDBRANCH   4   5
ENDBRANCH   3   4
ENDBRANCH   2   3
ENDBRANCH   1   2
BRANCH   1   8
ATOM      8  C   UNL     1     127.890 126.848 115.699  1.00  0.00     0.000 C 
BRANCH   8   9
ATOM      9  C   UNL     1     128.138 125.400 115.253  1.00  0.00     0.000 C 
BRANCH   9  10
ATOM     10  C   UNL     1     129.250 124.750 116.091  1.00  0.00     0.008 C 
BRANCH  10  11
ATOM     11  C   UNL     1     128.812 123.426 116.733  1.00  0.00     0.072 C 
BRANCH  11  12
ATOM     12  C   UNL     1     128.256 122.461 115.726  1.00  0.00     0.224 C 
ATOM     13  O   UNL     1     127.174 121.926 115.907  1.00  0.00    -0.303 OA
ENDBRANCH  11  12
ENDBRANCH  10  11
ENDBRANCH   9  10
ENDBRANCH   8   9
ENDBRANCH   1   8
TORSDOF 10
ENDMDL
MODEL 5
REMARK VINA RESULT:    -2.678     12.317     15.392
REMARK INTER + INTRA:          -4.793
REMARK INTER:                  -4.220
REMARK INTRA:                  -0.573
REMARK UNBOUND:                -0.549
REMARK SMILES CCCCCCCCCCCC=O
REMARK SMILES IDX 7 1 6 2 5 3 4 4 3 5 2 6 1 7 8 8 9 9 10 10 11 11 12 12 13 13
REMARK H PARENT
REMARK Flexibility Score: inf
ROOT
ATOM      1  C   UNL     1     112.168 127.922 115.669  1.00  0.00     0.000 C 
ENDROOT
BRANCH   1   2
ATOM      2  C   UNL     1     111.524 128.010 117.065  1.00  0.00     0.000 C 
BRANCH   2   3
ATOM      3  C   UNL     1     111.798 126.771 117.930  1.00  0.00    -0.000 C 
BRANCH   3   4
ATOM      4  C   UNL     1     110.494 126.016 118.231  1.00  0.00    -0.000 C 
BRANCH   4   5
ATOM      5  C   UNL     1     110.733 124.537 118.578  1.00  0.00    -0.000 C 
BRANCH   5   6
ATOM      6  C   UNL     1     112.087 124.304 119.263  1.00  0.00    -0.003 C 
ATOM      7  C   UNL     1     111.950 124.358 120.783  1.00  0.00     0.004 C 
ENDBRANCH   5   6
ENDBRANCH   4   5
ENDBRANCH   3   4
ENDBRANCH   2   3
ENDBRANCH   1   2
BRANCH   1   8
ATOM      8  C   UNL     1     112.398 129.277 114.972  1.00  0.00     0.000 C 
BRANCH   8   9
ATOM      9  C   UNL     1     113.878 129.680 114.919  1.00  0.00     0.000 C 
BRANCH   9  10
ATOM     10  C   UNL     1     114.780 128.520 115.371  1.00  0.00     0.008 C 
BRANCH  10  11
ATOM     11  C   UNL     1     115.721 128.915 116.518  1.00  0.00     0.072 C 
BRANCH  11  12
ATOM     12  C   UNL     1     116.983 128.103 116.524  1.00  0.00     0.224 C 
ATOM     13  O   UNL     1     118.061 128.625 116.288  1.00  0.00    -0.303 OA
ENDBRANCH  11  12
ENDBRANCH  10  11
ENDBRANCH   9  10
ENDBRANCH   8   9
ENDBRANCH   1   8
TORSDOF 10
ENDMDL
MODEL 6
REMARK VINA RESULT:    -2.663     10.942     13.774
REMARK INTER + INTRA:          -4.768
REMARK INTER:                  -4.042
REMARK INTRA:                  -0.726
REMARK UNBOUND:                -0.549
REMARK SMILES CCCCCCCCCCCC=O
REMARK SMILES IDX 7 1 6 2 5 3 4 4 3 5 2 6 1 7 8 8 9 9 10 10 11 11 12 12 13 13
REMARK H PARENT
REMARK Flexibility Score: inf
ROOT
ATOM      1  C   UNL     1     114.444 129.106 116.532  1.00  0.00     0.000 C 
ENDROOT
BRANCH   1   2
ATOM      2  C   UNL     1     113.879 128.287 115.356  1.00  0.00     0.000 C 
BRANCH   2   3
ATOM      3  C   UNL     1     112.408 127.892 115.554  1.00  0.00    -0.000 C 
BRANCH   3   4
ATOM      4  C   UNL     1     111.710 128.853 116.527  1.00  0.00    -0.000 C 
BRANCH   4   5
ATOM      5  C   UNL     1     111.005 128.121 117.680  1.00  0.00    -0.000 C 
BRANCH   5   6
ATOM      6  C   UNL     1     111.626 126.747 117.973  1.00  0.00    -0.003 C 
ATOM      7  C   UNL     1     110.547 125.704 118.251  1.00  0.00     0.004 C 
ENDBRANCH   5   6
ENDBRANCH   4   5
ENDBRANCH   3   4
ENDBRANCH   2   3
ENDBRANCH   1   2
BRANCH   1   8
ATOM      8  C   UNL     1     115.634 130.016 116.178  1.00  0.00     0.000 C 
BRANCH   8   9
ATOM      9  C   UNL     1     116.572 129.398 115.132  1.00  0.00     0.000 C 
BRANCH   9  10
ATOM     10  C   UNL     1     117.679 128.573 115.807  1.00  0.00     0.008 C 
BRANCH  10  11
ATOM     11  C   UNL     1     117.534 127.066 115.551  1.00  0.00     0.072 C 
BRANCH  11  12
ATOM     12  C   UNL     1     118.850 126.410 115.247  1.00  0.00     0.224 C 
ATOM     13  O   UNL     1     119.837 126.652 115.922  1.00  0.00    -0.303 OA
ENDBRANCH  11  12
ENDBRANCH  10  11
ENDBRANCH   9  10
ENDBRANCH   8   9
ENDBRANCH   1   8
TORSDOF 10
ENDMDL
MODEL 7
REMARK VINA RESULT:    -2.662     12.952     16.041
REMARK INTER + INTRA:          -4.766
REMARK INTER:                  -3.984
REMARK INTRA:                  -0.782
REMARK UNBOUND:                -0.549
REMARK SMILES CCCCCCCCCCCC=O
REMARK SMILES IDX 7 1 6 2 5 3 4 4 3 5 2 6 1 7 8 8 9 9 10 10 11 11 12 12 13 13
REMARK H PARENT
REMARK Flexibility Score: inf
ROOT
ATOM      1  C   UNL     1     111.409 127.819 118.188  1.00  0.00     0.000 C 
ENDROOT
BRANCH   1   2
ATOM      2  C   UNL     1     110.128 127.095 118.646  1.00  0.00     0.000 C 
BRANCH   2   3
ATOM      3  C   UNL     1     110.131 125.598 118.302  1.00  0.00    -0.000 C 
BRANCH   3   4
ATOM      4  C   UNL     1     110.661 124.767 119.480  1.00  0.00    -0.000 C 
BRANCH   4   5
ATOM      5  C   UNL     1     111.752 123.769 119.058  1.00  0.00    -0.000 C 
BRANCH   5   6
ATOM      6  C   UNL     1     113.088 124.017 119.774  1.00  0.00    -0.003 C 
ATOM      7  C   UNL     1     113.028 125.283 120.625  1.00  0.00     0.004 C 
ENDBRANCH   5   6
ENDBRANCH   4   5
ENDBRANCH   3   4
ENDBRANCH   2   3
ENDBRANCH   1   2
BRANCH   1   8
ATOM      8  C   UNL     1     111.947 127.381 116.813  1.00  0.00     0.000 C 
BRANCH   8   9
ATOM      9  C   UNL     1     112.212 128.561 115.869  1.00  0.00     0.000 C 
BRANCH   9  10
ATOM     10  C   UNL     1     113.395 128.262 114.936  1.00  0.00     0.008 C 
BRANCH  10  11
ATOM     11  C   UNL     1     114.448 129.380 114.936  1.00  0.00     0.072 C 
BRANCH  11  12
ATOM     12  C   UNL     1     115.611 129.069 115.832  1.00  0.00     0.224 C 
ATOM     13  O   UNL     1     116.144 127.972 115.802  1.00  0.00    -0.303 OA
ENDBRANCH  11  12
ENDBRANCH  10  11
ENDBRANCH   9  10
ENDBRANCH   8   9
ENDBRANCH   1   8
TORSDOF 10
ENDMDL
MODEL 8
REMARK VINA RESULT:    -2.606     10.153     13.274
REMARK INTER + INTRA:          -4.678
REMARK INTER:                  -3.758
REMARK INTRA:                  -0.920
REMARK UNBOUND:                -0.549
REMARK SMILES CCCCCCCCCCCC=O
REMARK SMILES IDX 7 1 6 2 5 3 4 4 3 5 2 6 1 7 8 8 9 9 10 10 11 11 12 12 13 13
REMARK H PARENT
REMARK Flexibility Score: inf
ROOT
ATOM      1  C   UNL     1     115.372 128.733 117.358  1.00  0.00     0.000 C 
ENDROOT
BRANCH   1   2
ATOM      2  C   UNL     1     116.898 128.669 117.563  1.00  0.00     0.000 C 
BRANCH   2   3
ATOM      3  C   UNL     1     117.687 129.229 116.369  1.00  0.00    -0.000 C 
BRANCH   3   4
ATOM      4  C   UNL     1     117.778 128.192 115.240  1.00  0.00    -0.000 C 
BRANCH   4   5
ATOM      5  C   UNL     1     118.103 126.781 115.756  1.00  0.00    -0.000 C 
BRANCH   5   6
ATOM      6  C   UNL     1     119.548 126.360 115.452  1.00  0.00    -0.003 C 
ATOM      7  C   UNL     1     120.376 126.275 116.732  1.00  0.00     0.004 C 
ENDBRANCH   5   6
ENDBRANCH   4   5
ENDBRANCH   3   4
ENDBRANCH   2   3
ENDBRANCH   1   2
BRANCH   1   8
ATOM      8  C   UNL     1     114.882 129.910 116.494  1.00  0.00     0.000 C 
BRANCH   8   9
ATOM      9  C   UNL     1     114.327 129.465 115.133  1.00  0.00     0.000 C 
BRANCH   9  10
ATOM     10  C   UNL     1     113.617 128.107 115.248  1.00  0.00     0.008 C 
BRANCH  10  11
ATOM     11  C   UNL     1     112.134 128.243 115.619  1.00  0.00     0.072 C 
BRANCH  11  12
ATOM     12  C   UNL     1     111.791 127.505 116.880  1.00  0.00     0.224 C 
ATOM     13  O   UNL     1     111.961 128.023 117.972  1.00  0.00    -0.303 OA
ENDBRANCH  11  12
ENDBRANCH  10  11
ENDBRANCH   9  10
ENDBRANCH   8   9
ENDBRANCH   1   8
TORSDOF 10
ENDMDL
MODEL 9
REMARK VINA RESULT:    -2.328     13.013     15.127
REMARK INTER + INTRA:          -4.238
REMARK INTER:                  -2.925
REMARK INTRA:                  -1.313
REMARK UNBOUND:                -0.549
REMARK SMILES CCCCCCCCCCCC=O
REMARK SMILES IDX 7 1 6 2 5 3 4 4 3 5 2 6 1 7 8 8 9 9 10 10 11 11 12 12 13 13
REMARK H PARENT
REMARK Flexibility Score: inf
ROOT
ATOM      1  C   UNL     1     113.697 128.503 115.012  1.00  0.00     0.000 C 
ENDROOT
BRANCH   1   2
ATOM      2  C   UNL     1     114.717 129.650 114.875  1.00  0.00     0.000 C 
BRANCH   2   3
ATOM      3  C   UNL     1     115.470 129.942 116.182  1.00  0.00    -0.000 C 
BRANCH   3   4
ATOM      4  C   UNL     1     115.807 128.639 116.921  1.00  0.00    -0.000 C 
BRANCH   4   5
ATOM      5  C   UNL     1     115.279 128.623 118.364  1.00  0.00    -0.000 C 
BRANCH   5   6
ATOM      6  C   UNL     1     114.633 129.956 118.771  1.00  0.00    -0.003 C 
ATOM      7  C   UNL     1     113.448 129.729 119.707  1.00  0.00     0.004 C 
ENDBRANCH   5   6
ENDBRANCH   4   5
ENDBRANCH   3   4
ENDBRANCH   2   3
ENDBRANCH   1   2
BRANCH   1   8
ATOM      8  C   UNL     1     112.235 128.952 115.193  1.00  0.00     0.000 C 
BRANCH   8   9
ATOM      9  C   UNL     1     111.740 128.814 116.639  1.00  0.00     0.000 C 
BRANCH   9  10
ATOM     10  C   UNL     1     111.793 127.349 117.100  1.00  0.00     0.008 C 
BRANCH  10  11
ATOM     11  C   UNL     1     110.832 127.059 118.262  1.00  0.00     0.072 C 
BRANCH  11  12
ATOM     12  C   UNL     1     110.351 125.637 118.263  1.00  0.00     0.224 C 
ATOM     13  O   UNL     1     110.531 124.919 119.233  1.00  0.00    -0.303 OA
ENDBRANCH  11  12
ENDBRANCH  10  11
ENDBRANCH   9  10
ENDBRANCH   8   9
ENDBRANCH   1   8
TORSDOF 10
ENDMDL
