MODEL 1
REMARK VINA RESULT:    -4.763      0.000      0.000
REMARK INTER + INTRA:          -7.345
REMARK INTER:                  -6.990
REMARK INTRA:                  -0.355
REMARK UNBOUND:                -0.355
REMARK SMILES O=C([O-])CCCCCCCC(=O)[O-]
REMARK SMILES IDX 7 1 6 2 5 3 4 4 2 5 1 6 3 7 8 8 9 9 10 10 11 11 12 12 13 13
REMARK H PARENT
REMARK Flexibility Score: inf
ROOT
ATOM      1  C   UNL     1       6.383   3.072  -0.242  1.00  0.00     0.000 C 
ENDROOT
BRANCH   1   2
ATOM      2  C   UNL     1       6.035   1.695   0.346  1.00  0.00     0.000 C 
BRANCH   2   3
ATOM      3  C   UNL     1       5.967   0.593  -0.724  1.00  0.00     0.006 C 
BRANCH   3   4
ATOM      4  C   UNL     1       7.214   0.558  -1.616  1.00  0.00     0.053 C 
BRANCH   4   5
ATOM      5  C   UNL     1       6.825   0.638  -3.058  1.00  0.00     0.041 C 
ATOM      6  O   UNL     1       6.076   1.568  -3.463  1.00  0.00    -0.550 OA
ATOM      7  O   UNL     1       7.248  -0.341  -3.949  1.00  0.00    -0.550 OA
ENDBRANCH   4   5
ENDBRANCH   3   4
ENDBRANCH   2   3
ENDBRANCH   1   2
BRANCH   1   8
ATOM      8  C   UNL     1       7.771   3.569   0.220  1.00  0.00     0.000 C 
BRANCH   8   9
ATOM      9  C   UNL     1       7.717   4.469   1.470  1.00  0.00     0.006 C 
BRANCH   9  10
ATOM     10  C   UNL     1       8.448   5.809   1.306  1.00  0.00     0.053 C 
BRANCH  10  11
ATOM     11  C   UNL     1       7.497   6.927   1.005  1.00  0.00     0.041 C 
ATOM     12  O   UNL     1       7.039   7.641   1.936  1.00  0.00    -0.550 OA
ATOM     13  O   UNL     1       7.103   7.172  -0.304  1.00  0.00    -0.550 OA
ENDBRANCH  10  11
ENDBRANCH   9  10
ENDBRANCH   8   9
ENDBRANCH   1   8
TORSDOF 8
ENDMDL
MODEL 2
REMARK VINA RESULT:    -4.746      0.630      6.374
REMARK INTER + INTRA:          -7.320
REMARK INTER:                  -6.958
REMARK INTRA:                  -0.363
REMARK UNBOUND:                -0.355
REMARK SMILES O=C([O-])CCCCCCCC(=O)[O-]
REMARK SMILES IDX 7 1 6 2 5 3 4 4 2 5 1 6 3 7 8 8 9 9 10 10 11 11 12 12 13 13
REMARK H PARENT
REMARK Flexibility Score: inf
ROOT
ATOM      1  C   UNL     1       6.343   2.740  -0.443  1.00  0.00     0.000 C 
ENDROOT
BRANCH   1   2
ATOM      2  C   UNL     1       6.842   3.457   0.822  1.00  0.00     0.000 C 
BRANCH   2   3
ATOM      3  C   UNL     1       8.036   4.385   0.547  1.00  0.00     0.006 C 
BRANCH   3   4
ATOM      4  C   UNL     1       8.205   5.466   1.622  1.00  0.00     0.053 C 
BRANCH   4   5
ATOM      5  C   UNL     1       7.540   6.736   1.194  1.00  0.00     0.041 C 
ATOM      6  O   UNL     1       7.073   6.846   0.029  1.00  0.00    -0.550 OA
ATOM      7  O   UNL     1       7.476   7.816   2.065  1.00  0.00    -0.550 OA
ENDBRANCH   4   5
ENDBRANCH   3   4
ENDBRANCH   2   3
ENDBRANCH   1   2
BRANCH   1   8
ATOM      8  C   UNL     1       6.056   1.243  -0.190  1.00  0.00     0.000 C 
BRANCH   8   9
ATOM      9  C   UNL     1       7.109   0.303  -0.806  1.00  0.00     0.006 C 
BRANCH   9  10
ATOM     10  C   UNL     1       7.831   0.890  -2.028  1.00  0.00     0.053 C 
BRANCH  10  11
ATOM     11  C   UNL     1       7.068   0.644  -3.295  1.00  0.00     0.041 C 
ATOM     12  O   UNL     1       6.193   1.463  -3.680  1.00  0.00    -0.550 OA
ATOM     13  O   UNL     1       7.314  -0.500  -4.043  1.00  0.00    -0.550 OA
ENDBRANCH  10  11
ENDBRANCH   9  10
ENDBRANCH   8   9
ENDBRANCH   1   8
TORSDOF 8
ENDMDL
MODEL 3
REMARK VINA RESULT:    -4.075      2.636      4.019
REMARK INTER + INTRA:          -6.336
REMARK INTER:                  -6.179
REMARK INTRA:                  -0.157
REMARK UNBOUND:                -0.355
REMARK SMILES O=C([O-])CCCCCCCC(=O)[O-]
REMARK SMILES IDX 7 1 6 2 5 3 4 4 2 5 1 6 3 7 8 8 9 9 10 10 11 11 12 12 13 13
REMARK H PARENT
REMARK Flexibility Score: inf
ROOT
ATOM      1  C   UNL     1       7.427   6.360   0.817  1.00  0.00     0.000 C 
ENDROOT
BRANCH   1   2
ATOM      2  C   UNL     1       8.084   4.988   0.594  1.00  0.00     0.000 C 
BRANCH   2   3
ATOM      3  C   UNL     1       7.074   3.830   0.653  1.00  0.00     0.006 C 
BRANCH   3   4
ATOM      4  C   UNL     1       7.341   2.758  -0.411  1.00  0.00     0.053 C 
BRANCH   4   5
ATOM      5  C   UNL     1       6.322   1.667  -0.319  1.00  0.00     0.041 C 
ATOM      6  O   UNL     1       6.081   0.938  -1.318  1.00  0.00    -0.550 OA
ATOM      7  O   UNL     1       5.602   1.484   0.856  1.00  0.00    -0.550 OA
ENDBRANCH   4   5
ENDBRANCH   3   4
ENDBRANCH   2   3
ENDBRANCH   1   2
BRANCH   1   8
ATOM      8  C   UNL     1       7.959   7.063   2.086  1.00  0.00     0.000 C 
BRANCH   8   9
ATOM      9  C   UNL     1       7.413   8.491   2.272  1.00  0.00     0.006 C 
BRANCH   9  10
ATOM     10  C   UNL     1       7.571   9.038   3.698  1.00  0.00     0.053 C 
BRANCH  10  11
ATOM     11  C   UNL     1       6.247   9.197   4.382  1.00  0.00     0.041 C 
ATOM     12  O   UNL     1       5.194   9.332   3.706  1.00  0.00    -0.550 OA
ATOM     13  O   UNL     1       6.179   9.211   5.770  1.00  0.00    -0.550 OA
ENDBRANCH  10  11
ENDBRANCH   9  10
ENDBRANCH   8   9
ENDBRANCH   1   8
TORSDOF 8
ENDMDL
MODEL 4
REMARK VINA RESULT:    -4.022     11.158     13.087
REMARK INTER + INTRA:          -6.258
REMARK INTER:                  -5.755
REMARK INTRA:                  -0.504
REMARK UNBOUND:                -0.355
REMARK SMILES O=C([O-])CCCCCCCC(=O)[O-]
REMARK SMILES IDX 7 1 6 2 5 3 4 4 2 5 1 6 3 7 8 8 9 9 10 10 11 11 12 12 13 13
REMARK H PARENT
REMARK Flexibility Score: inf
ROOT
ATOM      1  C   UNL     1       0.866   7.032  10.791  1.00  0.00     0.000 C 
ENDROOT
BRANCH   1   2
ATOM      2  C   UNL     1       0.706   8.413  10.134  1.00  0.00     0.000 C 
BRANCH   2   3
ATOM      3  C   UNL     1       1.208   8.441   8.681  1.00  0.00     0.006 C 
BRANCH   3   4
ATOM      4  C   UNL     1       2.277   9.515   8.446  1.00  0.00     0.053 C 
BRANCH   4   5
ATOM      5  C   UNL     1       3.614   8.880   8.227  1.00  0.00     0.041 C 
ATOM      6  O   UNL     1       4.044   8.013   9.034  1.00  0.00    -0.550 OA
ATOM      7  O   UNL     1       4.408   9.280   7.159  1.00  0.00    -0.550 OA
ENDBRANCH   4   5
ENDBRANCH   3   4
ENDBRANCH   2   3
ENDBRANCH   1   2
BRANCH   1   8
ATOM      8  C   UNL     1       1.253   5.941   9.768  1.00  0.00     0.000 C 
BRANCH   8   9
ATOM      9  C   UNL     1       2.258   4.911  10.319  1.00  0.00     0.006 C 
BRANCH   9  10
ATOM     10  C   UNL     1       1.695   4.032  11.446  1.00  0.00     0.053 C 
BRANCH  10  11
ATOM     11  C   UNL     1       1.190   2.720  10.927  1.00  0.00     0.041 C 
ATOM     12  O   UNL     1       0.206   2.156  11.474  1.00  0.00    -0.550 OA
ATOM     13  O   UNL     1       1.816   2.112   9.847  1.00  0.00    -0.550 OA
ENDBRANCH  10  11
ENDBRANCH   9  10
ENDBRANCH   8   9
ENDBRANCH   1   8
TORSDOF 8
ENDMDL
MODEL 5
REMARK VINA RESULT:    -3.947     11.281     13.231
REMARK INTER + INTRA:          -6.148
REMARK INTER:                  -5.448
REMARK INTRA:                  -0.700
REMARK UNBOUND:                -0.355
REMARK SMILES O=C([O-])CCCCCCCC(=O)[O-]
REMARK SMILES IDX 7 1 6 2 5 3 4 4 2 5 1 6 3 7 8 8 9 9 10 10 11 11 12 12 13 13
REMARK H PARENT
REMARK Flexibility Score: inf
ROOT
ATOM      1  C   UNL     1       2.926   6.832  11.988  1.00  0.00     0.000 C 
ENDROOT
BRANCH   1   2
ATOM      2  C   UNL     1       1.667   7.634  11.619  1.00  0.00     0.000 C 
BRANCH   2   3
ATOM      3  C   UNL     1       0.900   7.024  10.435  1.00  0.00     0.006 C 
BRANCH   3   4
ATOM      4  C   UNL     1       1.823   6.613   9.281  1.00  0.00     0.053 C 
BRANCH   4   5
ATOM      5  C   UNL     1       1.951   7.729   8.293  1.00  0.00     0.041 C 
ATOM      6  O   UNL     1       2.928   7.765   7.499  1.00  0.00    -0.550 OA
ATOM      7  O   UNL     1       1.017   8.758   8.281  1.00  0.00    -0.550 OA
ENDBRANCH   4   5
ENDBRANCH   3   4
ENDBRANCH   2   3
ENDBRANCH   1   2
BRANCH   1   8
ATOM      8  C   UNL     1       2.603   5.624  12.895  1.00  0.00     0.000 C 
BRANCH   8   9
ATOM      9  C   UNL     1       2.829   4.263  12.209  1.00  0.00     0.006 C 
BRANCH   9  10
ATOM     10  C   UNL     1       1.541   3.598  11.703  1.00  0.00     0.053 C 
BRANCH  10  11
ATOM     11  C   UNL     1       1.777   2.816  10.446  1.00  0.00     0.041 C 
ATOM     12  O   UNL     1       1.022   1.854  10.143  1.00  0.00    -0.550 OA
ATOM     13  O   UNL     1       2.842   3.140   9.616  1.00  0.00    -0.550 OA
ENDBRANCH  10  11
ENDBRANCH   9  10
ENDBRANCH   8   9
ENDBRANCH   1   8
TORSDOF 8
ENDMDL
MODEL 6
REMARK VINA RESULT:    -3.941     11.458     12.406
REMARK INTER + INTRA:          -6.140
REMARK INTER:                  -5.662
REMARK INTRA:                  -0.478
REMARK UNBOUND:                -0.355
REMARK SMILES O=C([O-])CCCCCCCC(=O)[O-]
REMARK SMILES IDX 7 1 6 2 5 3 4 4 2 5 1 6 3 7 8 8 9 9 10 10 11 11 12 12 13 13
REMARK H PARENT
REMARK Flexibility Score: inf
ROOT
ATOM      1  C   UNL     1       1.245   6.026   9.749  1.00  0.00     0.000 C 
ENDROOT
BRANCH   1   2
ATOM      2  C   UNL     1       2.677   5.471   9.826  1.00  0.00     0.000 C 
BRANCH   2   3
ATOM      3  C   UNL     1       2.725   4.020  10.331  1.00  0.00     0.006 C 
BRANCH   3   4
ATOM      4  C   UNL     1       1.632   3.716  11.363  1.00  0.00     0.053 C 
BRANCH   4   5
ATOM      5  C   UNL     1       0.894   2.470  10.990  1.00  0.00     0.041 C 
ATOM      6  O   UNL     1      -0.001   2.011  11.749  1.00  0.00    -0.550 OA
ATOM      7  O   UNL     1       1.225   1.788   9.825  1.00  0.00    -0.550 OA
ENDBRANCH   4   5
ENDBRANCH   3   4
ENDBRANCH   2   3
ENDBRANCH   1   2
BRANCH   1   8
ATOM      8  C   UNL     1       1.067   7.301  10.602  1.00  0.00     0.000 C 
BRANCH   8   9
ATOM      9  C   UNL     1       0.571   8.516   9.795  1.00  0.00     0.006 C 
BRANCH   9  10
ATOM     10  C   UNL     1       1.114   8.575   8.359  1.00  0.00     0.053 C 
BRANCH  10  11
ATOM     11  C   UNL     1       2.447   9.256   8.297  1.00  0.00     0.041 C 
ATOM     12  O   UNL     1       3.449   8.655   7.829  1.00  0.00    -0.550 OA
ATOM     13  O   UNL     1       2.587  10.554   8.773  1.00  0.00    -0.550 OA
ENDBRANCH  10  11
ENDBRANCH   9  10
ENDBRANCH   8   9
ENDBRANCH   1   8
TORSDOF 8
ENDMDL
MODEL 7
REMARK VINA RESULT:    -3.930     11.326     12.603
REMARK INTER + INTRA:          -6.124
REMARK INTER:                  -5.415
REMARK INTRA:                  -0.709
REMARK UNBOUND:                -0.355
REMARK SMILES O=C([O-])CCCCCCCC(=O)[O-]
REMARK SMILES IDX 7 1 6 2 5 3 4 4 2 5 1 6 3 7 8 8 9 9 10 10 11 11 12 12 13 13
REMARK H PARENT
REMARK Flexibility Score: inf
ROOT
ATOM      1  C   UNL     1       3.072   6.264  11.737  1.00  0.00     0.000 C 
ENDROOT
BRANCH   1   2
ATOM      2  C   UNL     1       3.031   5.289  12.925  1.00  0.00     0.000 C 
BRANCH   2   3
ATOM      3  C   UNL     1       3.003   3.816  12.484  1.00  0.00     0.006 C 
BRANCH   3   4
ATOM      4  C   UNL     1       1.676   3.421  11.826  1.00  0.00     0.053 C 
BRANCH   4   5
ATOM      5  C   UNL     1       1.923   2.789  10.492  1.00  0.00     0.041 C 
ATOM      6  O   UNL     1       2.846   3.218   9.749  1.00  0.00    -0.550 OA
ATOM      7  O   UNL     1       1.105   1.759  10.047  1.00  0.00    -0.550 OA
ENDBRANCH   4   5
ENDBRANCH   3   4
ENDBRANCH   2   3
ENDBRANCH   1   2
BRANCH   1   8
ATOM      8  C   UNL     1       1.837   7.191  11.700  1.00  0.00     0.000 C 
BRANCH   8   9
ATOM      9  C   UNL     1       0.938   6.969  10.469  1.00  0.00     0.006 C 
BRANCH   9  10
ATOM     10  C   UNL     1       1.707   6.583   9.197  1.00  0.00     0.053 C 
BRANCH  10  11
ATOM     11  C   UNL     1       1.915   7.762   8.295  1.00  0.00     0.041 C 
ATOM     12  O   UNL     1       2.950   7.845   7.583  1.00  0.00    -0.550 OA
ATOM     13  O   UNL     1       0.970   8.780   8.253  1.00  0.00    -0.550 OA
ENDBRANCH  10  11
ENDBRANCH   9  10
ENDBRANCH   8   9
ENDBRANCH   1   8
TORSDOF 8
ENDMDL
MODEL 8
REMARK VINA RESULT:    -3.909     11.178     12.153
REMARK INTER + INTRA:          -6.092
REMARK INTER:                  -5.582
REMARK INTRA:                  -0.511
REMARK UNBOUND:                -0.355
REMARK SMILES O=C([O-])CCCCCCCC(=O)[O-]
REMARK SMILES IDX 7 1 6 2 5 3 4 4 2 5 1 6 3 7 8 8 9 9 10 10 11 11 12 12 13 13
REMARK H PARENT
REMARK Flexibility Score: inf
ROOT
ATOM      1  C   UNL     1       0.913   7.313  10.665  1.00  0.00     0.000 C 
ENDROOT
BRANCH   1   2
ATOM      2  C   UNL     1       1.235   6.126   9.742  1.00  0.00     0.000 C 
BRANCH   2   3
ATOM      3  C   UNL     1       2.366   5.239  10.288  1.00  0.00     0.006 C 
BRANCH   3   4
ATOM      4  C   UNL     1       1.860   4.170  11.265  1.00  0.00     0.053 C 
BRANCH   4   5
ATOM      5  C   UNL     1       2.372   2.821  10.873  1.00  0.00     0.041 C 
ATOM      6  O   UNL     1       1.972   2.275   9.810  1.00  0.00    -0.550 OA
ATOM      7  O   UNL     1       3.255   2.143  11.705  1.00  0.00    -0.550 OA
ENDBRANCH   4   5
ENDBRANCH   3   4
ENDBRANCH   2   3
ENDBRANCH   1   2
BRANCH   1   8
ATOM      8  C   UNL     1       0.540   8.584   9.870  1.00  0.00     0.000 C 
BRANCH   8   9
ATOM      9  C   UNL     1       1.240   8.681   8.502  1.00  0.00     0.006 C 
BRANCH   9  10
ATOM     10  C   UNL     1       2.398   9.690   8.463  1.00  0.00     0.053 C 
BRANCH  10  11
ATOM     11  C   UNL     1       3.714   9.014   8.227  1.00  0.00     0.041 C 
ATOM     12  O   UNL     1       4.107   8.098   8.997  1.00  0.00    -0.550 OA
ATOM     13  O   UNL     1       4.516   9.407   7.163  1.00  0.00    -0.550 OA
ENDBRANCH  10  11
ENDBRANCH   9  10
ENDBRANCH   8   9
ENDBRANCH   1   8
TORSDOF 8
ENDMDL
MODEL 9
REMARK VINA RESULT:    -3.841     11.053     12.924
REMARK INTER + INTRA:          -5.993
REMARK INTER:                  -5.122
REMARK INTRA:                  -0.870
REMARK UNBOUND:                -0.355
REMARK SMILES O=C([O-])CCCCCCCC(=O)[O-]
REMARK SMILES IDX 7 1 6 2 5 3 4 4 2 5 1 6 3 7 8 8 9 9 10 10 11 11 12 12 13 13
REMARK H PARENT
REMARK Flexibility Score: inf
ROOT
ATOM      1  C   UNL     1       0.487   7.734  11.203  1.00  0.00     0.000 C 
ENDROOT
BRANCH   1   2
ATOM      2  C   UNL     1       0.328   9.122  10.559  1.00  0.00     0.000 C 
BRANCH   2   3
ATOM      3  C   UNL     1       0.763   9.146   9.085  1.00  0.00     0.006 C 
BRANCH   3   4
ATOM      4  C   UNL     1       2.187   9.683   8.897  1.00  0.00     0.053 C 
BRANCH   4   5
ATOM      5  C   UNL     1       3.110   8.581   8.486  1.00  0.00     0.041 C 
ATOM      6  O   UNL     1       4.245   8.470   9.024  1.00  0.00    -0.550 OA
ATOM      7  O   UNL     1       2.739   7.702   7.476  1.00  0.00    -0.550 OA
ENDBRANCH   4   5
ENDBRANCH   3   4
ENDBRANCH   2   3
ENDBRANCH   1   2
BRANCH   1   8
ATOM      8  C   UNL     1       1.828   7.591  11.957  1.00  0.00     0.000 C 
BRANCH   8   9
ATOM      9  C   UNL     1       2.599   6.306  11.601  1.00  0.00     0.006 C 
BRANCH   9  10
ATOM     10  C   UNL     1       2.088   5.602  10.335  1.00  0.00     0.053 C 
BRANCH  10  11
ATOM     11  C   UNL     1       3.112   4.666   9.770  1.00  0.00     0.041 C 
ATOM     12  O   UNL     1       2.948   3.420   9.849  1.00  0.00    -0.550 OA
ATOM     13  O   UNL     1       4.259   5.170   9.168  1.00  0.00    -0.550 OA
ENDBRANCH  10  11
ENDBRANCH   9  10
ENDBRANCH   8   9
ENDBRANCH   1   8
TORSDOF 8
ENDMDL
