MODEL 1
REMARK VINA RESULT:    -4.451      0.000      0.000
REMARK INTER + INTRA:          -4.581
REMARK INTER:                  -4.581
REMARK INTRA:                   0.000
REMARK UNBOUND:                 0.000
REMARK SMILES Cc1cccc(O)c1C
REMARK SMILES IDX 1 1 2 2 8 3 6 4 5 5 4 6 3 7 9 8 7 9
REMARK H PARENT 7 10
REMARK Flexibility Score: inf
ROOT
ATOM      1  C   UNL     1      19.614  27.266  34.787  1.00  0.00     0.045 C 
ATOM      2  C   UNL     1      18.745  28.298  34.117  1.00  0.00    -0.045 A 
ATOM      3  C   UNL     1      18.773  28.513  32.711  1.00  0.00    -0.006 A 
ATOM      4  C   UNL     1      17.927  29.503  32.148  1.00  0.00     0.118 A 
ATOM      5  C   UNL     1      17.082  30.251  32.972  1.00  0.00     0.046 A 
ATOM      6  C   UNL     1      17.060  30.036  34.347  1.00  0.00     0.004 A 
ATOM      7  C   UNL     1      17.883  29.069  34.917  1.00  0.00     0.004 A 
ATOM      8  C   UNL     1      19.680  27.714  31.801  1.00  0.00     0.048 C 
ENDROOT
BRANCH   4   9
ATOM      9  O   UNL     1      17.902  29.768  30.777  1.00  0.00    -0.508 OA
ATOM     10  H   UNL     1      18.389  29.206  30.090  1.00  0.00     0.293 HD
ENDBRANCH   4   9
TORSDOF 1
ENDMDL
MODEL 2
REMARK VINA RESULT:    -4.434      1.401      2.799
REMARK INTER + INTRA:          -4.564
REMARK INTER:                  -4.564
REMARK INTRA:                   0.000
REMARK UNBOUND:                 0.000
REMARK SMILES Cc1cccc(O)c1C
REMARK SMILES IDX 1 1 2 2 8 3 6 4 5 5 4 6 3 7 9 8 7 9
REMARK H PARENT 7 10
REMARK Flexibility Score: inf
ROOT
ATOM      1  C   UNL     1      16.872  30.734  33.379  1.00  0.00     0.045 C 
ATOM      2  C   UNL     1      17.796  29.553  33.528  1.00  0.00    -0.045 A 
ATOM      3  C   UNL     1      18.311  28.850  32.404  1.00  0.00    -0.006 A 
ATOM      4  C   UNL     1      19.176  27.746  32.619  1.00  0.00     0.118 A 
ATOM      5  C   UNL     1      19.511  27.363  33.921  1.00  0.00     0.046 A 
ATOM      6  C   UNL     1      19.003  28.055  35.016  1.00  0.00     0.004 A 
ATOM      7  C   UNL     1      18.152  29.141  34.824  1.00  0.00     0.004 A 
ATOM      8  C   UNL     1      17.962  29.247  30.987  1.00  0.00     0.048 C 
ENDROOT
BRANCH   4   9
ATOM      9  O   UNL     1      19.720  27.010  31.563  1.00  0.00    -0.508 OA
ATOM     10  H   UNL     1      19.679  27.306  30.597  1.00  0.00     0.293 HD
ENDBRANCH   4   9
TORSDOF 1
ENDMDL
MODEL 3
REMARK VINA RESULT:    -4.429      1.234      2.267
REMARK INTER + INTRA:          -4.559
REMARK INTER:                  -4.559
REMARK INTRA:                   0.000
REMARK UNBOUND:                 0.000
REMARK SMILES Cc1cccc(O)c1C
REMARK SMILES IDX 1 1 2 2 8 3 6 4 5 5 4 6 3 7 9 8 7 9
REMARK H PARENT 7 10
REMARK Flexibility Score: inf
ROOT
ATOM      1  C   UNL     1      19.901  26.975  31.622  1.00  0.00     0.045 C 
ATOM      2  C   UNL     1      19.225  27.800  32.687  1.00  0.00    -0.045 A 
ATOM      3  C   UNL     1      18.330  28.858  32.367  1.00  0.00    -0.006 A 
ATOM      4  C   UNL     1      17.729  29.594  33.421  1.00  0.00     0.118 A 
ATOM      5  C   UNL     1      18.019  29.276  34.751  1.00  0.00     0.046 A 
ATOM      6  C   UNL     1      18.896  28.239  35.055  1.00  0.00     0.004 A 
ATOM      7  C   UNL     1      19.495  27.506  34.034  1.00  0.00     0.004 A 
ATOM      8  C   UNL     1      18.001  29.220  30.936  1.00  0.00     0.048 C 
ENDROOT
BRANCH   4   9
ATOM      9  O   UNL     1      16.841  30.646  33.183  1.00  0.00    -0.508 OA
ATOM     10  H   UNL     1      17.137  31.592  32.979  1.00  0.00     0.293 HD
ENDBRANCH   4   9
TORSDOF 1
ENDMDL
MODEL 4
REMARK VINA RESULT:    -4.404     11.270     11.708
REMARK INTER + INTRA:          -4.533
REMARK INTER:                  -4.533
REMARK INTRA:                   0.000
REMARK UNBOUND:                 0.000
REMARK SMILES Cc1cccc(O)c1C
REMARK SMILES IDX 1 1 2 2 8 3 6 4 5 5 4 6 3 7 9 8 7 9
REMARK H PARENT 7 10
REMARK Flexibility Score: inf
ROOT
ATOM      1  C   UNL     1      13.938  19.826  39.661  1.00  0.00     0.045 C 
ATOM      2  C   UNL     1      13.398  19.805  38.255  1.00  0.00    -0.045 A 
ATOM      3  C   UNL     1      12.109  20.313  37.933  1.00  0.00    -0.006 A 
ATOM      4  C   UNL     1      11.665  20.261  36.586  1.00  0.00     0.118 A 
ATOM      5  C   UNL     1      12.490  19.717  35.598  1.00  0.00     0.046 A 
ATOM      6  C   UNL     1      13.750  19.222  35.921  1.00  0.00     0.004 A 
ATOM      7  C   UNL     1      14.202  19.264  37.237  1.00  0.00     0.004 A 
ATOM      8  C   UNL     1      11.200  20.907  38.986  1.00  0.00     0.048 C 
ENDROOT
BRANCH   4   9
ATOM      9  O   UNL     1      10.412  20.741  36.197  1.00  0.00    -0.508 OA
ATOM     10  H   UNL     1       9.978  20.515  35.311  1.00  0.00     0.293 HD
ENDBRANCH   4   9
TORSDOF 1
ENDMDL
MODEL 5
REMARK VINA RESULT:    -4.399     11.320     11.965
REMARK INTER + INTRA:          -4.528
REMARK INTER:                  -4.528
REMARK INTRA:                   0.000
REMARK UNBOUND:                 0.000
REMARK SMILES Cc1cccc(O)c1C
REMARK SMILES IDX 1 1 2 2 8 3 6 4 5 5 4 6 3 7 9 8 7 9
REMARK H PARENT 7 10
REMARK Flexibility Score: inf
ROOT
ATOM      1  C   UNL     1      11.227  20.669  35.663  1.00  0.00     0.045 C 
ATOM      2  C   UNL     1      12.375  20.125  36.472  1.00  0.00    -0.045 A 
ATOM      3  C   UNL     1      12.415  20.228  37.891  1.00  0.00    -0.006 A 
ATOM      4  C   UNL     1      13.528  19.692  38.589  1.00  0.00     0.118 A 
ATOM      5  C   UNL     1      14.565  19.076  37.884  1.00  0.00     0.046 A 
ATOM      6  C   UNL     1      14.520  18.980  36.497  1.00  0.00     0.004 A 
ATOM      7  C   UNL     1      13.435  19.499  35.795  1.00  0.00     0.004 A 
ATOM      8  C   UNL     1      11.303  20.890  38.674  1.00  0.00     0.048 C 
ENDROOT
BRANCH   4   9
ATOM      9  O   UNL     1      13.634  19.756  39.981  1.00  0.00    -0.508 OA
ATOM     10  H   UNL     1      14.447  20.119  40.463  1.00  0.00     0.293 HD
ENDBRANCH   4   9
TORSDOF 1
ENDMDL
MODEL 6
REMARK VINA RESULT:    -4.374      1.810      2.882
REMARK INTER + INTRA:          -4.502
REMARK INTER:                  -4.502
REMARK INTRA:                   0.000
REMARK UNBOUND:                 0.000
REMARK SMILES Cc1cccc(O)c1C
REMARK SMILES IDX 1 1 2 2 8 3 6 4 5 5 4 6 3 7 9 8 7 9
REMARK H PARENT 7 10
REMARK Flexibility Score: inf
ROOT
ATOM      1  C   UNL     1      18.023  29.374  30.677  1.00  0.00     0.045 C 
ATOM      2  C   UNL     1      18.056  29.219  32.175  1.00  0.00    -0.045 A 
ATOM      3  C   UNL     1      18.862  28.237  32.815  1.00  0.00    -0.006 A 
ATOM      4  C   UNL     1      18.844  28.148  34.231  1.00  0.00     0.118 A 
ATOM      5  C   UNL     1      18.042  29.017  34.977  1.00  0.00     0.046 A 
ATOM      6  C   UNL     1      17.256  29.974  34.343  1.00  0.00     0.004 A 
ATOM      7  C   UNL     1      17.262  30.077  32.954  1.00  0.00     0.004 A 
ATOM      8  C   UNL     1      19.737  27.288  32.029  1.00  0.00     0.048 C 
ENDROOT
BRANCH   4   9
ATOM      9  O   UNL     1      19.609  27.209  34.928  1.00  0.00    -0.508 OA
ATOM     10  H   UNL     1      20.246  26.564  34.479  1.00  0.00     0.293 HD
ENDBRANCH   4   9
TORSDOF 1
ENDMDL
MODEL 7
REMARK VINA RESULT:    -4.338      1.221      2.595
REMARK INTER + INTRA:          -4.465
REMARK INTER:                  -4.465
REMARK INTRA:                   0.000
REMARK UNBOUND:                 0.000
REMARK SMILES Cc1cccc(O)c1C
REMARK SMILES IDX 1 1 2 2 8 3 6 4 5 5 4 6 3 7 9 8 7 9
REMARK H PARENT 7 10
REMARK Flexibility Score: inf
ROOT
ATOM      1  C   UNL     1      19.941  26.961  34.440  1.00  0.00     0.045 C 
ATOM      2  C   UNL     1      19.225  27.799  33.413  1.00  0.00    -0.045 A 
ATOM      3  C   UNL     1      18.387  28.890  33.778  1.00  0.00    -0.006 A 
ATOM      4  C   UNL     1      17.744  29.636  32.757  1.00  0.00     0.118 A 
ATOM      5  C   UNL     1      17.936  29.296  31.415  1.00  0.00     0.046 A 
ATOM      6  C   UNL     1      18.756  28.228  31.066  1.00  0.00     0.004 A 
ATOM      7  C   UNL     1      19.397  27.485  32.054  1.00  0.00     0.004 A 
ATOM      8  C   UNL     1      18.165  29.275  35.223  1.00  0.00     0.048 C 
ENDROOT
BRANCH   4   9
ATOM      9  O   UNL     1      16.907  30.718  33.041  1.00  0.00    -0.508 OA
ATOM     10  H   UNL     1      16.077  30.647  33.615  1.00  0.00     0.293 HD
ENDBRANCH   4   9
TORSDOF 1
ENDMDL
MODEL 8
REMARK VINA RESULT:    -4.321     11.391     11.676
REMARK INTER + INTRA:          -4.447
REMARK INTER:                  -4.447
REMARK INTRA:                   0.000
REMARK UNBOUND:                 0.000
REMARK SMILES Cc1cccc(O)c1C
REMARK SMILES IDX 1 1 2 2 8 3 6 4 5 5 4 6 3 7 9 8 7 9
REMARK H PARENT 7 10
REMARK Flexibility Score: inf
ROOT
ATOM      1  C   UNL     1      14.619  18.765  36.065  1.00  0.00     0.045 C 
ATOM      2  C   UNL     1      13.380  19.489  36.524  1.00  0.00    -0.045 A 
ATOM      3  C   UNL     1      13.175  19.848  37.885  1.00  0.00    -0.006 A 
ATOM      4  C   UNL     1      11.984  20.530  38.246  1.00  0.00     0.118 A 
ATOM      5  C   UNL     1      11.031  20.838  37.271  1.00  0.00     0.046 A 
ATOM      6  C   UNL     1      11.238  20.483  35.942  1.00  0.00     0.004 A 
ATOM      7  C   UNL     1      12.401  19.814  35.569  1.00  0.00     0.004 A 
ATOM      8  C   UNL     1      14.193  19.525  38.956  1.00  0.00     0.048 C 
ENDROOT
BRANCH   4   9
ATOM      9  O   UNL     1      11.716  20.913  39.563  1.00  0.00    -0.508 OA
ATOM     10  H   UNL     1      10.873  21.397  39.843  1.00  0.00     0.293 HD
ENDBRANCH   4   9
TORSDOF 1
ENDMDL
MODEL 9
REMARK VINA RESULT:    -4.305      3.064      4.505
REMARK INTER + INTRA:          -4.431
REMARK INTER:                  -4.431
REMARK INTRA:                   0.000
REMARK UNBOUND:                 0.000
REMARK SMILES Cc1cccc(O)c1C
REMARK SMILES IDX 1 1 2 2 8 3 6 4 5 5 4 6 3 7 9 8 7 9
REMARK H PARENT 7 10
REMARK Flexibility Score: inf
ROOT
ATOM      1  C   UNL     1      18.465  28.618  27.578  1.00  0.00     0.045 C 
ATOM      2  C   UNL     1      18.344  29.235  28.947  1.00  0.00    -0.045 A 
ATOM      3  C   UNL     1      18.454  30.639  29.155  1.00  0.00    -0.006 A 
ATOM      4  C   UNL     1      18.330  31.151  30.472  1.00  0.00     0.118 A 
ATOM      5  C   UNL     1      18.104  30.282  31.543  1.00  0.00     0.046 A 
ATOM      6  C   UNL     1      17.999  28.910  31.332  1.00  0.00     0.004 A 
ATOM      7  C   UNL     1      18.117  28.389  30.046  1.00  0.00     0.004 A 
ATOM      8  C   UNL     1      18.698  31.597  28.012  1.00  0.00     0.048 C 
ENDROOT
BRANCH   4   9
ATOM      9  O   UNL     1      18.426  32.517  30.752  1.00  0.00    -0.508 OA
ATOM     10  H   UNL     1      17.631  33.141  30.767  1.00  0.00     0.293 HD
ENDBRANCH   4   9
TORSDOF 1
ENDMDL
