MODEL 1
REMARK VINA RESULT:    -7.505      0.000      0.000
REMARK INTER + INTRA:          -8.718
REMARK INTER:                  -9.041
REMARK INTRA:                   0.324
REMARK UNBOUND:                 0.324
REMARK SMILES O=c1c(O)c(-c2ccc(O)cc2O)oc2cc(O)cc(O)c12
REMARK SMILES IDX 5 1 3 2 2 3 1 4 22 5 20 6 19 7 17 8 16 9 15 10 14 11 6 12
REMARK SMILES IDX 8 13 7 14 9 15 11 16 12 17 10 18 13 20 4 22 21 24 18 26
REMARK H PARENT 10 19 13 21 4 23 21 25 18 27
REMARK Flexibility Score: inf
ROOT
ATOM      1  C   UNL     1      17.683  22.450  40.194  1.00  0.00     0.184 A 
ATOM      2  C   UNL     1      17.489  23.542  39.335  1.00  0.00     0.208 A 
ATOM      3  C   UNL     1      16.372  24.371  39.531  1.00  0.00     0.238 A 
ATOM      4  O   UNL     1      16.232  25.380  38.792  1.00  0.00    -0.285 OA
ATOM      5  C   UNL     1      15.457  24.084  40.574  1.00  0.00     0.111 A 
ATOM      6  C   UNL     1      14.270  24.831  40.838  1.00  0.00     0.134 A 
ATOM      7  C   UNL     1      13.507  24.536  41.975  1.00  0.00     0.093 A 
ATOM      8  C   UNL     1      13.853  23.477  42.819  1.00  0.00     0.123 A 
ATOM      9  C   UNL     1      14.976  22.705  42.535  1.00  0.00     0.094 A 
ATOM     10  C   UNL     1      15.778  22.998  41.430  1.00  0.00     0.146 A 
ATOM     11  O   UNL     1      16.847  22.243  41.202  1.00  0.00    -0.451 OA
ENDROOT
BRANCH   1  12
ATOM     12  C   UNL     1      18.829  21.530  40.033  1.00  0.00     0.063 A 
ATOM     13  C   UNL     1      21.095  21.153  39.237  1.00  0.00     0.047 A 
ATOM     14  C   UNL     1      19.993  21.995  39.402  1.00  0.00     0.020 A 
ATOM     15  C   UNL     1      21.055  19.840  39.714  1.00  0.00     0.119 A 
ATOM     16  C   UNL     1      19.907  19.373  40.366  1.00  0.00     0.093 A 
ATOM     17  C   UNL     1      18.797  20.214  40.540  1.00  0.00     0.130 A 
BRANCH  15  18
ATOM     18  O   UNL     1      22.160  19.011  39.539  1.00  0.00    -0.508 OA
ATOM     19  H   UNL     1      22.967  19.070  40.149  1.00  0.00     0.293 HD
ENDBRANCH  15  18
BRANCH  17  20
ATOM     20  O   UNL     1      17.679  19.752  41.235  1.00  0.00    -0.507 OA
ATOM     21  H   UNL     1      17.464  18.764  41.301  1.00  0.00     0.293 HD
ENDBRANCH  17  20
ENDBRANCH   1  12
BRANCH   2  22
ATOM     22  O   UNL     1      18.418  23.813  38.327  1.00  0.00    -0.502 OA
ATOM     23  H   UNL     1      18.355  24.635  37.739  1.00  0.00     0.293 HD
ENDBRANCH   2  22
BRANCH   6  24
ATOM     24  O   UNL     1      13.787  25.847  40.008  1.00  0.00    -0.507 OA
ATOM     25  H   UNL     1      12.992  26.431  40.218  1.00  0.00     0.293 HD
ENDBRANCH   6  24
BRANCH   8  26
ATOM     26  O   UNL     1      13.079  23.180  43.939  1.00  0.00    -0.508 OA
ATOM     27  H   UNL     1      12.787  23.902  44.588  1.00  0.00     0.293 HD
ENDBRANCH   8  26
TORSDOF 6
ENDMDL
MODEL 2
REMARK VINA RESULT:    -7.447      1.563      6.556
REMARK INTER + INTRA:          -8.647
REMARK INTER:                  -8.780
REMARK INTRA:                   0.133
REMARK UNBOUND:                 0.324
REMARK SMILES O=c1c(O)c(-c2ccc(O)cc2O)oc2cc(O)cc(O)c12
REMARK SMILES IDX 5 1 3 2 2 3 1 4 22 5 20 6 19 7 17 8 16 9 15 10 14 11 6 12
REMARK SMILES IDX 8 13 7 14 9 15 11 16 12 17 10 18 13 20 4 22 21 24 18 26
REMARK H PARENT 10 19 13 21 4 23 21 25 18 27
REMARK Flexibility Score: inf
ROOT
ATOM      1  C   UNL     1      14.888  23.528  41.802  1.00  0.00     0.184 A 
ATOM      2  C   UNL     1      14.970  24.507  40.801  1.00  0.00     0.208 A 
ATOM      3  C   UNL     1      15.954  24.382  39.807  1.00  0.00     0.238 A 
ATOM      4  O   UNL     1      15.988  25.233  38.881  1.00  0.00    -0.285 OA
ATOM      5  C   UNL     1      16.853  23.288  39.840  1.00  0.00     0.111 A 
ATOM      6  C   UNL     1      17.915  23.083  38.908  1.00  0.00     0.134 A 
ATOM      7  C   UNL     1      18.660  21.899  38.960  1.00  0.00     0.093 A 
ATOM      8  C   UNL     1      18.425  20.942  39.951  1.00  0.00     0.123 A 
ATOM      9  C   UNL     1      17.430  21.162  40.901  1.00  0.00     0.094 A 
ATOM     10  C   UNL     1      16.645  22.316  40.853  1.00  0.00     0.146 A 
ATOM     11  O   UNL     1      15.700  22.480  41.772  1.00  0.00    -0.451 OA
ENDROOT
BRANCH   1  12
ATOM     12  C   UNL     1      13.886  23.608  42.886  1.00  0.00     0.063 A 
ATOM     13  C   UNL     1      11.662  24.267  43.615  1.00  0.00     0.047 A 
ATOM     14  C   UNL     1      12.633  24.180  42.615  1.00  0.00     0.020 A 
ATOM     15  C   UNL     1      11.924  23.771  44.895  1.00  0.00     0.119 A 
ATOM     16  C   UNL     1      13.163  23.177  45.170  1.00  0.00     0.093 A 
ATOM     17  C   UNL     1      14.142  23.080  44.170  1.00  0.00     0.130 A 
BRANCH  15  18
ATOM     18  O   UNL     1      10.947  23.868  45.883  1.00  0.00    -0.508 OA
ATOM     19  H   UNL     1      11.046  24.507  46.664  1.00  0.00     0.293 HD
ENDBRANCH  15  18
BRANCH  17  20
ATOM     20  O   UNL     1      15.352  22.443  44.442  1.00  0.00    -0.507 OA
ATOM     21  H   UNL     1      15.913  22.688  45.250  1.00  0.00     0.293 HD
ENDBRANCH  17  20
ENDBRANCH   1  12
BRANCH   2  22
ATOM     22  O   UNL     1      14.058  25.566  40.781  1.00  0.00    -0.502 OA
ATOM     23  H   UNL     1      14.329  26.511  40.539  1.00  0.00     0.293 HD
ENDBRANCH   2  22
BRANCH   6  24
ATOM     24  O   UNL     1      18.292  24.016  37.938  1.00  0.00    -0.507 OA
ATOM     25  H   UNL     1      18.093  25.004  37.983  1.00  0.00     0.293 HD
ENDBRANCH   6  24
BRANCH   8  26
ATOM     26  O   UNL     1      19.182  19.774  40.005  1.00  0.00    -0.508 OA
ATOM     27  H   UNL     1      20.092  19.712  39.564  1.00  0.00     0.293 HD
ENDBRANCH   8  26
TORSDOF 6
ENDMDL
MODEL 3
REMARK VINA RESULT:    -7.166      1.731      2.404
REMARK INTER + INTRA:          -8.309
REMARK INTER:                  -8.053
REMARK INTRA:                  -0.256
REMARK UNBOUND:                 0.324
REMARK SMILES O=c1c(O)c(-c2ccc(O)cc2O)oc2cc(O)cc(O)c12
REMARK SMILES IDX 5 1 3 2 2 3 1 4 22 5 20 6 19 7 17 8 16 9 15 10 14 11 6 12
REMARK SMILES IDX 8 13 7 14 9 15 11 16 12 17 10 18 13 20 4 22 21 24 18 26
REMARK H PARENT 10 19 13 21 4 23 21 25 18 27
REMARK Flexibility Score: inf
ROOT
ATOM      1  C   UNL     1      16.122  23.132  40.590  1.00  0.00     0.184 A 
ATOM      2  C   UNL     1      15.440  24.294  40.200  1.00  0.00     0.208 A 
ATOM      3  C   UNL     1      14.396  24.773  41.006  1.00  0.00     0.238 A 
ATOM      4  O   UNL     1      13.824  25.846  40.680  1.00  0.00    -0.285 OA
ATOM      5  C   UNL     1      14.037  24.072  42.184  1.00  0.00     0.111 A 
ATOM      6  C   UNL     1      12.969  24.443  43.054  1.00  0.00     0.134 A 
ATOM      7  C   UNL     1      12.787  23.751  44.258  1.00  0.00     0.093 A 
ATOM      8  C   UNL     1      13.594  22.660  44.591  1.00  0.00     0.123 A 
ATOM      9  C   UNL     1      14.600  22.253  43.719  1.00  0.00     0.094 A 
ATOM     10  C   UNL     1      14.831  22.946  42.528  1.00  0.00     0.146 A 
ATOM     11  O   UNL     1      15.808  22.532  41.730  1.00  0.00    -0.451 OA
ENDROOT
BRANCH   1  12
ATOM     12  C   UNL     1      17.219  22.565  39.778  1.00  0.00     0.063 A 
ATOM     13  C   UNL     1      19.377  22.871  38.700  1.00  0.00     0.047 A 
ATOM     14  C   UNL     1      18.321  23.375  39.461  1.00  0.00     0.020 A 
ATOM     15  C   UNL     1      19.355  21.545  38.257  1.00  0.00     0.119 A 
ATOM     16  C   UNL     1      18.271  20.721  38.586  1.00  0.00     0.093 A 
ATOM     17  C   UNL     1      17.208  21.219  39.356  1.00  0.00     0.130 A 
BRANCH  15  18
ATOM     18  O   UNL     1      20.414  21.057  37.496  1.00  0.00    -0.508 OA
ATOM     19  H   UNL     1      20.432  20.098  37.168  1.00  0.00     0.293 HD
ENDBRANCH  15  18
BRANCH  17  20
ATOM     20  O   UNL     1      16.160  20.375  39.719  1.00  0.00    -0.507 OA
ATOM     21  H   UNL     1      15.891  20.246  40.688  1.00  0.00     0.293 HD
ENDBRANCH  17  20
ENDBRANCH   1  12
BRANCH   2  22
ATOM     22  O   UNL     1      15.828  24.977  39.043  1.00  0.00    -0.502 OA
ATOM     23  H   UNL     1      16.711  24.802  38.580  1.00  0.00     0.293 HD
ENDBRANCH   2  22
BRANCH   6  24
ATOM     24  O   UNL     1      12.050  25.458  42.772  1.00  0.00    -0.507 OA
ATOM     25  H   UNL     1      11.698  25.675  41.853  1.00  0.00     0.293 HD
ENDBRANCH   6  24
BRANCH   8  26
ATOM     26  O   UNL     1      13.396  21.967  45.783  1.00  0.00    -0.508 OA
ATOM     27  H   UNL     1      12.650  21.288  45.884  1.00  0.00     0.293 HD
ENDBRANCH   8  26
TORSDOF 6
ENDMDL
MODEL 4
REMARK VINA RESULT:    -7.099      1.171      6.340
REMARK INTER + INTRA:          -8.228
REMARK INTER:                  -8.579
REMARK INTRA:                   0.350
REMARK UNBOUND:                 0.324
REMARK SMILES O=c1c(O)c(-c2ccc(O)cc2O)oc2cc(O)cc(O)c12
REMARK SMILES IDX 5 1 3 2 2 3 1 4 22 5 20 6 19 7 17 8 16 9 15 10 14 11 6 12
REMARK SMILES IDX 8 13 7 14 9 15 11 16 12 17 10 18 13 20 4 22 21 24 18 26
REMARK H PARENT 10 19 13 21 4 23 21 25 18 27
REMARK Flexibility Score: inf
ROOT
ATOM      1  C   UNL     1      16.350  23.174  40.658  1.00  0.00     0.184 A 
ATOM      2  C   UNL     1      16.818  24.004  39.629  1.00  0.00     0.208 A 
ATOM      3  C   UNL     1      17.972  23.628  38.923  1.00  0.00     0.238 A 
ATOM      4  O   UNL     1      18.356  24.349  37.966  1.00  0.00    -0.285 OA
ATOM      5  C   UNL     1      18.650  22.433  39.268  1.00  0.00     0.111 A 
ATOM      6  C   UNL     1      19.850  21.975  38.646  1.00  0.00     0.134 A 
ATOM      7  C   UNL     1      20.362  20.715  38.979  1.00  0.00     0.093 A 
ATOM      8  C   UNL     1      19.753  19.925  39.958  1.00  0.00     0.123 A 
ATOM      9  C   UNL     1      18.615  20.391  40.612  1.00  0.00     0.094 A 
ATOM     10  C   UNL     1      18.059  21.627  40.276  1.00  0.00     0.146 A 
ATOM     11  O   UNL     1      16.967  22.028  40.917  1.00  0.00    -0.451 OA
ENDROOT
BRANCH   1  12
ATOM     12  C   UNL     1      15.152  23.519  41.452  1.00  0.00     0.063 A 
ATOM     13  C   UNL     1      13.042  24.717  41.614  1.00  0.00     0.047 A 
ATOM     14  C   UNL     1      14.189  24.374  40.893  1.00  0.00     0.020 A 
ATOM     15  C   UNL     1      12.836  24.200  42.896  1.00  0.00     0.119 A 
ATOM     16  C   UNL     1      13.780  23.328  43.454  1.00  0.00     0.093 A 
ATOM     17  C   UNL     1      14.931  22.974  42.734  1.00  0.00     0.130 A 
BRANCH  15  18
ATOM     18  O   UNL     1      11.690  24.555  43.604  1.00  0.00    -0.508 OA
ATOM     19  H   UNL     1      10.797  24.673  43.140  1.00  0.00     0.293 HD
ENDBRANCH  15  18
BRANCH  17  20
ATOM     20  O   UNL     1      15.839  22.066  43.280  1.00  0.00    -0.507 OA
ATOM     21  H   UNL     1      15.738  21.066  43.144  1.00  0.00     0.293 HD
ENDBRANCH  17  20
ENDBRANCH   1  12
BRANCH   2  22
ATOM     22  O   UNL     1      16.118  25.168  39.297  1.00  0.00    -0.502 OA
ATOM     23  H   UNL     1      16.146  25.571  38.369  1.00  0.00     0.293 HD
ENDBRANCH   2  22
BRANCH   6  24
ATOM     24  O   UNL     1      20.587  22.724  37.724  1.00  0.00    -0.507 OA
ATOM     25  H   UNL     1      21.592  22.716  37.649  1.00  0.00     0.293 HD
ENDBRANCH   6  24
BRANCH   8  26
ATOM     26  O   UNL     1      20.278  18.680  40.295  1.00  0.00    -0.508 OA
ATOM     27  H   UNL     1      20.369  18.386  41.261  1.00  0.00     0.293 HD
ENDBRANCH   8  26
TORSDOF 6
ENDMDL
MODEL 5
REMARK VINA RESULT:    -7.091      2.099      6.705
REMARK INTER + INTRA:          -8.219
REMARK INTER:                  -8.169
REMARK INTRA:                  -0.050
REMARK UNBOUND:                 0.324
REMARK SMILES O=c1c(O)c(-c2ccc(O)cc2O)oc2cc(O)cc(O)c12
REMARK SMILES IDX 5 1 3 2 2 3 1 4 22 5 20 6 19 7 17 8 16 9 15 10 14 11 6 12
REMARK SMILES IDX 8 13 7 14 9 15 11 16 12 17 10 18 13 20 4 22 21 24 18 26
REMARK H PARENT 10 19 13 21 4 23 21 25 18 27
REMARK Flexibility Score: inf
ROOT
ATOM      1  C   UNL     1      14.140  23.503  42.487  1.00  0.00     0.184 A 
ATOM      2  C   UNL     1      13.887  24.637  41.702  1.00  0.00     0.208 A 
ATOM      3  C   UNL     1      14.683  24.873  40.570  1.00  0.00     0.238 A 
ATOM      4  O   UNL     1      14.416  25.862  39.839  1.00  0.00    -0.285 OA
ATOM      5  C   UNL     1      15.733  23.977  40.249  1.00  0.00     0.111 A 
ATOM      6  C   UNL     1      16.627  24.139  39.149  1.00  0.00     0.134 A 
ATOM      7  C   UNL     1      17.545  23.125  38.850  1.00  0.00     0.093 A 
ATOM      8  C   UNL     1      17.645  21.984  39.652  1.00  0.00     0.123 A 
ATOM      9  C   UNL     1      16.816  21.846  40.763  1.00  0.00     0.094 A 
ATOM     10  C   UNL     1      15.865  22.823  41.065  1.00  0.00     0.146 A 
ATOM     11  O   UNL     1      15.087  22.646  42.127  1.00  0.00    -0.451 OA
ENDROOT
BRANCH   1  12
ATOM     12  C   UNL     1      13.351  23.205  43.701  1.00  0.00     0.063 A 
ATOM     13  C   UNL     1      11.180  23.092  44.791  1.00  0.00     0.047 A 
ATOM     14  C   UNL     1      11.957  23.369  43.664  1.00  0.00     0.020 A 
ATOM     15  C   UNL     1      11.783  22.635  45.966  1.00  0.00     0.119 A 
ATOM     16  C   UNL     1      13.171  22.446  46.007  1.00  0.00     0.093 A 
ATOM     17  C   UNL     1      13.958  22.716  44.877  1.00  0.00     0.130 A 
BRANCH  15  18
ATOM     18  O   UNL     1      10.997  22.367  47.083  1.00  0.00    -0.508 OA
ATOM     19  H   UNL     1      10.447  21.518  47.152  1.00  0.00     0.293 HD
ENDBRANCH  15  18
BRANCH  17  20
ATOM     20  O   UNL     1      15.331  22.477  44.914  1.00  0.00    -0.507 OA
ATOM     21  H   UNL     1      15.970  22.942  44.279  1.00  0.00     0.293 HD
ENDBRANCH  17  20
ENDBRANCH   1  12
BRANCH   2  22
ATOM     22  O   UNL     1      12.832  25.494  42.031  1.00  0.00    -0.502 OA
ATOM     23  H   UNL     1      12.854  26.093  42.847  1.00  0.00     0.293 HD
ENDBRANCH   2  22
BRANCH   6  24
ATOM     24  O   UNL     1      16.673  25.280  38.342  1.00  0.00    -0.507 OA
ATOM     25  H   UNL     1      16.512  26.220  38.666  1.00  0.00     0.293 HD
ENDBRANCH   6  24
BRANCH   8  26
ATOM     26  O   UNL     1      18.571  20.987  39.358  1.00  0.00    -0.508 OA
ATOM     27  H   UNL     1      18.515  20.447  38.502  1.00  0.00     0.293 HD
ENDBRANCH   8  26
TORSDOF 6
ENDMDL
MODEL 6
REMARK VINA RESULT:    -6.419      1.465      6.897
REMARK INTER + INTRA:          -7.409
REMARK INTER:                  -7.090
REMARK INTRA:                  -0.319
REMARK UNBOUND:                 0.324
REMARK SMILES O=c1c(O)c(-c2ccc(O)cc2O)oc2cc(O)cc(O)c12
REMARK SMILES IDX 5 1 3 2 2 3 1 4 22 5 20 6 19 7 17 8 16 9 15 10 14 11 6 12
REMARK SMILES IDX 8 13 7 14 9 15 11 16 12 17 10 18 13 20 4 22 21 24 18 26
REMARK H PARENT 10 19 13 21 4 23 21 25 18 27
REMARK Flexibility Score: inf
ROOT
ATOM      1  C   UNL     1      17.034  22.231  40.918  1.00  0.00     0.184 A 
ATOM      2  C   UNL     1      17.184  20.846  40.754  1.00  0.00     0.208 A 
ATOM      3  C   UNL     1      18.388  20.348  40.231  1.00  0.00     0.238 A 
ATOM      4  O   UNL     1      18.537  19.102  40.137  1.00  0.00    -0.285 OA
ATOM      5  C   UNL     1      19.420  21.247  39.865  1.00  0.00     0.111 A 
ATOM      6  C   UNL     1      20.666  20.857  39.288  1.00  0.00     0.134 A 
ATOM      7  C   UNL     1      21.664  21.819  39.086  1.00  0.00     0.093 A 
ATOM      8  C   UNL     1      21.436  23.166  39.378  1.00  0.00     0.123 A 
ATOM      9  C   UNL     1      20.202  23.564  39.885  1.00  0.00     0.094 A 
ATOM     10  C   UNL     1      19.199  22.623  40.133  1.00  0.00     0.146 A 
ATOM     11  O   UNL     1      18.041  23.044  40.628  1.00  0.00    -0.451 OA
ENDROOT
BRANCH   1  12
ATOM     12  C   UNL     1      15.786  22.820  41.447  1.00  0.00     0.063 A 
ATOM     13  C   UNL     1      14.192  23.016  43.272  1.00  0.00     0.047 A 
ATOM     14  C   UNL     1      15.363  22.473  42.740  1.00  0.00     0.020 A 
ATOM     15  C   UNL     1      13.434  23.923  42.526  1.00  0.00     0.119 A 
ATOM     16  C   UNL     1      13.860  24.295  41.244  1.00  0.00     0.093 A 
ATOM     17  C   UNL     1      15.039  23.759  40.704  1.00  0.00     0.130 A 
BRANCH  15  18
ATOM     18  O   UNL     1      12.266  24.453  43.069  1.00  0.00    -0.508 OA
ATOM     19  H   UNL     1      11.824  25.275  42.673  1.00  0.00     0.293 HD
ENDBRANCH  15  18
BRANCH  17  20
ATOM     20  O   UNL     1      15.478  24.174  39.447  1.00  0.00    -0.507 OA
ATOM     21  H   UNL     1      16.362  24.656  39.325  1.00  0.00     0.293 HD
ENDBRANCH  17  20
ENDBRANCH   1  12
BRANCH   2  22
ATOM     22  O   UNL     1      16.156  19.981  41.142  1.00  0.00    -0.502 OA
ATOM     23  H   UNL     1      15.860  19.888  42.106  1.00  0.00     0.293 HD
ENDBRANCH   2  22
BRANCH   6  24
ATOM     24  O   UNL     1      20.961  19.555  38.875  1.00  0.00    -0.507 OA
ATOM     25  H   UNL     1      21.817  19.065  39.086  1.00  0.00     0.293 HD
ENDBRANCH   6  24
BRANCH   8  26
ATOM     26  O   UNL     1      22.428  24.119  39.159  1.00  0.00    -0.508 OA
ATOM     27  H   UNL     1      22.328  24.835  38.448  1.00  0.00     0.293 HD
ENDBRANCH   8  26
TORSDOF 6
ENDMDL
MODEL 7
REMARK VINA RESULT:    -5.895     14.838     18.159
REMARK INTER + INTRA:          -6.777
REMARK INTER:                  -6.360
REMARK INTRA:                  -0.417
REMARK UNBOUND:                 0.324
REMARK SMILES O=c1c(O)c(-c2ccc(O)cc2O)oc2cc(O)cc(O)c12
REMARK SMILES IDX 5 1 3 2 2 3 1 4 22 5 20 6 19 7 17 8 16 9 15 10 14 11 6 12
REMARK SMILES IDX 8 13 7 14 9 15 11 16 12 17 10 18 13 20 4 22 21 24 18 26
REMARK H PARENT 10 19 13 21 4 23 21 25 18 27
REMARK Flexibility Score: inf
ROOT
ATOM      1  C   UNL     1      29.825  11.795  37.650  1.00  0.00     0.184 A 
ATOM      2  C   UNL     1      30.287  12.253  38.892  1.00  0.00     0.208 A 
ATOM      3  C   UNL     1      30.647  11.315  39.873  1.00  0.00     0.238 A 
ATOM      4  O   UNL     1      31.112  11.732  40.965  1.00  0.00    -0.285 OA
ATOM      5  C   UNL     1      30.522   9.931  39.602  1.00  0.00     0.111 A 
ATOM      6  C   UNL     1      30.819   8.892  40.535  1.00  0.00     0.134 A 
ATOM      7  C   UNL     1      30.783   7.557  40.116  1.00  0.00     0.093 A 
ATOM      8  C   UNL     1      30.397   7.219  38.816  1.00  0.00     0.123 A 
ATOM      9  C   UNL     1      30.049   8.223  37.916  1.00  0.00     0.094 A 
ATOM     10  C   UNL     1      30.110   9.567  38.293  1.00  0.00     0.146 A 
ATOM     11  O   UNL     1      29.780  10.493  37.400  1.00  0.00    -0.451 OA
ENDROOT
BRANCH   1  12
ATOM     12  C   UNL     1      29.414  12.729  36.580  1.00  0.00     0.063 A 
ATOM     13  C   UNL     1      29.993  13.970  34.572  1.00  0.00     0.047 A 
ATOM     14  C   UNL     1      30.349  13.094  35.599  1.00  0.00     0.020 A 
ATOM     15  C   UNL     1      28.695  14.483  34.502  1.00  0.00     0.119 A 
ATOM     16  C   UNL     1      27.747  14.107  35.463  1.00  0.00     0.093 A 
ATOM     17  C   UNL     1      28.095  13.222  36.495  1.00  0.00     0.130 A 
BRANCH  15  18
ATOM     18  O   UNL     1      28.356  15.359  33.474  1.00  0.00    -0.508 OA
ATOM     19  H   UNL     1      27.981  15.023  32.594  1.00  0.00     0.293 HD
ENDBRANCH  15  18
BRANCH  17  20
ATOM     20  O   UNL     1      27.130  12.816  37.416  1.00  0.00    -0.507 OA
ATOM     21  H   UNL     1      27.383  12.362  38.287  1.00  0.00     0.293 HD
ENDBRANCH  17  20
ENDBRANCH   1  12
BRANCH   2  22
ATOM     22  O   UNL     1      30.419  13.625  39.126  1.00  0.00    -0.502 OA
ATOM     23  H   UNL     1      29.907  14.102  39.858  1.00  0.00     0.293 HD
ENDBRANCH   2  22
BRANCH   6  24
ATOM     24  O   UNL     1      31.125   9.117  41.880  1.00  0.00    -0.507 OA
ATOM     25  H   UNL     1      31.309   8.392  42.557  1.00  0.00     0.293 HD
ENDBRANCH   6  24
BRANCH   8  26
ATOM     26  O   UNL     1      30.349   5.887  38.412  1.00  0.00    -0.508 OA
ATOM     27  H   UNL     1      31.140   5.440  37.963  1.00  0.00     0.293 HD
ENDBRANCH   8  26
TORSDOF 6
ENDMDL
MODEL 8
REMARK VINA RESULT:    -5.780     14.884     17.970
REMARK INTER + INTRA:          -6.639
REMARK INTER:                  -6.219
REMARK INTRA:                  -0.420
REMARK UNBOUND:                 0.324
REMARK SMILES O=c1c(O)c(-c2ccc(O)cc2O)oc2cc(O)cc(O)c12
REMARK SMILES IDX 5 1 3 2 2 3 1 4 22 5 20 6 19 7 17 8 16 9 15 10 14 11 6 12
REMARK SMILES IDX 8 13 7 14 9 15 11 16 12 17 10 18 13 20 4 22 21 24 18 26
REMARK H PARENT 10 19 13 21 4 23 21 25 18 27
REMARK Flexibility Score: inf
ROOT
ATOM      1  C   UNL     1      29.746  11.560  37.359  1.00  0.00     0.184 A 
ATOM      2  C   UNL     1      29.764  10.192  37.048  1.00  0.00     0.208 A 
ATOM      3  C   UNL     1      30.114   9.271  38.049  1.00  0.00     0.238 A 
ATOM      4  O   UNL     1      30.076   8.043  37.779  1.00  0.00    -0.285 OA
ATOM      5  C   UNL     1      30.458   9.735  39.342  1.00  0.00     0.111 A 
ATOM      6  C   UNL     1      30.867   8.896  40.421  1.00  0.00     0.134 A 
ATOM      7  C   UNL     1      31.058   9.449  41.693  1.00  0.00     0.093 A 
ATOM      8  C   UNL     1      30.918  10.823  41.909  1.00  0.00     0.123 A 
ATOM      9  C   UNL     1      30.576  11.658  40.849  1.00  0.00     0.094 A 
ATOM     10  C   UNL     1      30.343  11.131  39.576  1.00  0.00     0.146 A 
ATOM     11  O   UNL     1      30.008  11.961  38.596  1.00  0.00    -0.451 OA
ENDROOT
BRANCH   1  12
ATOM     12  C   UNL     1      29.402  12.582  36.348  1.00  0.00     0.063 A 
ATOM     13  C   UNL     1      30.023  13.816  34.347  1.00  0.00     0.047 A 
ATOM     14  C   UNL     1      30.318  12.860  35.322  1.00  0.00     0.020 A 
ATOM     15  C   UNL     1      28.803  14.497  34.377  1.00  0.00     0.119 A 
ATOM     16  C   UNL     1      27.872  14.211  35.383  1.00  0.00     0.093 A 
ATOM     17  C   UNL     1      28.158  13.248  36.362  1.00  0.00     0.130 A 
BRANCH  15  18
ATOM     18  O   UNL     1      28.525  15.451  33.401  1.00  0.00    -0.508 OA
ATOM     19  H   UNL     1      29.239  15.776  32.759  1.00  0.00     0.293 HD
ENDBRANCH  15  18
BRANCH  17  20
ATOM     20  O   UNL     1      27.203  12.936  37.330  1.00  0.00    -0.507 OA
ATOM     21  H   UNL     1      27.216  13.366  38.248  1.00  0.00     0.293 HD
ENDBRANCH  17  20
ENDBRANCH   1  12
BRANCH   2  22
ATOM     22  O   UNL     1      29.401   9.761  35.769  1.00  0.00    -0.502 OA
ATOM     23  H   UNL     1      28.613   9.147  35.607  1.00  0.00     0.293 HD
ENDBRANCH   2  22
BRANCH   6  24
ATOM     24  O   UNL     1      31.125   7.528  40.291  1.00  0.00    -0.507 OA
ATOM     25  H   UNL     1      31.324   7.061  39.419  1.00  0.00     0.293 HD
ENDBRANCH   6  24
BRANCH   8  26
ATOM     26  O   UNL     1      31.125  11.368  43.174  1.00  0.00    -0.508 OA
ATOM     27  H   UNL     1      31.066  12.367  43.337  1.00  0.00     0.293 HD
ENDBRANCH   8  26
TORSDOF 6
ENDMDL
