MODEL 1
REMARK VINA RESULT:    -3.591      0.000      0.000
REMARK INTER + INTRA:          -6.172
REMARK INTER:                  -5.165
REMARK INTRA:                  -1.007
REMARK UNBOUND:                -1.007
REMARK SMILES O=C(CO)[C@H](O)[C@@H](O)[C@@H](O)CO
REMARK SMILES IDX 7 1 9 2 11 3 12 4 10 6 5 8 2 9 1 10 3 11 4 12 6 14 8 16
REMARK H PARENT 12 5 10 7 4 13 6 15 8 17
REMARK Flexibility Score: inf
ROOT
ATOM      1  C   UNL     1      -8.390  -0.996   8.573  1.00  0.00     0.181 C 
ENDROOT
BRANCH   1   2
ATOM      2  C   UNL     1      -8.261   0.323   7.755  1.00  0.00     0.171 C 
BRANCH   2   3
ATOM      3  C   UNL     1      -8.917   0.200   6.366  1.00  0.00     0.190 C 
BRANCH   3   4
ATOM      4  O   UNL     1      -8.852   1.423   5.685  1.00  0.00    -0.394 OA
ATOM      5  H   UNL     1      -9.587   1.420   5.018  1.00  0.00     0.210 HD
ENDBRANCH   3   4
ENDBRANCH   2   3
BRANCH   2   6
ATOM      6  O   UNL     1      -6.915   0.706   7.617  1.00  0.00    -0.388 OA
ATOM      7  H   UNL     1      -6.360   0.013   8.063  1.00  0.00     0.211 HD
ENDBRANCH   2   6
ENDBRANCH   1   2
BRANCH   1   8
ATOM      8  C   UNL     1      -7.722  -0.904   9.973  1.00  0.00     0.214 C 
BRANCH   8   9
ATOM      9  C   UNL     1      -8.245   0.277  10.768  1.00  0.00     0.189 C 
ATOM     10  O   UNL     1      -9.437   0.325  11.033  1.00  0.00    -0.294 OA
BRANCH   9  11
ATOM     11  C   UNL     1      -7.368   1.412  11.245  1.00  0.00     0.234 C 
BRANCH  11  12
ATOM     12  O   UNL     1      -6.588   1.958  10.216  1.00  0.00    -0.388 OA
ATOM     13  H   UNL     1      -7.172   2.595   9.725  1.00  0.00     0.211 HD
ENDBRANCH  11  12
ENDBRANCH   9  11
ENDBRANCH   8   9
BRANCH   8  14
ATOM     14  O   UNL     1      -6.333  -0.741   9.827  1.00  0.00    -0.382 OA
ATOM     15  H   UNL     1      -6.010  -0.229  10.615  1.00  0.00     0.211 HD
ENDBRANCH   8  14
ENDBRANCH   1   8
BRANCH   1  16
ATOM     16  O   UNL     1      -9.745  -1.349   8.715  1.00  0.00    -0.387 OA
ATOM     17  H   UNL     1      -9.904  -1.539   9.677  1.00  0.00     0.211 HD
ENDBRANCH   1  16
TORSDOF 10
ENDMDL
MODEL 2
REMARK VINA RESULT:    -3.549     13.514     15.130
REMARK INTER + INTRA:          -6.113
REMARK INTER:                  -4.881
REMARK INTRA:                  -1.232
REMARK UNBOUND:                -1.007
REMARK SMILES O=C(CO)[C@H](O)[C@@H](O)[C@@H](O)CO
REMARK SMILES IDX 7 1 9 2 11 3 12 4 10 6 5 8 2 9 1 10 3 11 4 12 6 14 8 16
REMARK H PARENT 12 5 10 7 4 13 6 15 8 17
REMARK Flexibility Score: inf
ROOT
ATOM      1  C   UNL     1      -7.457  -7.776  -2.683  1.00  0.00     0.181 C 
ENDROOT
BRANCH   1   2
ATOM      2  C   UNL     1      -6.456  -8.295  -3.757  1.00  0.00     0.171 C 
BRANCH   2   3
ATOM      3  C   UNL     1      -7.027  -9.495  -4.538  1.00  0.00     0.190 C 
BRANCH   3   4
ATOM      4  O   UNL     1      -7.655  -9.059  -5.713  1.00  0.00    -0.394 OA
ATOM      5  H   UNL     1      -8.588  -9.399  -5.683  1.00  0.00     0.210 HD
ENDBRANCH   3   4
ENDBRANCH   2   3
BRANCH   2   6
ATOM      6  O   UNL     1      -5.223  -8.644  -3.177  1.00  0.00    -0.388 OA
ATOM      7  H   UNL     1      -4.756  -7.801  -2.937  1.00  0.00     0.211 HD
ENDBRANCH   2   6
ENDBRANCH   1   2
BRANCH   1   8
ATOM      8  C   UNL     1      -7.869  -6.295  -2.910  1.00  0.00     0.214 C 
BRANCH   8   9
ATOM      9  C   UNL     1      -9.355  -6.160  -3.178  1.00  0.00     0.189 C 
ATOM     10  O   UNL     1     -10.124  -6.144  -2.229  1.00  0.00    -0.294 OA
BRANCH   9  11
ATOM     11  C   UNL     1      -9.944  -6.054  -4.566  1.00  0.00     0.234 C 
BRANCH  11  12
ATOM     12  O   UNL     1      -9.580  -7.131  -5.388  1.00  0.00    -0.388 OA
ATOM     13  H   UNL     1      -8.616  -7.016  -5.597  1.00  0.00     0.211 HD
ENDBRANCH  11  12
ENDBRANCH   9  11
ENDBRANCH   8   9
BRANCH   8  14
ATOM     14  O   UNL     1      -7.184  -5.777  -4.023  1.00  0.00    -0.382 OA
ATOM     15  H   UNL     1      -7.200  -6.472  -4.732  1.00  0.00     0.211 HD
ENDBRANCH   8  14
ENDBRANCH   1   8
BRANCH   1  16
ATOM     16  O   UNL     1      -8.605  -8.590  -2.656  1.00  0.00    -0.387 OA
ATOM     17  H   UNL     1      -8.301  -9.535  -2.690  1.00  0.00     0.211 HD
ENDBRANCH   1  16
TORSDOF 10
ENDMDL
MODEL 3
REMARK VINA RESULT:    -3.548      1.385      4.362
REMARK INTER + INTRA:          -6.110
REMARK INTER:                  -5.036
REMARK INTRA:                  -1.074
REMARK UNBOUND:                -1.007
REMARK SMILES O=C(CO)[C@H](O)[C@@H](O)[C@@H](O)CO
REMARK SMILES IDX 7 1 9 2 11 3 12 4 10 6 5 8 2 9 1 10 3 11 4 12 6 14 8 16
REMARK H PARENT 12 5 10 7 4 13 6 15 8 17
REMARK Flexibility Score: inf
ROOT
ATOM      1  C   UNL     1      -7.711   0.163   9.158  1.00  0.00     0.181 C 
ENDROOT
BRANCH   1   2
ATOM      2  C   UNL     1      -8.785   0.124  10.285  1.00  0.00     0.171 C 
BRANCH   2   3
ATOM      3  C   UNL     1      -8.267   0.760  11.590  1.00  0.00     0.190 C 
BRANCH   3   4
ATOM      4  O   UNL     1      -7.743   2.035  11.338  1.00  0.00    -0.394 OA
ATOM      5  H   UNL     1      -8.056   2.624  12.074  1.00  0.00     0.210 HD
ENDBRANCH   3   4
ENDBRANCH   2   3
BRANCH   2   6
ATOM      6  O   UNL     1      -9.217  -1.191  10.530  1.00  0.00    -0.388 OA
ATOM      7  H   UNL     1      -9.828  -1.449   9.790  1.00  0.00     0.211 HD
ENDBRANCH   2   6
ENDBRANCH   1   2
BRANCH   1   8
ATOM      8  C   UNL     1      -8.046  -0.786   7.974  1.00  0.00     0.214 C 
BRANCH   8   9
ATOM      9  C   UNL     1      -7.434  -0.300   6.674  1.00  0.00     0.189 C 
ATOM     10  O   UNL     1      -6.216  -0.261   6.577  1.00  0.00    -0.294 OA
BRANCH   9  11
ATOM     11  C   UNL     1      -8.253   0.152   5.487  1.00  0.00     0.234 C 
BRANCH  11  12
ATOM     12  O   UNL     1      -8.914   1.367   5.722  1.00  0.00    -0.388 OA
ATOM     13  H   UNL     1      -9.806   1.293   5.291  1.00  0.00     0.211 HD
ENDBRANCH  11  12
ENDBRANCH   9  11
ENDBRANCH   8   9
BRANCH   8  14
ATOM     14  O   UNL     1      -9.439  -0.849   7.795  1.00  0.00    -0.382 OA
ATOM     15  H   UNL     1      -9.781  -1.573   8.382  1.00  0.00     0.211 HD
ENDBRANCH   8  14
ENDBRANCH   1   8
BRANCH   1  16
ATOM     16  O   UNL     1      -7.553   1.478   8.683  1.00  0.00    -0.387 OA
ATOM     17  H   UNL     1      -6.615   1.750   8.865  1.00  0.00     0.211 HD
ENDBRANCH   1  16
TORSDOF 10
ENDMDL
MODEL 4
REMARK VINA RESULT:    -3.531     13.572     15.483
REMARK INTER + INTRA:          -6.087
REMARK INTER:                  -4.629
REMARK INTRA:                  -1.457
REMARK UNBOUND:                -1.007
REMARK SMILES O=C(CO)[C@H](O)[C@@H](O)[C@@H](O)CO
REMARK SMILES IDX 7 1 9 2 11 3 12 4 10 6 5 8 2 9 1 10 3 11 4 12 6 14 8 16
REMARK H PARENT 12 5 10 7 4 13 6 15 8 17
REMARK Flexibility Score: inf
ROOT
ATOM      1  C   UNL     1      -6.283  -8.753  -3.802  1.00  0.00     0.181 C 
ENDROOT
BRANCH   1   2
ATOM      2  C   UNL     1      -5.574  -8.332  -2.481  1.00  0.00     0.171 C 
BRANCH   2   3
ATOM      3  C   UNL     1      -5.319  -6.813  -2.428  1.00  0.00     0.190 C 
BRANCH   3   4
ATOM      4  O   UNL     1      -6.533  -6.116  -2.345  1.00  0.00    -0.394 OA
ATOM      5  H   UNL     1      -6.441  -5.310  -2.917  1.00  0.00     0.210 HD
ENDBRANCH   3   4
ENDBRANCH   2   3
BRANCH   2   6
ATOM      6  O   UNL     1      -4.365  -9.028  -2.309  1.00  0.00    -0.388 OA
ATOM      7  H   UNL     1      -3.980  -8.750  -1.436  1.00  0.00     0.211 HD
ENDBRANCH   2   6
ENDBRANCH   1   2
BRANCH   1   8
ATOM      8  C   UNL     1      -7.775  -9.132  -3.591  1.00  0.00     0.214 C 
BRANCH   8   9
ATOM      9  C   UNL     1      -8.653  -8.596  -4.705  1.00  0.00     0.189 C 
ATOM     10  O   UNL     1      -8.690  -9.201  -5.767  1.00  0.00    -0.294 OA
BRANCH   9  11
ATOM     11  C   UNL     1      -9.484  -7.340  -4.578  1.00  0.00     0.234 C 
BRANCH  11  12
ATOM     12  O   UNL     1      -8.704  -6.204  -4.315  1.00  0.00    -0.388 OA
ATOM     13  H   UNL     1      -9.314  -5.422  -4.365  1.00  0.00     0.211 HD
ENDBRANCH  11  12
ENDBRANCH   9  11
ENDBRANCH   8   9
BRANCH   8  14
ATOM     14  O   UNL     1      -8.237  -8.586  -2.381  1.00  0.00    -0.382 OA
ATOM     15  H   UNL     1      -9.177  -8.299  -2.525  1.00  0.00     0.211 HD
ENDBRANCH   8  14
ENDBRANCH   1   8
BRANCH   1  16
ATOM     16  O   UNL     1      -6.184  -7.721  -4.755  1.00  0.00    -0.387 OA
ATOM     17  H   UNL     1      -5.718  -6.959  -4.322  1.00  0.00     0.211 HD
ENDBRANCH   1  16
TORSDOF 10
ENDMDL
MODEL 5
REMARK VINA RESULT:    -3.514     12.602     14.796
REMARK INTER + INTRA:          -6.062
REMARK INTER:                  -4.666
REMARK INTRA:                  -1.396
REMARK UNBOUND:                -1.007
REMARK SMILES O=C(CO)[C@H](O)[C@@H](O)[C@@H](O)CO
REMARK SMILES IDX 7 1 9 2 11 3 12 4 10 6 5 8 2 9 1 10 3 11 4 12 6 14 8 16
REMARK H PARENT 12 5 10 7 4 13 6 15 8 17
REMARK Flexibility Score: inf
ROOT
ATOM      1  C   UNL     1      -7.540  -6.467  -2.560  1.00  0.00     0.181 C 
ENDROOT
BRANCH   1   2
ATOM      2  C   UNL     1      -8.995  -6.162  -2.096  1.00  0.00     0.171 C 
BRANCH   2   3
ATOM      3  C   UNL     1      -9.979  -6.133  -3.283  1.00  0.00     0.190 C 
BRANCH   3   4
ATOM      4  O   UNL     1     -10.124  -7.416  -3.828  1.00  0.00    -0.394 OA
ATOM      5  H   UNL     1     -10.765  -7.337  -4.582  1.00  0.00     0.210 HD
ENDBRANCH   3   4
ENDBRANCH   2   3
BRANCH   2   6
ATOM      6  O   UNL     1      -9.059  -4.947  -1.390  1.00  0.00    -0.388 OA
ATOM      7  H   UNL     1      -9.616  -5.100  -0.582  1.00  0.00     0.211 HD
ENDBRANCH   2   6
ENDBRANCH   1   2
BRANCH   1   8
ATOM      8  C   UNL     1      -7.116  -7.936  -2.286  1.00  0.00     0.214 C 
BRANCH   8   9
ATOM      9  C   UNL     1      -6.383  -8.539  -3.469  1.00  0.00     0.189 C 
ATOM     10  O   UNL     1      -5.204  -8.264  -3.632  1.00  0.00    -0.294 OA
BRANCH   9  11
ATOM     11  C   UNL     1      -7.039  -9.460  -4.473  1.00  0.00     0.234 C 
BRANCH  11  12
ATOM     12  O   UNL     1      -7.996  -8.803  -5.259  1.00  0.00    -0.388 OA
ATOM     13  H   UNL     1      -8.878  -9.192  -5.017  1.00  0.00     0.211 HD
ENDBRANCH  11  12
ENDBRANCH   9  11
ENDBRANCH   8   9
BRANCH   8  14
ATOM     14  O   UNL     1      -8.256  -8.722  -2.043  1.00  0.00    -0.382 OA
ATOM     15  H   UNL     1      -8.746  -8.808  -2.903  1.00  0.00     0.211 HD
ENDBRANCH   8  14
ENDBRANCH   1   8
BRANCH   1  16
ATOM     16  O   UNL     1      -7.396  -6.178  -3.930  1.00  0.00    -0.387 OA
ATOM     17  H   UNL     1      -7.587  -7.013  -4.432  1.00  0.00     0.211 HD
ENDBRANCH   1  16
TORSDOF 10
ENDMDL
MODEL 6
REMARK VINA RESULT:    -3.473      1.696      4.374
REMARK INTER + INTRA:          -6.003
REMARK INTER:                  -5.316
REMARK INTRA:                  -0.688
REMARK UNBOUND:                -1.007
REMARK SMILES O=C(CO)[C@H](O)[C@@H](O)[C@@H](O)CO
REMARK SMILES IDX 7 1 9 2 11 3 12 4 10 6 5 8 2 9 1 10 3 11 4 12 6 14 8 16
REMARK H PARENT 12 5 10 7 4 13 6 15 8 17
REMARK Flexibility Score: inf
ROOT
ATOM      1  C   UNL     1      -7.185   0.199   7.626  1.00  0.00     0.181 C 
ENDROOT
BRANCH   1   2
ATOM      2  C   UNL     1      -6.190   0.020   8.811  1.00  0.00     0.171 C 
BRANCH   2   3
ATOM      3  C   UNL     1      -6.824   0.425  10.156  1.00  0.00     0.190 C 
BRANCH   3   4
ATOM      4  O   UNL     1      -6.877   1.821  10.270  1.00  0.00    -0.394 OA
ATOM      5  H   UNL     1      -7.530   2.026  10.988  1.00  0.00     0.210 HD
ENDBRANCH   3   4
ENDBRANCH   2   3
BRANCH   2   6
ATOM      6  O   UNL     1      -5.009   0.752   8.597  1.00  0.00    -0.388 OA
ATOM      7  H   UNL     1      -4.614   0.440   7.741  1.00  0.00     0.211 HD
ENDBRANCH   2   6
ENDBRANCH   1   2
BRANCH   1   8
ATOM      8  C   UNL     1      -8.216  -0.959   7.525  1.00  0.00     0.214 C 
BRANCH   8   9
ATOM      9  C   UNL     1      -8.431  -1.397   6.089  1.00  0.00     0.189 C 
ATOM     10  O   UNL     1      -8.513  -2.592   5.845  1.00  0.00    -0.294 OA
BRANCH   9  11
ATOM     11  C   UNL     1      -8.538  -0.430   4.932  1.00  0.00     0.234 C 
BRANCH  11  12
ATOM     12  O   UNL     1      -9.397   0.643   5.207  1.00  0.00    -0.388 OA
ATOM     13  H   UNL     1      -9.397   1.221   4.398  1.00  0.00     0.211 HD
ENDBRANCH  11  12
ENDBRANCH   9  11
ENDBRANCH   8   9
BRANCH   8  14
ATOM     14  O   UNL     1      -9.456  -0.537   8.034  1.00  0.00    -0.382 OA
ATOM     15  H   UNL     1      -9.960  -1.350   8.301  1.00  0.00     0.211 HD
ENDBRANCH   8  14
ENDBRANCH   1   8
BRANCH   1  16
ATOM     16  O   UNL     1      -7.861   1.428   7.742  1.00  0.00    -0.387 OA
ATOM     17  H   UNL     1      -8.382   1.404   8.587  1.00  0.00     0.211 HD
ENDBRANCH   1  16
TORSDOF 10
ENDMDL
MODEL 7
REMARK VINA RESULT:    -3.458      1.148      3.956
REMARK INTER + INTRA:          -5.981
REMARK INTER:                  -4.780
REMARK INTRA:                  -1.201
REMARK UNBOUND:                -1.007
REMARK SMILES O=C(CO)[C@H](O)[C@@H](O)[C@@H](O)CO
REMARK SMILES IDX 7 1 9 2 11 3 12 4 10 6 5 8 2 9 1 10 3 11 4 12 6 14 8 16
REMARK H PARENT 12 5 10 7 4 13 6 15 8 17
REMARK Flexibility Score: inf
ROOT
ATOM      1  C   UNL     1      -8.017  -1.016  10.360  1.00  0.00     0.181 C 
ENDROOT
BRANCH   1   2
ATOM      2  C   UNL     1      -9.012   0.083  10.836  1.00  0.00     0.171 C 
BRANCH   2   3
ATOM      3  C   UNL     1      -8.331   1.106  11.766  1.00  0.00     0.190 C 
BRANCH   3   4
ATOM      4  O   UNL     1      -7.567   2.014  11.017  1.00  0.00    -0.394 OA
ATOM      5  H   UNL     1      -8.097   2.850  10.953  1.00  0.00     0.210 HD
ENDBRANCH   3   4
ENDBRANCH   2   3
BRANCH   2   6
ATOM      6  O   UNL     1     -10.125  -0.485  11.481  1.00  0.00    -0.388 OA
ATOM      7  H   UNL     1      -9.961  -0.436  12.459  1.00  0.00     0.211 HD
ENDBRANCH   2   6
ENDBRANCH   1   2
BRANCH   1   8
ATOM      8  C   UNL     1      -8.399  -1.618   8.979  1.00  0.00     0.214 C 
BRANCH   8   9
ATOM      9  C   UNL     1      -7.645  -0.949   7.846  1.00  0.00     0.189 C 
ATOM     10  O   UNL     1      -6.626  -1.478   7.427  1.00  0.00    -0.294 OA
BRANCH   9  11
ATOM     11  C   UNL     1      -8.080   0.351   7.210  1.00  0.00     0.234 C 
BRANCH  11  12
ATOM     12  O   UNL     1      -7.744   1.468   7.988  1.00  0.00    -0.388 OA
ATOM     13  H   UNL     1      -8.148   2.258   7.540  1.00  0.00     0.211 HD
ENDBRANCH  11  12
ENDBRANCH   9  11
ENDBRANCH   8   9
BRANCH   8  14
ATOM     14  O   UNL     1      -9.773  -1.435   8.746  1.00  0.00    -0.382 OA
ATOM     15  H   UNL     1     -10.232  -1.476   9.626  1.00  0.00     0.211 HD
ENDBRANCH   8  14
ENDBRANCH   1   8
BRANCH   1  16
ATOM     16  O   UNL     1      -6.709  -0.497  10.306  1.00  0.00    -0.387 OA
ATOM     17  H   UNL     1      -6.231  -0.969   9.575  1.00  0.00     0.211 HD
ENDBRANCH   1  16
TORSDOF 10
ENDMDL
MODEL 8
REMARK VINA RESULT:    -3.446      1.576      2.422
REMARK INTER + INTRA:          -5.964
REMARK INTER:                  -5.151
REMARK INTRA:                  -0.813
REMARK UNBOUND:                -1.007
REMARK SMILES O=C(CO)[C@H](O)[C@@H](O)[C@@H](O)CO
REMARK SMILES IDX 7 1 9 2 11 3 12 4 10 6 5 8 2 9 1 10 3 11 4 12 6 14 8 16
REMARK H PARENT 12 5 10 7 4 13 6 15 8 17
REMARK Flexibility Score: inf
ROOT
ATOM      1  C   UNL     1      -8.270  -0.712   7.014  1.00  0.00     0.181 C 
ENDROOT
BRANCH   1   2
ATOM      2  C   UNL     1      -8.608  -0.366   5.533  1.00  0.00     0.171 C 
BRANCH   2   3
ATOM      3  C   UNL     1      -7.336  -0.235   4.672  1.00  0.00     0.190 C 
BRANCH   3   4
ATOM      4  O   UNL     1      -7.326   0.995   3.999  1.00  0.00    -0.394 OA
ATOM      5  H   UNL     1      -7.253   0.791   3.030  1.00  0.00     0.210 HD
ENDBRANCH   3   4
ENDBRANCH   2   3
BRANCH   2   6
ATOM      6  O   UNL     1      -9.367   0.814   5.448  1.00  0.00    -0.388 OA
ATOM      7  H   UNL     1      -8.753   1.578   5.606  1.00  0.00     0.211 HD
ENDBRANCH   2   6
ENDBRANCH   1   2
BRANCH   1   8
ATOM      8  C   UNL     1      -7.249   0.275   7.645  1.00  0.00     0.214 C 
BRANCH   8   9
ATOM      9  C   UNL     1      -6.794  -0.188   9.016  1.00  0.00     0.189 C 
ATOM     10  O   UNL     1      -6.994  -1.349   9.340  1.00  0.00    -0.294 OA
BRANCH   9  11
ATOM     11  C   UNL     1      -6.111   0.718  10.015  1.00  0.00     0.234 C 
BRANCH  11  12
ATOM     12  O   UNL     1      -6.896   1.828  10.359  1.00  0.00    -0.388 OA
ATOM     13  H   UNL     1      -6.311   2.626  10.273  1.00  0.00     0.211 HD
ENDBRANCH  11  12
ENDBRANCH   9  11
ENDBRANCH   8   9
BRANCH   8  14
ATOM     14  O   UNL     1      -7.843   1.540   7.796  1.00  0.00    -0.382 OA
ATOM     15  H   UNL     1      -8.822   1.425   7.672  1.00  0.00     0.211 HD
ENDBRANCH   8  14
ENDBRANCH   1   8
BRANCH   1  16
ATOM     16  O   UNL     1      -9.446  -0.739   7.786  1.00  0.00    -0.387 OA
ATOM     17  H   UNL     1      -9.553  -1.663   8.134  1.00  0.00     0.211 HD
ENDBRANCH   1  16
TORSDOF 10
ENDMDL
MODEL 9
REMARK VINA RESULT:    -3.406      1.494      3.121
REMARK INTER + INTRA:          -5.906
REMARK INTER:                  -4.731
REMARK INTRA:                  -1.175
REMARK UNBOUND:                -1.007
REMARK SMILES O=C(CO)[C@H](O)[C@@H](O)[C@@H](O)CO
REMARK SMILES IDX 7 1 9 2 11 3 12 4 10 6 5 8 2 9 1 10 3 11 4 12 6 14 8 16
REMARK H PARENT 12 5 10 7 4 13 6 15 8 17
REMARK Flexibility Score: inf
ROOT
ATOM      1  C   UNL     1      -8.424   0.726   9.768  1.00  0.00     0.181 C 
ENDROOT
BRANCH   1   2
ATOM      2  C   UNL     1      -8.476  -0.413   8.707  1.00  0.00     0.171 C 
BRANCH   2   3
ATOM      3  C   UNL     1      -8.222   0.120   7.283  1.00  0.00     0.190 C 
BRANCH   3   4
ATOM      4  O   UNL     1      -8.202   1.522   7.282  1.00  0.00    -0.394 OA
ATOM      5  H   UNL     1      -9.006   1.820   7.783  1.00  0.00     0.210 HD
ENDBRANCH   3   4
ENDBRANCH   2   3
BRANCH   2   6
ATOM      6  O   UNL     1      -9.707  -1.093   8.752  1.00  0.00    -0.388 OA
ATOM      7  H   UNL     1     -10.339  -0.533   9.274  1.00  0.00     0.211 HD
ENDBRANCH   2   6
ENDBRANCH   1   2
BRANCH   1   8
ATOM      8  C   UNL     1      -8.773   0.232  11.199  1.00  0.00     0.214 C 
BRANCH   8   9
ATOM      9  C   UNL     1      -7.937  -0.968  11.599  1.00  0.00     0.189 C 
ATOM     10  O   UNL     1      -6.719  -0.878  11.551  1.00  0.00    -0.294 OA
BRANCH   9  11
ATOM     11  C   UNL     1      -8.532  -2.284  12.046  1.00  0.00     0.234 C 
BRANCH  11  12
ATOM     12  O   UNL     1      -9.367  -2.854  11.074  1.00  0.00    -0.388 OA
ATOM     13  H   UNL     1      -9.963  -3.490  11.550  1.00  0.00     0.211 HD
ENDBRANCH  11  12
ENDBRANCH   9  11
ENDBRANCH   8   9
BRANCH   8  14
ATOM     14  O   UNL     1     -10.125  -0.149  11.253  1.00  0.00    -0.382 OA
ATOM     15  H   UNL     1     -10.603   0.352  10.542  1.00  0.00     0.211 HD
ENDBRANCH   8  14
ENDBRANCH   1   8
BRANCH   1  16
ATOM     16  O   UNL     1      -7.152   1.329   9.770  1.00  0.00    -0.387 OA
ATOM     17  H   UNL     1      -6.812   1.312   8.836  1.00  0.00     0.211 HD
ENDBRANCH   1  16
TORSDOF 10
ENDMDL
