MODEL 1
REMARK VINA RESULT:    -6.024      0.000      0.000
REMARK INTER + INTRA:         -12.087
REMARK INTER:                 -10.601
REMARK INTRA:                  -1.486
REMARK UNBOUND:                -1.486
REMARK SMILES CCCCCCCCCCCCCCC(=O)[O-]
REMARK SMILES IDX 9 1 10 2 11 3 12 4 13 5 14 6 15 7 16 8 17 9 8 10 7 11 6 12
REMARK SMILES IDX 5 13 4 14 3 15 2 16 1 17
REMARK H PARENT
REMARK Flexibility Score: inf
ROOT
ATOM      1  C   UNL     1     -20.507  38.383   5.845  1.00  0.00     0.000 C 
ENDROOT
BRANCH   1   2
ATOM      2  C   UNL     1     -21.466  39.402   6.481  1.00  0.00     0.000 C 
BRANCH   2   3
ATOM      3  C   UNL     1     -22.176  40.282   5.436  1.00  0.00     0.000 C 
BRANCH   3   4
ATOM      4  C   UNL     1     -21.485  40.244   4.065  1.00  0.00     0.000 C 
BRANCH   4   5
ATOM      5  C   UNL     1     -20.913  41.612   3.655  1.00  0.00     0.006 C 
BRANCH   5   6
ATOM      6  C   UNL     1     -19.623  41.952   4.415  1.00  0.00     0.053 C 
BRANCH   6   7
ATOM      7  C   UNL     1     -19.174  43.355   4.144  1.00  0.00     0.041 C 
ATOM      8  O   UNL     1     -19.240  43.829   2.979  1.00  0.00    -0.550 OA
ATOM      9  O   UNL     1     -18.651  44.129   5.171  1.00  0.00    -0.550 OA
ENDBRANCH   6   7
ENDBRANCH   5   6
ENDBRANCH   4   5
ENDBRANCH   3   4
ENDBRANCH   2   3
ENDBRANCH   1   2
BRANCH   1  10
ATOM     10  C   UNL     1     -21.192  37.041   5.537  1.00  0.00     0.000 C 
BRANCH  10  11
ATOM     11  C   UNL     1     -20.575  35.870   6.319  1.00  0.00    -0.000 C 
BRANCH  11  12
ATOM     12  C   UNL     1     -19.537  36.329   7.355  1.00  0.00    -0.000 C 
BRANCH  12  13
ATOM     13  C   UNL     1     -20.049  36.103   8.783  1.00  0.00    -0.000 C 
BRANCH  13  14
ATOM     14  C   UNL     1     -21.573  35.908   8.795  1.00  0.00    -0.000 C 
BRANCH  14  15
ATOM     15  C   UNL     1     -22.320  37.114   9.387  1.00  0.00    -0.000 C 
BRANCH  15  16
ATOM     16  C   UNL     1     -23.657  37.386   8.680  1.00  0.00    -0.003 C 
ATOM     17  C   UNL     1     -23.890  36.393   7.546  1.00  0.00     0.004 C 
ENDBRANCH  15  16
ENDBRANCH  14  15
ENDBRANCH  13  14
ENDBRANCH  12  13
ENDBRANCH  11  12
ENDBRANCH  10  11
ENDBRANCH   1  10
TORSDOF 13
ENDMDL
MODEL 2
REMARK VINA RESULT:    -5.988      0.929      2.488
REMARK INTER + INTRA:         -12.025
REMARK INTER:                 -10.708
REMARK INTRA:                  -1.317
REMARK UNBOUND:                -1.486
REMARK SMILES CCCCCCCCCCCCCCC(=O)[O-]
REMARK SMILES IDX 9 1 10 2 11 3 12 4 13 5 14 6 15 7 16 8 17 9 8 10 7 11 6 12
REMARK SMILES IDX 5 13 4 14 3 15 2 16 1 17
REMARK H PARENT
REMARK Flexibility Score: inf
ROOT
ATOM      1  C   UNL     1     -22.563  38.060   5.714  1.00  0.00     0.000 C 
ENDROOT
BRANCH   1   2
ATOM      2  C   UNL     1     -21.357  38.230   4.776  1.00  0.00     0.000 C 
BRANCH   2   3
ATOM      3  C   UNL     1     -20.379  39.317   5.257  1.00  0.00     0.000 C 
BRANCH   3   4
ATOM      4  C   UNL     1     -20.974  40.730   5.160  1.00  0.00     0.000 C 
BRANCH   4   5
ATOM      5  C   UNL     1     -20.365  41.550   4.009  1.00  0.00     0.006 C 
BRANCH   5   6
ATOM      6  C   UNL     1     -19.003  42.150   4.384  1.00  0.00     0.053 C 
BRANCH   6   7
ATOM      7  C   UNL     1     -18.991  43.639   4.220  1.00  0.00     0.041 C 
ATOM      8  O   UNL     1     -19.392  44.162   3.147  1.00  0.00    -0.550 OA
ATOM      9  O   UNL     1     -18.504  44.448   5.238  1.00  0.00    -0.550 OA
ENDBRANCH   6   7
ENDBRANCH   5   6
ENDBRANCH   4   5
ENDBRANCH   3   4
ENDBRANCH   2   3
ENDBRANCH   1   2
BRANCH   1  10
ATOM     10  C   UNL     1     -22.952  36.585   5.912  1.00  0.00     0.000 C 
BRANCH  10  11
ATOM     11  C   UNL     1     -23.562  36.317   7.298  1.00  0.00    -0.000 C 
BRANCH  11  12
ATOM     12  C   UNL     1     -23.545  37.556   8.205  1.00  0.00    -0.000 C 
BRANCH  12  13
ATOM     13  C   UNL     1     -22.531  37.389   9.344  1.00  0.00    -0.000 C 
BRANCH  13  14
ATOM     14  C   UNL     1     -21.810  36.037   9.244  1.00  0.00    -0.000 C 
BRANCH  14  15
ATOM     15  C   UNL     1     -20.302  36.187   8.991  1.00  0.00    -0.000 C 
BRANCH  15  16
ATOM     16  C   UNL     1     -19.901  35.799   7.559  1.00  0.00    -0.003 C 
ATOM     17  C   UNL     1     -18.801  36.714   7.031  1.00  0.00     0.004 C 
ENDBRANCH  15  16
ENDBRANCH  14  15
ENDBRANCH  13  14
ENDBRANCH  12  13
ENDBRANCH  11  12
ENDBRANCH  10  11
ENDBRANCH   1  10
TORSDOF 13
ENDMDL
MODEL 3
REMARK VINA RESULT:    -5.940      2.966      6.698
REMARK INTER + INTRA:         -11.941
REMARK INTER:                 -10.822
REMARK INTRA:                  -1.118
REMARK UNBOUND:                -1.486
REMARK SMILES CCCCCCCCCCCCCCC(=O)[O-]
REMARK SMILES IDX 9 1 10 2 11 3 12 4 13 5 14 6 15 7 16 8 17 9 8 10 7 11 6 12
REMARK SMILES IDX 5 13 4 14 3 15 2 16 1 17
REMARK H PARENT
REMARK Flexibility Score: inf
ROOT
ATOM      1  C   UNL     1     -23.272  36.710   6.033  1.00  0.00     0.000 C 
ENDROOT
BRANCH   1   2
ATOM      2  C   UNL     1     -23.513  36.457   7.530  1.00  0.00     0.000 C 
BRANCH   2   3
ATOM      3  C   UNL     1     -23.069  37.638   8.412  1.00  0.00     0.000 C 
BRANCH   3   4
ATOM      4  C   UNL     1     -22.096  37.212   9.522  1.00  0.00     0.000 C 
BRANCH   4   5
ATOM      5  C   UNL     1     -21.341  35.916   9.180  1.00  0.00     0.006 C 
BRANCH   5   6
ATOM      6  C   UNL     1     -19.884  36.183   8.780  1.00  0.00     0.053 C 
BRANCH   6   7
ATOM      7  C   UNL     1     -19.698  36.128   7.294  1.00  0.00     0.041 C 
ATOM      8  O   UNL     1     -20.368  35.318   6.601  1.00  0.00    -0.550 OA
ATOM      9  O   UNL     1     -18.761  36.949   6.680  1.00  0.00    -0.550 OA
ENDBRANCH   6   7
ENDBRANCH   5   6
ENDBRANCH   4   5
ENDBRANCH   3   4
ENDBRANCH   2   3
ENDBRANCH   1   2
BRANCH   1  10
ATOM     10  C   UNL     1     -22.658  38.093   5.761  1.00  0.00     0.000 C 
BRANCH  10  11
ATOM     11  C   UNL     1     -21.458  38.028   4.802  1.00  0.00    -0.000 C 
BRANCH  11  12
ATOM     12  C   UNL     1     -20.657  39.339   4.763  1.00  0.00    -0.000 C 
BRANCH  12  13
ATOM     13  C   UNL     1     -21.576  40.535   4.484  1.00  0.00    -0.000 C 
BRANCH  13  14
ATOM     14  C   UNL     1     -20.843  41.615   3.676  1.00  0.00    -0.000 C 
BRANCH  14  15
ATOM     15  C   UNL     1     -19.512  42.035   4.319  1.00  0.00    -0.000 C 
BRANCH  15  16
ATOM     16  C   UNL     1     -19.031  43.413   3.839  1.00  0.00    -0.003 C 
ATOM     17  C   UNL     1     -18.582  44.278   5.013  1.00  0.00     0.004 C 
ENDBRANCH  15  16
ENDBRANCH  14  15
ENDBRANCH  13  14
ENDBRANCH  12  13
ENDBRANCH  11  12
ENDBRANCH  10  11
ENDBRANCH   1  10
TORSDOF 13
ENDMDL
MODEL 4
REMARK VINA RESULT:    -5.905      0.959      2.561
REMARK INTER + INTRA:         -11.878
REMARK INTER:                 -10.272
REMARK INTRA:                  -1.606
REMARK UNBOUND:                -1.486
REMARK SMILES CCCCCCCCCCCCCCC(=O)[O-]
REMARK SMILES IDX 9 1 10 2 11 3 12 4 13 5 14 6 15 7 16 8 17 9 8 10 7 11 6 12
REMARK SMILES IDX 5 13 4 14 3 15 2 16 1 17
REMARK H PARENT
REMARK Flexibility Score: inf
ROOT
ATOM      1  C   UNL     1     -21.993  39.955   6.715  1.00  0.00     0.000 C 
ENDROOT
BRANCH   1   2
ATOM      2  C   UNL     1     -22.365  39.191   5.433  1.00  0.00     0.000 C 
BRANCH   2   3
ATOM      3  C   UNL     1     -21.188  39.077   4.447  1.00  0.00     0.000 C 
BRANCH   3   4
ATOM      4  C   UNL     1     -20.003  39.973   4.837  1.00  0.00     0.000 C 
BRANCH   4   5
ATOM      5  C   UNL     1     -20.094  41.377   4.216  1.00  0.00     0.006 C 
BRANCH   5   6
ATOM      6  C   UNL     1     -18.769  42.145   4.323  1.00  0.00     0.053 C 
BRANCH   6   7
ATOM      7  C   UNL     1     -18.959  43.612   4.088  1.00  0.00     0.041 C 
ATOM      8  O   UNL     1     -18.764  44.434   5.021  1.00  0.00    -0.550 OA
ATOM      9  O   UNL     1     -19.384  44.068   2.848  1.00  0.00    -0.550 OA
ENDBRANCH   6   7
ENDBRANCH   5   6
ENDBRANCH   4   5
ENDBRANCH   3   4
ENDBRANCH   2   3
ENDBRANCH   1   2
BRANCH   1  10
ATOM     10  C   UNL     1     -22.371  39.186   7.991  1.00  0.00     0.000 C 
BRANCH  10  11
ATOM     11  C   UNL     1     -23.305  37.997   7.709  1.00  0.00    -0.000 C 
BRANCH  11  12
ATOM     12  C   UNL     1     -23.449  37.056   8.915  1.00  0.00    -0.000 C 
BRANCH  12  13
ATOM     13  C   UNL     1     -22.108  36.883   9.639  1.00  0.00    -0.000 C 
BRANCH  13  14
ATOM     14  C   UNL     1     -21.310  35.712   9.047  1.00  0.00    -0.000 C 
BRANCH  14  15
ATOM     15  C   UNL     1     -19.970  36.156   8.440  1.00  0.00    -0.000 C 
BRANCH  15  16
ATOM     16  C   UNL     1     -20.056  36.391   6.924  1.00  0.00    -0.003 C 
ATOM     17  C   UNL     1     -21.017  35.403   6.269  1.00  0.00     0.004 C 
ENDBRANCH  15  16
ENDBRANCH  14  15
ENDBRANCH  13  14
ENDBRANCH  12  13
ENDBRANCH  11  12
ENDBRANCH  10  11
ENDBRANCH   1  10
TORSDOF 13
ENDMDL
MODEL 5
REMARK VINA RESULT:    -5.864      3.414      6.919
REMARK INTER + INTRA:         -11.807
REMARK INTER:                 -10.561
REMARK INTRA:                  -1.246
REMARK UNBOUND:                -1.486
REMARK SMILES CCCCCCCCCCCCCCC(=O)[O-]
REMARK SMILES IDX 9 1 10 2 11 3 12 4 13 5 14 6 15 7 16 8 17 9 8 10 7 11 6 12
REMARK SMILES IDX 5 13 4 14 3 15 2 16 1 17
REMARK H PARENT
REMARK Flexibility Score: inf
ROOT
ATOM      1  C   UNL     1     -20.711  36.063   6.150  1.00  0.00     0.000 C 
ENDROOT
BRANCH   1   2
ATOM      2  C   UNL     1     -19.411  36.372   6.909  1.00  0.00     0.000 C 
BRANCH   2   3
ATOM      3  C   UNL     1     -19.612  36.425   8.435  1.00  0.00     0.000 C 
BRANCH   3   4
ATOM      4  C   UNL     1     -20.955  35.822   8.874  1.00  0.00     0.000 C 
BRANCH   4   5
ATOM      5  C   UNL     1     -21.792  36.797   9.721  1.00  0.00     0.006 C 
BRANCH   5   6
ATOM      6  C   UNL     1     -22.579  37.788   8.854  1.00  0.00     0.053 C 
BRANCH   6   7
ATOM      7  C   UNL     1     -23.927  37.250   8.482  1.00  0.00     0.041 C 
ATOM      8  O   UNL     1     -24.053  36.483   7.491  1.00  0.00    -0.550 OA
ATOM      9  O   UNL     1     -25.049  37.621   9.210  1.00  0.00    -0.550 OA
ENDBRANCH   6   7
ENDBRANCH   5   6
ENDBRANCH   4   5
ENDBRANCH   3   4
ENDBRANCH   2   3
ENDBRANCH   1   2
BRANCH   1  10
ATOM     10  C   UNL     1     -21.315  37.310   5.483  1.00  0.00     0.000 C 
BRANCH  10  11
ATOM     11  C   UNL     1     -20.378  38.528   5.549  1.00  0.00    -0.000 C 
BRANCH  11  12
ATOM     12  C   UNL     1     -21.124  39.836   5.849  1.00  0.00    -0.000 C 
BRANCH  12  13
ATOM     13  C   UNL     1     -21.876  40.337   4.610  1.00  0.00    -0.000 C 
BRANCH  13  14
ATOM     14  C   UNL     1     -20.980  41.243   3.752  1.00  0.00    -0.000 C 
BRANCH  14  15
ATOM     15  C   UNL     1     -19.812  41.846   4.549  1.00  0.00    -0.000 C 
BRANCH  15  16
ATOM     16  C   UNL     1     -19.174  43.053   3.843  1.00  0.00    -0.003 C 
ATOM     17  C   UNL     1     -18.683  44.084   4.855  1.00  0.00     0.004 C 
ENDBRANCH  15  16
ENDBRANCH  14  15
ENDBRANCH  13  14
ENDBRANCH  12  13
ENDBRANCH  11  12
ENDBRANCH  10  11
ENDBRANCH   1  10
TORSDOF 13
ENDMDL
MODEL 6
REMARK VINA RESULT:    -5.521     11.867     13.497
REMARK INTER + INTRA:         -11.204
REMARK INTER:                  -9.570
REMARK INTRA:                  -1.634
REMARK UNBOUND:                -1.486
REMARK SMILES CCCCCCCCCCCCCCC(=O)[O-]
REMARK SMILES IDX 9 1 10 2 11 3 12 4 13 5 14 6 15 7 16 8 17 9 8 10 7 11 6 12
REMARK SMILES IDX 5 13 4 14 3 15 2 16 1 17
REMARK H PARENT
REMARK Flexibility Score: inf
ROOT
ATOM      1  C   UNL     1     -20.229  40.753  -5.782  1.00  0.00     0.000 C 
ENDROOT
BRANCH   1   2
ATOM      2  C   UNL     1     -21.679  40.362  -6.112  1.00  0.00     0.000 C 
BRANCH   2   3
ATOM      3  C   UNL     1     -22.172  40.973  -7.436  1.00  0.00     0.000 C 
BRANCH   3   4
ATOM      4  C   UNL     1     -23.247  42.050  -7.225  1.00  0.00     0.000 C 
BRANCH   4   5
ATOM      5  C   UNL     1     -22.654  43.393  -6.763  1.00  0.00     0.006 C 
BRANCH   5   6
ATOM      6  C   UNL     1     -23.596  44.144  -5.812  1.00  0.00     0.053 C 
BRANCH   6   7
ATOM      7  C   UNL     1     -24.462  45.120  -6.548  1.00  0.00     0.041 C 
ATOM      8  O   UNL     1     -25.475  44.719  -7.180  1.00  0.00    -0.550 OA
ATOM      9  O   UNL     1     -24.132  46.469  -6.565  1.00  0.00    -0.550 OA
ENDBRANCH   6   7
ENDBRANCH   5   6
ENDBRANCH   4   5
ENDBRANCH   3   4
ENDBRANCH   2   3
ENDBRANCH   1   2
BRANCH   1  10
ATOM     10  C   UNL     1     -19.319  40.742  -7.021  1.00  0.00     0.000 C 
BRANCH  10  11
ATOM     11  C   UNL     1     -18.273  41.869  -6.995  1.00  0.00    -0.000 C 
BRANCH  11  12
ATOM     12  C   UNL     1     -18.809  43.164  -6.366  1.00  0.00    -0.000 C 
BRANCH  12  13
ATOM     13  C   UNL     1     -17.816  43.730  -5.344  1.00  0.00    -0.000 C 
BRANCH  13  14
ATOM     14  C   UNL     1     -17.759  42.849  -4.087  1.00  0.00    -0.000 C 
BRANCH  14  15
ATOM     15  C   UNL     1     -16.319  42.528  -3.654  1.00  0.00    -0.000 C 
BRANCH  15  16
ATOM     16  C   UNL     1     -15.816  41.191  -4.219  1.00  0.00    -0.003 C 
ATOM     17  C   UNL     1     -16.849  40.086  -4.016  1.00  0.00     0.004 C 
ENDBRANCH  15  16
ENDBRANCH  14  15
ENDBRANCH  13  14
ENDBRANCH  12  13
ENDBRANCH  11  12
ENDBRANCH  10  11
ENDBRANCH   1  10
TORSDOF 13
ENDMDL
MODEL 7
REMARK VINA RESULT:    -5.413     11.785     13.463
REMARK INTER + INTRA:         -11.013
REMARK INTER:                  -9.257
REMARK INTRA:                  -1.756
REMARK UNBOUND:                -1.486
REMARK SMILES CCCCCCCCCCCCCCC(=O)[O-]
REMARK SMILES IDX 9 1 10 2 11 3 12 4 13 5 14 6 15 7 16 8 17 9 8 10 7 11 6 12
REMARK SMILES IDX 5 13 4 14 3 15 2 16 1 17
REMARK H PARENT
REMARK Flexibility Score: inf
ROOT
ATOM      1  C   UNL     1     -17.495  43.669  -5.359  1.00  0.00     0.000 C 
ENDROOT
BRANCH   1   2
ATOM      2  C   UNL     1     -18.679  44.314  -6.099  1.00  0.00     0.000 C 
BRANCH   2   3
ATOM      3  C   UNL     1     -19.145  43.485  -7.309  1.00  0.00     0.000 C 
BRANCH   3   4
ATOM      4  C   UNL     1     -20.676  43.430  -7.431  1.00  0.00     0.000 C 
BRANCH   4   5
ATOM      5  C   UNL     1     -21.357  43.001  -6.120  1.00  0.00     0.006 C 
BRANCH   5   6
ATOM      6  C   UNL     1     -21.201  41.498  -5.851  1.00  0.00     0.053 C 
BRANCH   6   7
ATOM      7  C   UNL     1     -22.415  40.731  -6.276  1.00  0.00     0.041 C 
ATOM      8  O   UNL     1     -22.346  39.488  -6.468  1.00  0.00    -0.550 OA
ATOM      9  O   UNL     1     -23.616  41.394  -6.493  1.00  0.00    -0.550 OA
ENDBRANCH   6   7
ENDBRANCH   5   6
ENDBRANCH   4   5
ENDBRANCH   3   4
ENDBRANCH   2   3
ENDBRANCH   1   2
BRANCH   1  10
ATOM     10  C   UNL     1     -17.922  42.971  -4.058  1.00  0.00     0.000 C 
BRANCH  10  11
ATOM     11  C   UNL     1     -16.726  42.426  -3.260  1.00  0.00    -0.000 C 
BRANCH  11  12
ATOM     12  C   UNL     1     -16.201  41.092  -3.813  1.00  0.00    -0.000 C 
BRANCH  12  13
ATOM     13  C   UNL     1     -17.356  40.200  -4.282  1.00  0.00    -0.000 C 
BRANCH  13  14
ATOM     14  C   UNL     1     -17.081  39.635  -5.683  1.00  0.00    -0.000 C 
BRANCH  14  15
ATOM     15  C   UNL     1     -17.828  40.400  -6.788  1.00  0.00    -0.000 C 
BRANCH  15  16
ATOM     16  C   UNL     1     -18.036  39.557  -8.055  1.00  0.00    -0.003 C 
ATOM     17  C   UNL     1     -19.433  39.766  -8.631  1.00  0.00     0.004 C 
ENDBRANCH  15  16
ENDBRANCH  14  15
ENDBRANCH  13  14
ENDBRANCH  12  13
ENDBRANCH  11  12
ENDBRANCH  10  11
ENDBRANCH   1  10
TORSDOF 13
ENDMDL
MODEL 8
REMARK VINA RESULT:    -5.408     11.661     13.495
REMARK INTER + INTRA:         -11.005
REMARK INTER:                  -9.883
REMARK INTRA:                  -1.122
REMARK UNBOUND:                -1.486
REMARK SMILES CCCCCCCCCCCCCCC(=O)[O-]
REMARK SMILES IDX 9 1 10 2 11 3 12 4 13 5 14 6 15 7 16 8 17 9 8 10 7 11 6 12
REMARK SMILES IDX 5 13 4 14 3 15 2 16 1 17
REMARK H PARENT
REMARK Flexibility Score: inf
ROOT
ATOM      1  C   UNL     1     -21.408  40.643  -5.924  1.00  0.00     0.000 C 
ENDROOT
BRANCH   1   2
ATOM      2  C   UNL     1     -22.821  40.490  -6.510  1.00  0.00     0.000 C 
BRANCH   2   3
ATOM      3  C   UNL     1     -23.477  41.844  -6.836  1.00  0.00     0.000 C 
BRANCH   3   4
ATOM      4  C   UNL     1     -23.223  42.900  -5.751  1.00  0.00     0.000 C 
BRANCH   4   5
ATOM      5  C   UNL     1     -23.584  44.322  -6.214  1.00  0.00     0.006 C 
BRANCH   5   6
ATOM      6  C   UNL     1     -24.975  44.385  -6.859  1.00  0.00     0.053 C 
BRANCH   6   7
ATOM      7  C   UNL     1     -25.612  45.727  -6.671  1.00  0.00     0.041 C 
ATOM      8  O   UNL     1     -25.149  46.537  -5.826  1.00  0.00    -0.550 OA
ATOM      9  O   UNL     1     -26.740  46.071  -7.406  1.00  0.00    -0.550 OA
ENDBRANCH   6   7
ENDBRANCH   5   6
ENDBRANCH   4   5
ENDBRANCH   3   4
ENDBRANCH   2   3
ENDBRANCH   1   2
BRANCH   1  10
ATOM     10  C   UNL     1     -20.335  40.822  -7.010  1.00  0.00     0.000 C 
BRANCH  10  11
ATOM     11  C   UNL     1     -19.322  41.926  -6.664  1.00  0.00    -0.000 C 
BRANCH  11  12
ATOM     12  C   UNL     1     -17.865  41.454  -6.781  1.00  0.00    -0.000 C 
BRANCH  12  13
ATOM     13  C   UNL     1     -17.658  40.126  -6.044  1.00  0.00    -0.000 C 
BRANCH  13  14
ATOM     14  C   UNL     1     -17.420  40.360  -4.545  1.00  0.00    -0.000 C 
BRANCH  14  15
ATOM     15  C   UNL     1     -16.083  41.064  -4.260  1.00  0.00    -0.000 C 
BRANCH  15  16
ATOM     16  C   UNL     1     -16.269  42.478  -3.688  1.00  0.00    -0.003 C 
ATOM     17  C   UNL     1     -17.714  42.710  -3.258  1.00  0.00     0.004 C 
ENDBRANCH  15  16
ENDBRANCH  14  15
ENDBRANCH  13  14
ENDBRANCH  12  13
ENDBRANCH  11  12
ENDBRANCH  10  11
ENDBRANCH   1  10
TORSDOF 13
ENDMDL
MODEL 9
REMARK VINA RESULT:    -5.361     11.420     13.720
REMARK INTER + INTRA:         -10.921
REMARK INTER:                  -9.538
REMARK INTRA:                  -1.383
REMARK UNBOUND:                -1.486
REMARK SMILES CCCCCCCCCCCCCCC(=O)[O-]
REMARK SMILES IDX 9 1 10 2 11 3 12 4 13 5 14 6 15 7 16 8 17 9 8 10 7 11 6 12
REMARK SMILES IDX 5 13 4 14 3 15 2 16 1 17
REMARK H PARENT
REMARK Flexibility Score: inf
ROOT
ATOM      1  C   UNL     1     -18.559  42.242  -7.233  1.00  0.00     0.000 C 
ENDROOT
BRANCH   1   2
ATOM      2  C   UNL     1     -18.271  40.801  -7.686  1.00  0.00     0.000 C 
BRANCH   2   3
ATOM      3  C   UNL     1     -17.596  39.958  -6.589  1.00  0.00     0.000 C 
BRANCH   3   4
ATOM      4  C   UNL     1     -17.991  40.405  -5.174  1.00  0.00     0.000 C 
BRANCH   4   5
ATOM      5  C   UNL     1     -16.914  40.071  -4.127  1.00  0.00     0.006 C 
BRANCH   5   6
ATOM      6  C   UNL     1     -16.057  41.293  -3.768  1.00  0.00     0.053 C 
BRANCH   6   7
ATOM      7  C   UNL     1     -16.870  42.551  -3.742  1.00  0.00     0.041 C 
ATOM      8  O   UNL     1     -16.698  43.436  -4.620  1.00  0.00    -0.550 OA
ATOM      9  O   UNL     1     -17.795  42.761  -2.727  1.00  0.00    -0.550 OA
ENDBRANCH   6   7
ENDBRANCH   5   6
ENDBRANCH   4   5
ENDBRANCH   3   4
ENDBRANCH   2   3
ENDBRANCH   1   2
BRANCH   1  10
ATOM     10  C   UNL     1     -19.337  43.047  -8.288  1.00  0.00     0.000 C 
BRANCH  10  11
ATOM     11  C   UNL     1     -19.713  44.455  -7.798  1.00  0.00    -0.000 C 
BRANCH  11  12
ATOM     12  C   UNL     1     -21.227  44.634  -7.611  1.00  0.00    -0.000 C 
BRANCH  12  13
ATOM     13  C   UNL     1     -21.989  43.390  -8.084  1.00  0.00    -0.000 C 
BRANCH  13  14
ATOM     14  C   UNL     1     -23.339  43.265  -7.362  1.00  0.00    -0.000 C 
BRANCH  14  15
ATOM     15  C   UNL     1     -23.265  42.362  -6.120  1.00  0.00    -0.000 C 
BRANCH  15  16
ATOM     16  C   UNL     1     -22.003  41.486  -6.101  1.00  0.00    -0.003 C 
ATOM     17  C   UNL     1     -22.338  40.034  -6.428  1.00  0.00     0.004 C 
ENDBRANCH  15  16
ENDBRANCH  14  15
ENDBRANCH  13  14
ENDBRANCH  12  13
ENDBRANCH  11  12
ENDBRANCH  10  11
ENDBRANCH   1  10
TORSDOF 13
ENDMDL
