MODEL 1
REMARK VINA RESULT:    -2.526      0.000      0.000
REMARK INTER + INTRA:          -2.526
REMARK INTER:                  -2.526
REMARK INTRA:                   0.000
REMARK UNBOUND:                 0.000
REMARK SMILES CC(=O)[O-]
REMARK SMILES IDX 1 1 2 2 3 3 4 4
REMARK H PARENT
REMARK Flexibility Score: inf
ROOT
ATOM      1  C   UNL     1     197.707 193.571 196.840  1.00  0.00     0.063 C 
ATOM      2  C   UNL     1     197.124 194.082 195.567  1.00  0.00     0.038 C 
ATOM      3  O   UNL     1     196.555 195.205 195.540  1.00  0.00    -0.550 OA
ATOM      4  O   UNL     1     197.157 193.298 194.421  1.00  0.00    -0.550 OA
ENDROOT
TORSDOF 0
ENDMDL
MODEL 2
REMARK VINA RESULT:    -2.427      1.309      1.715
REMARK INTER + INTRA:          -2.427
REMARK INTER:                  -2.427
REMARK INTRA:                   0.000
REMARK UNBOUND:                 0.000
REMARK SMILES CC(=O)[O-]
REMARK SMILES IDX 1 1 2 2 3 3 4 4
REMARK H PARENT
REMARK Flexibility Score: inf
ROOT
ATOM      1  C   UNL     1     196.605 195.681 195.389  1.00  0.00     0.063 C 
ATOM      2  C   UNL     1     197.083 194.278 195.550  1.00  0.00     0.038 C 
ATOM      3  O   UNL     1     197.511 193.882 196.666  1.00  0.00    -0.550 OA
ATOM      4  O   UNL     1     197.109 193.421 194.458  1.00  0.00    -0.550 OA
ENDROOT
TORSDOF 0
ENDMDL
MODEL 3
REMARK VINA RESULT:    -2.354      7.451      8.195
REMARK INTER + INTRA:          -2.354
REMARK INTER:                  -2.354
REMARK INTRA:                   0.000
REMARK UNBOUND:                 0.000
REMARK SMILES CC(=O)[O-]
REMARK SMILES IDX 1 1 2 2 3 3 4 4
REMARK H PARENT
REMARK Flexibility Score: inf
ROOT
ATOM      1  C   UNL     1     192.981 200.531 191.231  1.00  0.00     0.063 C 
ATOM      2  C   UNL     1     193.352 200.192 192.635  1.00  0.00     0.038 C 
ATOM      3  O   UNL     1     193.243 199.007 193.047  1.00  0.00    -0.550 OA
ATOM      4  O   UNL     1     193.767 201.189 193.507  1.00  0.00    -0.550 OA
ENDROOT
TORSDOF 0
ENDMDL
MODEL 4
REMARK VINA RESULT:    -2.302      7.426      7.822
REMARK INTER + INTRA:          -2.302
REMARK INTER:                  -2.302
REMARK INTRA:                   0.000
REMARK UNBOUND:                 0.000
REMARK SMILES CC(=O)[O-]
REMARK SMILES IDX 1 1 2 2 3 3 4 4
REMARK H PARENT
REMARK Flexibility Score: inf
ROOT
ATOM      1  C   UNL     1     193.599 199.565 195.699  1.00  0.00     0.063 C 
ATOM      2  C   UNL     1     193.922 200.991 195.407  1.00  0.00     0.038 C 
ATOM      3  O   UNL     1     193.895 201.414 194.221  1.00  0.00    -0.550 OA
ATOM      4  O   UNL     1     194.305 201.843 196.434  1.00  0.00    -0.550 OA
ENDROOT
TORSDOF 0
ENDMDL
MODEL 5
REMARK VINA RESULT:    -2.284      9.144      9.625
REMARK INTER + INTRA:          -2.284
REMARK INTER:                  -2.284
REMARK INTRA:                   0.000
REMARK UNBOUND:                 0.000
REMARK SMILES CC(=O)[O-]
REMARK SMILES IDX 1 1 2 2 3 3 4 4
REMARK H PARENT
REMARK Flexibility Score: inf
ROOT
ATOM      1  C   UNL     1     192.808 203.002 198.591  1.00  0.00     0.063 C 
ATOM      2  C   UNL     1     192.385 201.944 197.629  1.00  0.00     0.038 C 
ATOM      3  O   UNL     1     193.096 201.687 196.622  1.00  0.00    -0.550 OA
ATOM      4  O   UNL     1     191.182 201.277 197.811  1.00  0.00    -0.550 OA
ENDROOT
TORSDOF 0
ENDMDL
MODEL 6
REMARK VINA RESULT:    -2.249      2.199      2.828
REMARK INTER + INTRA:          -2.249
REMARK INTER:                  -2.249
REMARK INTRA:                   0.000
REMARK UNBOUND:                 0.000
REMARK SMILES CC(=O)[O-]
REMARK SMILES IDX 1 1 2 2 3 3 4 4
REMARK H PARENT
REMARK Flexibility Score: inf
ROOT
ATOM      1  C   UNL     1     197.136 194.232 195.968  1.00  0.00     0.063 C 
ATOM      2  C   UNL     1     197.951 193.367 196.867  1.00  0.00     0.038 C 
ATOM      3  O   UNL     1     198.807 192.582 196.382  1.00  0.00    -0.550 OA
ATOM      4  O   UNL     1     197.732 193.385 198.239  1.00  0.00    -0.550 OA
ENDROOT
TORSDOF 0
ENDMDL
MODEL 7
REMARK VINA RESULT:    -2.208      9.046      9.483
REMARK INTER + INTRA:          -2.208
REMARK INTER:                  -2.208
REMARK INTRA:                   0.000
REMARK UNBOUND:                 0.000
REMARK SMILES CC(=O)[O-]
REMARK SMILES IDX 1 1 2 2 3 3 4 4
REMARK H PARENT
REMARK Flexibility Score: inf
ROOT
ATOM      1  C   UNL     1     191.197 200.910 197.866  1.00  0.00     0.063 C 
ATOM      2  C   UNL     1     192.286 201.880 197.556  1.00  0.00     0.038 C 
ATOM      3  O   UNL     1     192.368 202.962 198.195  1.00  0.00    -0.550 OA
ATOM      4  O   UNL     1     193.181 201.618 196.528  1.00  0.00    -0.550 OA
ENDROOT
TORSDOF 0
ENDMDL
MODEL 8
REMARK VINA RESULT:    -2.157      7.782      8.214
REMARK INTER + INTRA:          -2.157
REMARK INTER:                  -2.157
REMARK INTRA:                   0.000
REMARK UNBOUND:                 0.000
REMARK SMILES CC(=O)[O-]
REMARK SMILES IDX 1 1 2 2 3 3 4 4
REMARK H PARENT
REMARK Flexibility Score: inf
ROOT
ATOM      1  C   UNL     1     193.128 200.276 190.701  1.00  0.00     0.063 C 
ATOM      2  C   UNL     1     192.715 199.590 191.959  1.00  0.00     0.038 C 
ATOM      3  O   UNL     1     193.395 199.733 193.008  1.00  0.00    -0.550 OA
ATOM      4  O   UNL     1     191.609 198.750 191.963  1.00  0.00    -0.550 OA
ENDROOT
TORSDOF 0
ENDMDL
MODEL 9
REMARK VINA RESULT:    -2.139     12.455     12.669
REMARK INTER + INTRA:          -2.139
REMARK INTER:                  -2.139
REMARK INTRA:                   0.000
REMARK UNBOUND:                 0.000
REMARK SMILES CC(=O)[O-]
REMARK SMILES IDX 1 1 2 2 3 3 4 4
REMARK H PARENT
REMARK Flexibility Score: inf
ROOT
ATOM      1  C   UNL     1     197.526 196.827 182.875  1.00  0.00     0.063 C 
ATOM      2  C   UNL     1     197.194 195.406 183.183  1.00  0.00     0.038 C 
ATOM      3  O   UNL     1     198.106 194.539 183.224  1.00  0.00    -0.550 OA
ATOM      4  O   UNL     1     195.872 195.025 183.373  1.00  0.00    -0.550 OA
ENDROOT
TORSDOF 0
ENDMDL
