MODEL 1
REMARK VINA RESULT:     0.000      0.000      0.000
REMARK INTER + INTRA:           0.066
REMARK INTER:                   0.000
REMARK INTRA:                   0.066
REMARK UNBOUND:                 0.066
REMARK SMILES CC1=CCC(=C(C)C)C(=O)CC(C)=CCC1
REMARK SMILES IDX 12 1 14 2 13 3 15 4 16 5 2 6 1 7 3 8 11 10 9 11 10 12 5 13
REMARK SMILES IDX 6 14 7 15 8 16 4 17
REMARK H PARENT
REMARK Flexibility Score: 60.00
ROOT
ATOM      1  C   UNL     1     137.831 130.480 128.981  1.00  0.00    -0.070 C 
ATOM      2  C   UNL     1     137.805 129.298 129.641  1.00  0.00    -0.027 C 
ATOM      3  C   UNL     1     137.816 131.745 129.801  1.00  0.00     0.039 C 
ENDROOT
BRANCH   2   4
ATOM      4  C   UNL     1     137.908 127.942 128.991  1.00  0.00     0.032 C 
BRANCH   4   5
ATOM      5  C   UNL     1     136.564 127.199 129.066  1.00  0.00     0.034 C 
BRANCH   5   6
ATOM      6  C   UNL     1     135.825 127.177 127.744  1.00  0.00    -0.077 C 
ATOM      7  C   UNL     1     136.034 126.008 126.814  1.00  0.00     0.039 C 
ATOM      8  C   UNL     1     135.032 128.190 127.317  1.00  0.00    -0.023 CG0
ATOM      9  G   UNL     1     134.602 129.400 128.117  1.00  0.00     0.000 G0
ENDBRANCH   5   6
ENDBRANCH   4   5
ENDBRANCH   2   4
BRANCH   1  10
ATOM     10  C   UNL     1     137.909 130.590 127.465  1.00  0.00     0.111 C 
BRANCH  10  11
ATOM     11  C   UNL     1     136.531 130.677 126.853  1.00  0.00     0.163 C 
ATOM     12  O   UNL     1     136.499 130.722 125.591  1.00  0.00    -0.294 OA
BRANCH  11  13
ATOM     13  C   UNL     1     135.239 130.718 127.642  1.00  0.00    -0.002 C 
ATOM     14  C   UNL     1     134.628 131.907 127.965  1.00  0.00    -0.069 C 
ATOM     15  C   UNL     1     135.243 133.252 127.636  1.00  0.00     0.039 C 
ATOM     16  C   UNL     1     133.316 131.943 128.722  1.00  0.00     0.039 C 
BRANCH  13  17
ATOM     17  C   UNL     1     134.602 129.406 128.102  1.00  0.00     0.066 CG0
ATOM     18  G   UNL     1     135.033 128.187 127.317  1.00  0.00     0.000 G0
ENDBRANCH  13  17
ENDBRANCH  11  13
ENDBRANCH  10  11
ENDBRANCH   1  10
TORSDOF 0
ENDMDL
MODEL 2
REMARK VINA RESULT:     0.000      3.150      3.731
REMARK INTER + INTRA:           0.066
REMARK INTER:                   0.000
REMARK INTRA:                   0.066
REMARK UNBOUND:                 0.066
REMARK SMILES CC1=CCC(=C(C)C)C(=O)CC(C)=CCC1
REMARK SMILES IDX 12 1 14 2 13 3 15 4 16 5 2 6 1 7 3 8 11 10 9 11 10 12 5 13
REMARK SMILES IDX 6 14 7 15 8 16 4 17
REMARK H PARENT
REMARK Flexibility Score: 60.00
ROOT
ATOM      1  C   UNL     1     135.253 129.896 129.874  1.00  0.00    -0.070 C 
ATOM      2  C   UNL     1     135.273 129.428 131.145  1.00  0.00    -0.027 C 
ATOM      3  C   UNL     1     135.499 131.369 129.663  1.00  0.00     0.039 C 
ENDROOT
BRANCH   2   4
ATOM      4  C   UNL     1     135.141 127.977 131.533  1.00  0.00     0.032 C 
BRANCH   4   5
ATOM      5  C   UNL     1     133.789 127.718 132.218  1.00  0.00     0.034 C 
BRANCH   5   6
ATOM      6  C   UNL     1     132.798 127.007 131.320  1.00  0.00    -0.077 C 
ATOM      7  C   UNL     1     132.727 125.502 131.365  1.00  0.00     0.039 C 
ATOM      8  C   UNL     1     132.012 127.650 130.421  1.00  0.00    -0.023 CG0
ATOM      9  G   UNL     1     131.845 129.146 130.275  1.00  0.00     0.000 G0
ENDBRANCH   5   6
ENDBRANCH   4   5
ENDBRANCH   2   4
BRANCH   1  10
ATOM     10  C   UNL     1     135.031 129.008 128.658  1.00  0.00     0.111 C 
BRANCH  10  11
ATOM     11  C   UNL     1     133.567 128.947 128.289  1.00  0.00     0.163 C 
ATOM     12  O   UNL     1     133.283 128.191 127.317  1.00  0.00    -0.294 OA
BRANCH  11  13
ATOM     13  C   UNL     1     132.468 129.719 128.990  1.00  0.00    -0.002 C 
ATOM     14  C   UNL     1     132.026 130.933 128.519  1.00  0.00    -0.069 C 
ATOM     15  C   UNL     1     132.659 131.622 127.328  1.00  0.00     0.039 C 
ATOM     16  C   UNL     1     130.901 131.684 129.201  1.00  0.00     0.039 C 
BRANCH  13  17
ATOM     17  C   UNL     1     131.843 129.142 130.260  1.00  0.00     0.066 CG0
ATOM     18  G   UNL     1     132.014 127.647 130.423  1.00  0.00     0.000 G0
ENDBRANCH  13  17
ENDBRANCH  11  13
ENDBRANCH  10  11
ENDBRANCH   1  10
TORSDOF 0
ENDMDL
MODEL 3
REMARK VINA RESULT:     0.000      2.828      3.353
REMARK INTER + INTRA:           0.066
REMARK INTER:                   0.000
REMARK INTRA:                   0.066
REMARK UNBOUND:                 0.066
REMARK SMILES CC1=CCC(=C(C)C)C(=O)CC(C)=CCC1
REMARK SMILES IDX 12 1 14 2 13 3 15 4 16 5 2 6 1 7 3 8 11 10 9 11 10 12 5 13
REMARK SMILES IDX 6 14 7 15 8 16 4 17
REMARK H PARENT
REMARK Flexibility Score: 60.00
ROOT
ATOM      1  C   UNL     1     136.609 131.670 131.226  1.00  0.00    -0.070 C 
ATOM      2  C   UNL     1     136.751 130.725 132.185  1.00  0.00    -0.027 C 
ATOM      3  C   UNL     1     136.683 133.116 131.646  1.00  0.00     0.039 C 
ENDROOT
BRANCH   2   4
ATOM      4  C   UNL     1     136.797 129.239 131.934  1.00  0.00     0.032 C 
BRANCH   4   5
ATOM      5  C   UNL     1     135.522 128.558 132.458  1.00  0.00     0.034 C 
BRANCH   5   6
ATOM      6  C   UNL     1     134.564 128.168 131.353  1.00  0.00    -0.077 C 
ATOM      7  C   UNL     1     134.656 126.781 130.767  1.00  0.00     0.039 C 
ATOM      8  C   UNL     1     133.663 129.024 130.809  1.00  0.00    -0.023 CG0
ATOM      9  G   UNL     1     133.328 130.415 131.301  1.00  0.00     0.000 G0
ENDBRANCH   5   6
ENDBRANCH   4   5
ENDBRANCH   2   4
BRANCH   1  10
ATOM     10  C   UNL     1     136.414 131.344 129.752  1.00  0.00     0.111 C 
BRANCH  10  11
ATOM     11  C   UNL     1     134.946 131.264 129.401  1.00  0.00     0.163 C 
ATOM     12  O   UNL     1     134.690 130.949 128.205  1.00  0.00    -0.294 OA
BRANCH  11  13
ATOM     13  C   UNL     1     133.813 131.538 130.368  1.00  0.00    -0.002 C 
ATOM     14  C   UNL     1     133.217 132.775 130.449  1.00  0.00    -0.069 C 
ATOM     15  C   UNL     1     133.704 133.965 129.649  1.00  0.00     0.039 C 
ATOM     16  C   UNL     1     132.059 133.035 131.390  1.00  0.00     0.039 C 
BRANCH  13  17
ATOM     17  C   UNL     1     133.326 130.417 131.286  1.00  0.00     0.066 CG0
ATOM     18  G   UNL     1     133.665 129.021 130.810  1.00  0.00     0.000 G0
ENDBRANCH  13  17
ENDBRANCH  11  13
ENDBRANCH  10  11
ENDBRANCH   1  10
TORSDOF 0
ENDMDL
MODEL 4
REMARK VINA RESULT:     0.018     13.861     14.951
REMARK INTER + INTRA:           0.092
REMARK INTER:                   0.000
REMARK INTRA:                   0.092
REMARK UNBOUND:                 0.066
REMARK SMILES CC1=CCC(=C(C)C)C(=O)CC(C)=CCC1
REMARK SMILES IDX 12 1 14 2 13 3 15 4 16 5 2 6 1 7 3 8 11 10 9 11 10 12 5 13
REMARK SMILES IDX 6 14 7 15 8 16 4 17
REMARK H PARENT
REMARK Flexibility Score: 60.00
ROOT
ATOM      1  C   UNL     1     126.419 138.293 134.888  1.00  0.00    -0.070 C 
ATOM      2  C   UNL     1     127.496 137.871 135.592  1.00  0.00    -0.027 C 
ATOM      3  C   UNL     1     126.591 138.517 133.407  1.00  0.00     0.039 C 
ENDROOT
BRANCH   2   4
ATOM      4  C   UNL     1     127.484 137.509 137.056  1.00  0.00     0.032 C 
BRANCH   4   5
ATOM      5  C   UNL     1     127.562 135.984 137.240  1.00  0.00     0.034 C 
BRANCH   5   6
ATOM      6  C   UNL     1     126.236 135.368 137.636  1.00  0.00    -0.077 C 
ATOM      7  C   UNL     1     125.898 135.252 139.101  1.00  0.00     0.039 C 
ATOM      8  C   UNL     1     125.358 134.851 136.742  1.00  0.00    -0.023 CG0
ATOM      9  G   UNL     1     125.441 134.948 135.234  1.00  0.00     0.000 G0
ENDBRANCH   5   6
ENDBRANCH   4   5
ENDBRANCH   2   4
BRANCH   1  10
ATOM     10  C   UNL     1     125.048 138.516 135.510  1.00  0.00     0.111 C 
BRANCH  10  11
ATOM     11  C   UNL     1     124.205 137.264 135.436  1.00  0.00     0.163 C 
ATOM     12  O   UNL     1     123.149 137.279 136.129  1.00  0.00    -0.294 OA
BRANCH  11  13
ATOM     13  C   UNL     1     124.551 136.040 134.614  1.00  0.00    -0.002 C 
ATOM     14  C   UNL     1     124.080 135.875 133.333  1.00  0.00    -0.069 C 
ATOM     15  C   UNL     1     123.119 136.851 132.688  1.00  0.00     0.039 C 
ATOM     16  C   UNL     1     124.460 134.667 132.500  1.00  0.00     0.039 C 
BRANCH  13  17
ATOM     17  C   UNL     1     125.437 134.954 135.227  1.00  0.00     0.066 CG0
ATOM     18  G   UNL     1     125.362 134.858 136.735  1.00  0.00     0.000 G0
ENDBRANCH  13  17
ENDBRANCH  11  13
ENDBRANCH  10  11
ENDBRANCH   1  10
TORSDOF 0
ENDMDL
MODEL 5
REMARK VINA RESULT:     0.018     14.822     16.470
REMARK INTER + INTRA:           0.092
REMARK INTER:                   0.000
REMARK INTRA:                   0.092
REMARK UNBOUND:                 0.066
REMARK SMILES CC1=CCC(=C(C)C)C(=O)CC(C)=CCC1
REMARK SMILES IDX 12 1 14 2 13 3 15 4 16 5 2 6 1 7 3 8 11 10 9 11 10 12 5 13
REMARK SMILES IDX 6 14 7 15 8 16 4 17
REMARK H PARENT
REMARK Flexibility Score: 60.00
ROOT
ATOM      1  C   UNL     1     126.044 137.029 136.398  1.00  0.00    -0.070 C 
ATOM      2  C   UNL     1     126.659 135.824 136.444  1.00  0.00    -0.027 C 
ATOM      3  C   UNL     1     125.784 137.636 135.042  1.00  0.00     0.039 C 
ENDROOT
BRANCH   2   4
ATOM      4  C   UNL     1     126.914 135.031 137.700  1.00  0.00     0.032 C 
BRANCH   4   5
ATOM      5  C   UNL     1     125.953 133.833 137.791  1.00  0.00     0.034 C 
BRANCH   5   6
ATOM      6  C   UNL     1     124.843 134.042 138.799  1.00  0.00    -0.077 C 
ATOM      7  C   UNL     1     125.069 133.617 140.228  1.00  0.00     0.039 C 
ATOM      8  C   UNL     1     123.621 134.532 138.472  1.00  0.00    -0.023 CG0
ATOM      9  G   UNL     1     123.208 135.111 137.137  1.00  0.00     0.000 G0
ENDBRANCH   5   6
ENDBRANCH   4   5
ENDBRANCH   2   4
BRANCH   1  10
ATOM     10  C   UNL     1     125.575 137.778 137.638  1.00  0.00     0.111 C 
BRANCH  10  11
ATOM     11  C   UNL     1     124.149 137.420 137.984  1.00  0.00     0.163 C 
ATOM     12  O   UNL     1     123.753 137.805 139.120  1.00  0.00    -0.294 OA
BRANCH  11  13
ATOM     13  C   UNL     1     123.210 136.649 137.079  1.00  0.00    -0.002 C 
ATOM     14  C   UNL     1     122.351 137.289 136.217  1.00  0.00    -0.069 C 
ATOM     15  C   UNL     1     122.218 138.797 136.173  1.00  0.00     0.039 C 
ATOM     16  C   UNL     1     121.441 136.514 135.287  1.00  0.00     0.039 C 
BRANCH  13  17
ATOM     17  C   UNL     1     123.208 135.121 137.133  1.00  0.00     0.066 CG0
ATOM     18  G   UNL     1     123.626 134.537 138.464  1.00  0.00     0.000 G0
ENDBRANCH  13  17
ENDBRANCH  11  13
ENDBRANCH  10  11
ENDBRANCH   1  10
TORSDOF 0
ENDMDL
MODEL 6
REMARK VINA RESULT:     0.018     14.311     15.939
REMARK INTER + INTRA:           0.092
REMARK INTER:                   0.000
REMARK INTRA:                   0.092
REMARK UNBOUND:                 0.066
REMARK SMILES CC1=CCC(=C(C)C)C(=O)CC(C)=CCC1
REMARK SMILES IDX 12 1 14 2 13 3 15 4 16 5 2 6 1 7 3 8 11 10 9 11 10 12 5 13
REMARK SMILES IDX 6 14 7 15 8 16 4 17
REMARK H PARENT
REMARK Flexibility Score: 60.00
ROOT
ATOM      1  C   UNL     1     126.419 138.293 134.888  1.00  0.00    -0.070 C 
ATOM      2  C   UNL     1     127.035 137.088 134.934  1.00  0.00    -0.027 C 
ATOM      3  C   UNL     1     126.159 138.899 133.532  1.00  0.00     0.039 C 
ENDROOT
BRANCH   2   4
ATOM      4  C   UNL     1     127.289 136.294 136.190  1.00  0.00     0.032 C 
BRANCH   4   5
ATOM      5  C   UNL     1     126.329 135.096 136.282  1.00  0.00     0.034 C 
BRANCH   5   6
ATOM      6  C   UNL     1     125.218 135.305 137.289  1.00  0.00    -0.077 C 
ATOM      7  C   UNL     1     125.445 134.881 138.719  1.00  0.00     0.039 C 
ATOM      8  C   UNL     1     123.997 135.795 136.962  1.00  0.00    -0.023 CG0
ATOM      9  G   UNL     1     123.584 136.375 135.627  1.00  0.00     0.000 G0
ENDBRANCH   5   6
ENDBRANCH   4   5
ENDBRANCH   2   4
BRANCH   1  10
ATOM     10  C   UNL     1     125.951 139.041 136.128  1.00  0.00     0.111 C 
BRANCH  10  11
ATOM     11  C   UNL     1     124.524 138.683 136.475  1.00  0.00     0.163 C 
ATOM     12  O   UNL     1     124.128 139.068 137.611  1.00  0.00    -0.294 OA
BRANCH  11  13
ATOM     13  C   UNL     1     123.586 137.912 135.570  1.00  0.00    -0.002 C 
ATOM     14  C   UNL     1     122.726 138.553 134.708  1.00  0.00    -0.069 C 
ATOM     15  C   UNL     1     122.594 140.061 134.664  1.00  0.00     0.039 C 
ATOM     16  C   UNL     1     121.816 137.777 133.777  1.00  0.00     0.039 C 
BRANCH  13  17
ATOM     17  C   UNL     1     123.583 136.384 135.623  1.00  0.00     0.066 CG0
ATOM     18  G   UNL     1     124.002 135.800 136.954  1.00  0.00     0.000 G0
ENDBRANCH  13  17
ENDBRANCH  11  13
ENDBRANCH  10  11
ENDBRANCH   1  10
TORSDOF 0
ENDMDL
MODEL 7
REMARK VINA RESULT:     0.018     12.314     14.962
REMARK INTER + INTRA:           0.092
REMARK INTER:                   0.000
REMARK INTRA:                   0.092
REMARK UNBOUND:                 0.066
REMARK SMILES CC1=CCC(=C(C)C)C(=O)CC(C)=CCC1
REMARK SMILES IDX 12 1 14 2 13 3 15 4 16 5 2 6 1 7 3 8 11 10 9 11 10 12 5 13
REMARK SMILES IDX 6 14 7 15 8 16 4 17
REMARK H PARENT
REMARK Flexibility Score: 60.00
ROOT
ATOM      1  C   UNL     1     127.733 138.463 135.643  1.00  0.00    -0.070 C 
ATOM      2  C   UNL     1     128.295 138.729 136.846  1.00  0.00    -0.027 C 
ATOM      3  C   UNL     1     128.653 138.169 134.486  1.00  0.00     0.039 C 
ENDROOT
BRANCH   2   4
ATOM      4  C   UNL     1     127.532 138.953 138.127  1.00  0.00     0.032 C 
BRANCH   4   5
ATOM      5  C   UNL     1     127.653 137.731 139.052  1.00  0.00     0.034 C 
BRANCH   5   6
ATOM      6  C   UNL     1     126.395 136.889 139.088  1.00  0.00    -0.077 C 
ATOM      7  C   UNL     1     125.333 137.213 140.109  1.00  0.00     0.039 C 
ATOM      8  C   UNL     1     126.196 135.811 138.291  1.00  0.00    -0.023 CG0
ATOM      9  G   UNL     1     127.070 135.366 137.138  1.00  0.00     0.000 G0
ENDBRANCH   5   6
ENDBRANCH   4   5
ENDBRANCH   2   4
BRANCH   1  10
ATOM     10  C   UNL     1     126.229 138.414 135.415  1.00  0.00     0.111 C 
BRANCH  10  11
ATOM     11  C   UNL     1     125.692 137.016 135.617  1.00  0.00     0.163 C 
ATOM     12  O   UNL     1     124.434 136.921 135.681  1.00  0.00    -0.294 OA
BRANCH  11  13
ATOM     13  C   UNL     1     126.550 135.775 135.748  1.00  0.00    -0.002 C 
ATOM     14  C   UNL     1     126.865 134.997 134.659  1.00  0.00    -0.069 C 
ATOM     15  C   UNL     1     126.311 135.271 133.277  1.00  0.00     0.039 C 
ATOM     16  C   UNL     1     127.756 133.778 134.788  1.00  0.00     0.039 C 
BRANCH  13  17
ATOM     17  C   UNL     1     127.070 135.368 137.128  1.00  0.00     0.066 CG0
ATOM     18  G   UNL     1     126.203 135.815 138.284  1.00  0.00     0.000 G0
ENDBRANCH  13  17
ENDBRANCH  11  13
ENDBRANCH  10  11
ENDBRANCH   1  10
TORSDOF 0
ENDMDL
MODEL 8
REMARK VINA RESULT:     0.023      3.142      4.515
REMARK INTER + INTRA:           0.099
REMARK INTER:                   0.000
REMARK INTRA:                   0.099
REMARK UNBOUND:                 0.066
REMARK SMILES CC1=CCC(=C(C)C)C(=O)CC(C)=CCC1
REMARK SMILES IDX 12 1 14 2 13 3 15 4 16 5 2 6 1 7 3 8 11 10 9 11 10 12 5 13
REMARK SMILES IDX 6 14 7 15 8 16 4 17
REMARK H PARENT
REMARK Flexibility Score: 60.00
ROOT
ATOM      1  C   UNL     1     136.939 125.387 128.525  1.00  0.00    -0.070 C 
ATOM      2  C   UNL     1     136.476 124.264 127.926  1.00  0.00    -0.027 C 
ATOM      3  C   UNL     1     136.749 125.519 130.016  1.00  0.00     0.039 C 
ENDROOT
BRANCH   2   4
ATOM      4  C   UNL     1     136.660 123.923 126.470  1.00  0.00     0.032 C 
BRANCH   4   5
ATOM      5  C   UNL     1     135.579 124.600 125.611  1.00  0.00     0.034 C 
BRANCH   5   6
ATOM      6  C   UNL     1     136.125 125.179 124.322  1.00  0.00    -0.077 C 
ATOM      7  C   UNL     1     136.649 124.237 123.268  1.00  0.00     0.039 C 
ATOM      8  C   UNL     1     136.230 126.510 124.088  1.00  0.00    -0.023 CG0
ATOM      9  G   UNL     1     135.680 127.625 124.951  1.00  0.00     0.000 G0
ENDBRANCH   5   6
ENDBRANCH   4   5
ENDBRANCH   2   4
BRANCH   1  10
ATOM     10  C   UNL     1     137.666 126.495 127.778  1.00  0.00     0.111 C 
BRANCH  10  11
ATOM     11  C   UNL     1     136.711 127.589 127.360  1.00  0.00     0.163 C 
ATOM     12  O   UNL     1     135.919 127.991 128.258  1.00  0.00    -0.294 OA
BRANCH  11  13
ATOM     13  C   UNL     1     136.652 128.198 125.974  1.00  0.00    -0.002 C 
ATOM     14  C   UNL     1     137.450 129.261 125.619  1.00  0.00    -0.069 C 
ATOM     15  C   UNL     1     138.372 129.949 126.603  1.00  0.00     0.039 C 
ATOM     16  C   UNL     1     137.415 129.842 124.220  1.00  0.00     0.039 C 
BRANCH  13  17
ATOM     17  C   UNL     1     135.674 127.627 124.948  1.00  0.00     0.066 CG0
ATOM     18  G   UNL     1     136.238 126.516 124.090  1.00  0.00     0.000 G0
ENDBRANCH  13  17
ENDBRANCH  11  13
ENDBRANCH  10  11
ENDBRANCH   1  10
TORSDOF 0
ENDMDL
MODEL 9
REMARK VINA RESULT:     0.027     14.073     15.267
REMARK INTER + INTRA:           0.104
REMARK INTER:                   0.000
REMARK INTRA:                   0.104
REMARK UNBOUND:                 0.066
REMARK SMILES CC1=CCC(=C(C)C)C(=O)CC(C)=CCC1
REMARK SMILES IDX 12 1 14 2 13 3 15 4 16 5 2 6 1 7 3 8 11 10 9 11 10 12 5 13
REMARK SMILES IDX 6 14 7 15 8 16 4 17
REMARK H PARENT
REMARK Flexibility Score: 60.00
ROOT
ATOM      1  C   UNL     1     125.025 123.035 138.889  1.00  0.00    -0.070 C 
ATOM      2  C   UNL     1     126.019 122.173 138.571  1.00  0.00    -0.027 C 
ATOM      3  C   UNL     1     123.678 122.457 139.240  1.00  0.00     0.039 C 
ENDROOT
BRANCH   2   4
ATOM      4  C   UNL     1     127.447 122.566 138.286  1.00  0.00     0.032 C 
BRANCH   4   5
ATOM      5  C   UNL     1     127.813 122.265 136.823  1.00  0.00     0.034 C 
BRANCH   5   6
ATOM      6  C   UNL     1     127.891 123.510 135.965  1.00  0.00    -0.077 C 
ATOM      7  C   UNL     1     129.240 124.138 135.718  1.00  0.00     0.039 C 
ATOM      8  C   UNL     1     126.801 124.136 135.458  1.00  0.00    -0.023 CG0
ATOM      9  G   UNL     1     125.374 123.634 135.492  1.00  0.00     0.000 G0
ENDBRANCH   5   6
ENDBRANCH   4   5
ENDBRANCH   2   4
BRANCH   1  10
ATOM     10  C   UNL     1     125.212 124.545 138.942  1.00  0.00     0.111 C 
BRANCH  10  11
ATOM     11  C   UNL     1     124.990 125.169 137.585  1.00  0.00     0.163 C 
ATOM     12  O   UNL     1     125.303 126.390 137.490  1.00  0.00    -0.294 OA
BRANCH  11  13
ATOM     13  C   UNL     1     124.429 124.440 136.382  1.00  0.00    -0.002 C 
ATOM     14  C   UNL     1     123.087 124.469 136.081  1.00  0.00    -0.069 C 
ATOM     15  C   UNL     1     122.070 125.154 136.971  1.00  0.00     0.039 C 
ATOM     16  C   UNL     1     122.535 123.770 134.856  1.00  0.00     0.039 C 
BRANCH  13  17
ATOM     17  C   UNL     1     125.374 123.639 135.485  1.00  0.00     0.066 CG0
ATOM     18  G   UNL     1     126.800 124.144 135.464  1.00  0.00     0.000 G0
ENDBRANCH  13  17
ENDBRANCH  11  13
ENDBRANCH  10  11
ENDBRANCH   1  10
TORSDOF 0
ENDMDL
