MODEL 1
REMARK VINA RESULT:    -4.221      0.000      0.000
REMARK INTER + INTRA:          -6.598
REMARK INTER:                  -6.442
REMARK INTRA:                  -0.156
REMARK UNBOUND:                -0.156
REMARK SMILES CC1=CCC[C@H](C)C(=O)C[C@@H](C(C)C)C(=O)C1
REMARK SMILES IDX 8 1 9 2 6 3 7 4 5 5 4 6 3 7 2 8 1 9 10 11 11 12 15 13 16 14
REMARK SMILES IDX 17 15 12 17 13 18 14 19
REMARK H PARENT
REMARK Flexibility Score: 70.00
ROOT
ATOM      1  C   UNL     1      13.551  18.552  58.602  1.00  0.00     0.136 C 
ATOM      2  O   UNL     1      13.757  17.834  59.570  1.00  0.00    -0.299 OA
ENDROOT
BRANCH   1   3
ATOM      3  C   UNL     1      14.679  18.882  57.647  1.00  0.00     0.053 C 
ATOM      4  C   UNL     1      15.829  19.525  58.430  1.00  0.00     0.016 C 
BRANCH   3   5
ATOM      5  C   UNL     1      15.189  17.644  56.868  1.00  0.00     0.015 C 
BRANCH   5   6
ATOM      6  C   UNL     1      14.073  16.842  56.178  1.00  0.00     0.028 C 
BRANCH   6   7
ATOM      7  C   UNL     1      13.279  17.706  55.227  1.00  0.00    -0.028 C 
ATOM      8  C   UNL     1      11.929  17.789  55.181  1.00  0.00    -0.070 CG0
ATOM      9  C   UNL     1      11.310  18.690  54.143  1.00  0.00     0.039 C 
ATOM     10  G   UNL     1      11.024  17.026  56.128  1.00  0.00     0.000 G0
ENDBRANCH   6   7
ENDBRANCH   5   6
ENDBRANCH   3   5
ENDBRANCH   1   3
BRANCH   1  11
ATOM     11  C   UNL     1      12.184  19.170  58.423  1.00  0.00     0.087 C 
BRANCH  11  12
ATOM     12  C   UNL     1      11.043  18.129  58.540  1.00  0.00     0.066 C 
BRANCH  12  13
ATOM     13  C   UNL     1      10.387  17.941  57.180  1.00  0.00     0.140 C 
ATOM     14  O   UNL     1       9.309  18.471  56.954  1.00  0.00    -0.299 OA
BRANCH  13  15
ATOM     15  C   UNL     1      10.999  17.053  56.125  1.00  0.00     0.106 CG0
ATOM     16  G   UNL     1      11.929  17.814  55.200  1.00  0.00     0.000 G0
ENDBRANCH  13  15
ENDBRANCH  12  13
BRANCH  12  17
ATOM     17  C   UNL     1       9.978  18.541  59.606  1.00  0.00    -0.006 C 
ATOM     18  C   UNL     1      10.161  19.993  60.082  1.00  0.00     0.008 C 
ATOM     19  C   UNL     1      10.023  17.608  60.832  1.00  0.00     0.008 C 
ENDBRANCH  12  17
ENDBRANCH  11  12
ENDBRANCH   1  11
TORSDOF 1
ENDMDL
MODEL 2
REMARK VINA RESULT:    -4.114      2.008      4.381
REMARK INTER + INTRA:          -6.434
REMARK INTER:                  -6.234
REMARK INTRA:                  -0.200
REMARK UNBOUND:                -0.156
REMARK SMILES CC1=CCC[C@H](C)C(=O)C[C@@H](C(C)C)C(=O)C1
REMARK SMILES IDX 8 1 9 2 6 3 7 4 5 5 4 6 3 7 2 8 1 9 10 11 11 12 15 13 16 14
REMARK SMILES IDX 17 15 12 17 13 18 14 19
REMARK H PARENT
REMARK Flexibility Score: 70.00
ROOT
ATOM      1  C   UNL     1      11.824  17.886  58.656  1.00  0.00     0.136 C 
ATOM      2  O   UNL     1      12.656  17.474  59.452  1.00  0.00    -0.299 OA
ENDROOT
BRANCH   1   3
ATOM      3  C   UNL     1      10.602  18.630  59.153  1.00  0.00     0.053 C 
ATOM      4  C   UNL     1      10.087  17.956  60.429  1.00  0.00     0.016 C 
BRANCH   3   5
ATOM      5  C   UNL     1      10.876  20.132  59.415  1.00  0.00     0.015 C 
BRANCH   5   6
ATOM      6  C   UNL     1      10.439  21.053  58.263  1.00  0.00     0.028 C 
BRANCH   6   7
ATOM      7  C   UNL     1       9.504  20.342  57.314  1.00  0.00    -0.028 C 
ATOM      8  C   UNL     1       9.771  20.048  56.020  1.00  0.00    -0.070 CG0
ATOM      9  C   UNL     1       8.701  19.355  55.216  1.00  0.00     0.039 C 
ATOM     10  G   UNL     1      11.094  20.376  55.357  1.00  0.00     0.000 G0
ENDBRANCH   6   7
ENDBRANCH   5   6
ENDBRANCH   3   5
ENDBRANCH   1   3
BRANCH   1  11
ATOM     11  C   UNL     1      11.989  17.569  57.189  1.00  0.00     0.087 C 
BRANCH  11  12
ATOM     12  C   UNL     1      12.804  18.651  56.437  1.00  0.00     0.066 C 
BRANCH  12  13
ATOM     13  C   UNL     1      12.001  19.152  55.245  1.00  0.00     0.140 C 
ATOM     14  O   UNL     1      12.128  18.603  54.160  1.00  0.00    -0.299 OA
BRANCH  13  15
ATOM     15  C   UNL     1      11.105  20.361  55.351  1.00  0.00     0.106 CG0
ATOM     16  G   UNL     1       9.785  20.043  56.024  1.00  0.00     0.000 G0
ENDBRANCH  13  15
ENDBRANCH  12  13
BRANCH  12  17
ATOM     17  C   UNL     1      14.196  18.119  55.970  1.00  0.00    -0.006 C 
ATOM     18  C   UNL     1      14.235  16.583  55.884  1.00  0.00     0.008 C 
ATOM     19  C   UNL     1      15.320  18.591  56.912  1.00  0.00     0.008 C 
ENDBRANCH  12  17
ENDBRANCH  11  12
ENDBRANCH   1  11
TORSDOF 1
ENDMDL
MODEL 3
REMARK VINA RESULT:    -4.011      2.041      4.313
REMARK INTER + INTRA:          -6.277
REMARK INTER:                  -6.606
REMARK INTRA:                   0.329
REMARK UNBOUND:                -0.156
REMARK SMILES CC1=CCC[C@H](C)C(=O)C[C@@H](C(C)C)C(=O)C1
REMARK SMILES IDX 8 1 9 2 6 3 7 4 5 5 4 6 3 7 2 8 1 9 10 11 11 12 15 13 16 14
REMARK SMILES IDX 17 15 12 17 13 18 14 19
REMARK H PARENT
REMARK Flexibility Score: 70.00
ROOT
ATOM      1  C   UNL     1      15.277  18.237  55.834  1.00  0.00     0.136 C 
ATOM      2  O   UNL     1      15.522  19.079  54.981  1.00  0.00    -0.299 OA
ENDROOT
BRANCH   1   3
ATOM      3  C   UNL     1      15.988  18.283  57.171  1.00  0.00     0.053 C 
ATOM      4  C   UNL     1      17.380  18.893  56.980  1.00  0.00     0.016 C 
BRANCH   3   5
ATOM      5  C   UNL     1      15.200  19.075  58.244  1.00  0.00     0.015 C 
BRANCH   5   6
ATOM      6  C   UNL     1      14.082  18.262  58.919  1.00  0.00     0.028 C 
BRANCH   6   7
ATOM      7  C   UNL     1      12.754  18.978  58.837  1.00  0.00    -0.028 C 
ATOM      8  C   UNL     1      11.767  18.705  57.953  1.00  0.00    -0.070 CG0
ATOM      9  C   UNL     1      10.517  19.546  58.005  1.00  0.00     0.039 C 
ATOM     10  G   UNL     1      11.864  17.592  56.928  1.00  0.00     0.000 G0
ENDBRANCH   6   7
ENDBRANCH   5   6
ENDBRANCH   3   5
ENDBRANCH   1   3
BRANCH   1  11
ATOM     11  C   UNL     1      14.327  17.111  55.505  1.00  0.00     0.087 C 
BRANCH  11  12
ATOM     12  C   UNL     1      13.141  17.574  54.623  1.00  0.00     0.066 C 
BRANCH  12  13
ATOM     13  C   UNL     1      12.015  18.080  55.513  1.00  0.00     0.140 C 
ATOM     14  O   UNL     1      11.273  18.961  55.102  1.00  0.00    -0.299 OA
BRANCH  13  15
ATOM     15  C   UNL     1      11.838  17.574  56.923  1.00  0.00     0.106 CG0
ATOM     16  G   UNL     1      11.784  18.700  57.937  1.00  0.00     0.000 G0
ENDBRANCH  13  15
ENDBRANCH  12  13
BRANCH  12  17
ATOM     17  C   UNL     1      12.624  16.436  53.686  1.00  0.00    -0.006 C 
ATOM     18  C   UNL     1      12.688  15.053  54.359  1.00  0.00     0.008 C 
ATOM     19  C   UNL     1      13.426  16.385  52.372  1.00  0.00     0.008 C 
ENDBRANCH  12  17
ENDBRANCH  11  12
ENDBRANCH   1  11
TORSDOF 1
ENDMDL
MODEL 4
REMARK VINA RESULT:    -3.732      1.787      4.353
REMARK INTER + INTRA:          -5.852
REMARK INTER:                  -6.030
REMARK INTRA:                   0.178
REMARK UNBOUND:                -0.156
REMARK SMILES CC1=CCC[C@H](C)C(=O)C[C@@H](C(C)C)C(=O)C1
REMARK SMILES IDX 8 1 9 2 6 3 7 4 5 5 4 6 3 7 2 8 1 9 10 11 11 12 15 13 16 14
REMARK SMILES IDX 17 15 12 17 13 18 14 19
REMARK H PARENT
REMARK Flexibility Score: 70.00
ROOT
ATOM      1  C   UNL     1      12.400  18.894  58.195  1.00  0.00     0.136 C 
ATOM      2  O   UNL     1      12.291  20.107  58.308  1.00  0.00    -0.299 OA
ENDROOT
BRANCH   1   3
ATOM      3  C   UNL     1      11.162  18.024  58.129  1.00  0.00     0.053 C 
ATOM      4  C   UNL     1       9.919  18.920  58.090  1.00  0.00     0.016 C 
BRANCH   3   5
ATOM      5  C   UNL     1      11.166  17.062  56.916  1.00  0.00     0.015 C 
BRANCH   5   6
ATOM      6  C   UNL     1      10.844  17.748  55.578  1.00  0.00     0.028 C 
BRANCH   6   7
ATOM      7  C   UNL     1      11.536  17.061  54.425  1.00  0.00    -0.028 C 
ATOM      8  C   UNL     1      12.780  17.345  53.973  1.00  0.00    -0.070 CG0
ATOM      9  C   UNL     1      13.298  16.568  52.789  1.00  0.00     0.039 C 
ATOM     10  G   UNL     1      13.668  18.396  54.610  1.00  0.00     0.000 G0
ENDBRANCH   6   7
ENDBRANCH   5   6
ENDBRANCH   3   5
ENDBRANCH   1   3
BRANCH   1  11
ATOM     11  C   UNL     1      13.777  18.275  58.208  1.00  0.00     0.087 C 
BRANCH  11  12
ATOM     12  C   UNL     1      14.659  18.766  57.032  1.00  0.00     0.066 C 
BRANCH  12  13
ATOM     13  C   UNL     1      14.420  17.882  55.817  1.00  0.00     0.140 C 
ATOM     14  O   UNL     1      14.881  16.750  55.796  1.00  0.00    -0.299 OA
BRANCH  13  15
ATOM     15  C   UNL     1      13.690  18.396  54.601  1.00  0.00     0.106 CG0
ATOM     16  G   UNL     1      12.800  17.340  53.974  1.00  0.00     0.000 G0
ENDBRANCH  13  15
ENDBRANCH  12  13
BRANCH  12  17
ATOM     17  C   UNL     1      16.176  18.783  57.403  1.00  0.00    -0.006 C 
ATOM     18  C   UNL     1      16.460  19.628  58.658  1.00  0.00     0.008 C 
ATOM     19  C   UNL     1      17.031  19.321  56.239  1.00  0.00     0.008 C 
ENDBRANCH  12  17
ENDBRANCH  11  12
ENDBRANCH   1  11
TORSDOF 1
ENDMDL
MODEL 5
REMARK VINA RESULT:    -3.716      1.709      4.234
REMARK INTER + INTRA:          -5.827
REMARK INTER:                  -5.968
REMARK INTRA:                   0.141
REMARK UNBOUND:                -0.156
REMARK SMILES CC1=CCC[C@H](C)C(=O)C[C@@H](C(C)C)C(=O)C1
REMARK SMILES IDX 8 1 9 2 6 3 7 4 5 5 4 6 3 7 2 8 1 9 10 11 11 12 15 13 16 14
REMARK SMILES IDX 17 15 12 17 13 18 14 19
REMARK H PARENT
REMARK Flexibility Score: 70.00
ROOT
ATOM      1  C   UNL     1      12.460  18.946  58.564  1.00  0.00     0.136 C 
ATOM      2  O   UNL     1      13.337  19.797  58.544  1.00  0.00    -0.299 OA
ENDROOT
BRANCH   1   3
ATOM      3  C   UNL     1      11.289  19.085  59.515  1.00  0.00     0.053 C 
ATOM      4  C   UNL     1      10.750  20.518  59.444  1.00  0.00     0.016 C 
BRANCH   3   5
ATOM      5  C   UNL     1      10.154  18.072  59.225  1.00  0.00     0.015 C 
BRANCH   5   6
ATOM      6  C   UNL     1       9.267  18.459  58.029  1.00  0.00     0.028 C 
BRANCH   6   7
ATOM      7  C   UNL     1       8.903  17.251  57.199  1.00  0.00    -0.028 C 
ATOM      8  C   UNL     1       9.362  16.986  55.954  1.00  0.00    -0.070 CG0
ATOM      9  C   UNL     1       8.866  15.739  55.266  1.00  0.00     0.039 C 
ATOM     10  G   UNL     1      10.351  17.881  55.232  1.00  0.00     0.000 G0
ENDBRANCH   6   7
ENDBRANCH   5   6
ENDBRANCH   3   5
ENDBRANCH   1   3
BRANCH   1  11
ATOM     11  C   UNL     1      12.604  17.720  57.694  1.00  0.00     0.087 C 
BRANCH  11  12
ATOM     12  C   UNL     1      12.824  18.075  56.202  1.00  0.00     0.066 C 
BRANCH  12  13
ATOM     13  C   UNL     1      11.783  17.359  55.353  1.00  0.00     0.140 C 
ATOM     14  O   UNL     1      12.108  16.372  54.709  1.00  0.00    -0.299 OA
BRANCH  13  15
ATOM     15  C   UNL     1      10.374  17.882  55.227  1.00  0.00     0.106 CG0
ATOM     16  G   UNL     1       9.366  17.000  55.938  1.00  0.00     0.000 G0
ENDBRANCH  13  15
ENDBRANCH  12  13
BRANCH  12  17
ATOM     17  C   UNL     1      14.264  17.713  55.718  1.00  0.00    -0.006 C 
ATOM     18  C   UNL     1      15.299  17.794  56.854  1.00  0.00     0.008 C 
ATOM     19  C   UNL     1      14.716  18.636  54.569  1.00  0.00     0.008 C 
ENDBRANCH  12  17
ENDBRANCH  11  12
ENDBRANCH   1  11
TORSDOF 1
ENDMDL
MODEL 6
REMARK VINA RESULT:    -3.695      1.983      4.776
REMARK INTER + INTRA:          -5.795
REMARK INTER:                  -5.557
REMARK INTRA:                  -0.238
REMARK UNBOUND:                -0.156
REMARK SMILES CC1=CCC[C@H](C)C(=O)C[C@@H](C(C)C)C(=O)C1
REMARK SMILES IDX 8 1 9 2 6 3 7 4 5 5 4 6 3 7 2 8 1 9 10 11 11 12 15 13 16 14
REMARK SMILES IDX 17 15 12 17 13 18 14 19
REMARK H PARENT
REMARK Flexibility Score: 70.00
ROOT
ATOM      1  C   UNL     1      10.572  18.897  56.924  1.00  0.00     0.136 C 
ATOM      2  O   UNL     1       9.473  18.373  57.037  1.00  0.00    -0.299 OA
ENDROOT
BRANCH   1   3
ATOM      3  C   UNL     1      11.147  19.710  58.066  1.00  0.00     0.053 C 
ATOM      4  C   UNL     1      10.177  20.844  58.414  1.00  0.00     0.016 C 
BRANCH   3   5
ATOM      5  C   UNL     1      11.443  18.856  59.323  1.00  0.00     0.015 C 
BRANCH   5   6
ATOM      6  C   UNL     1      12.664  17.931  59.172  1.00  0.00     0.028 C 
BRANCH   6   7
ATOM      7  C   UNL     1      13.935  18.723  58.976  1.00  0.00    -0.028 C 
ATOM      8  C   UNL     1      14.814  18.559  57.962  1.00  0.00    -0.070 CG0
ATOM      9  C   UNL     1      16.047  19.427  57.945  1.00  0.00     0.039 C 
ATOM     10  G   UNL     1      14.608  17.552  56.847  1.00  0.00     0.000 G0
ENDBRANCH   6   7
ENDBRANCH   5   6
ENDBRANCH   3   5
ENDBRANCH   1   3
BRANCH   1  11
ATOM     11  C   UNL     1      11.304  18.794  55.607  1.00  0.00     0.087 C 
BRANCH  11  12
ATOM     12  C   UNL     1      12.285  17.596  55.567  1.00  0.00     0.066 C 
BRANCH  12  13
ATOM     13  C   UNL     1      13.710  18.103  55.736  1.00  0.00     0.140 C 
ATOM     14  O   UNL     1      14.158  18.917  54.942  1.00  0.00    -0.299 OA
BRANCH  13  15
ATOM     15  C   UNL     1      14.613  17.567  56.820  1.00  0.00     0.106 CG0
ATOM     16  G   UNL     1      14.798  18.554  57.956  1.00  0.00     0.000 G0
ENDBRANCH  13  15
ENDBRANCH  12  13
BRANCH  12  17
ATOM     17  C   UNL     1      12.154  16.773  54.246  1.00  0.00    -0.006 C 
ATOM     18  C   UNL     1      10.687  16.584  53.820  1.00  0.00     0.008 C 
ATOM     19  C   UNL     1      12.813  15.387  54.381  1.00  0.00     0.008 C 
ENDBRANCH  12  17
ENDBRANCH  11  12
ENDBRANCH   1  11
TORSDOF 1
ENDMDL
MODEL 7
REMARK VINA RESULT:    -3.687      6.424      8.411
REMARK INTER + INTRA:          -5.783
REMARK INTER:                  -5.827
REMARK INTRA:                   0.045
REMARK UNBOUND:                -0.156
REMARK SMILES CC1=CCC[C@H](C)C(=O)C[C@@H](C(C)C)C(=O)C1
REMARK SMILES IDX 8 1 9 2 6 3 7 4 5 5 4 6 3 7 2 8 1 9 10 11 11 12 15 13 16 14
REMARK SMILES IDX 17 15 12 17 13 18 14 19
REMARK H PARENT
REMARK Flexibility Score: 70.00
ROOT
ATOM      1  C   UNL     1       5.482  24.681  55.104  1.00  0.00     0.136 C 
ATOM      2  O   UNL     1       4.379  25.084  54.761  1.00  0.00    -0.299 OA
ENDROOT
BRANCH   1   3
ATOM      3  C   UNL     1       6.327  25.500  56.057  1.00  0.00     0.053 C 
ATOM      4  C   UNL     1       5.671  25.494  57.442  1.00  0.00     0.016 C 
BRANCH   3   5
ATOM      5  C   UNL     1       7.787  24.993  56.155  1.00  0.00     0.015 C 
BRANCH   5   6
ATOM      6  C   UNL     1       8.085  24.200  57.439  1.00  0.00     0.028 C 
BRANCH   6   7
ATOM      7  C   UNL     1       9.015  23.042  57.169  1.00  0.00    -0.028 C 
ATOM      8  C   UNL     1       8.636  21.757  56.982  1.00  0.00    -0.070 CG0
ATOM      9  C   UNL     1       9.712  20.727  56.749  1.00  0.00     0.039 C 
ATOM     10  G   UNL     1       7.185  21.316  56.990  1.00  0.00     0.000 G0
ENDBRANCH   6   7
ENDBRANCH   5   6
ENDBRANCH   3   5
ENDBRANCH   1   3
BRANCH   1  11
ATOM     11  C   UNL     1       6.019  23.405  54.499  1.00  0.00     0.087 C 
BRANCH  11  12
ATOM     12  C   UNL     1       5.441  22.138  55.178  1.00  0.00     0.066 C 
BRANCH  12  13
ATOM     13  C   UNL     1       6.583  21.230  55.610  1.00  0.00     0.140 C 
ATOM     14  O   UNL     1       6.986  20.365  54.846  1.00  0.00    -0.299 OA
BRANCH  13  15
ATOM     15  C   UNL     1       7.182  21.321  56.992  1.00  0.00     0.106 CG0
ATOM     16  G   UNL     1       8.632  21.763  56.964  1.00  0.00     0.000 G0
ENDBRANCH  13  15
ENDBRANCH  12  13
BRANCH  12  17
ATOM     17  C   UNL     1       4.457  21.367  54.242  1.00  0.00    -0.006 C 
ATOM     18  C   UNL     1       3.752  22.300  53.242  1.00  0.00     0.008 C 
ATOM     19  C   UNL     1       3.387  20.613  55.055  1.00  0.00     0.008 C 
ENDBRANCH  12  17
ENDBRANCH  11  12
ENDBRANCH   1  11
TORSDOF 1
ENDMDL
MODEL 8
REMARK VINA RESULT:    -3.520      9.814     11.272
REMARK INTER + INTRA:          -5.528
REMARK INTER:                  -5.233
REMARK INTRA:                  -0.295
REMARK UNBOUND:                -0.156
REMARK SMILES CC1=CCC[C@H](C)C(=O)C[C@@H](C(C)C)C(=O)C1
REMARK SMILES IDX 8 1 9 2 6 3 7 4 5 5 4 6 3 7 2 8 1 9 10 11 11 12 15 13 16 14
REMARK SMILES IDX 17 15 12 17 13 18 14 19
REMARK H PARENT
REMARK Flexibility Score: 70.00
ROOT
ATOM      1  C   UNL     1      19.441  10.794  53.494  1.00  0.00     0.136 C 
ATOM      2  O   UNL     1      20.480  10.457  54.043  1.00  0.00    -0.299 OA
ENDROOT
BRANCH   1   3
ATOM      3  C   UNL     1      19.458  11.881  52.439  1.00  0.00     0.053 C 
ATOM      4  C   UNL     1      20.369  13.021  52.906  1.00  0.00     0.016 C 
BRANCH   3   5
ATOM      5  C   UNL     1      19.914  11.367  51.052  1.00  0.00     0.015 C 
BRANCH   5   6
ATOM      6  C   UNL     1      18.753  10.981  50.120  1.00  0.00     0.028 C 
BRANCH   6   7
ATOM      7  C   UNL     1      17.511  11.785  50.424  1.00  0.00    -0.028 C 
ATOM      8  C   UNL     1      16.320  11.274  50.813  1.00  0.00    -0.070 CG0
ATOM      9  C   UNL     1      15.181  12.233  51.048  1.00  0.00     0.039 C 
ATOM     10  G   UNL     1      16.090   9.791  51.029  1.00  0.00     0.000 G0
ENDBRANCH   6   7
ENDBRANCH   5   6
ENDBRANCH   3   5
ENDBRANCH   1   3
BRANCH   1  11
ATOM     11  C   UNL     1      18.138  10.176  53.942  1.00  0.00     0.087 C 
BRANCH  11  12
ATOM     12  C   UNL     1      17.670   9.036  53.003  1.00  0.00     0.066 C 
BRANCH  12  13
ATOM     13  C   UNL     1      16.286   9.363  52.460  1.00  0.00     0.140 C 
ATOM     14  O   UNL     1      15.309   9.226  53.182  1.00  0.00    -0.299 OA
BRANCH  13  15
ATOM     15  C   UNL     1      16.081   9.781  51.026  1.00  0.00     0.106 CG0
ATOM     16  G   UNL     1      16.318  11.264  50.818  1.00  0.00     0.000 G0
ENDBRANCH  13  15
ENDBRANCH  12  13
BRANCH  12  17
ATOM     17  C   UNL     1      17.659   7.649  53.722  1.00  0.00    -0.006 C 
ATOM     18  C   UNL     1      18.313   7.709  55.114  1.00  0.00     0.008 C 
ATOM     19  C   UNL     1      18.378   6.577  52.882  1.00  0.00     0.008 C 
ENDBRANCH  12  17
ENDBRANCH  11  12
ENDBRANCH   1  11
TORSDOF 1
ENDMDL
MODEL 9
REMARK VINA RESULT:    -3.512      2.024      3.328
REMARK INTER + INTRA:          -5.516
REMARK INTER:                  -5.402
REMARK INTRA:                  -0.114
REMARK UNBOUND:                -0.156
REMARK SMILES CC1=CCC[C@H](C)C(=O)C[C@@H](C(C)C)C(=O)C1
REMARK SMILES IDX 8 1 9 2 6 3 7 4 5 5 4 6 3 7 2 8 1 9 10 11 11 12 15 13 16 14
REMARK SMILES IDX 17 15 12 17 13 18 14 19
REMARK H PARENT
REMARK Flexibility Score: 70.00
ROOT
ATOM      1  C   UNL     1      13.492  16.975  55.605  1.00  0.00     0.136 C 
ATOM      2  O   UNL     1      14.560  16.433  55.854  1.00  0.00    -0.299 OA
ENDROOT
BRANCH   1   3
ATOM      3  C   UNL     1      12.644  16.485  54.450  1.00  0.00     0.053 C 
ATOM      4  C   UNL     1      13.423  16.663  53.143  1.00  0.00     0.016 C 
BRANCH   3   5
ATOM      5  C   UNL     1      12.200  15.010  54.612  1.00  0.00     0.015 C 
BRANCH   5   6
ATOM      6  C   UNL     1      10.826  14.845  55.282  1.00  0.00     0.028 C 
BRANCH   6   7
ATOM      7  C   UNL     1       9.811  15.802  54.702  1.00  0.00    -0.028 C 
ATOM      8  C   UNL     1       9.224  16.822  55.369  1.00  0.00    -0.070 CG0
ATOM      9  C   UNL     1       8.211  17.661  54.631  1.00  0.00     0.039 C 
ATOM     10  G   UNL     1       9.547  17.159  56.812  1.00  0.00     0.000 G0
ENDBRANCH   6   7
ENDBRANCH   5   6
ENDBRANCH   3   5
ENDBRANCH   1   3
BRANCH   1  11
ATOM     11  C   UNL     1      13.076  18.185  56.408  1.00  0.00     0.087 C 
BRANCH  11  12
ATOM     12  C   UNL     1      12.003  17.849  57.473  1.00  0.00     0.066 C 
BRANCH  12  13
ATOM     13  C   UNL     1      10.625  18.202  56.934  1.00  0.00     0.140 C 
ATOM     14  O   UNL     1      10.372  19.363  56.646  1.00  0.00    -0.299 OA
BRANCH  13  15
ATOM     15  C   UNL     1       9.536  17.166  56.815  1.00  0.00     0.106 CG0
ATOM     16  G   UNL     1       9.215  16.830  55.372  1.00  0.00     0.000 G0
ENDBRANCH  13  15
ENDBRANCH  12  13
BRANCH  12  17
ATOM     17  C   UNL     1      12.264  18.587  58.824  1.00  0.00    -0.006 C 
ATOM     18  C   UNL     1      13.609  19.337  58.829  1.00  0.00     0.008 C 
ATOM     19  C   UNL     1      12.240  17.607  60.013  1.00  0.00     0.008 C 
ENDBRANCH  12  17
ENDBRANCH  11  12
ENDBRANCH   1  11
TORSDOF 1
ENDMDL
