MODEL 1
REMARK VINA RESULT:    -2.567      0.000      0.000
REMARK INTER + INTRA:          -3.597
REMARK INTER:                  -3.317
REMARK INTRA:                  -0.280
REMARK UNBOUND:                -0.280
REMARK SMILES CCCCCCC(C)=O
REMARK SMILES IDX 4 1 3 2 2 3 1 4 5 5 6 6 7 7 9 8 8 9
REMARK H PARENT
REMARK Flexibility Score: inf
ROOT
ATOM      1  C   UNL     1     150.146 150.365 143.713  1.00  0.00     0.000 C 
ENDROOT
BRANCH   1   2
ATOM      2  C   UNL     1     150.891 150.100 142.399  1.00  0.00    -0.000 C 
BRANCH   2   3
ATOM      3  C   UNL     1     150.515 151.138 141.335  1.00  0.00    -0.003 C 
ATOM      4  C   UNL     1     150.581 150.540 139.933  1.00  0.00     0.004 C 
ENDBRANCH   2   3
ENDBRANCH   1   2
BRANCH   1   5
ATOM      5  C   UNL     1     150.928 149.812 144.910  1.00  0.00     0.008 C 
BRANCH   5   6
ATOM      6  C   UNL     1     150.962 150.826 146.062  1.00  0.00     0.075 C 
BRANCH   6   7
ATOM      7  C   UNL     1     151.644 152.122 145.690  1.00  0.00     0.129 C 
ATOM      8  O   UNL     1     151.047 153.187 145.746  1.00  0.00    -0.300 OA
ATOM      9  C   UNL     1     153.075 152.113 145.243  1.00  0.00     0.087 C 
ENDBRANCH   6   7
ENDBRANCH   5   6
ENDBRANCH   1   5
TORSDOF 5
ENDMDL
MODEL 2
REMARK VINA RESULT:    -2.537      8.009      8.822
REMARK INTER + INTRA:          -3.559
REMARK INTER:                  -3.281
REMARK INTRA:                  -0.278
REMARK UNBOUND:                -0.280
REMARK SMILES CCCCCCC(C)=O
REMARK SMILES IDX 4 1 3 2 2 3 1 4 5 5 6 6 7 7 9 8 8 9
REMARK H PARENT
REMARK Flexibility Score: inf
ROOT
ATOM      1  C   UNL     1     155.804 153.707 138.644  1.00  0.00     0.000 C 
ENDROOT
BRANCH   1   2
ATOM      2  C   UNL     1     155.774 155.238 138.570  1.00  0.00    -0.000 C 
BRANCH   2   3
ATOM      3  C   UNL     1     154.398 155.740 138.117  1.00  0.00    -0.003 C 
ATOM      4  C   UNL     1     153.950 156.943 138.943  1.00  0.00     0.004 C 
ENDBRANCH   2   3
ENDBRANCH   1   2
BRANCH   1   5
ATOM      5  C   UNL     1     156.850 153.224 139.656  1.00  0.00     0.008 C 
BRANCH   5   6
ATOM      6  C   UNL     1     157.834 154.349 140.010  1.00  0.00     0.075 C 
BRANCH   6   7
ATOM      7  C   UNL     1     159.278 153.960 139.797  1.00  0.00     0.129 C 
ATOM      8  O   UNL     1     160.119 154.165 140.660  1.00  0.00    -0.300 OA
ATOM      9  C   UNL     1     159.698 153.313 138.512  1.00  0.00     0.087 C 
ENDBRANCH   6   7
ENDBRANCH   5   6
ENDBRANCH   1   5
TORSDOF 5
ENDMDL
MODEL 3
REMARK VINA RESULT:    -2.505      7.136      8.523
REMARK INTER + INTRA:          -3.517
REMARK INTER:                  -3.030
REMARK INTRA:                  -0.487
REMARK UNBOUND:                -0.280
REMARK SMILES CCCCCCC(C)=O
REMARK SMILES IDX 4 1 3 2 2 3 1 4 5 5 6 6 7 7 9 8 8 9
REMARK H PARENT
REMARK Flexibility Score: inf
ROOT
ATOM      1  C   UNL     1     157.481 154.216 138.767  1.00  0.00     0.000 C 
ENDROOT
BRANCH   1   2
ATOM      2  C   UNL     1     158.174 154.481 140.109  1.00  0.00    -0.000 C 
BRANCH   2   3
ATOM      3  C   UNL     1     159.623 153.979 140.088  1.00  0.00    -0.003 C 
ATOM      4  C   UNL     1     159.748 152.688 139.284  1.00  0.00     0.004 C 
ENDBRANCH   2   3
ENDBRANCH   1   2
BRANCH   1   5
ATOM      5  C   UNL     1     155.976 153.991 138.959  1.00  0.00     0.008 C 
BRANCH   5   6
ATOM      6  C   UNL     1     155.600 152.527 138.691  1.00  0.00     0.075 C 
BRANCH   6   7
ATOM      7  C   UNL     1     155.909 151.614 139.855  1.00  0.00     0.129 C 
ATOM      8  O   UNL     1     155.480 151.853 140.974  1.00  0.00    -0.300 OA
ATOM      9  C   UNL     1     156.753 150.394 139.645  1.00  0.00     0.087 C 
ENDBRANCH   6   7
ENDBRANCH   5   6
ENDBRANCH   1   5
TORSDOF 5
ENDMDL
MODEL 4
REMARK VINA RESULT:    -2.491      7.279      8.780
REMARK INTER + INTRA:          -3.499
REMARK INTER:                  -2.923
REMARK INTRA:                  -0.576
REMARK UNBOUND:                -0.280
REMARK SMILES CCCCCCC(C)=O
REMARK SMILES IDX 4 1 3 2 2 3 1 4 5 5 6 6 7 7 9 8 8 9
REMARK H PARENT
REMARK Flexibility Score: inf
ROOT
ATOM      1  C   UNL     1     152.289 142.350 139.310  1.00  0.00     0.000 C 
ENDROOT
BRANCH   1   2
ATOM      2  C   UNL     1     153.726 142.592 138.834  1.00  0.00    -0.000 C 
BRANCH   2   3
ATOM      3  C   UNL     1     154.447 143.591 139.747  1.00  0.00    -0.003 C 
ATOM      4  C   UNL     1     154.893 144.827 138.970  1.00  0.00     0.004 C 
ENDBRANCH   2   3
ENDBRANCH   1   2
BRANCH   1   5
ATOM      5  C   UNL     1     151.308 143.293 138.602  1.00  0.00     0.008 C 
BRANCH   5   6
ATOM      6  C   UNL     1     150.599 144.209 139.610  1.00  0.00     0.075 C 
BRANCH   6   7
ATOM      7  C   UNL     1     151.324 145.515 139.835  1.00  0.00     0.129 C 
ATOM      8  O   UNL     1     151.808 145.787 140.924  1.00  0.00    -0.300 OA
ATOM      9  C   UNL     1     151.457 146.500 138.713  1.00  0.00     0.087 C 
ENDBRANCH   6   7
ENDBRANCH   5   6
ENDBRANCH   1   5
TORSDOF 5
ENDMDL
MODEL 5
REMARK VINA RESULT:    -2.490      7.511      8.574
REMARK INTER + INTRA:          -3.497
REMARK INTER:                  -3.082
REMARK INTRA:                  -0.415
REMARK UNBOUND:                -0.280
REMARK SMILES CCCCCCC(C)=O
REMARK SMILES IDX 4 1 3 2 2 3 1 4 5 5 6 6 7 7 9 8 8 9
REMARK H PARENT
REMARK Flexibility Score: inf
ROOT
ATOM      1  C   UNL     1     158.334 153.883 138.129  1.00  0.00     0.000 C 
ENDROOT
BRANCH   1   2
ATOM      2  C   UNL     1     157.143 154.741 137.688  1.00  0.00    -0.000 C 
BRANCH   2   3
ATOM      3  C   UNL     1     156.252 155.102 138.882  1.00  0.00    -0.003 C 
ATOM      4  C   UNL     1     154.877 155.576 138.422  1.00  0.00     0.004 C 
ENDBRANCH   2   3
ENDBRANCH   1   2
BRANCH   1   5
ATOM      5  C   UNL     1     158.054 153.201 139.474  1.00  0.00     0.008 C 
BRANCH   5   6
ATOM      6  C   UNL     1     158.092 151.672 139.335  1.00  0.00     0.075 C 
BRANCH   6   7
ATOM      7  C   UNL     1     156.757 151.020 139.603  1.00  0.00     0.129 C 
ATOM      8  O   UNL     1     156.517 149.888 139.207  1.00  0.00    -0.300 OA
ATOM      9  C   UNL     1     155.701 151.761 140.366  1.00  0.00     0.087 C 
ENDBRANCH   6   7
ENDBRANCH   5   6
ENDBRANCH   1   5
TORSDOF 5
ENDMDL
MODEL 6
REMARK VINA RESULT:    -2.484      7.585      9.124
REMARK INTER + INTRA:          -3.490
REMARK INTER:                  -3.001
REMARK INTRA:                  -0.488
REMARK UNBOUND:                -0.280
REMARK SMILES CCCCCCC(C)=O
REMARK SMILES IDX 4 1 3 2 2 3 1 4 5 5 6 6 7 7 9 8 8 9
REMARK H PARENT
REMARK Flexibility Score: inf
ROOT
ATOM      1  C   UNL     1     154.441 143.853 138.800  1.00  0.00     0.000 C 
ENDROOT
BRANCH   1   2
ATOM      2  C   UNL     1     154.457 143.104 140.137  1.00  0.00    -0.000 C 
BRANCH   2   3
ATOM      3  C   UNL     1     153.949 141.667 139.969  1.00  0.00    -0.003 C 
ATOM      4  C   UNL     1     152.992 141.556 138.786  1.00  0.00     0.004 C 
ENDBRANCH   2   3
ENDBRANCH   1   2
BRANCH   1   5
ATOM      5  C   UNL     1     154.114 145.338 139.005  1.00  0.00     0.008 C 
BRANCH   5   6
ATOM      6  C   UNL     1     152.639 145.626 138.691  1.00  0.00     0.075 C 
BRANCH   6   7
ATOM      7  C   UNL     1     151.714 145.299 139.840  1.00  0.00     0.129 C 
ATOM      8  O   UNL     1     151.865 145.817 140.937  1.00  0.00    -0.300 OA
ATOM      9  C   UNL     1     150.592 144.326 139.644  1.00  0.00     0.087 C 
ENDBRANCH   6   7
ENDBRANCH   5   6
ENDBRANCH   1   5
TORSDOF 5
ENDMDL
MODEL 7
REMARK VINA RESULT:    -2.465      6.641      7.991
REMARK INTER + INTRA:          -3.465
REMARK INTER:                  -2.904
REMARK INTRA:                  -0.561
REMARK UNBOUND:                -0.280
REMARK SMILES CCCCCCC(C)=O
REMARK SMILES IDX 4 1 3 2 2 3 1 4 5 5 6 6 7 7 9 8 8 9
REMARK H PARENT
REMARK Flexibility Score: inf
ROOT
ATOM      1  C   UNL     1     146.433 156.903 138.514  1.00  0.00     0.000 C 
ENDROOT
BRANCH   1   2
ATOM      2  C   UNL     1     145.773 155.537 138.737  1.00  0.00    -0.000 C 
BRANCH   2   3
ATOM      3  C   UNL     1     146.258 154.516 137.702  1.00  0.00    -0.003 C 
ATOM      4  C   UNL     1     146.735 155.206 136.427  1.00  0.00     0.004 C 
ENDBRANCH   2   3
ENDBRANCH   1   2
BRANCH   1   5
ATOM      5  C   UNL     1     147.296 157.301 139.717  1.00  0.00     0.008 C 
BRANCH   5   6
ATOM      6  C   UNL     1     148.791 157.166 139.391  1.00  0.00     0.075 C 
BRANCH   6   7
ATOM      7  C   UNL     1     149.366 155.830 139.796  1.00  0.00     0.129 C 
ATOM      8  O   UNL     1     149.475 155.522 140.974  1.00  0.00    -0.300 OA
ATOM      9  C   UNL     1     149.815 154.858 138.747  1.00  0.00     0.087 C 
ENDBRANCH   6   7
ENDBRANCH   5   6
ENDBRANCH   1   5
TORSDOF 5
ENDMDL
MODEL 8
REMARK VINA RESULT:    -2.457      6.763      8.328
REMARK INTER + INTRA:          -3.455
REMARK INTER:                  -2.879
REMARK INTRA:                  -0.576
REMARK UNBOUND:                -0.280
REMARK SMILES CCCCCCC(C)=O
REMARK SMILES IDX 4 1 3 2 2 3 1 4 5 5 6 6 7 7 9 8 8 9
REMARK H PARENT
REMARK Flexibility Score: inf
ROOT
ATOM      1  C   UNL     1     148.517 158.763 139.261  1.00  0.00     0.000 C 
ENDROOT
BRANCH   1   2
ATOM      2  C   UNL     1     147.280 158.181 138.566  1.00  0.00    -0.000 C 
BRANCH   2   3
ATOM      3  C   UNL     1     146.575 157.158 139.464  1.00  0.00    -0.003 C 
ATOM      4  C   UNL     1     146.267 155.874 138.699  1.00  0.00     0.004 C 
ENDBRANCH   2   3
ENDBRANCH   1   2
BRANCH   1   5
ATOM      5  C   UNL     1     149.804 158.146 138.701  1.00  0.00     0.008 C 
BRANCH   5   6
ATOM      6  C   UNL     1     150.510 157.288 139.761  1.00  0.00     0.075 C 
BRANCH   6   7
ATOM      7  C   UNL     1     149.940 155.893 139.869  1.00  0.00     0.129 C 
ATOM      8  O   UNL     1     149.483 155.479 140.925  1.00  0.00    -0.300 OA
ATOM      9  C   UNL     1     149.927 154.994 138.670  1.00  0.00     0.087 C 
ENDBRANCH   6   7
ENDBRANCH   5   6
ENDBRANCH   1   5
TORSDOF 5
ENDMDL
MODEL 9
REMARK VINA RESULT:    -2.451      7.188      8.399
REMARK INTER + INTRA:          -3.448
REMARK INTER:                  -2.892
REMARK INTRA:                  -0.556
REMARK UNBOUND:                -0.280
REMARK SMILES CCCCCCC(C)=O
REMARK SMILES IDX 4 1 3 2 2 3 1 4 5 5 6 6 7 7 9 8 8 9
REMARK H PARENT
REMARK Flexibility Score: inf
ROOT
ATOM      1  C   UNL     1     154.769 144.419 138.458  1.00  0.00     0.000 C 
ENDROOT
BRANCH   1   2
ATOM      2  C   UNL     1     155.502 145.733 138.758  1.00  0.00    -0.000 C 
BRANCH   2   3
ATOM      3  C   UNL     1     155.186 146.793 137.697  1.00  0.00    -0.003 C 
ATOM      4  C   UNL     1     154.520 146.168 136.474  1.00  0.00     0.004 C 
ENDBRANCH   2   3
ENDBRANCH   1   2
BRANCH   1   5
ATOM      5  C   UNL     1     153.955 143.954 139.672  1.00  0.00     0.008 C 
BRANCH   5   6
ATOM      6  C   UNL     1     152.449 144.110 139.417  1.00  0.00     0.075 C 
BRANCH   6   7
ATOM      7  C   UNL     1     151.923 145.474 139.798  1.00  0.00     0.129 C 
ATOM      8  O   UNL     1     151.841 145.813 140.969  1.00  0.00    -0.300 OA
ATOM      9  C   UNL     1     151.492 146.434 138.731  1.00  0.00     0.087 C 
ENDBRANCH   6   7
ENDBRANCH   5   6
ENDBRANCH   1   5
TORSDOF 5
ENDMDL
