MODEL 1
REMARK VINA RESULT:    -6.334      0.000      0.000
REMARK INTER + INTRA:          -7.075
REMARK INTER:                  -7.075
REMARK INTRA:                   0.000
REMARK UNBOUND:                 0.000
REMARK SMILES Oc1cc(O)c2c(ccc3ccc(O)c(O)c32)c1
REMARK SMILES IDX 9 1 8 2 7 3 18 4 2 5 3 6 4 7 6 8 17 9 10 10 11 11 12 12
REMARK SMILES IDX 13 13 15 14 16 15 1 17 5 19 14 21
REMARK H PARENT 16 16 1 18 5 20 14 22
REMARK Flexibility Score: inf
ROOT
ATOM      1  C   UNL     1      49.477  43.161  35.718  1.00  0.00     0.009 A 
ATOM      2  C   UNL     1      50.071  44.293  36.261  1.00  0.00     0.009 A 
ATOM      3  C   UNL     1      49.662  45.569  35.859  1.00  0.00    -0.010 A 
ATOM      4  C   UNL     1      50.225  46.695  36.478  1.00  0.00     0.055 A 
ATOM      5  C   UNL     1      49.744  47.971  36.193  1.00  0.00     0.119 A 
ATOM      6  C   UNL     1      48.657  48.124  35.332  1.00  0.00     0.093 A 
ATOM      7  C   UNL     1      48.065  47.010  34.720  1.00  0.00     0.127 A 
ATOM      8  C   UNL     1      48.650  45.720  34.868  1.00  0.00     0.035 A 
ATOM      9  C   UNL     1      48.210  44.557  34.155  1.00  0.00     0.039 A 
ATOM     10  C   UNL     1      48.560  43.276  34.668  1.00  0.00    -0.014 A 
ATOM     11  C   UNL     1      48.025  42.114  34.096  1.00  0.00     0.013 A 
ATOM     12  C   UNL     1      47.191  42.198  32.988  1.00  0.00     0.051 A 
ATOM     13  C   UNL     1      46.951  43.427  32.374  1.00  0.00     0.158 A 
ATOM     14  C   UNL     1      47.536  44.603  32.900  1.00  0.00     0.166 A 
ENDROOT
BRANCH  14  15
ATOM     15  O   UNL     1      47.563  45.774  32.139  1.00  0.00    -0.504 OA
ATOM     16  H   UNL     1      46.773  46.394  32.032  1.00  0.00     0.293 HD
ENDBRANCH  14  15
BRANCH   5  17
ATOM     17  O   UNL     1      50.332  49.078  36.802  1.00  0.00    -0.508 OA
ATOM     18  H   UNL     1      49.974  49.457  37.671  1.00  0.00     0.293 HD
ENDBRANCH   5  17
BRANCH   7  19
ATOM     19  O   UNL     1      46.850  47.186  34.058  1.00  0.00    -0.507 OA
ATOM     20  H   UNL     1      46.536  48.098  33.748  1.00  0.00     0.293 HD
ENDBRANCH   7  19
BRANCH  13  21
ATOM     21  O   UNL     1      46.137  43.442  31.240  1.00  0.00    -0.504 OA
ATOM     22  H   UNL     1      45.152  43.216  31.258  1.00  0.00     0.293 HD
ENDBRANCH  13  21
TORSDOF 4
ENDMDL
MODEL 2
REMARK VINA RESULT:    -6.243      3.395      5.916
REMARK INTER + INTRA:          -6.973
REMARK INTER:                  -6.973
REMARK INTRA:                   0.000
REMARK UNBOUND:                 0.000
REMARK SMILES Oc1cc(O)c2c(ccc3ccc(O)c(O)c32)c1
REMARK SMILES IDX 9 1 8 2 7 3 18 4 2 5 3 6 4 7 6 8 17 9 10 10 11 11 12 12
REMARK SMILES IDX 13 13 15 14 16 15 1 17 5 19 14 21
REMARK H PARENT 16 16 1 18 5 20 14 22
REMARK Flexibility Score: inf
ROOT
ATOM      1  C   UNL     1      50.597  47.257  39.545  1.00  0.00     0.009 A 
ATOM      2  C   UNL     1      49.750  47.779  38.576  1.00  0.00     0.009 A 
ATOM      3  C   UNL     1      49.541  47.094  37.375  1.00  0.00    -0.010 A 
ATOM      4  C   UNL     1      48.622  47.606  36.446  1.00  0.00     0.055 A 
ATOM      5  C   UNL     1      48.295  46.880  35.303  1.00  0.00     0.119 A 
ATOM      6  C   UNL     1      48.840  45.610  35.111  1.00  0.00     0.093 A 
ATOM      7  C   UNL     1      49.744  45.071  36.038  1.00  0.00     0.127 A 
ATOM      8  C   UNL     1      50.216  45.866  37.121  1.00  0.00     0.035 A 
ATOM      9  C   UNL     1      51.254  45.457  38.020  1.00  0.00     0.039 A 
ATOM     10  C   UNL     1      51.355  46.112  39.280  1.00  0.00    -0.014 A 
ATOM     11  C   UNL     1      52.250  45.644  40.251  1.00  0.00     0.013 A 
ATOM     12  C   UNL     1      53.087  44.569  39.974  1.00  0.00     0.051 A 
ATOM     13  C   UNL     1      53.114  44.004  38.700  1.00  0.00     0.158 A 
ATOM     14  C   UNL     1      52.263  44.507  37.688  1.00  0.00     0.166 A 
ENDROOT
BRANCH  14  15
ATOM     15  O   UNL     1      52.489  44.172  36.351  1.00  0.00    -0.504 OA
ATOM     16  H   UNL     1      52.961  43.329  36.054  1.00  0.00     0.293 HD
ENDBRANCH  14  15
BRANCH   5  17
ATOM     17  O   UNL     1      47.398  47.416  34.382  1.00  0.00    -0.508 OA
ATOM     18  H   UNL     1      47.701  47.725  33.465  1.00  0.00     0.293 HD
ENDBRANCH   5  17
BRANCH   7  19
ATOM     19  O   UNL     1      50.080  43.722  35.927  1.00  0.00    -0.507 OA
ATOM     20  H   UNL     1      50.801  43.400  35.292  1.00  0.00     0.293 HD
ENDBRANCH   7  19
BRANCH  13  21
ATOM     21  O   UNL     1      54.004  42.953  38.471  1.00  0.00    -0.504 OA
ATOM     22  H   UNL     1      53.936  42.054  38.930  1.00  0.00     0.293 HD
ENDBRANCH  13  21
TORSDOF 4
ENDMDL
MODEL 3
REMARK VINA RESULT:    -6.006     11.285     12.981
REMARK INTER + INTRA:          -6.708
REMARK INTER:                  -6.708
REMARK INTRA:                   0.000
REMARK UNBOUND:                 0.000
REMARK SMILES Oc1cc(O)c2c(ccc3ccc(O)c(O)c32)c1
REMARK SMILES IDX 9 1 8 2 7 3 18 4 2 5 3 6 4 7 6 8 17 9 10 10 11 11 12 12
REMARK SMILES IDX 13 13 15 14 16 15 1 17 5 19 14 21
REMARK H PARENT 16 16 1 18 5 20 14 22
REMARK Flexibility Score: inf
ROOT
ATOM      1  C   UNL     1      43.522  46.655  47.070  1.00  0.00     0.009 A 
ATOM      2  C   UNL     1      43.343  46.730  45.694  1.00  0.00     0.009 A 
ATOM      3  C   UNL     1      44.096  45.920  44.838  1.00  0.00    -0.010 A 
ATOM      4  C   UNL     1      43.843  45.961  43.458  1.00  0.00     0.055 A 
ATOM      5  C   UNL     1      44.483  45.074  42.596  1.00  0.00     0.119 A 
ATOM      6  C   UNL     1      45.335  44.098  43.116  1.00  0.00     0.093 A 
ATOM      7  C   UNL     1      45.585  44.026  44.494  1.00  0.00     0.127 A 
ATOM      8  C   UNL     1      45.074  45.028  45.366  1.00  0.00     0.035 A 
ATOM      9  C   UNL     1      45.407  45.124  46.757  1.00  0.00     0.039 A 
ATOM     10  C   UNL     1      44.546  45.870  47.609  1.00  0.00    -0.014 A 
ATOM     11  C   UNL     1      44.744  45.863  48.997  1.00  0.00     0.013 A 
ATOM     12  C   UNL     1      45.816  45.173  49.549  1.00  0.00     0.051 A 
ATOM     13  C   UNL     1      46.760  44.558  48.727  1.00  0.00     0.158 A 
ATOM     14  C   UNL     1      46.611  44.610  47.321  1.00  0.00     0.166 A 
ENDROOT
BRANCH  14  15
ATOM     15  O   UNL     1      47.683  44.278  46.489  1.00  0.00    -0.504 OA
ATOM     16  H   UNL     1      47.947  44.811  45.673  1.00  0.00     0.293 HD
ENDBRANCH  14  15
BRANCH   5  17
ATOM     17  O   UNL     1      44.235  45.146  41.227  1.00  0.00    -0.508 OA
ATOM     18  H   UNL     1      44.902  44.796  40.549  1.00  0.00     0.293 HD
ENDBRANCH   5  17
BRANCH   7  19
ATOM     19  O   UNL     1      46.253  42.905  44.987  1.00  0.00    -0.507 OA
ATOM     20  H   UNL     1      45.757  42.128  45.408  1.00  0.00     0.293 HD
ENDBRANCH   7  19
BRANCH  13  21
ATOM     21  O   UNL     1      47.837  43.913  49.339  1.00  0.00    -0.504 OA
ATOM     22  H   UNL     1      48.071  44.024  50.316  1.00  0.00     0.293 HD
ENDBRANCH  13  21
TORSDOF 4
ENDMDL
MODEL 4
REMARK VINA RESULT:    -5.926      3.152      4.943
REMARK INTER + INTRA:          -6.619
REMARK INTER:                  -6.619
REMARK INTRA:                   0.000
REMARK UNBOUND:                 0.000
REMARK SMILES Oc1cc(O)c2c(ccc3ccc(O)c(O)c32)c1
REMARK SMILES IDX 9 1 8 2 7 3 18 4 2 5 3 6 4 7 6 8 17 9 10 10 11 11 12 12
REMARK SMILES IDX 13 13 15 14 16 15 1 17 5 19 14 21
REMARK H PARENT 16 16 1 18 5 20 14 22
REMARK Flexibility Score: inf
ROOT
ATOM      1  C   UNL     1      49.372  47.994  38.126  1.00  0.00     0.009 A 
ATOM      2  C   UNL     1      50.151  47.514  39.171  1.00  0.00     0.009 A 
ATOM      3  C   UNL     1      50.951  46.381  38.994  1.00  0.00    -0.010 A 
ATOM      4  C   UNL     1      51.786  45.962  40.042  1.00  0.00     0.055 A 
ATOM      5  C   UNL     1      52.688  44.918  39.851  1.00  0.00     0.119 A 
ATOM      6  C   UNL     1      52.804  44.326  38.592  1.00  0.00     0.093 A 
ATOM      7  C   UNL     1      51.995  44.744  37.526  1.00  0.00     0.127 A 
ATOM      8  C   UNL     1      50.954  45.690  37.748  1.00  0.00     0.035 A 
ATOM      9  C   UNL     1      49.981  46.055  36.761  1.00  0.00     0.039 A 
ATOM     10  C   UNL     1      49.271  47.277  36.930  1.00  0.00    -0.014 A 
ATOM     11  C   UNL     1      48.427  47.751  35.917  1.00  0.00     0.013 A 
ATOM     12  C   UNL     1      48.232  47.005  34.760  1.00  0.00     0.051 A 
ATOM     13  C   UNL     1      48.797  45.737  34.632  1.00  0.00     0.158 A 
ATOM     14  C   UNL     1      49.600  45.216  35.674  1.00  0.00     0.166 A 
ENDROOT
BRANCH  14  15
ATOM     15  O   UNL     1      49.914  43.855  35.704  1.00  0.00    -0.504 OA
ATOM     16  H   UNL     1      49.965  43.307  36.552  1.00  0.00     0.293 HD
ENDBRANCH  14  15
BRANCH   5  17
ATOM     17  O   UNL     1      53.492  44.503  40.910  1.00  0.00    -0.508 OA
ATOM     18  H   UNL     1      53.196  44.609  41.873  1.00  0.00     0.293 HD
ENDBRANCH   5  17
BRANCH   7  19
ATOM     19  O   UNL     1      52.303  44.290  36.244  1.00  0.00    -0.507 OA
ATOM     20  H   UNL     1      52.925  43.506  36.088  1.00  0.00     0.293 HD
ENDBRANCH   7  19
BRANCH  13  21
ATOM     21  O   UNL     1      48.533  45.019  33.464  1.00  0.00    -0.504 OA
ATOM     22  H   UNL     1      47.606  44.729  33.185  1.00  0.00     0.293 HD
ENDBRANCH  13  21
TORSDOF 4
ENDMDL
MODEL 5
REMARK VINA RESULT:    -5.884      4.430      6.400
REMARK INTER + INTRA:          -6.571
REMARK INTER:                  -6.571
REMARK INTRA:                   0.000
REMARK UNBOUND:                 0.000
REMARK SMILES Oc1cc(O)c2c(ccc3ccc(O)c(O)c32)c1
REMARK SMILES IDX 9 1 8 2 7 3 18 4 2 5 3 6 4 7 6 8 17 9 10 10 11 11 12 12
REMARK SMILES IDX 13 13 15 14 16 15 1 17 5 19 14 21
REMARK H PARENT 16 16 1 18 5 20 14 22
REMARK Flexibility Score: inf
ROOT
ATOM      1  C   UNL     1      50.035  46.143  35.153  1.00  0.00     0.009 A 
ATOM      2  C   UNL     1      50.686  45.057  35.723  1.00  0.00     0.009 A 
ATOM      3  C   UNL     1      51.615  45.249  36.751  1.00  0.00    -0.010 A 
ATOM      4  C   UNL     1      52.202  44.129  37.361  1.00  0.00     0.055 A 
ATOM      5  C   UNL     1      53.029  44.283  38.471  1.00  0.00     0.119 A 
ATOM      6  C   UNL     1      53.226  45.553  39.016  1.00  0.00     0.093 A 
ATOM      7  C   UNL     1      52.631  46.682  38.435  1.00  0.00     0.127 A 
ATOM      8  C   UNL     1      51.924  46.563  37.205  1.00  0.00     0.035 A 
ATOM      9  C   UNL     1      51.422  47.680  36.460  1.00  0.00     0.039 A 
ATOM     10  C   UNL     1      50.395  47.448  35.502  1.00  0.00    -0.014 A 
ATOM     11  C   UNL     1      49.766  48.526  34.864  1.00  0.00     0.013 A 
ATOM     12  C   UNL     1      50.177  49.829  35.119  1.00  0.00     0.051 A 
ATOM     13  C   UNL     1      51.277  50.076  35.939  1.00  0.00     0.158 A 
ATOM     14  C   UNL     1      51.964  48.995  36.540  1.00  0.00     0.166 A 
ENDROOT
BRANCH  14  15
ATOM     15  O   UNL     1      53.229  49.193  37.101  1.00  0.00    -0.504 OA
ATOM     16  H   UNL     1      54.095  49.043  36.602  1.00  0.00     0.293 HD
ENDBRANCH  14  15
BRANCH   5  17
ATOM     17  O   UNL     1      53.620  43.162  39.048  1.00  0.00    -0.508 OA
ATOM     18  H   UNL     1      54.580  42.906  38.846  1.00  0.00     0.293 HD
ENDBRANCH   5  17
BRANCH   7  19
ATOM     19  O   UNL     1      52.666  47.885  39.140  1.00  0.00    -0.507 OA
ATOM     20  H   UNL     1      52.792  48.776  38.674  1.00  0.00     0.293 HD
ENDBRANCH   7  19
BRANCH  13  21
ATOM     21  O   UNL     1      51.667  51.404  36.126  1.00  0.00    -0.504 OA
ATOM     22  H   UNL     1      52.171  51.940  35.433  1.00  0.00     0.293 HD
ENDBRANCH  13  21
TORSDOF 4
ENDMDL
MODEL 6
REMARK VINA RESULT:    -5.848      2.649      6.378
REMARK INTER + INTRA:          -6.532
REMARK INTER:                  -6.532
REMARK INTRA:                   0.000
REMARK UNBOUND:                 0.000
REMARK SMILES Oc1cc(O)c2c(ccc3ccc(O)c(O)c32)c1
REMARK SMILES IDX 9 1 8 2 7 3 18 4 2 5 3 6 4 7 6 8 17 9 10 10 11 11 12 12
REMARK SMILES IDX 13 13 15 14 16 15 1 17 5 19 14 21
REMARK H PARENT 16 16 1 18 5 20 14 22
REMARK Flexibility Score: inf
ROOT
ATOM      1  C   UNL     1      52.158  44.500  37.109  1.00  0.00     0.009 A 
ATOM      2  C   UNL     1      51.054  44.559  36.268  1.00  0.00     0.009 A 
ATOM      3  C   UNL     1      50.292  45.728  36.181  1.00  0.00    -0.010 A 
ATOM      4  C   UNL     1      49.228  45.785  35.268  1.00  0.00     0.055 A 
ATOM      5  C   UNL     1      48.535  46.977  35.065  1.00  0.00     0.119 A 
ATOM      6  C   UNL     1      48.942  48.135  35.729  1.00  0.00     0.093 A 
ATOM      7  C   UNL     1      50.017  48.104  36.629  1.00  0.00     0.127 A 
ATOM      8  C   UNL     1      50.624  46.863  36.975  1.00  0.00     0.035 A 
ATOM      9  C   UNL     1      51.617  46.717  37.998  1.00  0.00     0.039 A 
ATOM     10  C   UNL     1      52.444  45.559  37.977  1.00  0.00    -0.014 A 
ATOM     11  C   UNL     1      53.526  45.446  38.860  1.00  0.00     0.013 A 
ATOM     12  C   UNL     1      53.770  46.439  39.802  1.00  0.00     0.051 A 
ATOM     13  C   UNL     1      52.889  47.511  39.943  1.00  0.00     0.158 A 
ATOM     14  C   UNL     1      51.755  47.606  39.103  1.00  0.00     0.166 A 
ENDROOT
BRANCH  14  15
ATOM     15  O   UNL     1      50.715  48.482  39.425  1.00  0.00    -0.504 OA
ATOM     16  H   UNL     1      49.839  48.189  39.834  1.00  0.00     0.293 HD
ENDBRANCH  14  15
BRANCH   5  17
ATOM     17  O   UNL     1      47.467  47.007  34.171  1.00  0.00    -0.508 OA
ATOM     18  H   UNL     1      46.600  47.480  34.398  1.00  0.00     0.293 HD
ENDBRANCH   5  17
BRANCH   7  19
ATOM     19  O   UNL     1      50.530  49.317  37.089  1.00  0.00    -0.507 OA
ATOM     20  H   UNL     1      51.515  49.544  37.019  1.00  0.00     0.293 HD
ENDBRANCH   7  19
BRANCH  13  21
ATOM     21  O   UNL     1      53.165  48.456  40.933  1.00  0.00    -0.504 OA
ATOM     22  H   UNL     1      52.531  49.202  41.184  1.00  0.00     0.293 HD
ENDBRANCH  13  21
TORSDOF 4
ENDMDL
MODEL 7
REMARK VINA RESULT:    -5.840      2.315      5.669
REMARK INTER + INTRA:          -6.523
REMARK INTER:                  -6.523
REMARK INTRA:                   0.000
REMARK UNBOUND:                 0.000
REMARK SMILES Oc1cc(O)c2c(ccc3ccc(O)c(O)c32)c1
REMARK SMILES IDX 9 1 8 2 7 3 18 4 2 5 3 6 4 7 6 8 17 9 10 10 11 11 12 12
REMARK SMILES IDX 13 13 15 14 16 15 1 17 5 19 14 21
REMARK H PARENT 16 16 1 18 5 20 14 22
REMARK Flexibility Score: inf
ROOT
ATOM      1  C   UNL     1      48.256  47.715  35.643  1.00  0.00     0.009 A 
ATOM      2  C   UNL     1      47.871  47.182  34.420  1.00  0.00     0.009 A 
ATOM      3  C   UNL     1      48.151  45.847  34.110  1.00  0.00    -0.010 A 
ATOM      4  C   UNL     1      47.684  45.313  32.899  1.00  0.00     0.055 A 
ATOM      5  C   UNL     1      47.832  43.956  32.623  1.00  0.00     0.119 A 
ATOM      6  C   UNL     1      48.394  43.113  33.582  1.00  0.00     0.093 A 
ATOM      7  C   UNL     1      48.846  43.622  34.808  1.00  0.00     0.127 A 
ATOM      8  C   UNL     1      48.857  45.027  35.037  1.00  0.00     0.035 A 
ATOM      9  C   UNL     1      49.445  45.645  36.188  1.00  0.00     0.039 A 
ATOM     10  C   UNL     1      49.043  46.968  36.526  1.00  0.00    -0.014 A 
ATOM     11  C   UNL     1      49.471  47.554  37.725  1.00  0.00     0.013 A 
ATOM     12  C   UNL     1      50.336  46.870  38.570  1.00  0.00     0.051 A 
ATOM     13  C   UNL     1      50.863  45.635  38.194  1.00  0.00     0.158 A 
ATOM     14  C   UNL     1      50.492  45.058  36.956  1.00  0.00     0.166 A 
ENDROOT
BRANCH  14  15
ATOM     15  O   UNL     1      51.229  43.995  36.429  1.00  0.00    -0.504 OA
ATOM     16  H   UNL     1      50.814  43.150  36.061  1.00  0.00     0.293 HD
ENDBRANCH  14  15
BRANCH   5  17
ATOM     17  O   UNL     1      47.383  43.450  31.406  1.00  0.00    -0.508 OA
ATOM     18  H   UNL     1      47.756  43.782  30.524  1.00  0.00     0.293 HD
ENDBRANCH   5  17
BRANCH   7  19
ATOM     19  O   UNL     1      49.184  42.719  35.816  1.00  0.00    -0.507 OA
ATOM     20  H   UNL     1      48.526  42.031  36.161  1.00  0.00     0.293 HD
ENDBRANCH   7  19
BRANCH  13  21
ATOM     21  O   UNL     1      51.758  45.014  39.067  1.00  0.00    -0.504 OA
ATOM     22  H   UNL     1      51.938  44.019  39.068  1.00  0.00     0.293 HD
ENDBRANCH  13  21
TORSDOF 4
ENDMDL
MODEL 8
REMARK VINA RESULT:    -5.759      1.296      4.921
REMARK INTER + INTRA:          -6.432
REMARK INTER:                  -6.432
REMARK INTRA:                   0.000
REMARK UNBOUND:                 0.000
REMARK SMILES Oc1cc(O)c2c(ccc3ccc(O)c(O)c32)c1
REMARK SMILES IDX 9 1 8 2 7 3 18 4 2 5 3 6 4 7 6 8 17 9 10 10 11 11 12 12
REMARK SMILES IDX 13 13 15 14 16 15 1 17 5 19 14 21
REMARK H PARENT 16 16 1 18 5 20 14 22
REMARK Flexibility Score: inf
ROOT
ATOM      1  C   UNL     1      50.828  44.467  36.434  1.00  0.00     0.009 A 
ATOM      2  C   UNL     1      49.960  43.411  36.187  1.00  0.00     0.009 A 
ATOM      3  C   UNL     1      48.899  43.563  35.289  1.00  0.00    -0.010 A 
ATOM      4  C   UNL     1      48.083  42.458  35.001  1.00  0.00     0.055 A 
ATOM      5  C   UNL     1      47.102  42.544  34.015  1.00  0.00     0.119 A 
ATOM      6  C   UNL     1      46.972  43.716  33.269  1.00  0.00     0.093 A 
ATOM      7  C   UNL     1      47.793  44.824  33.526  1.00  0.00     0.127 A 
ATOM      8  C   UNL     1      48.681  44.811  34.639  1.00  0.00     0.035 A 
ATOM      9  C   UNL     1      49.437  45.950  35.071  1.00  0.00     0.039 A 
ATOM     10  C   UNL     1      50.577  45.732  35.895  1.00  0.00    -0.014 A 
ATOM     11  C   UNL     1      51.433  46.795  36.213  1.00  0.00     0.013 A 
ATOM     12  C   UNL     1      51.148  48.082  35.772  1.00  0.00     0.051 A 
ATOM     13  C   UNL     1      49.962  48.349  35.090  1.00  0.00     0.158 A 
ATOM     14  C   UNL     1      49.054  47.299  34.817  1.00  0.00     0.166 A 
ENDROOT
BRANCH  14  15
ATOM     15  O   UNL     1      47.746  47.588  34.420  1.00  0.00    -0.504 OA
ATOM     16  H   UNL     1      47.280  47.135  33.647  1.00  0.00     0.293 HD
ENDBRANCH  14  15
BRANCH   5  17
ATOM     17  O   UNL     1      46.288  41.443  33.759  1.00  0.00    -0.508 OA
ATOM     18  H   UNL     1      45.287  41.543  33.634  1.00  0.00     0.293 HD
ENDBRANCH   5  17
BRANCH   7  19
ATOM     19  O   UNL     1      47.785  45.879  32.613  1.00  0.00    -0.507 OA
ATOM     20  H   UNL     1      46.969  46.097  32.054  1.00  0.00     0.293 HD
ENDBRANCH   7  19
BRANCH  13  21
ATOM     21  O   UNL     1      49.712  49.669  34.708  1.00  0.00    -0.504 OA
ATOM     22  H   UNL     1      49.375  49.929  33.791  1.00  0.00     0.293 HD
ENDBRANCH  13  21
TORSDOF 4
ENDMDL
MODEL 9
REMARK VINA RESULT:    -5.662      2.869      4.540
REMARK INTER + INTRA:          -6.324
REMARK INTER:                  -6.324
REMARK INTRA:                   0.000
REMARK UNBOUND:                 0.000
REMARK SMILES Oc1cc(O)c2c(ccc3ccc(O)c(O)c32)c1
REMARK SMILES IDX 9 1 8 2 7 3 18 4 2 5 3 6 4 7 6 8 17 9 10 10 11 11 12 12
REMARK SMILES IDX 13 13 15 14 16 15 1 17 5 19 14 21
REMARK H PARENT 16 16 1 18 5 20 14 22
REMARK Flexibility Score: inf
ROOT
ATOM      1  C   UNL     1      49.352  48.394  34.805  1.00  0.00     0.009 A 
ATOM      2  C   UNL     1      50.368  49.135  35.394  1.00  0.00     0.009 A 
ATOM      3  C   UNL     1      51.475  48.494  35.960  1.00  0.00    -0.010 A 
ATOM      4  C   UNL     1      52.523  49.269  36.481  1.00  0.00     0.055 A 
ATOM      5  C   UNL     1      53.693  48.662  36.930  1.00  0.00     0.119 A 
ATOM      6  C   UNL     1      53.848  47.281  36.804  1.00  0.00     0.093 A 
ATOM      7  C   UNL     1      52.823  46.491  36.266  1.00  0.00     0.127 A 
ATOM      8  C   UNL     1      51.559  47.072  35.960  1.00  0.00     0.035 A 
ATOM      9  C   UNL     1      50.409  46.318  35.559  1.00  0.00     0.039 A 
ATOM     10  C   UNL     1      49.355  46.998  34.886  1.00  0.00    -0.014 A 
ATOM     11  C   UNL     1      48.285  46.278  34.338  1.00  0.00     0.013 A 
ATOM     12  C   UNL     1      48.213  44.899  34.494  1.00  0.00     0.051 A 
ATOM     13  C   UNL     1      49.152  44.226  35.275  1.00  0.00     0.158 A 
ATOM     14  C   UNL     1      50.203  44.947  35.889  1.00  0.00     0.166 A 
ENDROOT
BRANCH  14  15
ATOM     15  O   UNL     1      50.958  44.356  36.906  1.00  0.00    -0.504 OA
ATOM     16  H   UNL     1      50.589  44.124  37.817  1.00  0.00     0.293 HD
ENDBRANCH  14  15
BRANCH   5  17
ATOM     17  O   UNL     1      54.712  49.447  37.465  1.00  0.00    -0.508 OA
ATOM     18  H   UNL     1      55.031  50.290  37.000  1.00  0.00     0.293 HD
ENDBRANCH   5  17
BRANCH   7  19
ATOM     19  O   UNL     1      53.108  45.163  35.949  1.00  0.00    -0.507 OA
ATOM     20  H   UNL     1      53.892  44.908  35.361  1.00  0.00     0.293 HD
ENDBRANCH   7  19
BRANCH  13  21
ATOM     21  O   UNL     1      49.006  42.846  35.427  1.00  0.00    -0.504 OA
ATOM     22  H   UNL     1      49.253  42.177  34.711  1.00  0.00     0.293 HD
ENDBRANCH  13  21
TORSDOF 4
ENDMDL
