MODEL 1
REMARK VINA RESULT:    -5.614      0.000      0.000
REMARK INTER + INTRA:          -8.738
REMARK INTER:                  -7.583
REMARK INTRA:                  -1.155
REMARK UNBOUND:                -1.155
REMARK SMILES C=CC(C)=CCC=C(C)CCC=C(C)C
REMARK SMILES IDX 8 1 7 2 9 3 10 4 11 5 12 6 14 7 13 8 15 9 6 10 5 11 3 12
REMARK SMILES IDX 4 13 2 14 1 15
REMARK H PARENT
REMARK Flexibility Score: inf
ROOT
ATOM      1  C   UNL     1     144.771 142.079 164.877  1.00  0.00    -0.077 C 
ATOM      2  C   UNL     1     143.498 142.532 164.931  1.00  0.00    -0.024 C 
ATOM      3  C   UNL     1     145.947 143.025 164.788  1.00  0.00     0.039 C 
ENDROOT
BRANCH   1   4
ATOM      4  C   UNL     1     145.023 140.587 164.919  1.00  0.00     0.034 C 
BRANCH   4   5
ATOM      5  C   UNL     1     144.613 139.927 163.597  1.00  0.00     0.032 C 
BRANCH   5   6
ATOM      6  C   UNL     1     145.358 140.528 162.431  1.00  0.00    -0.028 C 
ATOM      7  C   UNL     1     143.244 141.360 161.396  1.00  0.00     0.039 C 
ATOM      8  C   UNL     1     144.741 141.180 161.422  1.00  0.00    -0.080 C 
ATOM      9  C   UNL     1     145.549 141.754 160.286  1.00  0.00     0.039 C 
ENDBRANCH   5   6
ENDBRANCH   4   5
ENDBRANCH   1   4
BRANCH   2  10
ATOM     10  C   UNL     1     143.117 143.991 164.875  1.00  0.00     0.055 C 
BRANCH  10  11
ATOM     11  C   UNL     1     142.342 144.306 163.622  1.00  0.00    -0.020 C 
ATOM     12  C   UNL     1     141.256 145.105 163.592  1.00  0.00    -0.055 C 
ATOM     13  C   UNL     1     140.574 145.351 162.267  1.00  0.00     0.044 C 
BRANCH  12  14
ATOM     14  C   UNL     1     140.725 145.743 164.832  1.00  0.00    -0.005 C 
ATOM     15  C   UNL     1     140.436 147.042 164.924  1.00  0.00     0.009 C 
ENDBRANCH  12  14
ENDBRANCH  10  11
ENDBRANCH   2  10
TORSDOF 6
ENDMDL
MODEL 2
REMARK VINA RESULT:    -5.600      5.570      8.350
REMARK INTER + INTRA:          -8.719
REMARK INTER:                  -7.528
REMARK INTRA:                  -1.191
REMARK UNBOUND:                -1.155
REMARK SMILES C=CC(C)=CCC=C(C)CCC=C(C)C
REMARK SMILES IDX 8 1 7 2 9 3 10 4 11 5 12 6 14 7 13 8 15 9 6 10 5 11 3 12
REMARK SMILES IDX 4 13 2 14 1 15
REMARK H PARENT
REMARK Flexibility Score: inf
ROOT
ATOM      1  C   UNL     1     145.977 148.552 164.836  1.00  0.00    -0.077 C 
ATOM      2  C   UNL     1     147.256 148.120 164.915  1.00  0.00    -0.024 C 
ATOM      3  C   UNL     1     144.820 147.586 164.713  1.00  0.00     0.039 C 
ENDROOT
BRANCH   1   4
ATOM      4  C   UNL     1     145.697 150.039 164.885  1.00  0.00     0.034 C 
BRANCH   4   5
ATOM      5  C   UNL     1     146.160 150.723 163.593  1.00  0.00     0.032 C 
BRANCH   5   6
ATOM      6  C   UNL     1     145.452 150.154 162.388  1.00  0.00    -0.028 C 
ATOM      7  C   UNL     1     147.596 149.323 161.413  1.00  0.00     0.039 C 
ATOM      8  C   UNL     1     146.100 149.517 161.389  1.00  0.00    -0.080 C 
ATOM      9  C   UNL     1     145.330 148.974 160.212  1.00  0.00     0.039 C 
ENDBRANCH   5   6
ENDBRANCH   4   5
ENDBRANCH   1   4
BRANCH   2  10
ATOM     10  C   UNL     1     147.664 146.669 164.855  1.00  0.00     0.055 C 
BRANCH  10  11
ATOM     11  C   UNL     1     148.421 146.366 163.588  1.00  0.00    -0.020 C 
ATOM     12  C   UNL     1     149.531 145.601 163.541  1.00  0.00    -0.055 C 
ATOM     13  C   UNL     1     150.191 145.362 162.204  1.00  0.00     0.044 C 
BRANCH  12  14
ATOM     14  C   UNL     1     150.107 144.992 164.775  1.00  0.00    -0.005 C 
ATOM     15  C   UNL     1     150.312 143.681 164.922  1.00  0.00     0.009 C 
ENDBRANCH  12  14
ENDBRANCH  10  11
ENDBRANCH   2  10
TORSDOF 6
ENDMDL
MODEL 3
REMARK VINA RESULT:    -5.597      3.828      5.941
REMARK INTER + INTRA:          -8.716
REMARK INTER:                  -7.540
REMARK INTRA:                  -1.176
REMARK UNBOUND:                -1.155
REMARK SMILES C=CC(C)=CCC=C(C)CCC=C(C)C
REMARK SMILES IDX 8 1 7 2 9 3 10 4 11 5 12 6 14 7 13 8 15 9 6 10 5 11 3 12
REMARK SMILES IDX 4 13 2 14 1 15
REMARK H PARENT
REMARK Flexibility Score: inf
ROOT
ATOM      1  C   UNL     1     142.176 145.994 164.832  1.00  0.00    -0.077 C 
ATOM      2  C   UNL     1     142.620 147.268 164.927  1.00  0.00    -0.024 C 
ATOM      3  C   UNL     1     143.130 144.831 164.681  1.00  0.00     0.039 C 
ENDROOT
BRANCH   1   4
ATOM      4  C   UNL     1     140.687 145.727 164.891  1.00  0.00     0.034 C 
BRANCH   4   5
ATOM      5  C   UNL     1     140.001 146.171 163.593  1.00  0.00     0.032 C 
BRANCH   5   6
ATOM      6  C   UNL     1     140.566 145.442 162.398  1.00  0.00    -0.028 C 
ATOM      7  C   UNL     1     141.423 147.564 161.399  1.00  0.00     0.039 C 
ATOM      8  C   UNL     1     141.213 146.070 161.393  1.00  0.00    -0.080 C 
ATOM      9  C   UNL     1     141.750 145.279 160.228  1.00  0.00     0.039 C 
ENDBRANCH   5   6
ENDBRANCH   4   5
ENDBRANCH   1   4
BRANCH   2  10
ATOM     10  C   UNL     1     144.074 147.663 164.859  1.00  0.00     0.055 C 
BRANCH  10  11
ATOM     11  C   UNL     1     144.377 148.418 163.591  1.00  0.00    -0.020 C 
ATOM     12  C   UNL     1     145.145 149.525 163.541  1.00  0.00    -0.055 C 
ATOM     13  C   UNL     1     145.383 150.183 162.202  1.00  0.00     0.044 C 
BRANCH  12  14
ATOM     14  C   UNL     1     145.758 150.102 164.773  1.00  0.00    -0.005 C 
ATOM     15  C   UNL     1     147.074 150.257 164.936  1.00  0.00     0.009 C 
ENDBRANCH  12  14
ENDBRANCH  10  11
ENDBRANCH   2  10
TORSDOF 6
ENDMDL
MODEL 4
REMARK VINA RESULT:    -5.524      3.842      6.093
REMARK INTER + INTRA:          -8.617
REMARK INTER:                  -7.479
REMARK INTRA:                  -1.138
REMARK UNBOUND:                -1.155
REMARK SMILES C=CC(C)=CCC=C(C)CCC=C(C)C
REMARK SMILES IDX 8 1 7 2 9 3 10 4 11 5 12 6 14 7 13 8 15 9 6 10 5 11 3 12
REMARK SMILES IDX 4 13 2 14 1 15
REMARK H PARENT
REMARK Flexibility Score: inf
ROOT
ATOM      1  C   UNL     1     148.769 144.802 164.821  1.00  0.00    -0.077 C 
ATOM      2  C   UNL     1     148.336 143.521 164.817  1.00  0.00    -0.024 C 
ATOM      3  C   UNL     1     147.805 145.965 164.766  1.00  0.00     0.039 C 
ENDROOT
BRANCH   1   4
ATOM      4  C   UNL     1     150.256 145.076 164.896  1.00  0.00     0.034 C 
BRANCH   4   5
ATOM      5  C   UNL     1     150.939 144.742 163.564  1.00  0.00     0.032 C 
BRANCH   5   6
ATOM      6  C   UNL     1     150.271 145.454 162.412  1.00  0.00    -0.028 C 
ATOM      7  C   UNL     1     149.602 143.295 161.352  1.00  0.00     0.039 C 
ATOM      8  C   UNL     1     149.662 144.801 161.399  1.00  0.00    -0.080 C 
ATOM      9  C   UNL     1     149.017 145.577 160.279  1.00  0.00     0.039 C 
ENDBRANCH   5   6
ENDBRANCH   4   5
ENDBRANCH   1   4
BRANCH   2  10
ATOM     10  C   UNL     1     146.884 143.120 164.725  1.00  0.00     0.055 C 
BRANCH  10  11
ATOM     11  C   UNL     1     146.592 142.421 163.422  1.00  0.00    -0.020 C 
ATOM     12  C   UNL     1     145.692 141.426 163.289  1.00  0.00    -0.055 C 
ATOM     13  C   UNL     1     145.483 140.815 161.924  1.00  0.00     0.044 C 
BRANCH  12  14
ATOM     14  C   UNL     1     144.906 140.927 164.455  1.00  0.00    -0.005 C 
ATOM     15  C   UNL     1     144.822 139.638 164.788  1.00  0.00     0.009 C 
ENDBRANCH  12  14
ENDBRANCH  10  11
ENDBRANCH   2  10
TORSDOF 6
ENDMDL
MODEL 5
REMARK VINA RESULT:    -5.432      3.366      6.018
REMARK INTER + INTRA:          -8.493
REMARK INTER:                  -7.065
REMARK INTRA:                  -1.429
REMARK UNBOUND:                -1.155
REMARK SMILES C=CC(C)=CCC=C(C)CCC=C(C)C
REMARK SMILES IDX 8 1 7 2 9 3 10 4 11 5 12 6 14 7 13 8 15 9 6 10 5 11 3 12
REMARK SMILES IDX 4 13 2 14 1 15
REMARK H PARENT
REMARK Flexibility Score: inf
ROOT
ATOM      1  C   UNL     1     147.047 142.448 160.626  1.00  0.00    -0.077 C 
ATOM      2  C   UNL     1     146.492 141.241 160.877  1.00  0.00    -0.024 C 
ATOM      3  C   UNL     1     146.259 143.729 160.772  1.00  0.00     0.039 C 
ENDROOT
BRANCH   1   4
ATOM      4  C   UNL     1     148.498 142.516 160.201  1.00  0.00     0.034 C 
BRANCH   4   5
ATOM      5  C   UNL     1     149.274 143.514 161.069  1.00  0.00     0.032 C 
BRANCH   5   6
ATOM      6  C   UNL     1     149.441 143.001 162.479  1.00  0.00    -0.028 C 
ATOM      7  C   UNL     1     150.266 145.217 163.281  1.00  0.00     0.039 C 
ATOM      8  C   UNL     1     149.895 143.771 163.491  1.00  0.00    -0.080 C 
ATOM      9  C   UNL     1     150.038 143.192 164.876  1.00  0.00     0.039 C 
ENDBRANCH   5   6
ENDBRANCH   4   5
ENDBRANCH   1   4
BRANCH   2  10
ATOM     10  C   UNL     1     145.053 141.041 161.285  1.00  0.00     0.055 C 
BRANCH  10  11
ATOM     11  C   UNL     1     144.951 140.217 162.543  1.00  0.00    -0.020 C 
ATOM     12  C   UNL     1     144.998 140.737 163.787  1.00  0.00    -0.055 C 
ATOM     13  C   UNL     1     144.872 139.804 164.967  1.00  0.00     0.044 C 
BRANCH  12  14
ATOM     14  C   UNL     1     145.167 142.202 164.011  1.00  0.00    -0.005 C 
ATOM     15  C   UNL     1     146.298 142.752 164.458  1.00  0.00     0.009 C 
ENDBRANCH  12  14
ENDBRANCH  10  11
ENDBRANCH   2  10
TORSDOF 6
ENDMDL
MODEL 6
REMARK VINA RESULT:    -5.418      5.900      8.033
REMARK INTER + INTRA:          -8.474
REMARK INTER:                  -6.948
REMARK INTRA:                  -1.526
REMARK UNBOUND:                -1.155
REMARK SMILES C=CC(C)=CCC=C(C)CCC=C(C)C
REMARK SMILES IDX 8 1 7 2 9 3 10 4 11 5 12 6 14 7 13 8 15 9 6 10 5 11 3 12
REMARK SMILES IDX 4 13 2 14 1 15
REMARK H PARENT
REMARK Flexibility Score: inf
ROOT
ATOM      1  C   UNL     1     146.742 149.830 164.436  1.00  0.00    -0.077 C 
ATOM      2  C   UNL     1     146.401 148.532 164.600  1.00  0.00    -0.024 C 
ATOM      3  C   UNL     1     148.081 150.362 164.893  1.00  0.00     0.039 C 
ENDROOT
BRANCH   1   4
ATOM      4  C   UNL     1     145.762 150.770 163.767  1.00  0.00     0.034 C 
BRANCH   4   5
ATOM      5  C   UNL     1     145.366 150.247 162.380  1.00  0.00     0.032 C 
BRANCH   5   6
ATOM      6  C   UNL     1     146.554 150.207 161.450  1.00  0.00    -0.028 C 
ATOM      7  C   UNL     1     146.201 147.783 160.964  1.00  0.00     0.039 C 
ATOM      8  C   UNL     1     146.943 149.086 160.804  1.00  0.00    -0.080 C 
ATOM      9  C   UNL     1     148.142 149.117 159.890  1.00  0.00     0.039 C 
ENDBRANCH   5   6
ENDBRANCH   4   5
ENDBRANCH   1   4
BRANCH   2  10
ATOM     10  C   UNL     1     147.280 147.505 165.270  1.00  0.00     0.055 C 
BRANCH  10  11
ATOM     11  C   UNL     1     146.998 146.120 164.748  1.00  0.00    -0.020 C 
ATOM     12  C   UNL     1     147.699 145.534 163.756  1.00  0.00    -0.055 C 
ATOM     13  C   UNL     1     147.323 144.134 163.331  1.00  0.00     0.044 C 
BRANCH  12  14
ATOM     14  C   UNL     1     148.827 146.239 163.080  1.00  0.00    -0.005 C 
ATOM     15  C   UNL     1     149.878 145.608 162.553  1.00  0.00     0.009 C 
ENDBRANCH  12  14
ENDBRANCH  10  11
ENDBRANCH   2  10
TORSDOF 6
ENDMDL
MODEL 7
REMARK VINA RESULT:    -5.415      4.392      6.073
REMARK INTER + INTRA:          -8.469
REMARK INTER:                  -6.847
REMARK INTRA:                  -1.623
REMARK UNBOUND:                -1.155
REMARK SMILES C=CC(C)=CCC=C(C)CCC=C(C)C
REMARK SMILES IDX 8 1 7 2 9 3 10 4 11 5 12 6 14 7 13 8 15 9 6 10 5 11 3 12
REMARK SMILES IDX 4 13 2 14 1 15
REMARK H PARENT
REMARK Flexibility Score: inf
ROOT
ATOM      1  C   UNL     1     140.993 146.740 164.442  1.00  0.00    -0.077 C 
ATOM      2  C   UNL     1     142.297 146.426 164.611  1.00  0.00    -0.024 C 
ATOM      3  C   UNL     1     140.434 148.072 164.887  1.00  0.00     0.039 C 
ENDROOT
BRANCH   1   4
ATOM      4  C   UNL     1     140.074 145.735 163.780  1.00  0.00     0.034 C 
BRANCH   4   5
ATOM      5  C   UNL     1     140.579 145.377 162.377  1.00  0.00     0.032 C 
BRANCH   5   6
ATOM      6  C   UNL     1     140.572 146.583 161.469  1.00  0.00    -0.028 C 
ATOM      7  C   UNL     1     143.027 146.392 161.053  1.00  0.00     0.039 C 
ATOM      8  C   UNL     1     141.684 147.053 160.864  1.00  0.00    -0.080 C 
ATOM      9  C   UNL     1     141.605 148.264 159.970  1.00  0.00     0.039 C 
ENDBRANCH   5   6
ENDBRANCH   4   5
ENDBRANCH   1   4
BRANCH   2  10
ATOM     10  C   UNL     1     143.306 147.331 165.275  1.00  0.00     0.055 C 
BRANCH  10  11
ATOM     11  C   UNL     1     144.695 147.080 164.749  1.00  0.00    -0.020 C 
ATOM     12  C   UNL     1     145.286 147.832 163.798  1.00  0.00    -0.055 C 
ATOM     13  C   UNL     1     146.690 147.482 163.366  1.00  0.00     0.044 C 
BRANCH  12  14
ATOM     14  C   UNL     1     144.583 148.991 163.176  1.00  0.00    -0.005 C 
ATOM     15  C   UNL     1     145.004 149.596 162.064  1.00  0.00     0.009 C 
ENDBRANCH  12  14
ENDBRANCH  10  11
ENDBRANCH   2  10
TORSDOF 6
ENDMDL
MODEL 8
REMARK VINA RESULT:    -5.395      5.979      8.716
REMARK INTER + INTRA:          -8.443
REMARK INTER:                  -7.014
REMARK INTRA:                  -1.430
REMARK UNBOUND:                -1.155
REMARK SMILES C=CC(C)=CCC=C(C)CCC=C(C)C
REMARK SMILES IDX 8 1 7 2 9 3 10 4 11 5 12 6 14 7 13 8 15 9 6 10 5 11 3 12
REMARK SMILES IDX 4 13 2 14 1 15
REMARK H PARENT
REMARK Flexibility Score: inf
ROOT
ATOM      1  C   UNL     1     148.304 147.102 160.532  1.00  0.00    -0.077 C 
ATOM      2  C   UNL     1     149.489 146.505 160.793  1.00  0.00    -0.024 C 
ATOM      3  C   UNL     1     146.992 146.372 160.705  1.00  0.00     0.039 C 
ENDROOT
BRANCH   1   4
ATOM      4  C   UNL     1     148.294 148.542 160.066  1.00  0.00     0.034 C 
BRANCH   4   5
ATOM      5  C   UNL     1     147.309 149.376 160.895  1.00  0.00     0.032 C 
BRANCH   5   6
ATOM      6  C   UNL     1     147.762 149.493 162.330  1.00  0.00    -0.028 C 
ATOM      7  C   UNL     1     145.510 150.283 163.067  1.00  0.00     0.039 C 
ATOM      8  C   UNL     1     146.948 149.908 163.325  1.00  0.00    -0.080 C 
ATOM      9  C   UNL     1     147.468 150.002 164.737  1.00  0.00     0.039 C 
ENDBRANCH   5   6
ENDBRANCH   4   5
ENDBRANCH   1   4
BRANCH   2  10
ATOM     10  C   UNL     1     149.631 145.071 161.241  1.00  0.00     0.055 C 
BRANCH  10  11
ATOM     11  C   UNL     1     150.473 144.968 162.487  1.00  0.00    -0.020 C 
ATOM     12  C   UNL     1     149.972 145.014 163.738  1.00  0.00    -0.055 C 
ATOM     13  C   UNL     1     150.922 144.889 164.905  1.00  0.00     0.044 C 
BRANCH  12  14
ATOM     14  C   UNL     1     148.510 145.184 163.984  1.00  0.00    -0.005 C 
ATOM     15  C   UNL     1     147.958 146.334 164.377  1.00  0.00     0.009 C 
ENDBRANCH  12  14
ENDBRANCH  10  11
ENDBRANCH   2  10
TORSDOF 6
ENDMDL
MODEL 9
REMARK VINA RESULT:    -5.365      1.528      3.621
REMARK INTER + INTRA:          -8.402
REMARK INTER:                  -7.165
REMARK INTRA:                  -1.237
REMARK UNBOUND:                -1.155
REMARK SMILES C=CC(C)=CCC=C(C)CCC=C(C)C
REMARK SMILES IDX 8 1 7 2 9 3 10 4 11 5 12 6 14 7 13 8 15 9 6 10 5 11 3 12
REMARK SMILES IDX 4 13 2 14 1 15
REMARK H PARENT
REMARK Flexibility Score: inf
ROOT
ATOM      1  C   UNL     1     143.786 141.809 161.009  1.00  0.00    -0.077 C 
ATOM      2  C   UNL     1     143.612 143.123 161.275  1.00  0.00    -0.024 C 
ATOM      3  C   UNL     1     142.704 140.983 160.352  1.00  0.00     0.039 C 
ENDROOT
BRANCH   1   4
ATOM      4  C   UNL     1     145.102 141.153 161.366  1.00  0.00     0.034 C 
BRANCH   4   5
ATOM      5  C   UNL     1     145.338 141.194 162.881  1.00  0.00     0.032 C 
BRANCH   5   6
ATOM      6  C   UNL     1     144.271 140.424 163.622  1.00  0.00    -0.028 C 
ATOM      7  C   UNL     1     143.563 142.456 164.889  1.00  0.00     0.039 C 
ATOM      8  C   UNL     1     143.461 140.993 164.541  1.00  0.00    -0.080 C 
ATOM      9  C   UNL     1     142.417 140.163 165.245  1.00  0.00     0.039 C 
ENDBRANCH   5   6
ENDBRANCH   4   5
ENDBRANCH   1   4
BRANCH   2  10
ATOM     10  C   UNL     1     142.341 143.883 160.987  1.00  0.00     0.055 C 
BRANCH  10  11
ATOM     11  C   UNL     1     141.668 144.326 162.260  1.00  0.00    -0.020 C 
ATOM     12  C   UNL     1     140.836 145.385 162.340  1.00  0.00    -0.055 C 
ATOM     13  C   UNL     1     140.215 145.719 163.676  1.00  0.00     0.044 C 
BRANCH  12  14
ATOM     14  C   UNL     1     140.522 146.219 161.144  1.00  0.00    -0.005 C 
ATOM     15  C   UNL     1     141.052 147.424 160.928  1.00  0.00     0.009 C 
ENDBRANCH  12  14
ENDBRANCH  10  11
ENDBRANCH   2  10
TORSDOF 6
ENDMDL
