MODEL 1
REMARK VINA RESULT:    -5.092      0.000      0.000
REMARK INTER + INTRA:          -6.009
REMARK INTER:                  -5.837
REMARK INTRA:                  -0.173
REMARK UNBOUND:                -0.173
REMARK SMILES COc1ccc(C(C)=O)c(O)c1
REMARK SMILES IDX 6 1 10 2 12 3 3 4 4 5 5 6 7 7 8 8 9 9 11 10 2 12 1 13
REMARK H PARENT 11 11
REMARK Flexibility Score: inf
ROOT
ATOM      1  C   UNL     1       7.285  -2.214  48.171  1.00  0.00     0.059 A 
ATOM      2  C   UNL     1       6.587  -3.340  47.677  1.00  0.00     0.130 A 
ATOM      3  C   UNL     1       5.729  -3.204  46.576  1.00  0.00     0.093 A 
ATOM      4  C   UNL     1       5.534  -1.963  45.964  1.00  0.00     0.122 A 
ATOM      5  C   UNL     1       6.212  -0.840  46.466  1.00  0.00     0.047 A 
ATOM      6  C   UNL     1       7.073  -0.965  47.557  1.00  0.00     0.019 A 
ENDROOT
BRANCH   1   7
ATOM      7  C   UNL     1       8.223  -2.295  49.323  1.00  0.00     0.163 C 
ATOM      8  C   UNL     1       9.666  -2.664  49.161  1.00  0.00     0.093 C 
ATOM      9  O   UNL     1       7.798  -2.045  50.484  1.00  0.00    -0.294 OA
ENDBRANCH   1   7
BRANCH   2  10
ATOM     10  O   UNL     1       6.723  -4.589  48.284  1.00  0.00    -0.507 OA
ATOM     11  H   UNL     1       6.982  -4.683  49.260  1.00  0.00     0.293 HD
ENDBRANCH   2  10
BRANCH   4  12
ATOM     12  O   UNL     1       4.661  -1.889  44.868  1.00  0.00    -0.497 OA
ATOM     13  C   UNL     1       4.333  -2.990  44.026  1.00  0.00     0.278 C 
ENDBRANCH   4  12
TORSDOF 3
ENDMDL
MODEL 2
REMARK VINA RESULT:    -4.974      1.496      5.025
REMARK INTER + INTRA:          -5.874
REMARK INTER:                  -5.593
REMARK INTRA:                  -0.280
REMARK UNBOUND:                -0.173
REMARK SMILES COc1ccc(C(C)=O)c(O)c1
REMARK SMILES IDX 6 1 10 2 12 3 3 4 4 5 5 6 7 7 8 8 9 9 11 10 2 12 1 13
REMARK H PARENT 11 11
REMARK Flexibility Score: inf
ROOT
ATOM      1  C   UNL     1       5.397  -2.175  46.157  1.00  0.00     0.059 A 
ATOM      2  C   UNL     1       6.137  -1.091  46.684  1.00  0.00     0.130 A 
ATOM      3  C   UNL     1       6.689  -1.179  47.970  1.00  0.00     0.093 A 
ATOM      4  C   UNL     1       6.506  -2.320  48.755  1.00  0.00     0.122 A 
ATOM      5  C   UNL     1       5.756  -3.391  48.241  1.00  0.00     0.047 A 
ATOM      6  C   UNL     1       5.207  -3.316  46.960  1.00  0.00     0.019 A 
ENDROOT
BRANCH   1   7
ATOM      7  C   UNL     1       4.801  -2.151  44.795  1.00  0.00     0.163 C 
ATOM      8  C   UNL     1       4.470  -3.403  44.040  1.00  0.00     0.093 C 
ATOM      9  O   UNL     1       4.561  -1.042  44.245  1.00  0.00    -0.294 OA
ENDBRANCH   1   7
BRANCH   2  10
ATOM     10  O   UNL     1       6.308   0.082  45.948  1.00  0.00    -0.507 OA
ATOM     11  H   UNL     1       6.305   0.995  46.390  1.00  0.00     0.293 HD
ENDBRANCH   2  10
BRANCH   4  12
ATOM     12  O   UNL     1       7.081  -2.349  50.035  1.00  0.00    -0.497 OA
ATOM     13  C   UNL     1       6.455  -1.841  51.209  1.00  0.00     0.278 C 
ENDBRANCH   4  12
TORSDOF 3
ENDMDL
MODEL 3
REMARK VINA RESULT:    -4.821      2.361      4.400
REMARK INTER + INTRA:          -5.698
REMARK INTER:                  -5.405
REMARK INTRA:                  -0.293
REMARK UNBOUND:                -0.173
REMARK SMILES COc1ccc(C(C)=O)c(O)c1
REMARK SMILES IDX 6 1 10 2 12 3 3 4 4 5 5 6 7 7 8 8 9 9 11 10 2 12 1 13
REMARK H PARENT 11 11
REMARK Flexibility Score: inf
ROOT
ATOM      1  C   UNL     1       5.707  -2.237  47.739  1.00  0.00     0.059 A 
ATOM      2  C   UNL     1       5.371  -3.579  47.444  1.00  0.00     0.130 A 
ATOM      3  C   UNL     1       5.170  -4.496  48.485  1.00  0.00     0.093 A 
ATOM      4  C   UNL     1       5.313  -4.110  49.821  1.00  0.00     0.122 A 
ATOM      5  C   UNL     1       5.664  -2.782  50.116  1.00  0.00     0.047 A 
ATOM      6  C   UNL     1       5.861  -1.860  49.086  1.00  0.00     0.019 A 
ENDROOT
BRANCH   1   7
ATOM      7  C   UNL     1       5.916  -1.213  46.681  1.00  0.00     0.163 C 
ATOM      8  C   UNL     1       6.739   0.019  46.905  1.00  0.00     0.093 C 
ATOM      9  O   UNL     1       5.386  -1.377  45.548  1.00  0.00    -0.294 OA
ENDBRANCH   1   7
BRANCH   2  10
ATOM     10  O   UNL     1       5.258  -4.014  46.123  1.00  0.00    -0.507 OA
ATOM     11  H   UNL     1       5.949  -3.774  45.421  1.00  0.00     0.293 HD
ENDBRANCH   2  10
BRANCH   4  12
ATOM     12  O   UNL     1       5.101  -5.073  50.820  1.00  0.00    -0.497 OA
ATOM     13  C   UNL     1       6.009  -6.124  51.129  1.00  0.00     0.278 C 
ENDBRANCH   4  12
TORSDOF 3
ENDMDL
MODEL 4
REMARK VINA RESULT:    -4.718     13.273     14.295
REMARK INTER + INTRA:          -5.580
REMARK INTER:                  -5.285
REMARK INTRA:                  -0.295
REMARK UNBOUND:                -0.173
REMARK SMILES COc1ccc(C(C)=O)c(O)c1
REMARK SMILES IDX 6 1 10 2 12 3 3 4 4 5 5 6 7 7 8 8 9 9 11 10 2 12 1 13
REMARK H PARENT 11 11
REMARK Flexibility Score: inf
ROOT
ATOM      1  C   UNL     1       2.462  11.638  48.546  1.00  0.00     0.059 A 
ATOM      2  C   UNL     1       2.009  10.464  49.191  1.00  0.00     0.130 A 
ATOM      3  C   UNL     1       1.233   9.533  48.486  1.00  0.00     0.093 A 
ATOM      4  C   UNL     1       0.881   9.753  47.152  1.00  0.00     0.122 A 
ATOM      5  C   UNL     1       1.314  10.928  46.515  1.00  0.00     0.047 A 
ATOM      6  C   UNL     1       2.092  11.858  47.205  1.00  0.00     0.019 A 
ENDROOT
BRANCH   1   7
ATOM      7  C   UNL     1       3.302  12.656  49.232  1.00  0.00     0.163 C 
ATOM      8  C   UNL     1       4.737  12.892  48.869  1.00  0.00     0.093 C 
ATOM      9  O   UNL     1       2.799  13.353  50.155  1.00  0.00    -0.294 OA
ENDBRANCH   1   7
BRANCH   2  10
ATOM     10  O   UNL     1       2.306  10.227  50.533  1.00  0.00    -0.507 OA
ATOM     11  H   UNL     1       3.228   9.931  50.832  1.00  0.00     0.293 HD
ENDBRANCH   2  10
BRANCH   4  12
ATOM     12  O   UNL     1       0.101   8.785  46.499  1.00  0.00    -0.497 OA
ATOM     13  C   UNL     1      -0.469   8.951  45.205  1.00  0.00     0.278 C 
ENDBRANCH   4  12
TORSDOF 3
ENDMDL
MODEL 5
REMARK VINA RESULT:    -4.679      2.793      4.274
REMARK INTER + INTRA:          -5.535
REMARK INTER:                  -5.198
REMARK INTRA:                  -0.338
REMARK UNBOUND:                -0.173
REMARK SMILES COc1ccc(C(C)=O)c(O)c1
REMARK SMILES IDX 6 1 10 2 12 3 3 4 4 5 5 6 7 7 8 8 9 9 11 10 2 12 1 13
REMARK H PARENT 11 11
REMARK Flexibility Score: inf
ROOT
ATOM      1  C   UNL     1       4.768  -4.062  49.388  1.00  0.00     0.059 A 
ATOM      2  C   UNL     1       5.499  -3.205  50.243  1.00  0.00     0.130 A 
ATOM      3  C   UNL     1       6.245  -2.147  49.704  1.00  0.00     0.093 A 
ATOM      4  C   UNL     1       6.294  -1.932  48.324  1.00  0.00     0.122 A 
ATOM      5  C   UNL     1       5.584  -2.794  47.471  1.00  0.00     0.047 A 
ATOM      6  C   UNL     1       4.834  -3.846  47.999  1.00  0.00     0.019 A 
ENDROOT
BRANCH   1   7
ATOM      7  C   UNL     1       3.945  -5.191  49.899  1.00  0.00     0.163 C 
ATOM      8  C   UNL     1       2.549  -5.450  49.418  1.00  0.00     0.093 C 
ATOM      9  O   UNL     1       4.429  -5.966  50.768  1.00  0.00    -0.294 OA
ENDBRANCH   1   7
BRANCH   2  10
ATOM     10  O   UNL     1       5.508  -3.410  51.623  1.00  0.00    -0.507 OA
ATOM     11  H   UNL     1       5.879  -4.260  52.034  1.00  0.00     0.293 HD
ENDBRANCH   2  10
BRANCH   4  12
ATOM     12  O   UNL     1       7.059  -0.858  47.843  1.00  0.00    -0.497 OA
ATOM     13  C   UNL     1       6.638   0.032  46.814  1.00  0.00     0.278 C 
ENDBRANCH   4  12
TORSDOF 3
ENDMDL
MODEL 6
REMARK VINA RESULT:    -4.634     13.537     14.563
REMARK INTER + INTRA:          -5.484
REMARK INTER:                  -5.149
REMARK INTRA:                  -0.335
REMARK UNBOUND:                -0.173
REMARK SMILES COc1ccc(C(C)=O)c(O)c1
REMARK SMILES IDX 6 1 10 2 12 3 3 4 4 5 5 6 7 7 8 8 9 9 11 10 2 12 1 13
REMARK H PARENT 11 11
REMARK Flexibility Score: inf
ROOT
ATOM      1  C   UNL     1       2.647  10.742  47.880  1.00  0.00     0.059 A 
ATOM      2  C   UNL     1       3.108  11.085  49.172  1.00  0.00     0.130 A 
ATOM      3  C   UNL     1       4.446  11.459  49.362  1.00  0.00     0.093 A 
ATOM      4  C   UNL     1       5.345  11.483  48.292  1.00  0.00     0.122 A 
ATOM      5  C   UNL     1       4.894  11.125  47.011  1.00  0.00     0.047 A 
ATOM      6  C   UNL     1       3.563  10.757  46.810  1.00  0.00     0.019 A 
ENDROOT
BRANCH   1   7
ATOM      7  C   UNL     1       1.237  10.354  47.609  1.00  0.00     0.163 C 
ATOM      8  C   UNL     1       0.876   9.187  46.741  1.00  0.00     0.093 C 
ATOM      9  O   UNL     1       0.302  11.025  48.125  1.00  0.00    -0.294 OA
ENDBRANCH   1   7
BRANCH   2  10
ATOM     10  O   UNL     1       2.253  11.035  50.272  1.00  0.00    -0.507 OA
ATOM     11  H   UNL     1       2.318  11.705  51.030  1.00  0.00     0.293 HD
ENDBRANCH   2  10
BRANCH   4  12
ATOM     12  O   UNL     1       6.672  11.864  48.544  1.00  0.00    -0.497 OA
ATOM     13  C   UNL     1       7.246  13.100  48.134  1.00  0.00     0.278 C 
ENDBRANCH   4  12
TORSDOF 3
ENDMDL
MODEL 7
REMARK VINA RESULT:    -4.631     12.490     14.008
REMARK INTER + INTRA:          -5.481
REMARK INTER:                  -5.146
REMARK INTRA:                  -0.334
REMARK UNBOUND:                -0.173
REMARK SMILES COc1ccc(C(C)=O)c(O)c1
REMARK SMILES IDX 6 1 10 2 12 3 3 4 4 5 5 6 7 7 8 8 9 9 11 10 2 12 1 13
REMARK H PARENT 11 11
REMARK Flexibility Score: inf
ROOT
ATOM      1  C   UNL     1       3.855  11.227  48.219  1.00  0.00     0.059 A 
ATOM      2  C   UNL     1       4.988  11.112  49.058  1.00  0.00     0.130 A 
ATOM      3  C   UNL     1       6.239  10.802  48.506  1.00  0.00     0.093 A 
ATOM      4  C   UNL     1       6.387  10.585  47.133  1.00  0.00     0.122 A 
ATOM      5  C   UNL     1       5.259  10.680  46.301  1.00  0.00     0.047 A 
ATOM      6  C   UNL     1       4.010  10.994  46.839  1.00  0.00     0.019 A 
ENDROOT
BRANCH   1   7
ATOM      7  C   UNL     1       2.505  11.570  48.739  1.00  0.00     0.163 C 
ATOM      8  C   UNL     1       1.290  10.750  48.427  1.00  0.00     0.093 C 
ATOM      9  O   UNL     1       2.365  12.587  49.472  1.00  0.00    -0.294 OA
ENDBRANCH   1   7
BRANCH   2  10
ATOM     10  O   UNL     1       4.875  11.281  50.438  1.00  0.00    -0.507 OA
ATOM     11  H   UNL     1       4.609  10.518  51.049  1.00  0.00     0.293 HD
ENDBRANCH   2  10
BRANCH   4  12
ATOM     12  O   UNL     1       7.664  10.276  46.640  1.00  0.00    -0.497 OA
ATOM     13  C   UNL     1       8.072   8.977  46.226  1.00  0.00     0.278 C 
ENDBRANCH   4  12
TORSDOF 3
ENDMDL
MODEL 8
REMARK VINA RESULT:    -4.603     12.256     13.676
REMARK INTER + INTRA:          -5.449
REMARK INTER:                  -5.109
REMARK INTRA:                  -0.340
REMARK UNBOUND:                -0.173
REMARK SMILES COc1ccc(C(C)=O)c(O)c1
REMARK SMILES IDX 6 1 10 2 12 3 3 4 4 5 5 6 7 7 8 8 9 9 11 10 2 12 1 13
REMARK H PARENT 11 11
REMARK Flexibility Score: inf
ROOT
ATOM      1  C   UNL     1       6.538  10.376  47.086  1.00  0.00     0.059 A 
ATOM      2  C   UNL     1       5.466  10.652  46.206  1.00  0.00     0.130 A 
ATOM      3  C   UNL     1       4.288  11.232  46.698  1.00  0.00     0.093 A 
ATOM      4  C   UNL     1       4.145  11.530  48.056  1.00  0.00     0.122 A 
ATOM      5  C   UNL     1       5.202  11.240  48.935  1.00  0.00     0.047 A 
ATOM      6  C   UNL     1       6.381  10.667  48.454  1.00  0.00     0.019 A 
ENDROOT
BRANCH   1   7
ATOM      7  C   UNL     1       7.819   9.778  46.624  1.00  0.00     0.163 C 
ATOM      8  C   UNL     1       8.489   8.650  47.351  1.00  0.00     0.093 C 
ATOM      9  O   UNL     1       8.371  10.227  45.583  1.00  0.00    -0.294 OA
ENDBRANCH   1   7
BRANCH   2  10
ATOM     10  O   UNL     1       5.553  10.333  44.851  1.00  0.00    -0.507 OA
ATOM     11  H   UNL     1       5.254   9.433  44.494  1.00  0.00     0.293 HD
ENDBRANCH   2  10
BRANCH   4  12
ATOM     12  O   UNL     1       2.942  12.109  48.489  1.00  0.00    -0.497 OA
ATOM     13  C   UNL     1       2.822  12.955  49.628  1.00  0.00     0.278 C 
ENDBRANCH   4  12
TORSDOF 3
ENDMDL
MODEL 9
REMARK VINA RESULT:    -4.527      2.621      3.636
REMARK INTER + INTRA:          -5.362
REMARK INTER:                  -5.023
REMARK INTRA:                  -0.339
REMARK UNBOUND:                -0.173
REMARK SMILES COc1ccc(C(C)=O)c(O)c1
REMARK SMILES IDX 6 1 10 2 12 3 3 4 4 5 5 6 7 7 8 8 9 9 11 10 2 12 1 13
REMARK H PARENT 11 11
REMARK Flexibility Score: inf
ROOT
ATOM      1  C   UNL     1       6.741  -2.751  48.786  1.00  0.00     0.059 A 
ATOM      2  C   UNL     1       5.748  -3.202  47.886  1.00  0.00     0.130 A 
ATOM      3  C   UNL     1       4.659  -3.946  48.360  1.00  0.00     0.093 A 
ATOM      4  C   UNL     1       4.543  -4.269  49.715  1.00  0.00     0.122 A 
ATOM      5  C   UNL     1       5.538  -3.837  50.608  1.00  0.00     0.047 A 
ATOM      6  C   UNL     1       6.623  -3.091  50.147  1.00  0.00     0.019 A 
ENDROOT
BRANCH   1   7
ATOM      7  C   UNL     1       7.910  -1.943  48.349  1.00  0.00     0.163 C 
ATOM      8  C   UNL     1       9.323  -2.349  48.640  1.00  0.00     0.093 C 
ATOM      9  O   UNL     1       7.718  -0.874  47.707  1.00  0.00    -0.294 OA
ENDBRANCH   1   7
BRANCH   2  10
ATOM     10  O   UNL     1       5.847  -2.935  46.520  1.00  0.00    -0.507 OA
ATOM     11  H   UNL     1       5.325  -2.184  46.083  1.00  0.00     0.293 HD
ENDBRANCH   2  10
BRANCH   4  12
ATOM     12  O   UNL     1       3.431  -5.018  50.130  1.00  0.00    -0.497 OA
ATOM     13  C   UNL     1       2.407  -5.487  49.259  1.00  0.00     0.278 C 
ENDBRANCH   4  12
TORSDOF 3
ENDMDL
