MODEL 1
REMARK VINA RESULT:    -4.000      0.000      0.000
REMARK INTER + INTRA:          -5.215
REMARK INTER:                  -5.052
REMARK INTRA:                  -0.163
REMARK UNBOUND:                -0.163
REMARK SMILES CCCCC[C@H](C)O
REMARK SMILES IDX 4 1 3 2 2 3 1 4 5 5 6 6 7 7 8 8
REMARK H PARENT 8 9
REMARK Flexibility Score: inf
ROOT
ATOM      1  C   UNL     1     116.998 116.993 113.836  1.00  0.00     0.003 C 
ENDROOT
BRANCH   1   2
ATOM      2  C   UNL     1     116.308 116.274 115.008  1.00  0.00    -0.000 C 
BRANCH   2   3
ATOM      3  C   UNL     1     116.302 117.117 116.293  1.00  0.00    -0.003 C 
ATOM      4  C   UNL     1     117.659 117.136 116.996  1.00  0.00     0.004 C 
ENDBRANCH   2   3
ENDBRANCH   1   2
BRANCH   1   5
ATOM      5  C   UNL     1     117.230 116.079 112.619  1.00  0.00     0.031 C 
BRANCH   5   6
ATOM      6  C   UNL     1     116.079 116.119 111.586  1.00  0.00     0.111 C 
ATOM      7  C   UNL     1     115.300 117.435 111.683  1.00  0.00     0.038 C 
BRANCH   6   8
ATOM      8  O   UNL     1     115.203 115.032 111.750  1.00  0.00    -0.393 OA
ATOM      9  H   UNL     1     115.717 114.290 112.163  1.00  0.00     0.210 HD
ENDBRANCH   6   8
ENDBRANCH   5   6
ENDBRANCH   1   5
TORSDOF 5
ENDMDL
MODEL 2
REMARK VINA RESULT:    -3.999      1.550      1.582
REMARK INTER + INTRA:          -5.214
REMARK INTER:                  -5.040
REMARK INTRA:                  -0.174
REMARK UNBOUND:                -0.163
REMARK SMILES CCCCC[C@H](C)O
REMARK SMILES IDX 4 1 3 2 2 3 1 4 5 5 6 6 7 7 8 8
REMARK H PARENT 8 9
REMARK Flexibility Score: inf
ROOT
ATOM      1  C   UNL     1     116.979 116.275 113.955  1.00  0.00     0.003 C 
ENDROOT
BRANCH   1   2
ATOM      2  C   UNL     1     116.245 116.971 115.115  1.00  0.00    -0.000 C 
BRANCH   2   3
ATOM      3  C   UNL     1     117.044 116.926 116.427  1.00  0.00    -0.003 C 
ATOM      4  C   UNL     1     117.159 115.516 117.004  1.00  0.00     0.004 C 
ENDBRANCH   2   3
ENDBRANCH   1   2
BRANCH   1   5
ATOM      5  C   UNL     1     116.064 115.976 112.754  1.00  0.00     0.031 C 
BRANCH   5   6
ATOM      6  C   UNL     1     116.108 117.064 111.656  1.00  0.00     0.111 C 
ATOM      7  C   UNL     1     117.423 117.851 111.715  1.00  0.00     0.038 C 
BRANCH   6   8
ATOM      8  O   UNL     1     115.020 117.947 111.761  1.00  0.00    -0.393 OA
ATOM      9  H   UNL     1     115.352 118.861 111.561  1.00  0.00     0.210 HD
ENDBRANCH   6   8
ENDBRANCH   5   6
ENDBRANCH   1   5
TORSDOF 5
ENDMDL
MODEL 3
REMARK VINA RESULT:    -3.731      2.334      4.597
REMARK INTER + INTRA:          -4.876
REMARK INTER:                  -4.739
REMARK INTRA:                  -0.137
REMARK UNBOUND:                -0.163
REMARK SMILES CCCCC[C@H](C)O
REMARK SMILES IDX 4 1 3 2 2 3 1 4 5 5 6 6 7 7 8 8
REMARK H PARENT 8 9
REMARK Flexibility Score: inf
ROOT
ATOM      1  C   UNL     1     117.015 116.621 115.020  1.00  0.00     0.003 C 
ENDROOT
BRANCH   1   2
ATOM      2  C   UNL     1     116.266 116.505 113.681  1.00  0.00    -0.000 C 
BRANCH   2   3
ATOM      3  C   UNL     1     117.221 116.393 112.482  1.00  0.00    -0.003 C 
ATOM      4  C   UNL     1     117.412 117.720 111.749  1.00  0.00     0.004 C 
ENDBRANCH   2   3
ENDBRANCH   1   2
BRANCH   1   5
ATOM      5  C   UNL     1     116.133 117.164 116.159  1.00  0.00     0.031 C 
BRANCH   5   6
ATOM      6  C   UNL     1     116.044 116.218 117.379  1.00  0.00     0.111 C 
ATOM      7  C   UNL     1     117.218 115.233 117.396  1.00  0.00     0.038 C 
BRANCH   6   8
ATOM      8  O   UNL     1     114.829 115.512 117.396  1.00  0.00    -0.393 OA
ATOM      9  H   UNL     1     114.750 115.028 116.532  1.00  0.00     0.210 HD
ENDBRANCH   6   8
ENDBRANCH   5   6
ENDBRANCH   1   5
TORSDOF 5
ENDMDL
MODEL 4
REMARK VINA RESULT:    -3.731      2.613      4.618
REMARK INTER + INTRA:          -4.875
REMARK INTER:                  -4.791
REMARK INTRA:                  -0.084
REMARK UNBOUND:                -0.163
REMARK SMILES CCCCC[C@H](C)O
REMARK SMILES IDX 4 1 3 2 2 3 1 4 5 5 6 6 7 7 8 8
REMARK H PARENT 8 9
REMARK Flexibility Score: inf
ROOT
ATOM      1  C   UNL     1     116.698 116.969 114.644  1.00  0.00     0.003 C 
ENDROOT
BRANCH   1   2
ATOM      2  C   UNL     1     116.278 116.203 113.377  1.00  0.00    -0.000 C 
BRANCH   2   3
ATOM      3  C   UNL     1     116.201 117.112 112.140  1.00  0.00    -0.003 C 
ATOM      4  C   UNL     1     117.539 117.769 111.802  1.00  0.00     0.004 C 
ENDBRANCH   2   3
ENDBRANCH   1   2
BRANCH   1   5
ATOM      5  C   UNL     1     116.273 116.262 115.944  1.00  0.00     0.031 C 
BRANCH   5   6
ATOM      6  C   UNL     1     116.693 117.018 117.226  1.00  0.00     0.111 C 
ATOM      7  C   UNL     1     115.765 118.209 117.490  1.00  0.00     0.038 C 
BRANCH   6   8
ATOM      8  O   UNL     1     118.026 117.459 117.150  1.00  0.00    -0.393 OA
ATOM      9  H   UNL     1     118.486 117.173 117.982  1.00  0.00     0.210 HD
ENDBRANCH   6   8
ENDBRANCH   5   6
ENDBRANCH   1   5
TORSDOF 5
ENDMDL
MODEL 5
REMARK VINA RESULT:    -3.726      2.610      4.783
REMARK INTER + INTRA:          -4.869
REMARK INTER:                  -4.741
REMARK INTRA:                  -0.129
REMARK UNBOUND:                -0.163
REMARK SMILES CCCCC[C@H](C)O
REMARK SMILES IDX 4 1 3 2 2 3 1 4 5 5 6 6 7 7 8 8
REMARK H PARENT 8 9
REMARK Flexibility Score: inf
ROOT
ATOM      1  C   UNL     1     116.233 116.895 114.921  1.00  0.00     0.003 C 
ENDROOT
BRANCH   1   2
ATOM      2  C   UNL     1     116.937 116.797 113.556  1.00  0.00    -0.000 C 
BRANCH   2   3
ATOM      3  C   UNL     1     115.948 116.845 112.381  1.00  0.00    -0.003 C 
ATOM      4  C   UNL     1     115.612 115.459 111.831  1.00  0.00     0.004 C 
ENDBRANCH   2   3
ENDBRANCH   1   2
BRANCH   1   5
ATOM      5  C   UNL     1     116.974 116.137 116.038  1.00  0.00     0.031 C 
BRANCH   5   6
ATOM      6  C   UNL     1     117.198 116.979 117.315  1.00  0.00     0.111 C 
ATOM      7  C   UNL     1     116.079 118.011 117.496  1.00  0.00     0.038 C 
BRANCH   6   8
ATOM      8  O   UNL     1     118.445 117.627 117.293  1.00  0.00    -0.393 OA
ATOM      9  H   UNL     1     118.327 118.491 116.818  1.00  0.00     0.210 HD
ENDBRANCH   6   8
ENDBRANCH   5   6
ENDBRANCH   1   5
TORSDOF 5
ENDMDL
MODEL 6
REMARK VINA RESULT:    -3.724      2.436      4.688
REMARK INTER + INTRA:          -4.866
REMARK INTER:                  -4.781
REMARK INTRA:                  -0.086
REMARK UNBOUND:                -0.163
REMARK SMILES CCCCC[C@H](C)O
REMARK SMILES IDX 4 1 3 2 2 3 1 4 5 5 6 6 7 7 8 8
REMARK H PARENT 8 9
REMARK Flexibility Score: inf
ROOT
ATOM      1  C   UNL     1     116.969 116.731 114.922  1.00  0.00     0.003 C 
ENDROOT
BRANCH   1   2
ATOM      2  C   UNL     1     116.244 116.489 113.587  1.00  0.00    -0.000 C 
BRANCH   2   3
ATOM      3  C   UNL     1     117.216 116.398 112.400  1.00  0.00    -0.003 C 
ATOM      4  C   UNL     1     117.535 117.762 111.788  1.00  0.00     0.004 C 
ENDBRANCH   2   3
ENDBRANCH   1   2
BRANCH   1   5
ATOM      5  C   UNL     1     116.136 116.308 116.146  1.00  0.00     0.031 C 
BRANCH   5   6
ATOM      6  C   UNL     1     116.984 116.049 117.413  1.00  0.00     0.111 C 
ATOM      7  C   UNL     1     118.060 117.127 117.584  1.00  0.00     0.038 C 
BRANCH   6   8
ATOM      8  O   UNL     1     117.583 114.778 117.381  1.00  0.00    -0.393 OA
ATOM      9  H   UNL     1     117.549 114.405 118.300  1.00  0.00     0.210 HD
ENDBRANCH   6   8
ENDBRANCH   5   6
ENDBRANCH   1   5
TORSDOF 5
ENDMDL
MODEL 7
REMARK VINA RESULT:    -3.625      2.569      4.834
REMARK INTER + INTRA:          -4.741
REMARK INTER:                  -4.650
REMARK INTRA:                  -0.091
REMARK UNBOUND:                -0.163
REMARK SMILES CCCCC[C@H](C)O
REMARK SMILES IDX 4 1 3 2 2 3 1 4 5 5 6 6 7 7 8 8
REMARK H PARENT 8 9
REMARK Flexibility Score: inf
ROOT
ATOM      1  C   UNL     1     116.962 116.759 114.695  1.00  0.00     0.003 C 
ENDROOT
BRANCH   1   2
ATOM      2  C   UNL     1     116.318 116.172 113.426  1.00  0.00    -0.000 C 
BRANCH   2   3
ATOM      3  C   UNL     1     116.552 117.052 112.188  1.00  0.00    -0.003 C 
ATOM      4  C   UNL     1     115.276 117.731 111.693  1.00  0.00     0.004 C 
ENDBRANCH   2   3
ENDBRANCH   1   2
BRANCH   1   5
ATOM      5  C   UNL     1     116.152 116.469 115.972  1.00  0.00     0.031 C 
BRANCH   5   6
ATOM      6  C   UNL     1     116.432 117.463 117.122  1.00  0.00     0.111 C 
ATOM      7  C   UNL     1     117.928 117.512 117.453  1.00  0.00     0.038 C 
BRANCH   6   8
ATOM      8  O   UNL     1     115.699 117.135 118.276  1.00  0.00    -0.393 OA
ATOM      9  H   UNL     1     116.345 117.021 119.021  1.00  0.00     0.210 HD
ENDBRANCH   6   8
ENDBRANCH   5   6
ENDBRANCH   1   5
TORSDOF 5
ENDMDL
MODEL 8
REMARK VINA RESULT:    -3.452      3.224      5.068
REMARK INTER + INTRA:          -4.524
REMARK INTER:                  -4.394
REMARK INTRA:                  -0.130
REMARK UNBOUND:                -0.163
REMARK SMILES CCCCC[C@H](C)O
REMARK SMILES IDX 4 1 3 2 2 3 1 4 5 5 6 6 7 7 8 8
REMARK H PARENT 8 9
REMARK Flexibility Score: inf
ROOT
ATOM      1  C   UNL     1     116.160 116.640 116.185  1.00  0.00     0.003 C 
ENDROOT
BRANCH   1   2
ATOM      2  C   UNL     1     117.005 116.772 114.906  1.00  0.00    -0.000 C 
BRANCH   2   3
ATOM      3  C   UNL     1     116.273 116.244 113.662  1.00  0.00    -0.003 C 
ATOM      4  C   UNL     1     117.179 116.150 112.435  1.00  0.00     0.004 C 
ENDBRANCH   2   3
ENDBRANCH   1   2
BRANCH   1   5
ATOM      5  C   UNL     1     116.758 115.651 117.203  1.00  0.00     0.031 C 
BRANCH   5   6
ATOM      6  C   UNL     1     115.721 115.088 118.203  1.00  0.00     0.111 C 
ATOM      7  C   UNL     1     114.291 115.332 117.706  1.00  0.00     0.038 C 
BRANCH   6   8
ATOM      8  O   UNL     1     115.883 115.648 119.482  1.00  0.00    -0.393 OA
ATOM      9  H   UNL     1     115.307 115.138 120.109  1.00  0.00     0.210 HD
ENDBRANCH   6   8
ENDBRANCH   5   6
ENDBRANCH   1   5
TORSDOF 5
ENDMDL
MODEL 9
REMARK VINA RESULT:    -3.387      3.354      5.349
REMARK INTER + INTRA:          -4.441
REMARK INTER:                  -4.313
REMARK INTRA:                  -0.127
REMARK UNBOUND:                -0.163
REMARK SMILES CCCCC[C@H](C)O
REMARK SMILES IDX 4 1 3 2 2 3 1 4 5 5 6 6 7 7 8 8
REMARK H PARENT 8 9
REMARK Flexibility Score: inf
ROOT
ATOM      1  C   UNL     1     115.799 116.847 117.128  1.00  0.00     0.003 C 
ENDROOT
BRANCH   1   2
ATOM      2  C   UNL     1     116.636 116.196 116.013  1.00  0.00    -0.000 C 
BRANCH   2   3
ATOM      3  C   UNL     1     116.608 117.009 114.708  1.00  0.00    -0.003 C 
ATOM      4  C   UNL     1     116.442 116.133 113.467  1.00  0.00     0.004 C 
ENDBRANCH   2   3
ENDBRANCH   1   2
BRANCH   1   5
ATOM      5  C   UNL     1     116.398 118.172 117.637  1.00  0.00     0.031 C 
BRANCH   5   6
ATOM      6  C   UNL     1     115.377 119.073 118.369  1.00  0.00     0.111 C 
ATOM      7  C   UNL     1     114.055 118.332 118.597  1.00  0.00     0.038 C 
BRANCH   6   8
ATOM      8  O   UNL     1     115.140 120.263 117.660  1.00  0.00    -0.393 OA
ATOM      9  H   UNL     1     114.422 120.758 118.134  1.00  0.00     0.210 HD
ENDBRANCH   6   8
ENDBRANCH   5   6
ENDBRANCH   1   5
TORSDOF 5
ENDMDL
