MODEL 1
REMARK VINA RESULT:    -3.302      0.000      0.000
REMARK INTER + INTRA:          -8.137
REMARK INTER:                  -6.390
REMARK INTRA:                  -1.746
REMARK UNBOUND:                -1.746
REMARK SMILES CCCCCCCCCCCCCCCCCC(=O)[O-]
REMARK SMILES IDX 10 1 11 2 12 3 13 4 14 5 15 6 16 7 17 8 18 9 19 10 20 11
REMARK SMILES IDX 9 12 8 13 7 14 6 15 5 16 4 17 3 18 2 19 1 20
REMARK H PARENT
REMARK Flexibility Score: inf
ROOT
ATOM      1  C   UNL     1       1.551  25.477   9.254  1.00  0.00     0.000 C 
ENDROOT
BRANCH   1   2
ATOM      2  C   UNL     1       2.160  25.485  10.667  1.00  0.00     0.000 C 
BRANCH   2   3
ATOM      3  C   UNL     1       2.868  24.177  11.084  1.00  0.00     0.000 C 
BRANCH   3   4
ATOM      4  C   UNL     1       4.330  24.344  11.539  1.00  0.00     0.000 C 
BRANCH   4   5
ATOM      5  C   UNL     1       4.522  24.443  13.064  1.00  0.00     0.000 C 
BRANCH   5   6
ATOM      6  C   UNL     1       3.251  24.093  13.872  1.00  0.00     0.000 C 
BRANCH   6   7
ATOM      7  C   UNL     1       2.512  25.323  14.426  1.00  0.00     0.006 C 
BRANCH   7   8
ATOM      8  C   UNL     1       1.411  24.944  15.427  1.00  0.00     0.053 C 
BRANCH   8   9
ATOM      9  C   UNL     1       0.089  24.852  14.735  1.00  0.00     0.041 C 
ATOM     10  O   UNL     1      -0.939  24.507  15.376  1.00  0.00    -0.550 OA
ATOM     11  O   UNL     1      -0.021  25.198  13.394  1.00  0.00    -0.550 OA
ENDBRANCH   8   9
ENDBRANCH   7   8
ENDBRANCH   6   7
ENDBRANCH   5   6
ENDBRANCH   4   5
ENDBRANCH   3   4
ENDBRANCH   2   3
ENDBRANCH   1   2
BRANCH   1  12
ATOM     12  C   UNL     1       0.076  25.050   9.240  1.00  0.00     0.000 C 
BRANCH  12  13
ATOM     13  C   UNL     1      -0.599  25.441   7.920  1.00  0.00    -0.000 C 
BRANCH  13  14
ATOM     14  C   UNL     1       0.409  26.073   6.953  1.00  0.00    -0.000 C 
BRANCH  14  15
ATOM     15  C   UNL     1       0.471  25.293   5.634  1.00  0.00    -0.000 C 
BRANCH  15  16
ATOM     16  C   UNL     1       1.772  24.489   5.532  1.00  0.00    -0.000 C 
BRANCH  16  17
ATOM     17  C   UNL     1       2.967  25.301   6.054  1.00  0.00    -0.000 C 
BRANCH  17  18
ATOM     18  C   UNL     1       4.221  24.426   6.264  1.00  0.00    -0.000 C 
BRANCH  18  19
ATOM     19  C   UNL     1       4.682  24.353   7.729  1.00  0.00    -0.003 C 
ATOM     20  C   UNL     1       5.528  25.551   8.151  1.00  0.00     0.004 C 
ENDBRANCH  18  19
ENDBRANCH  17  18
ENDBRANCH  16  17
ENDBRANCH  15  16
ENDBRANCH  14  15
ENDBRANCH  13  14
ENDBRANCH  12  13
ENDBRANCH   1  12
TORSDOF 16
ENDMDL
MODEL 2
REMARK VINA RESULT:    -3.278      2.780      7.307
REMARK INTER + INTRA:          -8.090
REMARK INTER:                  -6.406
REMARK INTRA:                  -1.684
REMARK UNBOUND:                -1.746
REMARK SMILES CCCCCCCCCCCCCCCCCC(=O)[O-]
REMARK SMILES IDX 10 1 11 2 12 3 13 4 14 5 15 6 16 7 17 8 18 9 19 10 20 11
REMARK SMILES IDX 9 12 8 13 7 14 6 15 5 16 4 17 3 18 2 19 1 20
REMARK H PARENT
REMARK Flexibility Score: inf
ROOT
ATOM      1  C   UNL     1       3.441  25.045  11.043  1.00  0.00     0.000 C 
ENDROOT
BRANCH   1   2
ATOM      2  C   UNL     1       4.415  24.018  10.437  1.00  0.00     0.000 C 
BRANCH   2   3
ATOM      3  C   UNL     1       4.347  23.876   8.901  1.00  0.00     0.000 C 
BRANCH   3   4
ATOM      4  C   UNL     1       4.855  25.096   8.110  1.00  0.00     0.000 C 
BRANCH   4   5
ATOM      5  C   UNL     1       4.672  24.996   6.585  1.00  0.00     0.000 C 
BRANCH   5   6
ATOM      6  C   UNL     1       3.250  24.562   6.159  1.00  0.00     0.000 C 
BRANCH   6   7
ATOM      7  C   UNL     1       2.224  25.707   6.166  1.00  0.00     0.006 C 
BRANCH   7   8
ATOM      8  C   UNL     1       0.925  25.327   6.891  1.00  0.00     0.053 C 
BRANCH   8   9
ATOM      9  C   UNL     1      -0.246  25.990   6.241  1.00  0.00     0.041 C 
ATOM     10  O   UNL     1      -0.663  25.587   5.123  1.00  0.00    -0.550 OA
ATOM     11  O   UNL     1      -0.913  27.020   6.893  1.00  0.00    -0.550 OA
ENDBRANCH   8   9
ENDBRANCH   7   8
ENDBRANCH   6   7
ENDBRANCH   5   6
ENDBRANCH   4   5
ENDBRANCH   3   4
ENDBRANCH   2   3
ENDBRANCH   1   2
BRANCH   1  12
ATOM     12  C   UNL     1       3.165  24.800  12.533  1.00  0.00     0.000 C 
BRANCH  12  13
ATOM     13  C   UNL     1       3.163  26.118  13.318  1.00  0.00    -0.000 C 
BRANCH  13  14
ATOM     14  C   UNL     1       2.567  25.924  14.716  1.00  0.00    -0.000 C 
BRANCH  14  15
ATOM     15  C   UNL     1       1.989  24.514  14.879  1.00  0.00    -0.000 C 
BRANCH  15  16
ATOM     16  C   UNL     1       0.606  24.560  15.540  1.00  0.00    -0.000 C 
BRANCH  16  17
ATOM     17  C   UNL     1      -0.475  24.008  14.600  1.00  0.00    -0.000 C 
BRANCH  17  18
ATOM     18  C   UNL     1      -0.587  24.823  13.294  1.00  0.00    -0.000 C 
BRANCH  18  19
ATOM     19  C   UNL     1      -0.432  23.972  12.022  1.00  0.00    -0.003 C 
ATOM     20  C   UNL     1      -0.281  24.811  10.756  1.00  0.00     0.004 C 
ENDBRANCH  18  19
ENDBRANCH  17  18
ENDBRANCH  16  17
ENDBRANCH  15  16
ENDBRANCH  14  15
ENDBRANCH  13  14
ENDBRANCH  12  13
ENDBRANCH   1  12
TORSDOF 16
ENDMDL
MODEL 3
REMARK VINA RESULT:    -3.124      1.609      4.013
REMARK INTER + INTRA:          -7.792
REMARK INTER:                  -5.731
REMARK INTRA:                  -2.060
REMARK UNBOUND:                -1.746
REMARK SMILES CCCCCCCCCCCCCCCCCC(=O)[O-]
REMARK SMILES IDX 10 1 11 2 12 3 13 4 14 5 15 6 16 7 17 8 18 9 19 10 20 11
REMARK SMILES IDX 9 12 8 13 7 14 6 15 5 16 4 17 3 18 2 19 1 20
REMARK H PARENT
REMARK Flexibility Score: inf
ROOT
ATOM      1  C   UNL     1       3.414  25.367  10.274  1.00  0.00     0.000 C 
ENDROOT
BRANCH   1   2
ATOM      2  C   UNL     1       1.933  25.556   9.903  1.00  0.00     0.000 C 
BRANCH   2   3
ATOM      3  C   UNL     1       1.130  24.250   9.721  1.00  0.00     0.000 C 
BRANCH   3   4
ATOM      4  C   UNL     1      -0.401  24.420   9.724  1.00  0.00     0.000 C 
BRANCH   4   5
ATOM      5  C   UNL     1      -1.091  24.013  11.039  1.00  0.00     0.000 C 
BRANCH   5   6
ATOM      6  C   UNL     1      -0.692  24.895  12.246  1.00  0.00     0.000 C 
BRANCH   6   7
ATOM      7  C   UNL     1      -0.011  24.116  13.383  1.00  0.00     0.006 C 
BRANCH   7   8
ATOM      8  C   UNL     1       1.519  24.231  13.338  1.00  0.00     0.053 C 
BRANCH   8   9
ATOM      9  C   UNL     1       1.990  25.284  14.290  1.00  0.00     0.041 C 
ATOM     10  O   UNL     1       2.817  26.155  13.913  1.00  0.00    -0.550 OA
ATOM     11  O   UNL     1       1.475  25.338  15.579  1.00  0.00    -0.550 OA
ENDBRANCH   8   9
ENDBRANCH   7   8
ENDBRANCH   6   7
ENDBRANCH   5   6
ENDBRANCH   4   5
ENDBRANCH   3   4
ENDBRANCH   2   3
ENDBRANCH   1   2
BRANCH   1  12
ATOM     12  C   UNL     1       4.127  24.337   9.386  1.00  0.00     0.000 C 
BRANCH  12  13
ATOM     13  C   UNL     1       5.258  24.989   8.582  1.00  0.00    -0.000 C 
BRANCH  13  14
ATOM     14  C   UNL     1       4.814  25.282   7.145  1.00  0.00    -0.000 C 
BRANCH  14  15
ATOM     15  C   UNL     1       4.437  23.990   6.410  1.00  0.00    -0.000 C 
BRANCH  15  16
ATOM     16  C   UNL     1       3.191  24.196   5.540  1.00  0.00    -0.000 C 
BRANCH  16  17
ATOM     17  C   UNL     1       2.253  25.244   6.157  1.00  0.00    -0.000 C 
BRANCH  17  18
ATOM     18  C   UNL     1       0.775  24.797   6.122  1.00  0.00    -0.000 C 
BRANCH  18  19
ATOM     19  C   UNL     1      -0.091  25.613   5.149  1.00  0.00    -0.003 C 
ATOM     20  C   UNL     1      -0.194  24.979   3.764  1.00  0.00     0.004 C 
ENDBRANCH  18  19
ENDBRANCH  17  18
ENDBRANCH  16  17
ENDBRANCH  15  16
ENDBRANCH  14  15
ENDBRANCH  13  14
ENDBRANCH  12  13
ENDBRANCH   1  12
TORSDOF 16
ENDMDL
MODEL 4
REMARK VINA RESULT:    -3.007      1.990      3.132
REMARK INTER + INTRA:          -7.565
REMARK INTER:                  -5.891
REMARK INTRA:                  -1.674
REMARK UNBOUND:                -1.746
REMARK SMILES CCCCCCCCCCCCCCCCCC(=O)[O-]
REMARK SMILES IDX 10 1 11 2 12 3 13 4 14 5 15 6 16 7 17 8 18 9 19 10 20 11
REMARK SMILES IDX 9 12 8 13 7 14 6 15 5 16 4 17 3 18 2 19 1 20
REMARK H PARENT
REMARK Flexibility Score: inf
ROOT
ATOM      1  C   UNL     1       0.922  24.605  10.920  1.00  0.00     0.000 C 
ENDROOT
BRANCH   1   2
ATOM      2  C   UNL     1      -0.534  24.400  11.373  1.00  0.00     0.000 C 
BRANCH   2   3
ATOM      3  C   UNL     1      -0.917  25.107  12.692  1.00  0.00     0.000 C 
BRANCH   3   4
ATOM      4  C   UNL     1      -1.125  24.171  13.897  1.00  0.00     0.000 C 
BRANCH   4   5
ATOM      5  C   UNL     1       0.044  24.142  14.898  1.00  0.00     0.000 C 
BRANCH   5   6
ATOM      6  C   UNL     1       0.983  25.367  14.790  1.00  0.00     0.000 C 
BRANCH   6   7
ATOM      7  C   UNL     1       2.476  25.015  14.894  1.00  0.00     0.006 C 
BRANCH   7   8
ATOM      8  C   UNL     1       2.946  24.110  13.747  1.00  0.00     0.053 C 
BRANCH   8   9
ATOM      9  C   UNL     1       4.163  24.686  13.096  1.00  0.00     0.041 C 
ATOM     10  O   UNL     1       4.506  24.306  11.946  1.00  0.00    -0.550 OA
ATOM     11  O   UNL     1       4.890  25.682  13.737  1.00  0.00    -0.550 OA
ENDBRANCH   8   9
ENDBRANCH   7   8
ENDBRANCH   6   7
ENDBRANCH   5   6
ENDBRANCH   4   5
ENDBRANCH   3   4
ENDBRANCH   2   3
ENDBRANCH   1   2
BRANCH   1  12
ATOM     12  C   UNL     1       1.093  24.511   9.397  1.00  0.00     0.000 C 
BRANCH  12  13
ATOM     13  C   UNL     1       0.431  25.701   8.692  1.00  0.00    -0.000 C 
BRANCH  13  14
ATOM     14  C   UNL     1      -0.002  25.327   7.271  1.00  0.00    -0.000 C 
BRANCH  14  15
ATOM     15  C   UNL     1       0.969  25.896   6.230  1.00  0.00    -0.000 C 
BRANCH  15  16
ATOM     16  C   UNL     1       1.472  24.797   5.287  1.00  0.00    -0.000 C 
BRANCH  16  17
ATOM     17  C   UNL     1       2.816  24.230   5.766  1.00  0.00    -0.000 C 
BRANCH  17  18
ATOM     18  C   UNL     1       3.585  25.225   6.662  1.00  0.00    -0.000 C 
BRANCH  18  19
ATOM     19  C   UNL     1       4.665  24.562   7.532  1.00  0.00    -0.003 C 
ATOM     20  C   UNL     1       5.631  25.566   8.156  1.00  0.00     0.004 C 
ENDBRANCH  18  19
ENDBRANCH  17  18
ENDBRANCH  16  17
ENDBRANCH  15  16
ENDBRANCH  14  15
ENDBRANCH  13  14
ENDBRANCH  12  13
ENDBRANCH   1  12
TORSDOF 16
ENDMDL
MODEL 5
REMARK VINA RESULT:    -2.995      1.011      3.392
REMARK INTER + INTRA:          -7.542
REMARK INTER:                  -6.040
REMARK INTRA:                  -1.502
REMARK UNBOUND:                -1.746
REMARK SMILES CCCCCCCCCCCCCCCCCC(=O)[O-]
REMARK SMILES IDX 10 1 11 2 12 3 13 4 14 5 15 6 16 7 17 8 18 9 19 10 20 11
REMARK SMILES IDX 9 12 8 13 7 14 6 15 5 16 4 17 3 18 2 19 1 20
REMARK H PARENT
REMARK Flexibility Score: inf
ROOT
ATOM      1  C   UNL     1       5.549  25.235   8.873  1.00  0.00     0.000 C 
ENDROOT
BRANCH   1   2
ATOM      2  C   UNL     1       4.498  24.431   9.659  1.00  0.00     0.000 C 
BRANCH   2   3
ATOM      3  C   UNL     1       3.278  25.243  10.143  1.00  0.00     0.000 C 
BRANCH   3   4
ATOM      4  C   UNL     1       2.638  24.741  11.451  1.00  0.00     0.000 C 
BRANCH   4   5
ATOM      5  C   UNL     1       3.590  24.703  12.660  1.00  0.00     0.000 C 
BRANCH   5   6
ATOM      6  C   UNL     1       3.498  25.958  13.561  1.00  0.00     0.000 C 
BRANCH   6   7
ATOM      7  C   UNL     1       2.548  25.792  14.758  1.00  0.00     0.006 C 
BRANCH   7   8
ATOM      8  C   UNL     1       1.932  24.387  14.828  1.00  0.00     0.053 C 
BRANCH   8   9
ATOM      9  C   UNL     1       0.440  24.473  14.822  1.00  0.00     0.041 C 
ATOM     10  O   UNL     1      -0.187  24.532  13.732  1.00  0.00    -0.550 OA
ATOM     11  O   UNL     1      -0.265  24.435  16.019  1.00  0.00    -0.550 OA
ENDBRANCH   8   9
ENDBRANCH   7   8
ENDBRANCH   6   7
ENDBRANCH   5   6
ENDBRANCH   4   5
ENDBRANCH   3   4
ENDBRANCH   2   3
ENDBRANCH   1   2
BRANCH   1  12
ATOM     12  C   UNL     1       5.254  25.296   7.368  1.00  0.00     0.000 C 
BRANCH  12  13
ATOM     13  C   UNL     1       4.515  24.037   6.899  1.00  0.00    -0.000 C 
BRANCH  13  14
ATOM     14  C   UNL     1       3.411  24.388   5.895  1.00  0.00    -0.000 C 
BRANCH  14  15
ATOM     15  C   UNL     1       2.401  25.367   6.507  1.00  0.00    -0.000 C 
BRANCH  15  16
ATOM     16  C   UNL     1       1.188  25.551   5.587  1.00  0.00    -0.000 C 
BRANCH  16  17
ATOM     17  C   UNL     1      -0.030  26.055   6.373  1.00  0.00    -0.000 C 
BRANCH  17  18
ATOM     18  C   UNL     1      -0.705  24.932   7.190  1.00  0.00    -0.000 C 
BRANCH  18  19
ATOM     19  C   UNL     1      -0.656  25.163   8.709  1.00  0.00    -0.003 C 
ATOM     20  C   UNL     1      -0.458  23.875   9.504  1.00  0.00     0.004 C 
ENDBRANCH  18  19
ENDBRANCH  17  18
ENDBRANCH  16  17
ENDBRANCH  15  16
ENDBRANCH  14  15
ENDBRANCH  13  14
ENDBRANCH  12  13
ENDBRANCH   1  12
TORSDOF 16
ENDMDL
MODEL 6
REMARK VINA RESULT:    -2.983      1.584      3.863
REMARK INTER + INTRA:          -7.519
REMARK INTER:                  -5.774
REMARK INTRA:                  -1.745
REMARK UNBOUND:                -1.746
REMARK SMILES CCCCCCCCCCCCCCCCCC(=O)[O-]
REMARK SMILES IDX 10 1 11 2 12 3 13 4 14 5 15 6 16 7 17 8 18 9 19 10 20 11
REMARK SMILES IDX 9 12 8 13 7 14 6 15 5 16 4 17 3 18 2 19 1 20
REMARK H PARENT
REMARK Flexibility Score: inf
ROOT
ATOM      1  C   UNL     1       4.869  25.372   6.992  1.00  0.00     0.000 C 
ENDROOT
BRANCH   1   2
ATOM      2  C   UNL     1       5.202  25.241   8.489  1.00  0.00     0.000 C 
BRANCH   2   3
ATOM      3  C   UNL     1       4.858  23.875   9.121  1.00  0.00     0.000 C 
BRANCH   3   4
ATOM      4  C   UNL     1       4.124  23.948  10.473  1.00  0.00     0.000 C 
BRANCH   4   5
ATOM      5  C   UNL     1       3.045  25.043  10.561  1.00  0.00     0.000 C 
BRANCH   5   6
ATOM      6  C   UNL     1       1.601  24.488  10.582  1.00  0.00     0.000 C 
BRANCH   6   7
ATOM      7  C   UNL     1       0.917  24.595  11.955  1.00  0.00     0.006 C 
BRANCH   7   8
ATOM      8  C   UNL     1       1.733  25.429  12.953  1.00  0.00     0.053 C 
BRANCH   8   9
ATOM      9  C   UNL     1       1.173  25.283  14.332  1.00  0.00     0.041 C 
ATOM     10  O   UNL     1      -0.039  24.984  14.496  1.00  0.00    -0.550 OA
ATOM     11  O   UNL     1       2.001  25.424  15.438  1.00  0.00    -0.550 OA
ENDBRANCH   8   9
ENDBRANCH   7   8
ENDBRANCH   6   7
ENDBRANCH   5   6
ENDBRANCH   4   5
ENDBRANCH   3   4
ENDBRANCH   2   3
ENDBRANCH   1   2
BRANCH   1  12
ATOM     12  C   UNL     1       4.455  24.039   6.352  1.00  0.00     0.000 C 
BRANCH  12  13
ATOM     13  C   UNL     1       3.037  24.120   5.774  1.00  0.00    -0.000 C 
BRANCH  13  14
ATOM     14  C   UNL     1       2.383  25.465   6.111  1.00  0.00    -0.000 C 
BRANCH  14  15
ATOM     15  C   UNL     1       1.252  25.287   7.131  1.00  0.00    -0.000 C 
BRANCH  15  16
ATOM     16  C   UNL     1      -0.049  25.921   6.626  1.00  0.00    -0.000 C 
BRANCH  16  17
ATOM     17  C   UNL     1      -0.655  25.101   5.478  1.00  0.00    -0.000 C 
BRANCH  17  18
ATOM     18  C   UNL     1      -0.790  25.924   4.178  1.00  0.00    -0.000 C 
BRANCH  18  19
ATOM     19  C   UNL     1      -0.445  25.129   2.909  1.00  0.00    -0.003 C 
ATOM     20  C   UNL     1       0.625  24.065   3.141  1.00  0.00     0.004 C 
ENDBRANCH  18  19
ENDBRANCH  17  18
ENDBRANCH  16  17
ENDBRANCH  15  16
ENDBRANCH  14  15
ENDBRANCH  13  14
ENDBRANCH  12  13
ENDBRANCH   1  12
TORSDOF 16
ENDMDL
MODEL 7
REMARK VINA RESULT:    -2.937      2.570      6.945
REMARK INTER + INTRA:          -7.430
REMARK INTER:                  -5.704
REMARK INTRA:                  -1.726
REMARK UNBOUND:                -1.746
REMARK SMILES CCCCCCCCCCCCCCCCCC(=O)[O-]
REMARK SMILES IDX 10 1 11 2 12 3 13 4 14 5 15 6 16 7 17 8 18 9 19 10 20 11
REMARK SMILES IDX 9 12 8 13 7 14 6 15 5 16 4 17 3 18 2 19 1 20
REMARK H PARENT
REMARK Flexibility Score: inf
ROOT
ATOM      1  C   UNL     1      -0.053  24.189   8.798  1.00  0.00     0.000 C 
ENDROOT
BRANCH   1   2
ATOM      2  C   UNL     1      -0.723  25.414   8.151  1.00  0.00     0.000 C 
BRANCH   2   3
ATOM      3  C   UNL     1       0.136  26.157   7.106  1.00  0.00     0.000 C 
BRANCH   3   4
ATOM      4  C   UNL     1       0.185  25.498   5.715  1.00  0.00     0.000 C 
BRANCH   4   5
ATOM      5  C   UNL     1       1.598  25.353   5.120  1.00  0.00     0.000 C 
BRANCH   5   6
ATOM      6  C   UNL     1       2.453  24.266   5.813  1.00  0.00     0.000 C 
BRANCH   6   7
ATOM      7  C   UNL     1       3.677  24.823   6.559  1.00  0.00     0.006 C 
BRANCH   7   8
ATOM      8  C   UNL     1       3.494  24.802   8.083  1.00  0.00     0.053 C 
BRANCH   8   9
ATOM      9  C   UNL     1       4.824  24.827   8.766  1.00  0.00     0.041 C 
ATOM     10  O   UNL     1       5.736  25.589   8.350  1.00  0.00    -0.550 OA
ATOM     11  O   UNL     1       5.041  24.050   9.897  1.00  0.00    -0.550 OA
ENDBRANCH   8   9
ENDBRANCH   7   8
ENDBRANCH   6   7
ENDBRANCH   5   6
ENDBRANCH   4   5
ENDBRANCH   3   4
ENDBRANCH   2   3
ENDBRANCH   1   2
BRANCH   1  12
ATOM     12  C   UNL     1       0.223  24.380  10.296  1.00  0.00     0.000 C 
BRANCH  12  13
ATOM     13  C   UNL     1      -1.064  24.723  11.056  1.00  0.00    -0.000 C 
BRANCH  13  14
ATOM     14  C   UNL     1      -1.064  24.091  12.452  1.00  0.00    -0.000 C 
BRANCH  14  15
ATOM     15  C   UNL     1      -0.297  24.964  13.452  1.00  0.00    -0.000 C 
BRANCH  15  16
ATOM     16  C   UNL     1       0.644  24.114  14.315  1.00  0.00    -0.000 C 
BRANCH  16  17
ATOM     17  C   UNL     1       1.386  24.981  15.342  1.00  0.00    -0.000 C 
BRANCH  17  18
ATOM     18  C   UNL     1       2.435  25.901  14.681  1.00  0.00    -0.000 C 
BRANCH  18  19
ATOM     19  C   UNL     1       3.303  25.190  13.631  1.00  0.00    -0.003 C 
ATOM     20  C   UNL     1       3.189  25.809  12.240  1.00  0.00     0.004 C 
ENDBRANCH  18  19
ENDBRANCH  17  18
ENDBRANCH  16  17
ENDBRANCH  15  16
ENDBRANCH  14  15
ENDBRANCH  13  14
ENDBRANCH  12  13
ENDBRANCH   1  12
TORSDOF 16
ENDMDL
MODEL 8
REMARK VINA RESULT:    -2.838      1.784      6.772
REMARK INTER + INTRA:          -7.239
REMARK INTER:                  -5.686
REMARK INTRA:                  -1.553
REMARK UNBOUND:                -1.746
REMARK SMILES CCCCCCCCCCCCCCCCCC(=O)[O-]
REMARK SMILES IDX 10 1 11 2 12 3 13 4 14 5 15 6 16 7 17 8 18 9 19 10 20 11
REMARK SMILES IDX 9 12 8 13 7 14 6 15 5 16 4 17 3 18 2 19 1 20
REMARK H PARENT
REMARK Flexibility Score: inf
ROOT
ATOM      1  C   UNL     1       4.872  25.394   7.529  1.00  0.00     0.000 C 
ENDROOT
BRANCH   1   2
ATOM      2  C   UNL     1       4.497  24.263   6.556  1.00  0.00     0.000 C 
BRANCH   2   3
ATOM      3  C   UNL     1       2.986  24.105   6.284  1.00  0.00     0.000 C 
BRANCH   3   4
ATOM      4  C   UNL     1       2.258  25.398   5.871  1.00  0.00     0.000 C 
BRANCH   4   5
ATOM      5  C   UNL     1       1.106  25.197   4.870  1.00  0.00     0.000 C 
BRANCH   5   6
ATOM      6  C   UNL     1      -0.014  24.267   5.394  1.00  0.00     0.000 C 
BRANCH   6   7
ATOM      7  C   UNL     1      -0.855  24.886   6.523  1.00  0.00     0.006 C 
BRANCH   7   8
ATOM      8  C   UNL     1      -0.748  24.095   7.834  1.00  0.00     0.053 C 
BRANCH   8   9
ATOM      9  C   UNL     1      -0.303  24.991   8.947  1.00  0.00     0.041 C 
ATOM     10  O   UNL     1      -0.547  24.684  10.143  1.00  0.00    -0.550 OA
ATOM     11  O   UNL     1       0.428  26.138   8.667  1.00  0.00    -0.550 OA
ENDBRANCH   8   9
ENDBRANCH   7   8
ENDBRANCH   6   7
ENDBRANCH   5   6
ENDBRANCH   4   5
ENDBRANCH   3   4
ENDBRANCH   2   3
ENDBRANCH   1   2
BRANCH   1  12
ATOM     12  C   UNL     1       5.479  24.878   8.841  1.00  0.00     0.000 C 
BRANCH  12  13
ATOM     13  C   UNL     1       4.433  24.128   9.675  1.00  0.00    -0.000 C 
BRANCH  13  14
ATOM     14  C   UNL     1       3.316  25.071  10.134  1.00  0.00    -0.000 C 
BRANCH  14  15
ATOM     15  C   UNL     1       2.760  24.646  11.498  1.00  0.00    -0.000 C 
BRANCH  15  16
ATOM     16  C   UNL     1       3.542  25.306  12.640  1.00  0.00    -0.000 C 
BRANCH  16  17
ATOM     17  C   UNL     1       2.633  26.212  13.482  1.00  0.00    -0.000 C 
BRANCH  17  18
ATOM     18  C   UNL     1       2.251  25.566  14.831  1.00  0.00    -0.000 C 
BRANCH  18  19
ATOM     19  C   UNL     1       1.057  24.603  14.736  1.00  0.00    -0.003 C 
ATOM     20  C   UNL     1      -0.093  25.157  13.898  1.00  0.00     0.004 C 
ENDBRANCH  18  19
ENDBRANCH  17  18
ENDBRANCH  16  17
ENDBRANCH  15  16
ENDBRANCH  14  15
ENDBRANCH  13  14
ENDBRANCH  12  13
ENDBRANCH   1  12
TORSDOF 16
ENDMDL
MODEL 9
REMARK VINA RESULT:    -2.076      2.444      6.947
REMARK INTER + INTRA:          -5.765
REMARK INTER:                  -4.328
REMARK INTRA:                  -1.437
REMARK UNBOUND:                -1.746
REMARK SMILES CCCCCCCCCCCCCCCCCC(=O)[O-]
REMARK SMILES IDX 10 1 11 2 12 3 13 4 14 5 15 6 16 7 17 8 18 9 19 10 20 11
REMARK SMILES IDX 9 12 8 13 7 14 6 15 5 16 4 17 3 18 2 19 1 20
REMARK H PARENT
REMARK Flexibility Score: inf
ROOT
ATOM      1  C   UNL     1       4.232  24.812   9.668  1.00  0.00     0.000 C 
ENDROOT
BRANCH   1   2
ATOM      2  C   UNL     1       4.900  24.406   8.342  1.00  0.00     0.000 C 
BRANCH   2   3
ATOM      3  C   UNL     1       4.408  25.174   7.097  1.00  0.00     0.000 C 
BRANCH   3   4
ATOM      4  C   UNL     1       3.246  24.507   6.336  1.00  0.00     0.000 C 
BRANCH   4   5
ATOM      5  C   UNL     1       2.265  25.489   5.672  1.00  0.00     0.000 C 
BRANCH   5   6
ATOM      6  C   UNL     1       1.328  24.823   4.636  1.00  0.00     0.000 C 
BRANCH   6   7
ATOM      7  C   UNL     1      -0.049  25.498   4.522  1.00  0.00     0.006 C 
BRANCH   7   8
ATOM      8  C   UNL     1      -0.906  25.295   5.779  1.00  0.00     0.053 C 
BRANCH   8   9
ATOM      9  C   UNL     1      -0.755  26.460   6.704  1.00  0.00     0.041 C 
ATOM     10  O   UNL     1      -1.125  27.608   6.343  1.00  0.00    -0.550 OA
ATOM     11  O   UNL     1      -0.256  26.270   7.987  1.00  0.00    -0.550 OA
ENDBRANCH   8   9
ENDBRANCH   7   8
ENDBRANCH   6   7
ENDBRANCH   5   6
ENDBRANCH   4   5
ENDBRANCH   3   4
ENDBRANCH   2   3
ENDBRANCH   1   2
BRANCH   1  12
ATOM     12  C   UNL     1       2.938  24.034   9.948  1.00  0.00     0.000 C 
BRANCH  12  13
ATOM     13  C   UNL     1       1.838  24.965  10.474  1.00  0.00    -0.000 C 
BRANCH  13  14
ATOM     14  C   UNL     1       0.512  24.213  10.635  1.00  0.00    -0.000 C 
BRANCH  14  15
ATOM     15  C   UNL     1      -0.173  24.581  11.956  1.00  0.00    -0.000 C 
BRANCH  15  16
ATOM     16  C   UNL     1       0.724  24.246  13.154  1.00  0.00    -0.000 C 
BRANCH  16  17
ATOM     17  C   UNL     1       0.881  25.457  14.084  1.00  0.00    -0.000 C 
BRANCH  17  18
ATOM     18  C   UNL     1       2.304  25.559  14.675  1.00  0.00    -0.000 C 
BRANCH  18  19
ATOM     19  C   UNL     1       3.347  26.090  13.678  1.00  0.00    -0.003 C 
ATOM     20  C   UNL     1       4.436  25.072  13.352  1.00  0.00     0.004 C 
ENDBRANCH  18  19
ENDBRANCH  17  18
ENDBRANCH  16  17
ENDBRANCH  15  16
ENDBRANCH  14  15
ENDBRANCH  13  14
ENDBRANCH  12  13
ENDBRANCH   1  12
TORSDOF 16
ENDMDL
